data_PCOD9126923
_publ_section_title
;
Structure prediction by ZEFSAII (Michael W. Deem and Ramdas Pophale) SiO2 
 PCOD9126923
Probable space group: C 2
;
_chemical_formula_sum "Si O2"
_cell_formula_units_Z 22
_cell_length_a 13.917589
_cell_length_b 4.995334
_cell_length_c 14.223340
_cell_angle_alpha 90.000000
_cell_angle_beta 121.012932
_cell_angle_gamma 90.000000
_cell_volume 847.494352
_symmetry_space_group_name_H-M "C 2"
_symmetry_group_IT_number 5
_symmetry_cell_setting 'monoclinic'
loop_
_space_group_symop_operation_xyz
x,y,z
-x,y,-z
1/2+x,1/2+y,z
1/2-x,1/2+y,-z
loop_
_atom_site_type_symbol
_atom_site_label
_atom_site_fract_x
_atom_site_fract_y
_atom_site_fract_z
Si Si1 0.347420 0.510720 0.784802
Si Si2 0.726093 0.982899 0.541983
Si Si3 0.229271 0.588234 0.047823
Si Si4 0.376238 0.280197 0.252838
Si Si5 0.500000 0.161727 0.500000
Si Si6 0.503048 0.034541 0.135528
O O1 0.309200 0.394357 0.665213
O O2 0.231690 0.602417 0.773465
O O3 0.424977 0.769872 0.812594
O O4 0.419776 0.273958 0.864403
O O5 0.752475 0.291377 0.534068
O O6 0.598969 0.977531 0.510488
O O7 0.314458 0.537761 0.176084
O O8 0.103053 0.474299 0.984660
O O9 0.220841 0.891046 0.008179
O O10 0.448216 0.319894 0.384252
O O11 0.449576 0.141717 0.207712
#
# Coordination Sequence:
#
# PCOD9126923 Si02
#       6
#     4   4   4   4   2   4
#     4  11  24  40  67  99 128 175 225 266 331 394
#     4  11  23  41  64  96 135 175 222 269 320 395
#     4  10  22  42  70  97 130 176 220 269 331 390
#     4  10  23  43  67 100 136 171 223 272 322 398
#     4  10  22  42  70  98 134 180 214 270 336 380
#     4  11  23  44  67  94 134 176 217 277 332 378
#
# _framework density 25.958873000000001
#
# number of rings (size 3 to 8) (size 9 to 14) (size 15 to 20)
#    0.000    1.455    0.000    5.455    0.000    5.818 
#    0.000   12.727    0.000    0.000    0.000    0.000 
#    0.000    0.000    0.000    0.000    0.000    0.000 
#
# Total GULP energy -61635.052736 kJ/mol
# GULP energy per Si atom -5603.186612 kJ/mol
# Density = 2.589979 g / cm^3
# Si number density = 25.958873 Si / 1000 Ang^3
#
#
#
# Elastic Constant Matrix: (Units=GPa)
#
#
# Indices 1 2 3 4 5 6 
#
# 1 135.2406 24.8580 45.2445 0.0000 27.8217 0.0001
# 2 24.8580 94.7276 35.2935 0.0000 13.0422 0.0003
# 3 45.2445 35.2935 191.7623 0.0000 15.8229 0.0000
# 4 0.0000 0.0000 0.0000 23.7716 0.0000 7.3772
# 5 27.8217 13.0422 15.8229 0.0000 43.4526 0.0000
# 6 0.0001 0.0003 0.0000 7.3772 0.0000 37.0413
#
#
#
# Elastic Compliance Matrix: (Units=1/GPa)
#
#
# Indices 1 2 3 4 5 6 
#
# 1 0.009136 -0.001144 -0.001537 0.000000 -0.004947 0.000000
# 2 -0.001144 0.011799 -0.001722 0.000000 -0.002182 0.000000
# 3 -0.001537 -0.001722 0.005949 0.000000 -0.000666 0.000000
# 4 0.000000 0.000000 0.000000 0.044838 0.000000 -0.008930
# 5 -0.004947 -0.002182 -0.000666 0.000000 0.027078 0.000000
# 6 0.000000 0.000000 0.000000 -0.008930 0.000000 0.028775
#
#
# Mechanical properties :
#
#
# Convention : Reuss Voigt Hill
#
# Bulk Modulus (GPa) = 55.31147 70.28029 62.79588
# Shear Modulus (GPa) = 35.11060 41.94207 38.52634
#
# Velocity S-wave (km/s) = 3.68169 4.02395 3.85662
# Velocity P-wave (km/s) = 6.27907 6.98012 6.63886
#
# Compressibility (1/GPa) = 0.01807943
#
# Stress axis : x y z
#
# Youngs Moduli (GPa) = 109.45353 84.75587 168.09016
#
# Poissons Ratio (x) = 0.09694 0.25834
# Poissons Ratio (y) = 0.12519 0.28938
# Poissons Ratio (z) = 0.16822 0.14592
#
# Static dielectric constant tensor:
#      x y z
#    x 2.100820 0.000000 -0.093040 
#    y 0.000000 1.923310 0.000000 
#    z -0.093040 0.000000 2.079160 
# 
# From -- ./inp_files/53901.got.cif
#   From: 2010.05.17/outbox.cif.g08.bks.cpg/sg5_27_cif.got.tgz:53901.got - 2010.06.03 18:56:24.
