data_PCOD9126916
_publ_section_title
;
Structure prediction by ZEFSAII (Michael W. Deem and Ramdas Pophale) SiO2 
 PCOD9126916
Probable space group: C 2
;
_chemical_formula_sum "Si O2"
_cell_formula_units_Z 28
_cell_length_a 13.290566
_cell_length_b 6.463325
_cell_length_c 16.506900
_cell_angle_alpha 90.000000
_cell_angle_beta 56.141684
_cell_angle_gamma 90.000000
_cell_volume 1177.502020
_symmetry_space_group_name_H-M "C 2"
_symmetry_group_IT_number 5
_symmetry_cell_setting 'monoclinic'
loop_
_space_group_symop_operation_xyz
x,y,z
-x,y,-z
1/2+x,1/2+y,z
1/2-x,1/2+y,-z
loop_
_atom_site_type_symbol
_atom_site_label
_atom_site_fract_x
_atom_site_fract_y
_atom_site_fract_z
Si Si1 0.500000 0.422240 0.500000
Si Si2 0.414069 0.845966 0.938932
Si Si3 0.822959 0.639237 0.664416
Si Si4 0.650191 0.085038 0.874549
Si Si5 0.859616 0.393588 0.355064
Si Si6 0.292445 0.751274 0.560978
Si Si7 0.000000 0.966778 0.000000
Si Si8 0.357811 0.842005 0.782299
O O1 0.442899 0.272618 0.593486
O O2 0.393307 0.573500 0.521482
O O3 0.543142 0.968511 0.874543
O O4 0.347716 0.849455 0.883662
O O5 0.444377 0.617522 0.957279
O O6 0.344406 0.960068 0.043280
O O7 0.709001 0.770101 0.684701
O O8 0.825619 0.436955 0.605792
O O9 0.814094 0.550957 0.758180
O O10 0.596753 0.312069 0.917729
O O11 0.783033 0.142940 0.783107
O O12 0.832634 0.637996 0.358825
O O13 0.795670 0.331262 0.468194
O O14 0.999068 0.332335 0.299098
#
# Coordination Sequence:
#
# PCOD9126916 Si02
#       8
#     2   4   4   4   4   4   2   4
#     4  10  22  42  70  92 130 186 226 276 352 410
#     4   9  22  46  68  96 137 174 226 281 343 412
#     4  11  25  43  65 105 138 174 236 286 336 416
#     4   9  22  46  67  99 133 179 227 280 337 420
#     4  11  25  43  70 100 136 186 227 288 341 409
#     4  11  22  46  69  92 142 183 228 279 353 412
#     4   8  18  44  74  88 128 182 222 274 342 416
#     4  12  26  40  72 104 135 180 231 285 346 397
#
# _framework density 23.779153000000001
#
# number of rings (size 3 to 8) (size 9 to 14) (size 15 to 20)
#    0.000    2.000    1.429    2.143    8.000    0.000 
#    0.000    8.571    0.000    0.000    0.000    0.000 
#    0.000    0.000    0.000    0.000    0.000    0.000 
#
# Total GULP energy -78356.958393 kJ/mol
# GULP energy per Si atom -5596.925599 kJ/mol
# Density = 2.372503 g / cm^3
# Si number density = 23.779153 Si / 1000 Ang^3
#
#
#
# Elastic Constant Matrix: (Units=GPa)
#
#
# Indices 1 2 3 4 5 6 
#
# 1 86.2397 24.5255 15.3934 0.0000 0.9364 0.0000
# 2 24.5255 120.9634 23.5390 0.0000 1.0946 0.0001
# 3 15.3934 23.5390 43.2341 0.0000 0.7185 0.0000
# 4 0.0000 0.0000 0.0000 37.4636 0.0000 -3.1227
# 5 0.9364 1.0946 0.7185 0.0000 55.9432 0.0000
# 6 0.0000 0.0001 0.0000 -3.1227 0.0000 27.5956
#
#
#
# Elastic Compliance Matrix: (Units=1/GPa)
#
#
# Indices 1 2 3 4 5 6 
#
# 1 0.012764 -0.001905 -0.003506 0.000000 -0.000131 0.000000
# 2 -0.001905 0.009532 -0.004510 0.000000 -0.000097 0.000000
# 3 -0.003506 -0.004510 0.026837 0.000000 -0.000198 0.000000
# 4 0.000000 0.000000 0.000000 0.026947 0.000000 0.003049
# 5 -0.000131 -0.000097 -0.000198 0.000000 0.017882 0.000000
# 6 0.000000 0.000000 0.000000 0.003049 0.000000 0.036583
#
#
# Mechanical properties :
#
#
# Convention : Reuss Voigt Hill
#
# Bulk Modulus (GPa) = 34.13815 41.92812 38.03314
# Shear Modulus (GPa) = 31.22107 36.66577 33.94342
#
# Velocity S-wave (km/s) = 3.62741 3.93100 3.78225
# Velocity P-wave (km/s) = 5.65081 6.18662 5.92477
#
# Compressibility (1/GPa) = 0.02929274
#
# Stress axis : x y z
#
# Youngs Moduli (GPa) = 78.34287 104.91424 37.26241
#
# Poissons Ratio (x) = 0.19982 0.13063
# Poissons Ratio (y) = 0.14922 0.16805
# Poissons Ratio (z) = 0.27464 0.47314
#
# Static dielectric constant tensor:
#      x y z
#    x 1.922650 0.000000 -0.044570 
#    y 0.000000 1.892670 0.000000 
#    z -0.044570 0.000000 1.958420 
# 
# From -- ./inp_files/61052.got.cif
#   From: 2010.05.17/outbox.cif.g08.bks.cpg/sg5_31_cif.got.tgz:61052.got - 2010.06.03 18:56:24.
