data_PCOD9126205
_publ_section_title
;
Structure prediction by ZEFSAII (Michael W. Deem and Ramdas Pophale) SiO2 
 PCOD9126205
Probable space group: C 2
;
_chemical_formula_sum "Si O2"
_cell_formula_units_Z 26
_cell_length_a 20.804137
_cell_length_b 9.602151
_cell_length_c 9.154294
_cell_angle_alpha 90.000000
_cell_angle_beta 50.215999
_cell_angle_gamma 90.000000
_cell_volume 1405.288919
_symmetry_space_group_name_H-M "C 2"
_symmetry_group_IT_number 5
_symmetry_cell_setting 'monoclinic'
loop_
_space_group_symop_operation_xyz
x,y,z
-x,y,-z
1/2+x,1/2+y,z
1/2-x,1/2+y,-z
loop_
_atom_site_type_symbol
_atom_site_label
_atom_site_fract_x
_atom_site_fract_y
_atom_site_fract_z
Si Si1 0.239062 0.930900 0.186659
Si Si2 0.735709 0.716170 0.371148
Si Si3 0.500000 0.543911 0.000000
Si Si4 0.587508 0.218574 0.445260
Si Si5 0.792560 0.481170 0.777660
Si Si6 0.833649 0.191397 0.200704
Si Si7 0.076240 0.769424 0.794835
O O1 0.155065 0.839258 0.318609
O O2 0.310718 0.835883 0.156300
O O3 0.231129 0.072339 0.289448
O O4 0.258911 0.956413 0.988850
O O5 0.698907 0.838880 0.324393
O O6 0.689345 0.704882 0.594498
O O7 0.833433 0.752363 0.262337
O O8 0.427746 0.639418 0.039576
O O9 0.450601 0.433200 0.175182
O O10 0.500000 0.252950 0.500000
O O11 0.579379 0.206142 0.630825
O O12 0.624351 0.073890 0.332540
O O13 0.727394 0.576441 0.781784
O O14 0.000000 0.706883 0.000000
#
# Coordination Sequence:
#
# PCOD9126205 Si02
#       7
#     4   4   2   4   4   4   4
#     4  11  25  40  67  97 130 179 210 267 341 386
#     4  12  21  44  67  96 129 174 222 270 332 391
#     4  10  22  40  66  98 124 162 222 274 324 374
#     4  11  25  44  64  97 131 171 221 268 326 396
#     4  11  23  43  66  91 133 171 216 267 330 397
#     4  11  22  42  67  92 129 170 223 270 320 395
#     4  10  22  38  72  93 124 172 221 274 319 384
#
# _framework density 18.501533999999999
#
# number of rings (size 3 to 8) (size 9 to 14) (size 15 to 20)
#    0.462    0.615    4.615    3.692    6.462    0.000 
#    4.154    0.769    0.000    0.000    0.000    0.000 
#    0.000    0.000    0.000    0.000    0.000    0.000 
#
# Total GULP energy -72573.157018 kJ/mol
# GULP energy per Si atom -5582.550540 kJ/mol
# Density = 1.845942 g / cm^3
# Si number density = 18.501534 Si / 1000 Ang^3
#
#
#
# Elastic Constant Matrix: (Units=GPa)
#
#
# Indices 1 2 3 4 5 6 
#
# 1 79.0965 35.4025 38.7481 0.0000 -7.9611 0.0000
# 2 35.4025 118.0620 37.9501 0.0000 7.1503 0.0000
# 3 38.7481 37.9501 121.0521 0.0000 20.9424 0.0000
# 4 0.0000 0.0000 0.0000 6.4350 0.0000 14.5095
# 5 -7.9611 7.1503 20.9424 0.0000 45.9654 0.0000
# 6 0.0000 0.0000 0.0000 14.5095 0.0000 12.8190
#
#
#
# Elastic Compliance Matrix: (Units=1/GPa)
#
#
# Indices 1 2 3 4 5 6 
#
# 1 0.017721 -0.003916 -0.005516 0.000000 0.006191 0.000000
# 2 -0.003916 0.010285 -0.001712 0.000000 -0.001498 0.000000
# 3 -0.005516 -0.001712 0.011596 0.000000 -0.005973 0.000000
# 4 0.000000 0.000000 0.000000 -0.100121 0.000000 0.113324
# 5 0.006191 -0.001498 -0.005973 0.000000 0.025782 0.000000
# 6 0.000000 0.000000 0.000000 0.113324 0.000000 -0.050259
#
#
# Mechanical properties :
#
#
# Convention : Reuss Voigt Hill
#
# Bulk Modulus (GPa) = 57.75155 60.26802 59.00978
# Shear Modulus (GPa) = -87.81562 26.78453 -30.51555
#
# Velocity S-wave (km/s) = -6.89688 3.80898 -4.06563
# Velocity P-wave (km/s) = 5.66925 7.21039 3.15034
#
# Compressibility (1/GPa) = 0.01731555
#
# Stress axis : x y z
#
# Youngs Moduli (GPa) = 56.43120 97.22592 86.23342
#
# Poissons Ratio (x) = 0.38071 0.47565
# Poissons Ratio (y) = 0.22097 0.14762
# Poissons Ratio (z) = 0.31126 0.16644
#
# Static dielectric constant tensor:
#      x y z
#    x 1.624380 0.000000 -0.016890 
#    y 0.000000 1.646650 0.000000 
#    z -0.016890 0.000000 1.620420 
# 
# From -- ./inp_files/29085.got.cif
#   From: 2010.05.17/outbox.cif.g08.bks.cpg/sg5_15_cif.got.tgz:29085.got - 2010.06.03 18:56:24.
