data_PCOD9126298
_publ_section_title
;
Structure prediction by ZEFSAII (Michael W. Deem and Ramdas Pophale) SiO2 
 PCOD9126298
Probable space group: C 2
;
_chemical_formula_sum "Si O2"
_cell_formula_units_Z 32
_cell_length_a 11.615936
_cell_length_b 8.754241
_cell_length_c 15.747948
_cell_angle_alpha 90.000000
_cell_angle_beta 73.997818
_cell_angle_gamma 90.000000
_cell_volume 1539.336528
_symmetry_space_group_name_H-M "C 2"
_symmetry_group_IT_number 5
_symmetry_cell_setting 'monoclinic'
loop_
_space_group_symop_operation_xyz
x,y,z
-x,y,-z
1/2+x,1/2+y,z
1/2-x,1/2+y,-z
loop_
_atom_site_type_symbol
_atom_site_label
_atom_site_fract_x
_atom_site_fract_y
_atom_site_fract_z
Si Si1 0.838520 0.331840 0.873048
Si Si2 0.957907 0.448023 0.280346
Si Si3 0.808185 0.224762 0.426461
Si Si4 0.345753 0.381192 0.405329
Si Si5 0.263819 0.574523 0.993163
Si Si6 0.054531 0.645961 0.403923
Si Si7 0.928561 0.814874 0.935370
Si Si8 0.848290 0.739301 0.227499
O O1 0.762735 0.482660 0.914554
O O2 0.758739 0.248361 0.818018
O O3 0.966172 0.375945 0.810607
O O4 0.847497 0.218288 0.952011
O O5 0.895587 0.325360 0.352673
O O6 0.863462 0.571834 0.265045
O O7 0.047882 0.540278 0.323431
O O8 0.765178 0.307135 0.521092
O O9 0.686053 0.200753 0.398279
O O10 0.857791 0.055547 0.430351
O O11 0.463659 0.285301 0.405278
O O12 0.328034 0.357113 0.308612
O O13 0.135863 0.663671 0.012289
O O14 0.325625 0.435055 0.928075
O O15 0.000000 0.567850 0.500000
O O16 0.025158 0.775374 0.844456
O O17 0.000000 0.888148 0.000000
#
# Coordination Sequence:
#
# PCOD9126298 Si02
#       8
#     4   4   4   4   4   4   4   4
#     4  11  23  42  64  93 123 162 214 252 314 371
#     4  11  24  40  64  95 127 161 210 261 301 371
#     4  11  22  43  64  93 128 168 206 250 313 365
#     4  10  22  39  67  92 127 168 207 254 306 370
#     4  10  22  40  64  87 118 164 200 255 308 378
#     4   9  20  41  63  91 130 167 207 251 306 360
#     4  11  21  43  66  87 127 160 201 261 315 364
#     4  11  22  41  66  89 127 167 203 260 315 356
#
# _framework density 20.788177999999998
#
# number of rings (size 3 to 8) (size 9 to 14) (size 15 to 20)
#    0.000    1.500    3.750    3.000    1.750    1.000 
#    2.250   13.125    0.000    0.000    0.000    0.000 
#    0.000    0.000    0.000    0.000    0.000    0.000 
#
# Total GULP energy -89175.709205 kJ/mol
# GULP energy per Si atom -5573.481825 kJ/mol
# Density = 2.074086 g / cm^3
# Si number density = 20.788178 Si / 1000 Ang^3
#
#
#
# Elastic Constant Matrix: (Units=GPa)
#
#
# Indices 1 2 3 4 5 6 
#
# 1 36.4791 7.5542 -4.3420 0.0000 -4.2357 0.0000
# 2 7.5542 85.0266 36.9216 0.0000 -11.1217 0.0000
# 3 -4.3420 36.9216 91.2200 0.0000 -14.7393 0.0000
# 4 0.0000 0.0000 0.0000 108.9680 0.0000 -34.5473
# 5 -4.2357 -11.1217 -14.7393 0.0000 30.9647 0.0000
# 6 0.0000 0.0000 0.0000 -34.5473 0.0000 27.6266
#
#
#
# Elastic Compliance Matrix: (Units=1/GPa)
#
#
# Indices 1 2 3 4 5 6 
#
# 1 0.029075 -0.003541 0.003525 0.000000 0.004383 0.000000
# 2 -0.003541 0.014892 -0.005861 0.000000 0.002075 0.000000
# 3 0.003525 -0.005861 0.014343 0.000000 0.005205 0.000000
# 4 0.000000 0.000000 0.000000 0.015205 0.000000 0.019014
# 5 0.004383 0.002075 0.005205 0.000000 0.036117 0.000000
# 6 0.000000 0.000000 0.000000 0.019014 0.000000 0.059975
#
#
# Mechanical properties :
#
#
# Convention : Reuss Voigt Hill
#
# Bulk Modulus (GPa) = 21.47866 32.55480 27.01673
# Shear Modulus (GPa) = 25.39631 45.01798 35.20715
#
# Velocity S-wave (km/s) = 3.49903 4.65860 4.11982
# Velocity P-wave (km/s) = 5.16516 6.68064 5.97118
#
# Compressibility (1/GPa) = 0.04655784
#
# Stress axis : x y z
#
# Youngs Moduli (GPa) = 34.39417 67.15031 69.71801
#
# Poissons Ratio (x) = 0.23775 -0.24577
# Poissons Ratio (y) = 0.12177 0.40861
# Poissons Ratio (z) = -0.12125 0.39356
#
# Static dielectric constant tensor:
#      x y z
#    x 1.704950 0.000000 -0.031310 
#    y 0.000000 1.760750 0.000000 
#    z -0.031310 0.000000 1.703750 
# 
# From -- ./inp_files/54179.got.cif
#   From: 2010.05.17/outbox.cif.g08.bks.cpg/sg5_28_cif.got.tgz:54179.got - 2010.06.03 18:56:24.
