data_PCOD9126601
_publ_section_title
;
Structure prediction by ZEFSAII (Michael W. Deem and Ramdas Pophale) SiO2 
 PCOD9126601
Probable space group: C 2
;
_chemical_formula_sum "Si O2"
_cell_formula_units_Z 28
_cell_length_a 11.713596
_cell_length_b 7.804898
_cell_length_c 14.709103
_cell_angle_alpha 90.000000
_cell_angle_beta 110.171017
_cell_angle_gamma 90.000000
_cell_volume 1262.279347
_symmetry_space_group_name_H-M "C 2"
_symmetry_group_IT_number 5
_symmetry_cell_setting 'monoclinic'
loop_
_space_group_symop_operation_xyz
x,y,z
-x,y,-z
1/2+x,1/2+y,z
1/2-x,1/2+y,-z
loop_
_atom_site_type_symbol
_atom_site_label
_atom_site_fract_x
_atom_site_fract_y
_atom_site_fract_z
Si Si1 0.000000 0.227260 0.500000
Si Si2 0.624416 0.539258 0.822051
Si Si3 0.374044 0.055507 0.968731
Si Si4 0.924587 0.187172 0.891679
Si Si5 0.149817 0.628809 0.835858
Si Si6 0.550691 0.983896 0.356238
Si Si7 0.319959 0.486135 0.370342
Si Si8 0.000000 0.721194 0.500000
O O1 0.007162 0.329790 0.408032
O O2 0.123431 0.118651 0.541928
O O3 0.745929 0.622633 0.898435
O O4 0.508407 0.639186 0.829339
O O5 0.622261 0.333422 0.844487
O O6 0.643401 0.544569 0.719912
O O7 0.400727 0.886120 0.914617
O O8 0.500000 0.160766 0.000000
O O9 0.355309 0.028273 0.070398
O O10 0.789023 0.116489 0.841024
O O11 0.000000 0.117459 0.000000
O O12 0.052333 0.550604 0.740257
O O13 0.572285 0.121297 0.442194
O O14 0.677181 0.956120 0.339642
O O15 0.398689 0.320915 0.415635
#
# Coordination Sequence:
#
# PCOD9126601 Si02
#       8
#     2   4   4   4   4   4   4   2
#     4  10  26  42  66 106 132 182 228 268 356 400
#     4  11  23  42  69 103 133 183 228 273 342 400
#     4  10  22  41  64  97 138 175 221 277 334 396
#     4  10  22  43  66  95 143 179 221 280 329 400
#     4  11  23  42  68 102 132 181 228 274 337 399
#     4  11  23  45  69 104 136 174 230 285 332 405
#     4  11  23  44  70  99 138 179 223 281 344 401
#     4  10  22  46  70  96 140 176 224 286 344 394
#
# _framework density 22.182096000000001
#
# number of rings (size 3 to 8) (size 9 to 14) (size 15 to 20)
#    0.000    1.429    2.857    1.714    0.000    6.286 
#   10.286    0.000    0.000    0.000    0.000    0.000 
#    0.000    0.000    0.000    0.000    0.000    0.000 
#
# Total GULP energy -78145.346303 kJ/mol
# GULP energy per Si atom -5581.810450 kJ/mol
# Density = 2.213161 g / cm^3
# Si number density = 22.182096 Si / 1000 Ang^3
#
#
#
# Elastic Constant Matrix: (Units=GPa)
#
#
# Indices 1 2 3 4 5 6 
#
# 1 178.9624 22.9350 23.8310 0.0000 3.5105 0.0000
# 2 22.9350 49.4834 3.6585 0.0000 -1.8592 0.0000
# 3 23.8310 3.6585 96.2021 0.0000 -3.5802 0.0000
# 4 0.0000 0.0000 0.0000 17.5639 0.0000 -40.9001
# 5 3.5105 -1.8592 -3.5802 0.0000 45.5070 0.0000
# 6 0.0000 0.0000 0.0000 -40.9001 0.0000 -98.7802
#
#
#
# Elastic Compliance Matrix: (Units=1/GPa)
#
#
# Indices 1 2 3 4 5 6 
#
# 1 0.006149 -0.002769 -0.001444 0.000000 -0.000701 0.000000
# 2 -0.002769 0.021540 -0.000093 0.000000 0.001086 0.000000
# 3 -0.001444 -0.000093 0.010792 0.000000 0.000957 0.000000
# 4 0.000000 0.000000 0.000000 0.028987 0.000000 -0.012002
# 5 -0.000701 0.001086 0.000957 0.000000 0.022148 0.000000
# 6 0.000000 0.000000 0.000000 -0.012002 0.000000 -0.005154
#
#
# Mechanical properties :
#
#
# Convention : Reuss Voigt Hill
#
# Bulk Modulus (GPa) = 33.48031 47.27742 40.37886
# Shear Modulus (GPa) = 48.52979 11.13969 29.83474
#
# Velocity S-wave (km/s) = 4.68246 2.24340 3.67139
# Velocity P-wave (km/s) = 6.66033 5.29812 6.01789
#
# Compressibility (1/GPa) = 0.02986831
#
# Stress axis : x y z
#
# Youngs Moduli (GPa) = 162.63566 46.42511 92.66472
#
# Poissons Ratio (x) = 0.12857 0.13380
# Poissons Ratio (y) = 0.45041 0.00859
# Poissons Ratio (z) = 0.23483 0.00430
#
# Static dielectric constant tensor:
#      x y z
#    x 1.998340 0.000000 0.042300 
#    y 0.000000 1.920050 0.000000 
#    z 0.042300 0.000000 1.779980 
# 
# From -- ./inp_files/52323.got.cif
#   From: 2010.05.17/outbox.cif.g08.bks.cpg/sg5_27_cif.got.tgz:52323.got - 2010.06.03 18:56:24.
