data_PCOD9126994
_publ_section_title
;
Structure prediction by ZEFSAII (Michael W. Deem and Ramdas Pophale) SiO2 
 PCOD9126994
Probable space group: C 2
;
_chemical_formula_sum "Si O2"
_cell_formula_units_Z 24
_cell_length_a 7.152605
_cell_length_b 8.528038
_cell_length_c 17.105463
_cell_angle_alpha 90.000000
_cell_angle_beta 59.466818
_cell_angle_gamma 90.000000
_cell_volume 898.711583
_symmetry_space_group_name_H-M "C 2"
_symmetry_group_IT_number 5
_symmetry_cell_setting 'monoclinic'
loop_
_space_group_symop_operation_xyz
x,y,z
-x,y,-z
1/2+x,1/2+y,z
1/2-x,1/2+y,-z
loop_
_atom_site_type_symbol
_atom_site_label
_atom_site_fract_x
_atom_site_fract_y
_atom_site_fract_z
Si Si1 0.887206 0.198440 0.867645
Si Si2 0.253986 0.520575 0.026661
Si Si3 0.536425 0.855489 0.693001
Si Si4 0.162508 0.155603 0.531380
Si Si5 0.040638 0.856829 0.636195
Si Si6 0.391723 0.175974 0.799589
O O1 0.787617 0.347014 0.934081
O O2 0.901788 0.227182 0.772269
O O3 0.139897 0.206774 0.836976
O O4 0.764630 0.050081 0.931626
O O5 0.096482 0.632612 0.111456
O O6 0.500000 0.558540 0.000000
O O7 0.550743 0.799228 0.601238
O O8 0.788199 0.869390 0.666390
O O9 0.440244 0.020708 0.738623
O O10 0.364459 0.223026 0.441289
O O11 0.000000 0.093751 0.500000
O O12 0.175526 0.013918 0.589679
O O13 0.036107 0.809162 0.728372
#
# Coordination Sequence:
#
# PCOD9126994 Si02
#       6
#     4   4   4   4   4   4
#     4   9  19  36  62  88 121 160 197 246 298 354
#     4   9  18  36  58  87 122 157 199 245 295 353
#     4  10  22  43  63  87 122 160 203 249 298 354
#     4  12  25  39  60  89 120 157 202 253 303 357
#     4  11  23  41  62  88 121 159 201 249 302 357
#     4   9  19  39  63  87 121 159 197 246 299 355
#
# _framework density 26.704896000000002
#
# number of rings (size 3 to 8) (size 9 to 14) (size 15 to 20)
#    0.000    2.000    0.000    3.500    0.000    5.333 
#    0.000   21.667    0.000    0.000    0.000    0.000 
#    0.000    0.000    0.000    0.000    0.000    0.000 
#
# Total GULP energy -67185.971560 kJ/mol
# GULP energy per Si atom -5598.830963 kJ/mol
# Density = 2.664411 g / cm^3
# Si number density = 26.704896 Si / 1000 Ang^3
#
#
#
# Elastic Constant Matrix: (Units=GPa)
#
#
# Indices 1 2 3 4 5 6 
#
# 1 53.9430 -0.7100 24.3539 0.0000 0.7904 0.0000
# 2 -0.7100 62.3132 55.1189 0.0000 -13.1034 0.0000
# 3 24.3539 55.1189 196.7897 0.0000 -8.1389 0.0000
# 4 0.0000 0.0000 0.0000 83.5171 0.0000 -5.1419
# 5 0.7904 -13.1034 -8.1389 0.0000 34.9166 0.0000
# 6 0.0000 0.0000 0.0000 -5.1419 0.0000 24.1661
#
#
#
# Elastic Compliance Matrix: (Units=1/GPa)
#
#
# Indices 1 2 3 4 5 6 
#
# 1 0.020113 0.003223 -0.003393 0.000000 -0.000037 0.000000
# 2 0.003223 0.023512 -0.006687 0.000000 0.007192 0.000000
# 3 -0.003393 -0.006687 0.007345 0.000000 -0.000721 0.000000
# 4 0.000000 0.000000 0.000000 0.012133 0.000000 0.002581
# 5 -0.000037 0.007192 -0.000721 0.000000 0.031171 0.000000
# 6 0.000000 0.000000 0.000000 0.002581 0.000000 0.041930
#
#
# Mechanical properties :
#
#
# Convention : Reuss Voigt Hill
#
# Bulk Modulus (GPa) = 26.84190 52.28572 39.56381
# Shear Modulus (GPa) = 30.80033 44.13884 37.46958
#
# Velocity S-wave (km/s) = 3.39980 4.06992 3.74986
# Velocity P-wave (km/s) = 5.04823 6.45811 5.79620
#
# Compressibility (1/GPa) = 0.03725519
#
# Stress axis : x y z
#
# Youngs Moduli (GPa) = 49.71887 42.53173 136.15366
#
# Poissons Ratio (x) = -0.13708 0.46202
# Poissons Ratio (y) = -0.16025 0.91044
# Poissons Ratio (z) = 0.16872 0.28440
#
# Static dielectric constant tensor:
#      x y z
#    x 2.086320 0.000000 0.035950 
#    y 0.000000 2.092860 0.000000 
#    z 0.035950 0.000000 2.047790 
# 
# From -- ./inp_files/49927.got.cif
#   From: 2010.05.17/outbox.cif.g08.bks.cpg/sg5_25_cif.got.tgz:49927.got - 2010.06.03 18:56:24.
