data_PCOD9126362
_publ_section_title
;
Structure prediction by ZEFSAII (Michael W. Deem and Ramdas Pophale) SiO2 
 PCOD9126362
Probable space group: C 2
;
_chemical_formula_sum "Si O2"
_cell_formula_units_Z 24
_cell_length_a 12.735585
_cell_length_b 7.882865
_cell_length_c 12.196603
_cell_angle_alpha 90.000000
_cell_angle_beta 101.085868
_cell_angle_gamma 90.000000
_cell_volume 1201.604178
_symmetry_space_group_name_H-M "C 2"
_symmetry_group_IT_number 5
_symmetry_cell_setting 'monoclinic'
loop_
_space_group_symop_operation_xyz
x,y,z
-x,y,-z
1/2+x,1/2+y,z
1/2-x,1/2+y,-z
loop_
_atom_site_type_symbol
_atom_site_label
_atom_site_fract_x
_atom_site_fract_y
_atom_site_fract_z
Si Si1 0.336525 0.859180 0.374453
Si Si2 0.540988 0.361400 0.882938
Si Si3 0.000000 0.598333 0.500000
Si Si4 0.000000 0.107857 0.500000
Si Si5 0.119377 0.195187 0.979441
Si Si6 0.405989 0.346366 0.644276
Si Si7 0.313624 0.032952 0.133922
O O1 0.423539 0.710980 0.401992
O O2 0.218302 0.799902 0.381186
O O3 0.327354 0.954544 0.256926
O O4 0.391802 0.991465 0.468298
O O5 0.607826 0.537991 0.891273
O O6 0.446797 0.375602 0.775258
O O7 0.605725 0.189037 0.872293
O O8 0.500000 0.352065 0.000000
O O9 0.983764 0.708506 0.604902
O O10 0.076402 0.002233 0.434923
O O11 0.165672 0.370031 0.940508
O O12 0.000000 0.228572 0.000000
O O13 0.198440 0.116997 0.086432
#
# Coordination Sequence:
#
# PCOD9126362 Si02
#       7
#     4   4   2   2   4   4   4
#     4  11  22  40  65  93 125 167 214 272 320 382
#     4  11  23  43  68  99 134 176 220 267 330 396
#     4  10  22  40  62  92 126 162 218 260 324 390
#     4  10  24  42  66  98 126 164 224 266 324 390
#     4  11  24  42  63  94 134 175 218 265 322 396
#     4  11  22  42  65  92 129 170 209 269 330 379
#     4  12  23  42  67  96 134 176 220 269 328 387
#
# _framework density 19.973299999999998
#
# number of rings (size 3 to 8) (size 9 to 14) (size 15 to 20)
#    0.000    1.000    3.333    4.500    0.000    0.000 
#    0.000    0.000    0.000    0.000    0.000    0.000 
#    0.000    0.000    0.000    0.000    0.000    0.000 
#
# Total GULP energy -66921.872034 kJ/mol
# GULP energy per Si atom -5576.822670 kJ/mol
# Density = 1.992784 g / cm^3
# Si number density = 19.973300 Si / 1000 Ang^3
#
#
#
# Elastic Constant Matrix: (Units=GPa)
#
#
# Indices 1 2 3 4 5 6 
#
# 1 87.4399 14.7380 18.3688 0.0000 15.4695 0.0000
# 2 14.7380 72.2701 1.7144 0.0000 1.6273 0.0000
# 3 18.3688 1.7144 95.2602 0.0000 13.2898 0.0000
# 4 0.0000 0.0000 0.0000 6.4690 0.0000 34.4769
# 5 15.4695 1.6273 13.2898 0.0000 35.6608 0.0000
# 6 0.0000 0.0000 0.0000 34.4769 0.0000 -17.8805
#
#
#
# Elastic Compliance Matrix: (Units=1/GPa)
#
#
# Indices 1 2 3 4 5 6 
#
# 1 0.013106 -0.002520 -0.001798 0.000000 -0.004900 0.000000
# 2 -0.002520 0.014338 0.000176 0.000000 0.000373 0.000000
# 3 -0.001798 0.000176 0.011322 0.000000 -0.003447 0.000000
# 4 0.000000 0.000000 0.000000 0.013709 0.000000 0.026433
# 5 -0.004900 0.000373 -0.003447 0.000000 0.031435 0.000000
# 6 0.000000 0.000000 0.000000 0.026433 0.000000 -0.004960
#
#
# Mechanical properties :
#
#
# Convention : Reuss Voigt Hill
#
# Bulk Modulus (GPa) = 32.80637 36.06808 34.43723
# Shear Modulus (GPa) = 51.33717 19.52646 35.43182
#
# Velocity S-wave (km/s) = 5.07530 3.13010 4.21641
# Velocity P-wave (km/s) = 7.12781 5.58218 6.40181
#
# Compressibility (1/GPa) = 0.03048188
#
# Stress axis : x y z
#
# Youngs Moduli (GPa) = 76.30217 69.74359 88.32299
#
# Poissons Ratio (x) = 0.17573 0.15882
# Poissons Ratio (y) = 0.19226 -0.01552
# Poissons Ratio (z) = 0.13721 -0.01226
#
# Static dielectric constant tensor:
#      x y z
#    x 1.721450 0.000000 0.002900 
#    y 0.000000 1.742300 0.000000 
#    z 0.002900 0.000000 1.706110 
# 
# From -- ./inp_files/38289.got.cif
#   From: 2010.05.17/outbox.cif.g08.bks.cpg/sg5_20_cif.got.tgz:38289.got - 2010.06.03 18:56:24.
