data_PCOD9126302
_publ_section_title
;
Structure prediction by ZEFSAII (Michael W. Deem and Ramdas Pophale) SiO2 
 PCOD9126302
Probable space group: C 2
;
_chemical_formula_sum "Si O2"
_cell_formula_units_Z 32
_cell_length_a 23.075746
_cell_length_b 7.592443
_cell_length_c 14.486376
_cell_angle_alpha 90.000000
_cell_angle_beta 32.331030
_cell_angle_gamma 90.000000
_cell_volume 1357.364850
_symmetry_space_group_name_H-M "C 2"
_symmetry_group_IT_number 5
_symmetry_cell_setting 'monoclinic'
loop_
_space_group_symop_operation_xyz
x,y,z
-x,y,-z
1/2+x,1/2+y,z
1/2-x,1/2+y,-z
loop_
_atom_site_type_symbol
_atom_site_label
_atom_site_fract_x
_atom_site_fract_y
_atom_site_fract_z
Si Si1 0.674204 0.072390 0.344479
Si Si2 0.102692 0.954979 0.471316
Si Si3 0.593388 0.094726 0.806209
Si Si4 0.862173 0.999279 0.771091
Si Si5 0.876002 0.183424 0.180705
Si Si6 0.533588 0.943045 0.693970
Si Si7 0.836187 0.586332 0.845889
Si Si8 0.329702 0.627172 0.443733
O O1 0.600648 0.248344 0.452061
O O2 0.795886 0.132717 0.205500
O O3 0.623078 0.955084 0.492609
O O4 0.665285 0.000181 0.253580
O O5 0.169637 0.028175 0.293487
O O6 0.986699 0.047418 0.619170
O O7 0.144936 0.974861 0.517542
O O8 0.619328 0.895996 0.809920
O O9 0.549809 0.070544 0.760336
O O10 0.710056 0.188530 0.638463
O O11 0.500000 0.167461 0.000000
O O12 0.861192 0.791059 0.795285
O O13 0.780164 0.086395 0.950401
O O14 0.824201 0.097026 0.342233
O O15 0.000000 0.126324 0.000000
O O16 0.420171 0.987542 0.799422
O O17 0.565496 0.753907 0.691371
#
# Coordination Sequence:
#
# PCOD9126302 Si02
#       8
#     4   4   4   4   4   4   4   4
#     4  11  21  44  66  89 134 179 211 259 337 401
#     4  10  22  42  67  86 129 173 221 254 328 396
#     4  10  22  41  67  96 129 172 216 271 335 391
#     4  10  24  42  64  96 126 175 216 272 321 393
#     4  10  22  39  67  99 130 171 219 269 327 398
#     4  11  24  42  65  95 137 169 217 277 336 384
#     4  11  25  41  68  95 131 175 223 269 332 388
#     4  11  23  39  69  99 126 173 225 277 320 390
#
# _framework density 23.575092000000001
#
# number of rings (size 3 to 8) (size 9 to 14) (size 15 to 20)
#    0.000    1.500    3.750    0.375    5.250    3.000 
#    2.250    0.625    0.000    0.000    0.000    0.000 
#    0.000    0.000    0.000    0.000    0.000    0.000 
#
# Total GULP energy -89342.832265 kJ/mol
# GULP energy per Si atom -5583.927017 kJ/mol
# Density = 2.352143 g / cm^3
# Si number density = 23.575092 Si / 1000 Ang^3
#
#
#
# Elastic Constant Matrix: (Units=GPa)
#
#
# Indices 1 2 3 4 5 6 
#
# 1 122.0762 11.1835 33.7394 -0.0004 -4.2073 0.0001
# 2 11.1835 29.3611 1.7935 -0.0020 0.5638 0.0011
# 3 33.7394 1.7935 142.0808 -0.0012 -2.9764 0.0007
# 4 -0.0004 -0.0020 -0.0012 24.6739 0.0008 0.6539
# 5 -4.2073 0.5638 -2.9764 0.0008 38.4158 -0.0003
# 6 0.0001 0.0011 0.0007 0.6539 -0.0003 26.7812
#
#
#
# Elastic Compliance Matrix: (Units=1/GPa)
#
#
# Indices 1 2 3 4 5 6 
#
# 1 0.009111 -0.003359 -0.002103 0.000000 0.000884 0.000000
# 2 -0.003359 0.035334 0.000334 0.000003 -0.000861 -0.000001
# 3 -0.002103 0.000334 0.007541 0.000000 0.000349 0.000000
# 4 0.000000 0.000003 0.000000 0.040555 -0.000001 -0.000990
# 5 0.000884 -0.000861 0.000349 -0.000001 0.026167 0.000000
# 6 0.000000 -0.000001 0.000000 -0.000990 0.000000 0.037364
#
#
# Mechanical properties :
#
#
# Convention : Reuss Voigt Hill
#
# Bulk Modulus (GPa) = 23.96358 42.99453 33.47905
# Shear Modulus (GPa) = 27.74115 34.42764 31.08439
#
# Velocity S-wave (km/s) = 3.43405 3.82558 3.63509
# Velocity P-wave (km/s) = 5.09023 6.14738 5.64361
#
# Compressibility (1/GPa) = 0.04173000
#
# Stress axis : x y z
#
# Youngs Moduli (GPa) = 109.75856 28.30118 132.61451
#
# Poissons Ratio (x) = 0.09506 0.27884
# Poissons Ratio (y) = 0.36866 -0.04424
# Poissons Ratio (z) = 0.23078 -0.00944
#
# Static dielectric constant tensor:
#      x y z
#    x 1.963600 0.000000 0.015010 
#    y 0.000000 1.970760 0.000000 
#    z 0.015010 0.000000 1.874950 
# 
# From -- ./inp_files/57678.got.cif
#   From: 2010.05.17/outbox.cif.g08.bks.cpg/sg5_29_cif.got.tgz:57678.got - 2010.06.03 18:56:24.
