data_PCOD9126290
_publ_section_title
;
Structure prediction by ZEFSAII (Michael W. Deem and Ramdas Pophale) SiO2 
 PCOD9126290
Probable space group: C 2
;
_chemical_formula_sum "Si O2"
_cell_formula_units_Z 24
_cell_length_a 15.432889
_cell_length_b 11.457778
_cell_length_c 15.044549
_cell_angle_alpha 90.000000
_cell_angle_beta 27.330245
_cell_angle_gamma 90.000000
_cell_volume 1221.382428
_symmetry_space_group_name_H-M "C 2"
_symmetry_group_IT_number 5
_symmetry_cell_setting 'monoclinic'
loop_
_space_group_symop_operation_xyz
x,y,z
-x,y,-z
1/2+x,1/2+y,z
1/2-x,1/2+y,-z
loop_
_atom_site_type_symbol
_atom_site_label
_atom_site_fract_x
_atom_site_fract_y
_atom_site_fract_z
Si Si1 0.028434 0.704020 0.243563
Si Si2 0.500000 0.602897 0.500000
Si Si3 0.760522 0.795151 0.330414
Si Si4 0.457423 0.946215 0.331746
Si Si5 0.656076 0.541209 0.039258
Si Si6 0.577607 0.439937 0.592941
Si Si7 0.000000 0.975463 0.000000
O O1 0.911315 0.742937 0.263395
O O2 0.940644 0.585865 0.366285
O O3 0.014964 0.812636 0.321377
O O4 0.237992 0.659400 0.029150
O O5 0.675877 0.689790 0.350994
O O6 0.506140 0.520329 0.579584
O O7 0.602156 0.860649 0.534682
O O8 0.852105 0.890814 0.183538
O O9 0.303813 0.925382 0.394190
O O10 0.678105 0.942455 0.105678
O O11 0.488535 0.502864 0.255577
O O12 0.593768 0.547480 0.994045
#
# Coordination Sequence:
#
# PCOD9126290 Si02
#       7
#     4   2   4   4   4   4   2
#     4   9  21  43  62  91 128 168 205 261 314 377
#     4  12  24  38  66  96 124 176 202 268 326 364
#     4  11  22  38  66  98 125 164 219 261 309 385
#     4   9  20  43  62  92 125 167 206 255 321 368
#     4  10  22  39  66  89 127 163 210 261 313 369
#     4  11  22  44  61  96 131 164 210 261 322 375
#     4  12  22  38  66 100 122 158 226 264 302 380
#
# _framework density 19.649864999999998
#
# number of rings (size 3 to 8) (size 9 to 14) (size 15 to 20)
#    1.000    0.667    5.000    1.000    2.333    1.333 
#    3.000    0.000    3.667    0.000    0.000    0.000 
#    0.000    0.000    0.000    0.000    0.000    0.000 
#
# Total GULP energy -66863.216292 kJ/mol
# GULP energy per Si atom -5571.934691 kJ/mol
# Density = 1.960514 g / cm^3
# Si number density = 19.649865 Si / 1000 Ang^3
#
#
#
# Elastic Constant Matrix: (Units=GPa)
#
#
# Indices 1 2 3 4 5 6 
#
# 1 95.1261 2.4380 17.7562 0.0000 -0.2174 0.0001
# 2 2.4380 49.5457 -19.9160 -0.0001 -1.9896 0.0001
# 3 17.7562 -19.9160 29.6960 -0.0001 -7.1417 0.0000
# 4 0.0000 -0.0001 -0.0001 21.9949 0.0001 -3.6733
# 5 -0.2174 -1.9896 -7.1417 0.0001 22.0799 -0.0001
# 6 0.0001 0.0001 0.0000 -3.6733 -0.0001 32.5367
#
#
#
# Elastic Compliance Matrix: (Units=1/GPa)
#
#
# Indices 1 2 3 4 5 6 
#
# 1 0.013082 -0.006051 -0.012991 0.000000 -0.004618 0.000000
# 2 -0.006051 0.032270 0.028134 0.000000 0.011948 0.000000
# 3 -0.012991 0.028134 0.066025 0.000000 0.023763 0.000000
# 4 0.000000 0.000000 0.000000 0.046339 0.000000 0.005232
# 5 -0.004618 0.011948 0.023763 0.000000 0.054007 0.000000
# 6 0.000000 0.000000 0.000000 0.005232 0.000000 0.031325
#
#
# Mechanical properties :
#
#
# Convention : Reuss Voigt Hill
#
# Bulk Modulus (GPa) = 7.71841 19.43602 13.57721
# Shear Modulus (GPa) = 18.65311 26.92828 22.79070
#
# Velocity S-wave (km/s) = 3.08437 3.70591 3.40934
# Velocity P-wave (km/s) = 4.07688 5.31266 4.73526
#
# Compressibility (1/GPa) = 0.12956044
#
# Stress axis : x y z
#
# Youngs Moduli (GPa) = 76.44211 30.98859 15.14568
#
# Poissons Ratio (x) = 0.18752 0.19676
# Poissons Ratio (y) = 0.46257 -0.42611
# Poissons Ratio (z) = 0.99306 -0.87183
#
# Static dielectric constant tensor:
#      x y z
#    x 1.688100 0.000000 -0.037350 
#    y 0.000000 1.688500 0.000000 
#    z -0.037350 0.000000 1.714910 
# 
# From -- ./inp_files/23146.got.cif
#   From: 2010.05.17/outbox.cif.g08.bks.cpg/sg5_12_cif.got.tgz:23146.got - 2010.06.03 18:56:24.
