data_PCOD9126390
_publ_section_title
;
Structure prediction by ZEFSAII (Michael W. Deem and Ramdas Pophale) SiO2 
 PCOD9126390
Probable space group: C 2
;
_chemical_formula_sum "Si O2"
_cell_formula_units_Z 28
_cell_length_a 30.283272
_cell_length_b 8.530715
_cell_length_c 9.842769
_cell_angle_alpha 90.000000
_cell_angle_beta 34.042274
_cell_angle_gamma 90.000000
_cell_volume 1423.448816
_symmetry_space_group_name_H-M "C 2"
_symmetry_group_IT_number 5
_symmetry_cell_setting 'monoclinic'
loop_
_space_group_symop_operation_xyz
x,y,z
-x,y,-z
1/2+x,1/2+y,z
1/2-x,1/2+y,-z
loop_
_atom_site_type_symbol
_atom_site_label
_atom_site_fract_x
_atom_site_fract_y
_atom_site_fract_z
Si Si1 0.068130 0.896350 0.419117
Si Si2 0.927139 0.334178 0.790785
Si Si3 0.970369 0.356161 0.222860
Si Si4 0.859068 0.679377 0.002613
Si Si5 0.786709 0.329688 0.742386
Si Si6 0.989632 0.726176 0.870994
Si Si7 0.197634 0.128971 0.042296
O O1 0.099592 0.767184 0.231030
O O2 0.037150 0.821706 0.636114
O O3 0.000000 0.976519 0.500000
O O4 0.137764 0.014473 0.273925
O O5 0.880834 0.498055 0.928611
O O6 0.860159 0.214868 0.914665
O O7 0.000000 0.358777 0.500000
O O8 0.972136 0.283349 0.811808
O O9 0.879151 0.318585 0.478525
O O10 0.981687 0.544997 0.207293
O O11 0.000000 0.309137 0.000000
O O12 0.900792 0.729480 0.036955
O O13 0.768949 0.734224 0.219293
O O14 0.770191 0.253365 0.932455
O O15 0.760592 0.511976 0.815011
O O16 0.000000 0.779442 0.000000
#
# Coordination Sequence:
#
# PCOD9126390 Si02
#       7
#     4   4   4   4   4   4   4
#     4   9  18  33  57  88 118 150 199 251 294 350
#     4  11  19  37  64  90 119 161 213 242 293 369
#     4  10  22  40  64  88 124 167 204 243 303 375
#     4   9  19  35  60  87 119 155 194 255 302 349
#     4  11  23  38  60  90 129 152 205 256 316 346
#     4   9  18  36  63  87 117 164 205 235 296 375
#     4  11  23  34  61  92 120 156 202 263 306 343
#
# _framework density 19.670535999999998
#
# number of rings (size 3 to 8) (size 9 to 14) (size 15 to 20)
#    0.000    2.000    1.429    3.429    4.000    0.000 
#    0.000    5.000    6.286    0.000    0.000    0.000 
#    0.000    0.000    0.000    0.000    0.000    0.000 
#
# Total GULP energy -78115.339768 kJ/mol
# GULP energy per Si atom -5579.667126 kJ/mol
# Density = 1.962577 g / cm^3
# Si number density = 19.670536 Si / 1000 Ang^3
#
#
#
# Elastic Constant Matrix: (Units=GPa)
#
#
# Indices 1 2 3 4 5 6 
#
# 1 181.6151 48.7495 59.5325 0.0000 -4.9387 0.0000
# 2 48.7495 55.4266 25.5788 0.0000 -10.4166 0.0000
# 3 59.5325 25.5788 43.9894 0.0000 -8.8309 0.0000
# 4 0.0000 0.0000 0.0000 14.1273 0.0000 -7.7129
# 5 -4.9387 -10.4166 -8.8309 0.0000 39.3874 0.0000
# 6 0.0000 0.0000 0.0000 -7.7129 0.0000 35.0193
#
#
#
# Elastic Compliance Matrix: (Units=1/GPa)
#
#
# Indices 1 2 3 4 5 6 
#
# 1 0.010638 -0.004040 -0.012560 0.000000 -0.002551 0.000000
# 2 -0.004040 0.026652 -0.009128 0.000000 0.004495 0.000000
# 3 -0.012560 -0.009128 0.046323 0.000000 0.006397 0.000000
# 4 0.000000 0.000000 0.000000 0.080460 0.000000 0.017721
# 5 -0.002551 0.004495 0.006397 0.000000 0.027692 0.000000
# 6 0.000000 0.000000 0.000000 0.017721 0.000000 0.032459
#
#
# Mechanical properties :
#
#
# Convention : Reuss Voigt Hill
#
# Bulk Modulus (GPa) = 31.09703 60.97252 46.03478
# Shear Modulus (GPa) = 17.45812 27.51815 22.48814
#
# Velocity S-wave (km/s) = 2.98237 3.74432 3.38485
# Velocity P-wave (km/s) = 5.26333 7.05389 6.22334
#
# Compressibility (1/GPa) = 0.03215741
#
# Stress axis : x y z
#
# Youngs Moduli (GPa) = 93.99962 37.52029 21.58749
#
# Poissons Ratio (x) = 0.15157 0.27115
# Poissons Ratio (y) = 0.37972 0.19705
# Poissons Ratio (z) = 1.18067 0.34249
#
# Static dielectric constant tensor:
#      x y z
#    x 1.716560 0.000000 -0.024120 
#    y 0.000000 1.727370 0.000000 
#    z -0.024120 0.000000 1.677970 
# 
# From -- ./inp_files/31729.got.cif
#   From: 2010.05.17/outbox.cif.g08.bks.cpg/sg5_16_cif.got.tgz:31729.got - 2010.06.03 18:56:24.
