data_PCOD9126741
_publ_section_title
;
Structure prediction by ZEFSAII (Michael W. Deem and Ramdas Pophale) SiO2 
 PCOD9126741
Probable space group: C 2
;
_chemical_formula_sum "Si O2"
_cell_formula_units_Z 24
_cell_length_a 9.424323
_cell_length_b 11.020403
_cell_length_c 11.674612
_cell_angle_alpha 90.000000
_cell_angle_beta 120.142458
_cell_angle_gamma 90.000000
_cell_volume 1048.565355
_symmetry_space_group_name_H-M "C 2"
_symmetry_group_IT_number 5
_symmetry_cell_setting 'monoclinic'
loop_
_space_group_symop_operation_xyz
x,y,z
-x,y,-z
1/2+x,1/2+y,z
1/2-x,1/2+y,-z
loop_
_atom_site_type_symbol
_atom_site_label
_atom_site_fract_x
_atom_site_fract_y
_atom_site_fract_z
Si Si1 0.073167 0.017830 0.334027
Si Si2 0.200067 0.562841 0.175661
Si Si3 0.000000 0.437730 0.500000
Si Si4 0.500000 0.373128 0.500000
Si Si5 0.786579 0.834296 0.764772
Si Si6 0.647049 0.150328 0.683452
Si Si7 0.135373 0.504330 0.887060
O O1 0.200590 0.116357 0.338114
O O2 0.889708 0.056980 0.285251
O O3 0.074309 0.919552 0.232396
O O4 0.122680 0.953319 0.473173
O O5 0.153330 0.700930 0.186050
O O6 0.061088 0.484856 0.182081
O O7 0.190419 0.529662 0.038266
O O8 0.856228 0.351252 0.391654
O O9 0.988765 0.543579 0.396618
O O10 0.584960 0.281490 0.624026
O O11 0.717865 0.893205 0.853315
O O12 0.684718 0.121592 0.829733
#
# Coordination Sequence:
#
# PCOD9126741 Si02
#       7
#     4   4   2   2   4   4   4
#     4  10  24  37  59  94 116 153 207 237 286 364
#     4  11  23  39  63  91 117 154 202 246 289 349
#     4   7  16  35  58  82 110 153 196 221 284 356
#     4  11  22  37  62  90 124 153 188 251 300 340
#     4  10  22  42  63  83 123 163 186 245 302 339
#     4   9  20  40  61  84 122 162 191 240 298 348
#     4   9  22  42  60  86 121 156 200 242 293 355
#
# _framework density 22.888415999999999
#
# number of rings (size 3 to 8) (size 9 to 14) (size 15 to 20)
#    0.000    2.667    0.000    1.000    0.000   19.333 
#    0.000    5.000    0.000    0.000    0.000    0.000 
#    0.000    0.000    0.000    0.000    0.000    0.000 
#
# Total GULP energy -66824.230955 kJ/mol
# GULP energy per Si atom -5568.685913 kJ/mol
# Density = 2.283632 g / cm^3
# Si number density = 22.888416 Si / 1000 Ang^3
#
#
#
# Elastic Constant Matrix: (Units=GPa)
#
#
# Indices 1 2 3 4 5 6 
#
# 1 100.1306 21.0687 12.7465 0.0000 -19.1693 0.0000
# 2 21.0687 22.6700 -13.3463 0.0000 -2.8483 0.0000
# 3 12.7465 -13.3463 53.4324 0.0000 -17.3084 0.0000
# 4 0.0000 0.0000 0.0000 27.5346 0.0000 -5.3765
# 5 -19.1693 -2.8483 -17.3084 0.0000 40.0081 0.0000
# 6 0.0000 0.0000 0.0000 -5.3765 0.0000 13.2538
#
#
#
# Elastic Compliance Matrix: (Units=1/GPa)
#
#
# Indices 1 2 3 4 5 6 
#
# 1 0.015263 -0.018065 -0.007212 0.000000 0.002907 0.000000
# 2 -0.018065 0.077431 0.026321 0.000000 0.008244 0.000000
# 3 -0.007212 0.026321 0.030816 0.000000 0.011750 0.000000
# 4 0.000000 0.000000 0.000000 0.039442 0.000000 0.016000
# 5 0.002907 0.008244 0.011750 0.000000 0.032058 0.000000
# 6 0.000000 0.000000 0.000000 0.016000 0.000000 0.081941
#
#
# Mechanical properties :
#
#
# Convention : Reuss Voigt Hill
#
# Bulk Modulus (GPa) = 7.96187 24.13008 16.04598
# Shear Modulus (GPa) = 15.78639 26.54357 21.16498
#
# Velocity S-wave (km/s) = 2.62908 3.40912 3.04419
# Velocity P-wave (km/s) = 3.56402 5.10505 4.40249
#
# Compressibility (1/GPa) = 0.12559857
#
# Stress axis : x y z
#
# Youngs Moduli (GPa) = 65.52001 12.91471 32.45041
#
# Poissons Ratio (x) = 0.23330 0.23402
# Poissons Ratio (y) = 1.18360 -0.85411
# Poissons Ratio (z) = 0.47250 -0.33992
#
# Static dielectric constant tensor:
#      x y z
#    x 1.906270 0.000000 0.036080 
#    y 0.000000 1.860360 0.000000 
#    z 0.036080 0.000000 1.958750 
# 
# From -- ./inp_files/35500.got.cif
#   From: 2010.05.17/outbox.cif.g08.bks.cpg/sg5_18_cif.got.tgz:35500.got - 2010.06.03 18:56:24.
