data_PCOD9126008
_publ_section_title
;
Structure prediction by ZEFSAII (Michael W. Deem and Ramdas Pophale) SiO2 
 PCOD9126008
Probable space group: C 2
;
_chemical_formula_sum "Si O2"
_cell_formula_units_Z 30
_cell_length_a 16.593817
_cell_length_b 10.110244
_cell_length_c 16.438584
_cell_angle_alpha 90.000000
_cell_angle_beta 26.191172
_cell_angle_gamma 90.000000
_cell_volume 1217.230393
_symmetry_space_group_name_H-M "C 2"
_symmetry_group_IT_number 5
_symmetry_cell_setting 'monoclinic'
loop_
_space_group_symop_operation_xyz
x,y,z
-x,y,-z
1/2+x,1/2+y,z
1/2-x,1/2+y,-z
loop_
_atom_site_type_symbol
_atom_site_label
_atom_site_fract_x
_atom_site_fract_y
_atom_site_fract_z
Si Si1 0.000000 0.108660 0.000000
Si Si2 0.244289 0.705271 0.572560
Si Si3 0.717354 0.604376 0.291196
Si Si4 0.141684 0.108986 0.186503
Si Si5 0.519279 0.322636 0.643112
Si Si6 0.944181 0.498103 0.807147
Si Si7 0.610805 0.848586 0.789991
Si Si8 0.612131 0.048288 0.314489
O O1 0.944267 0.212055 0.120090
O O2 0.822865 0.025919 0.140824
O O3 0.246751 0.706715 0.667798
O O4 0.448828 0.684564 0.353291
O O5 0.111926 0.808354 0.648479
O O6 0.136128 0.571766 0.646575
O O7 0.500000 0.572751 0.500000
O O8 0.742611 0.657590 0.177226
O O9 0.839970 0.474124 0.196905
O O10 0.087549 0.958574 0.260142
O O11 0.277899 0.093182 0.987162
O O12 0.696288 0.326177 0.426808
O O13 0.412520 0.196710 0.702184
O O14 0.939503 0.460739 0.717078
O O15 0.957557 0.386315 0.863109
O O16 0.500000 0.034974 0.500000
#
# Coordination Sequence:
#
# PCOD9126008 Si02
#       8
#     2   4   4   4   4   4   4   4
#     4  12  24  34  64  96 116 156 204 254 314 360
#     4   9  21  35  52  91 123 155 193 250 308 356
#     4   9  16  32  55  84 117 151 188 246 299 347
#     4  11  20  36  62  85 122 158 203 250 302 365
#     4  11  20  36  61  88 126 158 198 258 306 359
#     4  10  22  37  56  91 116 161 198 246 301 365
#     4  11  19  34  58  88 120 151 200 243 308 354
#     4  11  24  39  58  91 128 155 202 260 309 361
#
# _framework density 24.646115000000002
#
# number of rings (size 3 to 8) (size 9 to 14) (size 15 to 20)
#    0.000    1.600    5.333    2.400    1.867    1.600 
#    0.000    0.000    0.000    2.400    6.933    0.000 
#    0.000    0.000    0.000    0.000    0.000    0.000 
#
# Total GULP energy -83825.660088 kJ/mol
# GULP energy per Si atom -5588.377339 kJ/mol
# Density = 2.459002 g / cm^3
# Si number density = 24.646115 Si / 1000 Ang^3
#
#
#
# Elastic Constant Matrix: (Units=GPa)
#
#
# Indices 1 2 3 4 5 6 
#
# 1 154.3869 7.3541 50.8075 0.0001 10.4826 -0.0001
# 2 7.3541 36.0790 5.6476 0.0000 -2.0347 -0.0001
# 3 50.8075 5.6476 123.4988 -0.0002 5.2806 0.0002
# 4 0.0001 0.0000 -0.0002 -6.5756 -0.0001 8.1988
# 5 10.4826 -2.0347 5.2806 -0.0001 35.7441 0.0001
# 6 -0.0001 -0.0001 0.0002 8.1988 0.0001 22.8180
#
#
#
# Elastic Compliance Matrix: (Units=1/GPa)
#
#
# Indices 1 2 3 4 5 6 
#
# 1 0.007653 -0.001193 -0.003014 0.000000 -0.001867 0.000000
# 2 -0.001193 0.028217 -0.000889 0.000000 0.002087 0.000000
# 3 -0.003014 -0.000889 0.009402 0.000000 -0.000556 0.000000
# 4 0.000000 0.000000 0.000000 -0.105025 0.000000 0.037737
# 5 -0.001867 0.002087 -0.000556 0.000000 0.028725 0.000000
# 6 0.000000 0.000000 0.000000 0.037737 0.000000 0.030266
#
#
# Mechanical properties :
#
#
# Convention : Reuss Voigt Hill
#
# Bulk Modulus (GPa) = 28.50676 49.06477 38.78576
# Shear Modulus (GPa) = 236.72112 27.07434 131.89773
#
# Velocity S-wave (km/s) = 9.81104 3.31799 7.32344
# Velocity P-wave (km/s) = 11.82935 5.88470 9.34247
#
# Compressibility (1/GPa) = 0.03507940
#
# Stress axis : x y z
#
# Youngs Moduli (GPa) = 130.67279 35.43955 106.36516
#
# Poissons Ratio (x) = 0.04229 0.32058
# Poissons Ratio (y) = 0.15594 0.09452
# Poissons Ratio (z) = 0.39384 0.03149
#
# Static dielectric constant tensor:
#      x y z
#    x 2.057020 0.000000 0.065680 
#    y 0.000000 1.997910 0.000000 
#    z 0.065680 0.000000 1.952080 
# 
# From -- ./inp_files/54777.got.cif
#   From: 2010.05.17/outbox.cif.g08.bks.cpg/sg5_28_cif.got.tgz:54777.got - 2010.06.03 18:56:24.
