data_PCOD9126068
_publ_section_title
;
Structure prediction by ZEFSAII (Michael W. Deem and Ramdas Pophale) SiO2 
 PCOD9126068
Probable space group: C 2
;
_chemical_formula_sum "Si O2"
_cell_formula_units_Z 26
_cell_length_a 27.168121
_cell_length_b 8.976097
_cell_length_c 6.168897
_cell_angle_alpha 90.000000
_cell_angle_beta 67.906197
_cell_angle_gamma 90.000000
_cell_volume 1393.903067
_symmetry_space_group_name_H-M "C 2"
_symmetry_group_IT_number 5
_symmetry_cell_setting 'monoclinic'
loop_
_space_group_symop_operation_xyz
x,y,z
-x,y,-z
1/2+x,1/2+y,z
1/2-x,1/2+y,-z
loop_
_atom_site_type_symbol
_atom_site_label
_atom_site_fract_x
_atom_site_fract_y
_atom_site_fract_z
Si Si1 0.555988 0.156060 0.525967
Si Si2 0.716332 0.791888 0.563731
Si Si3 0.500000 0.265461 0.000000
Si Si4 0.250932 0.545172 0.818127
Si Si5 0.342121 0.957937 0.718352
Si Si6 0.948964 0.957074 0.705180
Si Si7 0.346222 0.647318 0.955001
O O1 0.500000 0.116315 0.500000
O O2 0.569585 0.323573 0.423306
O O3 0.604407 0.049645 0.397886
O O4 0.541953 0.165853 0.801693
O O5 0.748701 0.685447 0.346832
O O6 0.683561 0.906600 0.466946
O O7 0.748650 0.893335 0.680894
O O8 0.678024 0.684588 0.768969
O O9 0.528946 0.369788 0.123989
O O10 0.302723 0.559524 0.883277
O O11 0.201026 0.544073 0.063554
O O12 0.353526 0.805891 0.827287
O O13 0.000000 0.029863 0.500000
O O14 0.901532 0.062020 0.853510
#
# Coordination Sequence:
#
# PCOD9126068 Si02
#       7
#     4   4   2   4   4   4   4
#     4   9  20  38  58  81 110 146 186 231 280 330
#     4  10  22  38  59  85 114 151 191 230 284 340
#     4   8  18  36  58  84 108 140 192 230 272 336
#     4  10  22  40  58  84 116 148 190 236 282 336
#     4  10  22  39  57  83 117 149 186 232 282 337
#     4   9  20  38  58  81 110 146 186 231 280 330
#     4  10  22  39  57  83 117 149 186 232 282 337
#
# _framework density 18.652659
#
# number of rings (size 3 to 8) (size 9 to 14) (size 15 to 20)
#    0.000    2.769    0.000    0.923    0.000   16.615 
#    0.000    3.077    0.000    0.000    0.000    0.000 
#    0.000    0.000    0.000    0.000    0.000    0.000 
#
# Total GULP energy -72506.368373 kJ/mol
# GULP energy per Si atom -5577.412952 kJ/mol
# Density = 1.861020 g / cm^3
# Si number density = 18.652659 Si / 1000 Ang^3
#
#
#
# Elastic Constant Matrix: (Units=GPa)
#
#
# Indices 1 2 3 4 5 6 
#
# 1 80.3689 55.5040 70.3639 0.0000 -31.3637 0.0000
# 2 55.5040 63.4574 52.7416 0.0000 -25.7506 0.0000
# 3 70.3639 52.7416 145.7226 0.0000 -14.7027 0.0000
# 4 0.0000 0.0000 0.0000 35.5400 0.0000 -13.0701
# 5 -31.3637 -25.7506 -14.7027 0.0000 28.3706 0.0000
# 6 0.0000 0.0000 0.0000 -13.0701 0.0000 39.5108
#
#
#
# Elastic Compliance Matrix: (Units=1/GPa)
#
#
# Indices 1 2 3 4 5 6 
#
# 1 0.050428 -0.020280 -0.013973 0.000000 0.030100 0.000000
# 2 -0.020280 0.042823 -0.004270 0.000000 0.014235 0.000000
# 3 -0.013973 -0.004270 0.013934 0.000000 -0.012102 0.000000
# 4 0.000000 0.000000 0.000000 0.032034 0.000000 0.010597
# 5 0.030100 0.014235 -0.012102 0.000000 0.075172 0.000000
# 6 0.000000 0.000000 0.000000 0.010597 0.000000 0.028815
#
#
# Mechanical properties :
#
#
# Convention : Reuss Voigt Hill
#
# Bulk Modulus (GPa) = 33.18045 71.86311 52.52178
# Shear Modulus (GPa) = 15.13782 28.08025 21.60904
#
# Velocity S-wave (km/s) = 2.85189 3.88419 3.40736
# Velocity P-wave (km/s) = 5.35458 7.66333 6.61053
#
# Compressibility (1/GPa) = 0.03013823
#
# Stress axis : x y z
#
# Youngs Moduli (GPa) = 19.83010 23.35220 71.76797
#
# Poissons Ratio (x) = 0.47359 1.00281
# Poissons Ratio (y) = 0.40216 0.30645
# Poissons Ratio (z) = 0.27708 0.09971
#
# Static dielectric constant tensor:
#      x y z
#    x 1.633750 0.000000 0.015020 
#    y 0.000000 1.640720 0.000000 
#    z 0.015020 0.000000 1.682330 
# 
# From -- ./inp_files/10722.got.cif
#   From: 2010.05.17/outbox.cif.g08.bks.cpg/sg5_6_cif.got.tgz:10722.got - 2010.06.03 18:56:24.
