data_PCOD9126168
_publ_section_title
;
Structure prediction by ZEFSAII (Michael W. Deem and Ramdas Pophale) SiO2 
 PCOD9126168
Probable space group: C 2
;
_chemical_formula_sum "Si O2"
_cell_formula_units_Z 30
_cell_length_a 14.585626
_cell_length_b 16.903337
_cell_length_c 11.800236
_cell_angle_alpha 90.000000
_cell_angle_beta 28.428244
_cell_angle_gamma 90.000000
_cell_volume 1384.993958
_symmetry_space_group_name_H-M "C 2"
_symmetry_group_IT_number 5
_symmetry_cell_setting 'monoclinic'
loop_
_space_group_symop_operation_xyz
x,y,z
-x,y,-z
1/2+x,1/2+y,z
1/2-x,1/2+y,-z
loop_
_atom_site_type_symbol
_atom_site_label
_atom_site_fract_x
_atom_site_fract_y
_atom_site_fract_z
Si Si1 0.500000 0.472260 0.500000
Si Si2 0.884908 0.722848 0.363616
Si Si3 0.771601 0.327776 0.257146
Si Si4 0.124110 0.993302 0.133307
Si Si5 0.822787 0.950558 0.279022
Si Si6 0.243702 0.813149 0.032746
Si Si7 0.513245 0.077137 0.362827
Si Si8 0.884794 0.281630 0.508881
O O1 0.657499 0.411163 0.382086
O O2 0.584232 0.521486 0.304336
O O3 0.780936 0.773761 0.577840
O O4 0.936417 0.637531 0.354102
O O5 0.761113 0.718250 0.384339
O O6 0.082709 0.770890 0.132570
O O7 0.714033 0.291492 0.196911
O O8 0.000000 0.340937 0.000000
O O9 0.221688 0.907114 0.042928
O O10 0.925572 0.975669 0.284021
O O11 0.274144 0.047299 0.901920
O O12 0.636935 0.005052 0.463300
O O13 0.741291 0.862164 0.354192
O O14 0.000000 0.961727 0.000000
O O15 0.450903 0.790054 0.764252
O O16 0.500000 0.117247 0.500000
O O17 0.000000 0.269749 0.500000
#
# Coordination Sequence:
#
# PCOD9126168 Si02
#       8
#     2   4   4   4   4   4   4   4
#     4  10  22  38  68 100 134 184 228 292 330 418
#     4  12  25  43  68 105 140 181 229 294 358 408
#     4  11  19  35  63 104 135 169 224 286 352 398
#     4  11  22  41  69 103 138 183 234 280 352 417
#     4  12  23  42  72 105 140 180 233 291 354 413
#     4  11  21  40  69  99 136 178 232 288 337 416
#     4  12  26  44  69 106 145 181 228 297 357 420
#     4  12  25  41  71 105 136 187 242 284 339 421
#
# _framework density 21.660744999999999
#
# number of rings (size 3 to 8) (size 9 to 14) (size 15 to 20)
#    0.000    0.533    8.000    2.000    0.000    1.600 
#    0.000    0.000    8.800    0.000    0.000    0.000 
#    0.000    0.000    0.000    0.000    0.000    0.000 
#
# Total GULP energy -83829.859729 kJ/mol
# GULP energy per Si atom -5588.657315 kJ/mol
# Density = 2.161144 g / cm^3
# Si number density = 21.660745 Si / 1000 Ang^3
#
#
#
# Elastic Constant Matrix: (Units=GPa)
#
#
# Indices 1 2 3 4 5 6 
#
# 1 149.0298 22.5561 29.2281 -0.0057 -9.2814 0.0038
# 2 22.5561 35.9063 0.0889 0.0016 0.7666 0.0017
# 3 29.2281 0.0889 83.7680 -0.0067 -4.8562 0.0042
# 4 -0.0057 0.0016 -0.0067 6.7746 0.0032 -2.9358
# 5 -9.2814 0.7666 -4.8562 0.0032 39.8548 -0.0014
# 6 0.0038 0.0017 0.0042 -2.9358 -0.0014 25.5410
#
#
#
# Elastic Compliance Matrix: (Units=1/GPa)
#
#
# Indices 1 2 3 4 5 6 
#
# 1 0.008127 -0.005134 -0.002734 0.000005 0.001658 0.000000
# 2 -0.005134 0.031105 0.001666 -0.000010 -0.001591 -0.000003
# 3 -0.002734 0.001666 0.012943 0.000009 0.000908 -0.000001
# 4 0.000005 -0.000010 0.000009 0.155348 -0.000009 0.017856
# 5 0.001658 -0.001591 0.000908 -0.000009 0.025618 0.000000
# 6 0.000000 -0.000003 -0.000001 0.017856 0.000000 0.041205
#
#
# Mechanical properties :
#
#
# Convention : Reuss Voigt Hill
#
# Bulk Modulus (GPa) = 25.14397 41.38336 33.26366
# Shear Modulus (GPa) = 16.66634 28.88949 22.77791
#
# Velocity S-wave (km/s) = 2.77686 3.65598 3.24632
# Velocity P-wave (km/s) = 4.68130 6.08016 5.42600
#
# Compressibility (1/GPa) = 0.03977096
#
# Stress axis : x y z
#
# Youngs Moduli (GPa) = 123.05413 32.14910 77.26463
#
# Poissons Ratio (x) = 0.16504 0.21123
# Poissons Ratio (y) = 0.63172 -0.12872
# Poissons Ratio (z) = 0.33642 -0.05356
#
# Static dielectric constant tensor:
#      x y z
#    x 1.857390 -0.000010 0.023460 
#    y -0.000010 1.760360 0.000010 
#    z 0.023460 0.000010 1.789690 
# 
# From -- ./inp_files/43297.got.cif
#   From: 2010.05.17/outbox.cif.g08.bks.cpg/sg5_22_cif.got.tgz:43297.got - 2010.06.03 18:56:24.
