data_PCOD9126519
_publ_section_title
;
Structure prediction by ZEFSAII (Michael W. Deem and Ramdas Pophale) SiO2 
 PCOD9126519
Probable space group: C 2
;
_chemical_formula_sum "Si O2"
_cell_formula_units_Z 32
_cell_length_a 26.476694
_cell_length_b 5.364630
_cell_length_c 16.981837
_cell_angle_alpha 90.000000
_cell_angle_beta 145.476021
_cell_angle_gamma 90.000000
_cell_volume 1367.037933
_symmetry_space_group_name_H-M "C 2"
_symmetry_group_IT_number 5
_symmetry_cell_setting 'monoclinic'
loop_
_space_group_symop_operation_xyz
x,y,z
-x,y,-z
1/2+x,1/2+y,z
1/2-x,1/2+y,-z
loop_
_atom_site_type_symbol
_atom_site_label
_atom_site_fract_x
_atom_site_fract_y
_atom_site_fract_z
Si Si1 0.744996 0.989440 0.666442
Si Si2 0.607817 0.739888 0.934884
Si Si3 0.578247 0.707006 0.389119
Si Si4 0.196090 0.955592 0.416076
Si Si5 0.325008 0.230619 0.919423
Si Si6 0.322757 0.682731 0.135151
Si Si7 0.894189 0.825778 0.449315
Si Si8 0.917528 0.691254 0.298797
O O1 0.659817 0.895374 0.506527
O O2 0.772100 0.807773 0.772406
O O3 0.821672 0.007573 0.699389
O O4 0.703553 0.240430 0.649818
O O5 0.515833 0.782210 0.769040
O O6 0.687167 0.737165 0.970695
O O7 0.613751 0.470842 0.983196
O O8 0.623255 0.968734 0.014029
O O9 0.616866 0.503764 0.375866
O O10 0.576443 0.582179 0.473313
O O11 0.267336 0.174838 0.528920
O O12 0.257161 0.192974 0.905397
O O13 0.374955 0.419600 0.196593
O O14 0.377548 0.921123 0.236248
O O15 0.899941 0.796572 0.363732
O O16 0.977967 0.658885 0.584144
#
# Coordination Sequence:
#
# PCOD9126519 Si02
#       8
#     4   4   4   4   4   4   4   4
#     4  11  24  44  73 100 137 176 231 288 345 412
#     4  12  27  44  67  99 141 184 226 278 343 410
#     4  11  24  44  73 100 137 176 231 288 345 412
#     4  10  22  40  71 106 131 166 228 288 350 400
#     4  12  27  44  67  99 141 184 226 278 343 410
#     4  12  22  44  61  92 134 189 226 272 322 419
#     4  11  22  38  64 102 138 176 220 287 344 398
#     4  11  24  35  65 100 139 173 227 276 341 397
#
# _framework density 23.408276000000001
#
# number of rings (size 3 to 8) (size 9 to 14) (size 15 to 20)
#    0.000    0.750    3.750    3.750    3.500    1.000 
#    0.000    0.625    0.000    1.500    0.000    0.000 
#    0.000    0.000    0.000    0.000    0.000    0.000 
#
# Total GULP energy -89294.830408 kJ/mol
# GULP energy per Si atom -5580.926900 kJ/mol
# Density = 2.335500 g / cm^3
# Si number density = 23.408276 Si / 1000 Ang^3
#
#
#
# Elastic Constant Matrix: (Units=GPa)
#
#
# Indices 1 2 3 4 5 6 
#
# 1 54.9814 4.7588 13.0327 0.0000 -20.6468 0.0001
# 2 4.7588 82.9891 50.4469 0.0006 -3.3995 0.0003
# 3 13.0327 50.4469 100.9369 0.0003 -9.2689 0.0001
# 4 0.0000 0.0006 0.0003 45.7708 0.0000 -0.6794
# 5 -20.6468 -3.3995 -9.2689 0.0000 18.8214 0.0000
# 6 0.0001 0.0003 0.0001 -0.6794 0.0000 29.4817
#
#
#
# Elastic Compliance Matrix: (Units=1/GPa)
#
#
# Indices 1 2 3 4 5 6 
#
# 1 0.031014 0.000226 -0.001036 0.000000 0.033552 0.000000
# 2 0.000226 0.017335 -0.008780 0.000000 -0.000945 0.000000
# 3 -0.001036 -0.008780 0.014851 0.000000 0.004591 0.000000
# 4 0.000000 0.000000 0.000000 0.021855 0.000000 0.000504
# 5 0.033552 -0.000945 0.004591 0.000000 0.092027 0.000000
# 6 0.000000 0.000000 0.000000 0.000504 0.000000 0.033931
#
#
# Mechanical properties :
#
#
# Convention : Reuss Voigt Hill
#
# Bulk Modulus (GPa) = 22.71747 41.70935 32.21341
# Shear Modulus (GPa) = 20.41934 30.19271 25.30603
#
# Velocity S-wave (km/s) = 2.95670 3.59532 3.29153
# Velocity P-wave (km/s) = 4.62407 5.92385 5.31385
#
# Compressibility (1/GPa) = 0.04401898
#
# Stress axis : x y z
#
# Youngs Moduli (GPa) = 32.24398 57.68626 67.33738
#
# Poissons Ratio (x) = -0.01303 0.06978
# Poissons Ratio (y) = -0.00729 0.59121
# Poissons Ratio (z) = 0.03341 0.50647
#
# Static dielectric constant tensor:
#      x y z
#    x 1.961540 0.000000 0.022370 
#    y 0.000000 1.959430 0.000000 
#    z 0.022370 0.000000 1.944670 
# 
# From -- ./inp_files/63756.got.cif
#   From: 2010.05.17/outbox.cif.g08.bks.cpg/sg5_32_cif.got.tgz:63756.got - 2010.06.03 18:56:24.
