data_PCOD9126592
_publ_section_title
;
Structure prediction by ZEFSAII (Michael W. Deem and Ramdas Pophale) SiO2 
 PCOD9126592
Probable space group: C 2
;
_chemical_formula_sum "Si O2"
_cell_formula_units_Z 32
_cell_length_a 18.256572
_cell_length_b 16.251843
_cell_length_c 12.297966
_cell_angle_alpha 90.000000
_cell_angle_beta 156.447210
_cell_angle_gamma 90.000000
_cell_volume 1458.055068
_symmetry_space_group_name_H-M "C 2"
_symmetry_group_IT_number 5
_symmetry_cell_setting 'monoclinic'
loop_
_space_group_symop_operation_xyz
x,y,z
-x,y,-z
1/2+x,1/2+y,z
1/2-x,1/2+y,-z
loop_
_atom_site_type_symbol
_atom_site_label
_atom_site_fract_x
_atom_site_fract_y
_atom_site_fract_z
Si Si1 0.471462 0.811320 0.213883
Si Si2 0.281905 0.029434 0.706520
Si Si3 0.527460 0.391245 0.334610
Si Si4 0.702698 0.978916 0.030685
Si Si5 0.216317 0.712907 0.296299
Si Si6 0.764162 0.763030 0.914391
Si Si7 0.799932 0.246646 0.780181
Si Si8 0.991976 0.627694 0.357577
O O1 0.677800 0.779825 0.489313
O O2 0.432672 0.903466 0.124855
O O3 0.398774 0.801898 0.237573
O O4 0.347450 0.751757 0.971850
O O5 0.240368 0.120574 0.607966
O O6 0.163304 0.962496 0.481951
O O7 0.500000 0.016958 0.000000
O O8 0.236870 0.020193 0.773880
O O9 0.406098 0.337981 0.087034
O O10 0.660778 0.323047 0.570959
O O11 0.376682 0.435862 0.207734
O O12 0.589232 0.043187 0.802114
O O13 0.279382 0.720732 0.257601
O O14 0.000000 0.722641 0.000000
O O15 0.862534 0.696294 0.125381
O O16 0.694518 0.163440 0.602894
O O17 0.000000 0.258232 0.000000
O O18 0.000000 0.625315 0.500000
#
# Coordination Sequence:
#
# PCOD9126592 Si02
#       8
#     4   4   4   4   4   4   4   4
#     4  11  24  41  66  96 127 179 218 270 329 389
#     4  11  23  38  61  97 129 169 216 268 325 393
#     4  10  23  38  67  96 129 168 220 269 328 378
#     4  11  24  40  66  96 134 167 218 279 322 391
#     4  11  26  42  63  94 135 173 215 268 334 396
#     4  10  22  41  64  93 127 171 217 270 322 395
#     4  11  24  41  71 102 133 176 227 278 328 400
#     4  11  23  42  68  98 132 171 220 274 335 392
#
# _framework density 21.947044000000002
#
# number of rings (size 3 to 8) (size 9 to 14) (size 15 to 20)
#    0.000    1.250    3.750    1.125    7.000    3.000 
#    0.000    0.625    0.000    0.000    0.000    0.000 
#    0.000    0.000    0.000    0.000    0.000    0.000 
#
# Total GULP energy -89301.534554 kJ/mol
# GULP energy per Si atom -5581.345910 kJ/mol
# Density = 2.189709 g / cm^3
# Si number density = 21.947044 Si / 1000 Ang^3
#
#
#
# Elastic Constant Matrix: (Units=GPa)
#
#
# Indices 1 2 3 4 5 6 
#
# 1 38.1894 5.3261 1.5211 0.0000 5.8966 0.0000
# 2 5.3261 99.1765 63.2570 0.0000 9.7284 0.0000
# 3 1.5211 63.2570 94.1322 0.0000 9.3825 0.0000
# 4 0.0000 0.0000 0.0000 8.9778 0.0000 6.2648
# 5 5.8966 9.7284 9.3825 0.0000 27.9017 0.0000
# 6 0.0000 0.0000 0.0000 6.2648 0.0000 14.6932
#
#
#
# Elastic Compliance Matrix: (Units=1/GPa)
#
#
# Indices 1 2 3 4 5 6 
#
# 1 0.027238 -0.001731 0.001280 0.000000 -0.005583 0.000000
# 2 -0.001731 0.017893 -0.011807 0.000000 -0.001903 0.000000
# 3 0.001280 -0.011807 0.018783 0.000000 -0.002470 0.000000
# 4 0.000000 0.000000 0.000000 0.158562 0.000000 -0.067607
# 5 -0.005583 -0.001903 -0.002470 0.000000 0.038514 0.000000
# 6 0.000000 0.000000 0.000000 -0.067607 0.000000 0.096885
#
#
# Mechanical properties :
#
#
# Convention : Reuss Voigt Hill
#
# Bulk Modulus (GPa) = 25.38231 41.30074 33.34153
# Shear Modulus (GPa) = 12.64147 21.07413 16.85780
#
# Velocity S-wave (km/s) = 2.40260 3.10211 2.77449
# Velocity P-wave (km/s) = 4.39170 5.62939 5.04862
#
# Compressibility (1/GPa) = 0.03939751
#
# Stress axis : x y z
#
# Youngs Moduli (GPa) = 36.71368 55.88723 53.23979
#
# Poissons Ratio (x) = 0.09677 -0.06814
# Poissons Ratio (y) = 0.06357 0.62858
# Poissons Ratio (z) = -0.04699 0.65984
#
# Static dielectric constant tensor:
#      x y z
#    x 1.838770 0.000000 0.039400 
#    y 0.000000 1.791570 0.000000 
#    z 0.039400 0.000000 1.832130 
# 
# From -- ./inp_files/53465.got.cif
#   From: 2010.05.17/outbox.cif.g08.bks.cpg/sg5_27_cif.got.tgz:53465.got - 2010.06.03 18:56:24.
