data_PCOD9126460
_publ_section_title
;
Structure prediction by ZEFSAII (Michael W. Deem and Ramdas Pophale) SiO2 
 PCOD9126460
Probable space group: C 2
;
_chemical_formula_sum "Si O2"
_cell_formula_units_Z 20
_cell_length_a 16.651607
_cell_length_b 5.155957
_cell_length_c 19.265343
_cell_angle_alpha 90.000000
_cell_angle_beta 27.753017
_cell_angle_gamma 90.000000
_cell_volume 770.215339
_symmetry_space_group_name_H-M "C 2"
_symmetry_group_IT_number 5
_symmetry_cell_setting 'monoclinic'
loop_
_space_group_symop_operation_xyz
x,y,z
-x,y,-z
1/2+x,1/2+y,z
1/2-x,1/2+y,-z
loop_
_atom_site_type_symbol
_atom_site_label
_atom_site_fract_x
_atom_site_fract_y
_atom_site_fract_z
Si Si1 0.958714 0.674980 0.795339
Si Si2 0.840121 0.018099 0.537290
Si Si3 0.820348 0.369260 0.195811
Si Si4 0.942091 0.506420 0.667584
Si Si5 0.679366 0.031012 0.952396
O O1 0.862900 0.921219 0.836102
O O2 0.161833 0.621188 0.640047
O O3 0.896728 0.468234 0.783952
O O4 0.894069 0.677731 0.924064
O O5 0.968288 0.256432 0.431136
O O6 0.577726 0.251259 0.555263
O O7 0.787430 0.964935 0.656465
O O8 0.725640 0.112786 0.242464
O O9 0.811317 0.572452 0.137974
O O10 0.016583 0.323801 0.070128
#
# Coordination Sequence:
#
# PCOD9126460 Si02
#       5
#     4   4   4   4   4
#     4  10  22  40  68 100 136 174 224 276 330 394
#     4  11  24  43  70 101 135 175 220 275 334 395
#     4   9  21  42  68  96 135 175 224 274 330 395
#     4  11  24  43  70 101 135 175 220 275 334 395
#     4   9  20  42  66  97 132 178 224 275 330 390
#
# _framework density 25.966763
#
# number of rings (size 3 to 8) (size 9 to 14) (size 15 to 20)
#    0.000    2.000    0.000    1.800    0.000    9.600 
#    0.000    4.000    0.000   19.200    0.000    0.000 
#    0.000    0.000    0.000    0.000    0.000    0.000 
#
# Total GULP energy -55805.803871 kJ/mol
# GULP energy per Si atom -5580.580387 kJ/mol
# Density = 2.590766 g / cm^3
# Si number density = 25.966763 Si / 1000 Ang^3
#
#
#
# Elastic Constant Matrix: (Units=GPa)
#
#
# Indices 1 2 3 4 5 6 
#
# 1 141.3610 42.4813 34.8945 0.0010 21.6712 -0.0058
# 2 42.4813 130.3880 44.3648 0.0067 11.1103 -0.0135
# 3 34.8945 44.3648 123.0333 0.0074 37.0687 -0.0083
# 4 0.0010 0.0067 0.0074 21.1032 -0.0048 15.7618
# 5 21.6712 11.1103 37.0687 -0.0048 52.7512 0.0045
# 6 -0.0058 -0.0135 -0.0083 15.7618 0.0045 16.9585
#
#
#
# Elastic Compliance Matrix: (Units=1/GPa)
#
#
# Indices 1 2 3 4 5 6 
#
# 1 0.008311 -0.002219 -0.000849 -0.000003 -0.002350 0.000004
# 2 -0.002219 0.009344 -0.003072 -0.000017 0.001102 0.000021
# 3 -0.000849 -0.003072 0.011641 -0.000027 -0.007184 0.000030
# 4 -0.000003 -0.000017 -0.000027 0.154951 0.000050 -0.144017
# 5 -0.002350 0.001102 -0.007184 0.000050 0.024739 -0.000057
# 6 0.000004 0.000021 0.000030 -0.144017 -0.000057 0.192822
#
#
# Mechanical properties :
#
#
# Convention : Reuss Voigt Hill
#
# Bulk Modulus (GPa) = 58.76773 70.91816 64.84295
# Shear Modulus (GPa) = 11.91159 36.36534 24.13846
#
# Velocity S-wave (km/s) = 2.14411 3.74633 3.05223
# Velocity P-wave (km/s) = 5.36755 6.78850 6.11941
#
# Compressibility (1/GPa) = 0.01701614
#
# Stress axis : x y z
#
# Youngs Moduli (GPa) = 120.32723 107.02504 85.90292
#
# Poissons Ratio (x) = 0.23744 0.07292
# Poissons Ratio (y) = 0.26695 0.26390
# Poissons Ratio (z) = 0.10215 0.32879
#
# Static dielectric constant tensor:
#      x y z
#    x 2.086070 0.000000 -0.002000 
#    y 0.000000 2.091600 0.000000 
#    z -0.002000 0.000000 2.116250 
# 
# From -- ./inp_files/61362.got.cif
#   From: 2010.05.17/outbox.cif.g08.bks.cpg/sg5_31_cif.got.tgz:61362.got - 2010.06.03 18:56:24.
