data_PCOD9126311
_publ_section_title
;
Structure prediction by ZEFSAII (Michael W. Deem and Ramdas Pophale) SiO2 
 PCOD9126311
Probable space group: C 2
;
_chemical_formula_sum "Si O2"
_cell_formula_units_Z 26
_cell_length_a 12.273470
_cell_length_b 14.944464
_cell_length_c 10.007545
_cell_angle_alpha 90.000000
_cell_angle_beta 143.364106
_cell_angle_gamma 90.000000
_cell_volume 1095.346328
_symmetry_space_group_name_H-M "C 2"
_symmetry_group_IT_number 5
_symmetry_cell_setting 'monoclinic'
loop_
_space_group_symop_operation_xyz
x,y,z
-x,y,-z
1/2+x,1/2+y,z
1/2-x,1/2+y,-z
loop_
_atom_site_type_symbol
_atom_site_label
_atom_site_fract_x
_atom_site_fract_y
_atom_site_fract_z
Si Si1 0.000000 0.994010 0.000000
Si Si2 0.057497 0.607203 0.786650
Si Si3 0.326679 0.758332 0.997168
Si Si4 0.790195 0.340776 0.255171
Si Si5 0.000000 0.070126 0.500000
Si Si6 0.666075 0.956379 0.063802
Si Si7 0.500000 0.207838 0.000000
Si Si8 0.133134 0.132877 0.346160
O O1 0.825094 0.931146 0.850397
O O2 0.959388 0.053765 0.830509
O O3 0.849039 0.621949 0.538385
O O4 0.066525 0.647031 0.945426
O O5 0.196350 0.672131 0.843373
O O6 0.107728 0.503180 0.864583
O O7 0.288499 0.794567 0.109018
O O8 0.534223 0.722389 0.196471
O O9 0.296115 0.850465 0.891025
O O10 0.000000 0.350416 0.500000
O O11 0.662806 0.271587 0.213482
O O12 0.922889 0.123324 0.552550
O O13 0.841625 0.008305 0.287046
O O14 0.500000 0.971362 0.000000
#
# Coordination Sequence:
#
# PCOD9126311 Si02
#       8
#     2   4   4   4   2   4   2   4
#     4  11  28  46  65 106 146 184 243 302 375 430
#     4  11  22  45  72 100 144 192 242 298 376 432
#     4  11  27  43  70 110 146 184 255 308 368 443
#     4  10  22  39  69  96 136 180 237 293 362 425
#     4  12  24  46  84 108 142 202 260 298 368 456
#     4  12  25  44  74 111 146 191 251 314 370 447
#     4   9  18  38  63 108 128 166 235 302 333 436
#     4  12  26  46  75 104 149 197 243 309 367 446
#
# _framework density 23.736784
#
# number of rings (size 3 to 8) (size 9 to 14) (size 15 to 20)
#    0.000    0.923    3.846    1.846    6.462    1.231 
#    0.000    0.000    0.000    0.000    0.000    0.000 
#    0.000    0.000    0.000    0.000    0.000    0.000 
#
# Total GULP energy -72705.778898 kJ/mol
# GULP energy per Si atom -5592.752223 kJ/mol
# Density = 2.368276 g / cm^3
# Si number density = 23.736784 Si / 1000 Ang^3
#
#
#
# Elastic Constant Matrix: (Units=GPa)
#
#
# Indices 1 2 3 4 5 6 
#
# 1 63.1221 30.7277 39.9807 0.0000 17.6696 0.0000
# 2 30.7277 138.4395 56.1491 0.0000 17.0919 0.0000
# 3 39.9807 56.1491 131.0033 0.0000 38.8763 0.0000
# 4 0.0000 0.0000 0.0000 35.9426 0.0000 9.7087
# 5 17.6696 17.0919 38.8763 0.0000 44.2472 0.0000
# 6 0.0000 0.0000 0.0000 9.7087 0.0000 34.6680
#
#
#
# Elastic Compliance Matrix: (Units=1/GPa)
#
#
# Indices 1 2 3 4 5 6 
#
# 1 0.020707 -0.002447 -0.004190 0.000000 -0.003643 0.000000
# 2 -0.002447 0.009033 -0.003218 0.000000 0.000316 0.000000
# 3 -0.004190 -0.003218 0.012751 0.000000 -0.008287 0.000000
# 4 0.000000 0.000000 0.000000 0.030099 0.000000 -0.008429
# 5 -0.003643 0.000316 -0.008287 0.000000 0.031214 0.000000
# 6 0.000000 0.000000 0.000000 -0.008429 0.000000 0.031206
#
#
# Mechanical properties :
#
#
# Convention : Reuss Voigt Hill
#
# Bulk Modulus (GPa) = 43.89820 65.14224 54.52022
# Shear Modulus (GPa) = 30.80479 36.68537 33.74508
#
# Velocity S-wave (km/s) = 3.60636 3.93556 3.77455
# Velocity P-wave (km/s) = 5.98957 6.93936 6.48188
#
# Compressibility (1/GPa) = 0.02277998
#
# Stress axis : x y z
#
# Youngs Moduli (GPa) = 48.29304 110.70650 78.42768
#
# Poissons Ratio (x) = 0.27090 0.32859
# Poissons Ratio (y) = 0.11818 0.25242
# Poissons Ratio (z) = 0.20233 0.35630
#
# Static dielectric constant tensor:
#      x y z
#    x 1.949870 0.000000 -0.007530 
#    y 0.000000 1.959380 0.000000 
#    z -0.007530 0.000000 1.879700 
# 
# From -- ./inp_files/43049.got.cif
#   From: 2010.05.17/outbox.cif.g08.bks.cpg/sg5_22_cif.got.tgz:43049.got - 2010.06.03 18:56:24.
