data_PCOD9126737
_publ_section_title
;
Structure prediction by ZEFSAII (Michael W. Deem and Ramdas Pophale) SiO2 
 PCOD9126737
Probable space group: C 2
;
_chemical_formula_sum "Si O2"
_cell_formula_units_Z 26
_cell_length_a 12.075115
_cell_length_b 8.128306
_cell_length_c 23.317213
_cell_angle_alpha 90.000000
_cell_angle_beta 146.883571
_cell_angle_gamma 90.000000
_cell_volume 1250.353070
_symmetry_space_group_name_H-M "C 2"
_symmetry_group_IT_number 5
_symmetry_cell_setting 'monoclinic'
loop_
_space_group_symop_operation_xyz
x,y,z
-x,y,-z
1/2+x,1/2+y,z
1/2-x,1/2+y,-z
loop_
_atom_site_type_symbol
_atom_site_label
_atom_site_fract_x
_atom_site_fract_y
_atom_site_fract_z
Si Si1 0.624457 0.628140 0.780009
Si Si2 0.947626 0.308100 0.601713
Si Si3 0.774565 0.877139 0.926689
Si Si4 0.690992 0.229824 0.939712
Si Si5 0.224208 0.093715 0.571816
Si Si6 0.000000 0.444473 0.000000
Si Si7 0.154782 0.858155 0.284436
O O1 0.568920 0.670095 0.690935
O O2 0.634077 0.802269 0.816913
O O3 0.840142 0.546240 0.891379
O O4 0.453773 0.507460 0.730525
O O5 0.803516 0.216631 0.494250
O O6 0.833179 0.432670 0.594253
O O7 0.119832 0.398309 0.638763
O O8 0.697582 0.044843 0.920590
O O9 0.780559 0.744366 0.980381
O O10 0.000000 0.903458 0.000000
O O11 0.867072 0.329890 0.983771
O O12 0.483116 0.314952 0.830166
O O13 0.336801 0.199488 0.669945
O O14 0.000000 0.056388 0.500000
#
# Coordination Sequence:
#
# PCOD9126737 Si02
#       7
#     4   4   4   4   4   2   4
#     4  11  23  41  62  94 134 165 217 260 313 378
#     4  11  23  42  69  91 127 165 204 269 324 383
#     4  12  24  40  61  91 128 177 218 265 311 376
#     4  11  23  41  64  90 133 174 219 265 317 372
#     4  10  23  44  67  94 123 159 213 261 329 386
#     4  10  22  42  62  94 130 180 218 260 314 380
#     4  10  23  41  61  94 126 162 211 267 313 382
#
# _framework density 20.794127
#
# number of rings (size 3 to 8) (size 9 to 14) (size 15 to 20)
#    0.000    1.231    1.538    4.615    2.154    1.231 
#    5.538    0.000    0.000    0.000    0.000    0.000 
#    0.000    0.000    0.000    0.000    0.000    0.000 
#
# Total GULP energy -72678.557668 kJ/mol
# GULP energy per Si atom -5590.658282 kJ/mol
# Density = 2.074680 g / cm^3
# Si number density = 20.794127 Si / 1000 Ang^3
#
#
#
# Elastic Constant Matrix: (Units=GPa)
#
#
# Indices 1 2 3 4 5 6 
#
# 1 48.9185 7.8605 4.9508 0.0000 8.0605 0.0000
# 2 7.8605 67.1363 0.9007 0.0000 19.9393 0.0000
# 3 4.9508 0.9007 62.4990 -0.0001 -7.3834 0.0000
# 4 0.0000 0.0000 -0.0001 15.6945 0.0000 -5.3254
# 5 8.0605 19.9393 -7.3834 0.0000 37.6181 0.0000
# 6 0.0000 0.0000 0.0000 -5.3254 0.0000 44.5058
#
#
#
# Elastic Compliance Matrix: (Units=1/GPa)
#
#
# Indices 1 2 3 4 5 6 
#
# 1 0.021587 -0.001181 -0.002217 0.000000 -0.004435 0.000000
# 2 -0.001181 0.017862 -0.001282 0.000000 -0.009466 0.000000
# 3 -0.002217 -0.001282 0.016718 0.000000 0.004436 0.000000
# 4 0.000000 0.000000 0.000000 0.066413 0.000000 0.007947
# 5 -0.004435 -0.009466 0.004436 0.000000 0.033421 0.000000
# 6 0.000000 0.000000 0.000000 0.007947 0.000000 0.023420
#
#
# Mechanical properties :
#
#
# Convention : Reuss Voigt Hill
#
# Bulk Modulus (GPa) = 21.36388 22.88642 22.12515
# Shear Modulus (GPa) = 24.46379 30.55313 27.50846
#
# Velocity S-wave (km/s) = 3.43370 3.83732 3.64111
# Velocity P-wave (km/s) = 5.10066 5.53746 5.32354
#
# Compressibility (1/GPa) = 0.04680799
#
# Stress axis : x y z
#
# Youngs Moduli (GPa) = 46.32418 55.98488 59.81433
#
# Poissons Ratio (x) = 0.06609 0.13260
# Poissons Ratio (y) = 0.05469 0.07670
# Poissons Ratio (z) = 0.10270 0.07178
#
# Static dielectric constant tensor:
#      x y z
#    x 1.735270 0.000000 0.009860 
#    y 0.000000 1.742640 0.000000 
#    z 0.009860 0.000000 1.723210 
# 
# From -- ./inp_files/47381.got.cif
#   From: 2010.05.17/outbox.cif.g08.bks.cpg/sg5_24_cif.got.tgz:47381.got - 2010.06.03 18:56:24.
