data_PCOD9126871
_publ_section_title
;
Structure prediction by ZEFSAII (Michael W. Deem and Ramdas Pophale) SiO2 
 PCOD9126871
Probable space group: C 2
;
_chemical_formula_sum "Si O2"
_cell_formula_units_Z 24
_cell_length_a 7.007319
_cell_length_b 12.973134
_cell_length_c 14.332821
_cell_angle_alpha 90.000000
_cell_angle_beta 104.451330
_cell_angle_gamma 90.000000
_cell_volume 1261.726722
_symmetry_space_group_name_H-M "C 2"
_symmetry_group_IT_number 5
_symmetry_cell_setting 'monoclinic'
loop_
_space_group_symop_operation_xyz
x,y,z
-x,y,-z
1/2+x,1/2+y,z
1/2-x,1/2+y,-z
loop_
_atom_site_type_symbol
_atom_site_label
_atom_site_fract_x
_atom_site_fract_y
_atom_site_fract_z
Si Si1 0.620293 0.484910 0.601895
Si Si2 0.693922 0.436215 0.086826
Si Si3 0.049564 0.648302 0.337867
Si Si4 0.262054 0.209838 0.829783
Si Si5 0.000000 0.786709 0.500000
Si Si6 0.611170 0.573629 0.257469
Si Si7 0.500000 0.062708 0.000000
O O1 0.500000 0.533147 0.500000
O O2 0.641219 0.366283 0.573119
O O3 0.483506 0.500182 0.675236
O O4 0.822272 0.544074 0.643077
O O5 0.753018 0.324118 0.131661
O O6 0.645094 0.509288 0.167962
O O7 0.863051 0.490996 0.047254
O O8 0.500000 0.424981 0.000000
O O9 0.819664 0.620784 0.313026
O O10 0.109071 0.704977 0.249333
O O11 0.099792 0.716813 0.434051
O O12 0.049419 0.162331 0.780239
O O13 0.367080 0.135342 0.917820
#
# Coordination Sequence:
#
# PCOD9126871 Si02
#       7
#     4   4   4   4   2   4   2
#     4   9  22  42  63  95 131 162 218 262 313 395
#     4  12  25  41  68  94 129 177 216 266 326 378
#     4  11  22  42  70  94 131 172 211 270 325 378
#     4  11  25  43  65  97 131 169 221 266 321 386
#     4  10  22  42  68  94 130 172 212 262 322 390
#     4  11  23  42  67  97 132 166 216 273 320 381
#     4  12  24  44  64  96 130 170 220 272 316 384
#
# _framework density 19.021553999999998
#
# number of rings (size 3 to 8) (size 9 to 14) (size 15 to 20)
#    0.500    0.667    4.167    2.000    0.000    4.000 
#    0.000    5.000    0.000    0.000    0.000    0.000 
#    0.000    0.000    0.000    0.000    0.000    0.000 
#
# Total GULP energy -67018.766581 kJ/mol
# GULP energy per Si atom -5584.897215 kJ/mol
# Density = 1.897826 g / cm^3
# Si number density = 19.021554 Si / 1000 Ang^3
#
#
#
# Elastic Constant Matrix: (Units=GPa)
#
#
# Indices 1 2 3 4 5 6 
#
# 1 118.4794 40.0156 44.8695 0.0000 -13.1450 0.0000
# 2 40.0156 94.3017 31.0326 0.0000 -30.0538 0.0000
# 3 44.8695 31.0326 97.4425 0.0000 -36.3661 0.0000
# 4 0.0000 0.0000 0.0000 74.3665 0.0000 -5.9241
# 5 -13.1450 -30.0538 -36.3661 0.0000 34.3496 0.0000
# 6 0.0000 0.0000 0.0000 -5.9241 0.0000 14.0336
#
#
#
# Elastic Compliance Matrix: (Units=1/GPa)
#
#
# Indices 1 2 3 4 5 6 
#
# 1 0.011780 -0.005012 -0.006253 0.000000 -0.006497 0.000000
# 2 -0.005012 0.016839 0.002856 0.000000 0.015839 0.000000
# 3 -0.006253 0.002856 0.020288 0.000000 0.021585 0.000000
# 4 0.000000 0.000000 0.000000 0.013915 0.000000 0.005874
# 5 -0.006497 0.015839 0.021585 0.000000 0.063336 0.000000
# 6 0.000000 0.000000 0.000000 0.005874 0.000000 0.073737
#
#
# Mechanical properties :
#
#
# Convention : Reuss Voigt Hill
#
# Bulk Modulus (GPa) = 31.16250 60.22881 45.69565
# Shear Modulus (GPa) = 21.98684 37.50366 29.74525
#
# Velocity S-wave (km/s) = 3.40353 4.44513 3.95874
# Velocity P-wave (km/s) = 5.64479 7.62088 6.70602
#
# Compressibility (1/GPa) = 0.03208986
#
# Stress axis : x y z
#
# Youngs Moduli (GPa) = 84.88806 59.38679 49.29061
#
# Poissons Ratio (x) = 0.29762 0.30822
# Poissons Ratio (y) = 0.42542 -0.14078
# Poissons Ratio (z) = 0.53081 -0.16962
#
# Static dielectric constant tensor:
#      x y z
#    x 1.628550 0.000000 0.005270 
#    y 0.000000 1.638470 0.000000 
#    z 0.005270 0.000000 1.656800 
# 
# From -- ./inp_files/48990.got.cif
#   From: 2010.05.17/outbox.cif.g08.bks.cpg/sg5_25_cif.got.tgz:48990.got - 2010.06.03 18:56:24.
