data_PCOD9126336
_publ_section_title
;
Structure prediction by ZEFSAII (Michael W. Deem and Ramdas Pophale) SiO2 
 PCOD9126336
Probable space group: C 2
;
_chemical_formula_sum "Si O2"
_cell_formula_units_Z 20
_cell_length_a 8.087890
_cell_length_b 23.831233
_cell_length_c 7.297657
_cell_angle_alpha 90.000000
_cell_angle_beta 36.833421
_cell_angle_gamma 90.000000
_cell_volume 843.232915
_symmetry_space_group_name_H-M "C 2"
_symmetry_group_IT_number 5
_symmetry_cell_setting 'monoclinic'
loop_
_space_group_symop_operation_xyz
x,y,z
-x,y,-z
1/2+x,1/2+y,z
1/2-x,1/2+y,-z
loop_
_atom_site_type_symbol
_atom_site_label
_atom_site_fract_x
_atom_site_fract_y
_atom_site_fract_z
Si Si1 0.624443 0.589720 0.076063
Si Si2 0.112419 0.653496 0.702033
Si Si3 0.397281 0.414429 0.377067
Si Si4 0.000000 0.761578 0.000000
Si Si5 0.906959 0.474642 0.882436
Si Si6 0.000000 0.334116 0.500000
O O1 0.390963 0.622474 0.398142
O O2 0.774460 0.535237 0.023009
O O3 0.500000 0.567353 0.000000
O O4 0.854356 0.634876 0.810978
O O5 0.112798 0.719829 0.739522
O O6 0.000000 0.632206 0.000000
O O7 0.500000 0.405382 0.500000
O O8 0.677685 0.430224 0.022882
O O9 0.201084 0.367097 0.464624
O O10 0.199293 0.469546 0.524782
O O11 0.269260 0.797295 0.812191
O O12 0.000000 0.455441 0.000000
#
# Coordination Sequence:
#
# PCOD9126336 Si02
#       6
#     4   4   4   2   4   2
#     4  12  23  37  65 101 137 179 226 281 346 405
#     4  10  23  43  64  87 134 177 232 281 329 425
#     4  10  23  40  63  98 139 171 226 281 346 419
#     4  10  24  44  70  96 120 184 248 272 350 410
#     4  10  22  40  60  95 137 185 218 268 339 427
#     4  12  22  42  74  96 128 184 230 302 346 396
#
# _framework density 23.718237999999999
#
# number of rings (size 3 to 8) (size 9 to 14) (size 15 to 20)
#    0.600    0.800    0.000    5.400    2.800    3.200 
#    0.000    4.000    0.000    1.200    0.000    0.000 
#    0.000    0.000    0.000    0.000    0.000    0.000 
#
# Total GULP energy -55700.345798 kJ/mol
# GULP energy per Si atom -5570.034580 kJ/mol
# Density = 2.366425 g / cm^3
# Si number density = 23.718238 Si / 1000 Ang^3
#
#
#
# Elastic Constant Matrix: (Units=GPa)
#
#
# Indices 1 2 3 4 5 6 
#
# 1 105.8444 42.4920 52.4640 0.0000 -32.6273 0.0000
# 2 42.4920 118.5430 62.3558 0.0000 -29.4663 0.0000
# 3 52.4640 62.3558 166.2904 0.0000 -24.8023 0.0000
# 4 0.0000 0.0000 0.0000 26.0107 0.0000 8.3425
# 5 -32.6273 -29.4663 -24.8023 0.0000 37.8034 0.0000
# 6 0.0000 0.0000 0.0000 8.3425 0.0000 3.3946
#
#
#
# Elastic Compliance Matrix: (Units=1/GPa)
#
#
# Indices 1 2 3 4 5 6 
#
# 1 0.014193 -0.001390 -0.002540 0.000000 0.009500 0.000000
# 2 -0.001390 0.012150 -0.003197 0.000000 0.006173 0.000000
# 3 -0.002540 -0.003197 0.008108 0.000000 0.000636 0.000000
# 4 0.000000 0.000000 0.000000 0.181547 0.000000 -0.446169
# 5 0.009500 0.006173 0.000636 0.000000 0.039881 0.000000
# 6 0.000000 0.000000 0.000000 -0.446169 0.000000 1.391087
#
#
# Mechanical properties :
#
#
# Convention : Reuss Voigt Hill
#
# Bulk Modulus (GPa) = 49.50858 78.36683 63.93770
# Shear Modulus (GPa) = 2.99769 28.99946 15.99858
#
# Velocity S-wave (km/s) = 1.12544 3.50046 2.59998
# Velocity P-wave (km/s) = 4.75476 7.03207 6.00241
#
# Compressibility (1/GPa) = 0.02019852
#
# Stress axis : x y z
#
# Youngs Moduli (GPa) = 70.45612 82.30364 123.32854
#
# Poissons Ratio (x) = 0.11443 0.31321
# Poissons Ratio (y) = 0.09795 0.39424
# Poissons Ratio (z) = 0.17893 0.26310
#
# Static dielectric constant tensor:
#      x y z
#    x 2.224380 0.000000 -0.078130 
#    y 0.000000 1.954290 0.000000 
#    z -0.078130 0.000000 2.040300 
# 
# From -- ./inp_files/17396.got.cif
#   From: 2010.05.17/outbox.cif.g08.bks.cpg/sg5_9_cif.got.tgz:17396.got - 2010.06.03 18:56:24.
