data_PCOD9126565
_publ_section_title
;
Structure prediction by ZEFSAII (Michael W. Deem and Ramdas Pophale) SiO2 
 PCOD9126565
Probable space group: C 2
;
_chemical_formula_sum "Si O2"
_cell_formula_units_Z 28
_cell_length_a 9.536825
_cell_length_b 5.407937
_cell_length_c 20.840457
_cell_angle_alpha 90.000000
_cell_angle_beta 97.308308
_cell_angle_gamma 90.000000
_cell_volume 1066.105197
_symmetry_space_group_name_H-M "C 2"
_symmetry_group_IT_number 5
_symmetry_cell_setting 'monoclinic'
loop_
_space_group_symop_operation_xyz
x,y,z
-x,y,-z
1/2+x,1/2+y,z
1/2-x,1/2+y,-z
loop_
_atom_site_type_symbol
_atom_site_label
_atom_site_fract_x
_atom_site_fract_y
_atom_site_fract_z
Si Si1 0.386101 0.833350 0.943293
Si Si2 0.556426 0.569397 0.183606
Si Si3 0.386073 0.255678 0.329408
Si Si4 0.875541 0.089864 0.608481
Si Si5 0.853050 0.445011 0.209469
Si Si6 0.406212 0.201192 0.086487
Si Si7 0.085799 0.581597 0.441257
O O1 0.376546 0.739162 0.869297
O O2 0.230371 0.784307 0.960637
O O3 0.450474 0.106408 0.937585
O O4 0.500000 0.717730 0.000000
O O5 0.687656 0.403331 0.215376
O O6 0.469232 0.735590 0.227633
O O7 0.445409 0.417844 0.136174
O O8 0.469092 0.502339 0.356910
O O9 0.226965 0.209225 0.343979
O O10 0.392782 0.181416 0.255469
O O11 0.475592 0.058042 0.375573
O O12 0.825207 0.821569 0.577026
O O13 0.862194 0.299656 0.552856
O O14 0.864376 0.481144 0.133246
O O15 0.000000 0.651276 0.500000
#
# Coordination Sequence:
#
# PCOD9126565 Si02
#       7
#     4   4   4   4   4   4   4
#     4  10  23  39  61  95 127 172 228 280 342 414
#     4  10  22  41  65  92 133 174 225 282 350 415
#     4  10  26  42  70 104 138 187 238 300 356 439
#     4  10  25  43  70 104 141 184 244 293 370 427
#     4  10  23  41  65  97 131 179 229 286 351 416
#     4  10  22  41  62  94 128 175 225 281 349 414
#     4  10  24  45  71 104 144 191 237 300 366 437
#
# _framework density 26.263822999999999
#
# number of rings (size 3 to 8) (size 9 to 14) (size 15 to 20)
#    0.857    1.143    0.000    1.286    8.000    1.714 
#    0.000    0.000    0.000    0.000    0.000    0.000 
#    0.000    0.000    0.000    0.000    0.000    0.000 
#
# Total GULP energy -77977.525164 kJ/mol
# GULP energy per Si atom -5569.823226 kJ/mol
# Density = 2.620405 g / cm^3
# Si number density = 26.263823 Si / 1000 Ang^3
#
#
#
# Elastic Constant Matrix: (Units=GPa)
#
#
# Indices 1 2 3 4 5 6 
#
# 1 170.4573 52.7249 27.4849 0.0000 3.8078 0.0000
# 2 52.7249 123.5242 14.1171 0.0000 -13.8957 0.0000
# 3 27.4849 14.1171 91.4701 0.0000 2.2676 0.0000
# 4 0.0000 0.0000 0.0000 27.0375 0.0000 -5.1436
# 5 3.8078 -13.8957 2.2676 0.0000 37.4409 0.0000
# 6 0.0000 0.0000 0.0000 -5.1436 0.0000 19.3880
#
#
#
# Elastic Compliance Matrix: (Units=1/GPa)
#
#
# Indices 1 2 3 4 5 6 
#
# 1 0.007110 -0.003047 -0.001623 0.000000 -0.001756 0.000000
# 2 -0.003047 0.009933 -0.000718 0.000000 0.004040 0.000000
# 3 -0.001623 -0.000718 0.011551 0.000000 -0.000801 0.000000
# 4 0.000000 0.000000 0.000000 0.038952 0.000000 0.010334
# 5 -0.001756 0.004040 -0.000801 0.000000 0.028435 0.000000
# 6 0.000000 0.000000 0.000000 0.010334 0.000000 0.054320
#
#
# Mechanical properties :
#
#
# Convention : Reuss Voigt Hill
#
# Bulk Modulus (GPa) = 56.11970 63.78949 59.95460
# Shear Modulus (GPa) = 29.93772 36.18157 33.05964
#
# Velocity S-wave (km/s) = 3.37988 3.71566 3.55174
# Velocity P-wave (km/s) = 6.05355 6.53826 6.30057
#
# Compressibility (1/GPa) = 0.01781905
#
# Stress axis : x y z
#
# Youngs Moduli (GPa) = 140.65004 100.67943 86.57489
#
# Poissons Ratio (x) = 0.30675 0.14048
# Poissons Ratio (y) = 0.42853 0.06212
# Poissons Ratio (z) = 0.22822 0.07225
#
# Static dielectric constant tensor:
#      x y z
#    x 2.171370 0.000000 -0.038150 
#    y 0.000000 2.127070 0.000000 
#    z -0.038150 0.000000 2.086590 
# 
# From -- ./inp_files/70080.got.cif
#   From: 2010.05.17/outbox.cif.g08.bks.cpg/sg5_36_cif.got.tgz:70080.got - 2010.06.03 18:56:24.
