data_PCOD9126235
_publ_section_title
;
Structure prediction by ZEFSAII (Michael W. Deem and Ramdas Pophale) SiO2 
 PCOD9126235
Probable space group: C 2
;
_chemical_formula_sum "Si O2"
_cell_formula_units_Z 24
_cell_length_a 25.784222
_cell_length_b 5.148222
_cell_length_c 14.216057
_cell_angle_alpha 90.000000
_cell_angle_beta 28.716860
_cell_angle_gamma 90.000000
_cell_volume 906.707492
_symmetry_space_group_name_H-M "C 2"
_symmetry_group_IT_number 5
_symmetry_cell_setting 'monoclinic'
loop_
_space_group_symop_operation_xyz
x,y,z
-x,y,-z
1/2+x,1/2+y,z
1/2-x,1/2+y,-z
loop_
_atom_site_type_symbol
_atom_site_label
_atom_site_fract_x
_atom_site_fract_y
_atom_site_fract_z
Si Si1 0.681869 0.080200 0.585950
Si Si2 0.952167 0.608830 0.719223
Si Si3 0.036826 0.818821 0.084009
Si Si4 0.745832 0.600368 0.243779
Si Si5 0.674474 0.125015 0.257312
Si Si6 0.560361 0.723233 0.654509
O O1 0.764710 0.321197 0.454364
O O2 0.566166 0.193172 0.802446
O O3 0.638464 0.965102 0.556063
O O4 0.850339 0.642223 0.813891
O O5 0.948377 0.743206 0.827425
O O6 0.058586 0.682803 0.490736
O O7 0.976857 0.309599 0.708040
O O8 0.001627 0.117703 0.155422
O O9 0.149816 0.711534 0.868354
O O10 0.757158 0.340070 0.164701
O O11 0.651213 0.538844 0.468253
O O12 0.707012 0.837388 0.239044
#
# Coordination Sequence:
#
# PCOD9126235 Si02
#       6
#     4   4   4   4   4   4
#     4  11  23  43  73  94 121 166 213 267 341 409
#     4   9  21  37  64  91 131 183 219 265 323 373
#     4  11  23  41  70  93 132 169 220 270 334 394
#     4  11  25  39  64  98 132 174 220 269 326 385
#     4  10  22  39  60  94 135 175 226 267 310 387
#     4  10  22  44  68  95 132 177 214 277 333 399
#
# _framework density 26.469396
#
# number of rings (size 3 to 8) (size 9 to 14) (size 15 to 20)
#    0.000    1.667    3.333    0.000    7.000    2.667 
#    0.000    0.833    7.333    0.000    0.000    0.000 
#    0.000    0.000    0.000    0.000    0.000    0.000 
#
# Total GULP energy -66965.924123 kJ/mol
# GULP energy per Si atom -5580.493677 kJ/mol
# Density = 2.640915 g / cm^3
# Si number density = 26.469396 Si / 1000 Ang^3
#
#
#
# Elastic Constant Matrix: (Units=GPa)
#
#
# Indices 1 2 3 4 5 6 
#
# 1 94.2260 18.0721 0.2592 -0.0029 -29.3750 0.0008
# 2 18.0721 130.2402 19.8223 -0.0227 -20.8992 0.0026
# 3 0.2592 19.8223 122.0663 -0.0133 -15.4559 -0.0014
# 4 -0.0029 -0.0227 -0.0133 21.6125 -0.0009 -5.9070
# 5 -29.3750 -20.8992 -15.4559 -0.0009 40.9120 0.0004
# 6 0.0008 0.0026 -0.0014 -5.9070 0.0004 24.1359
#
#
#
# Elastic Compliance Matrix: (Units=1/GPa)
#
#
# Indices 1 2 3 4 5 6 
#
# 1 0.013893 -0.000491 0.001346 0.000003 0.010233 0.000000
# 2 -0.000491 0.008468 -0.000915 0.000009 0.003628 0.000001
# 3 0.001346 -0.000915 0.008823 0.000005 0.003832 0.000002
# 4 0.000003 0.000009 0.000005 0.049586 0.000009 0.012136
# 5 0.010233 0.003628 0.003832 0.000009 0.035091 0.000001
# 6 0.000000 0.000001 0.000002 0.012136 0.000001 0.044402
#
#
# Mechanical properties :
#
#
# Convention : Reuss Voigt Hill
#
# Bulk Modulus (GPa) = 32.19004 46.98220 39.58612
# Shear Modulus (GPa) = 29.28464 37.89065 33.58765
#
# Velocity S-wave (km/s) = 3.32981 3.78761 3.56606
# Velocity P-wave (km/s) = 5.19337 6.07586 5.65187
#
# Compressibility (1/GPa) = 0.03106551
#
# Stress axis : x y z
#
# Youngs Moduli (GPa) = 71.97642 118.09817 113.33758
#
# Poissons Ratio (x) = 0.05794 -0.15254
# Poissons Ratio (y) = 0.03531 0.10367
# Poissons Ratio (z) = -0.09687 0.10802
#
# Static dielectric constant tensor:
#      x y z
#    x 2.133500 0.000000 0.073900 
#    y 0.000000 2.273150 0.000010 
#    z 0.073900 0.000010 2.141130 
# 
# From -- ./inp_files/58283.got.cif
#   From: 2010.05.17/outbox.cif.g08.bks.cpg/sg5_30_cif.got.tgz:58283.got - 2010.06.03 18:56:24.
