data_PCOD9126241
_publ_section_title
;
Structure prediction by ZEFSAII (Michael W. Deem and Ramdas Pophale) SiO2 
 PCOD9126241
Probable space group: C 2
;
_chemical_formula_sum "Si O2"
_cell_formula_units_Z 30
_cell_length_a 18.814755
_cell_length_b 11.066525
_cell_length_c 7.360295
_cell_angle_alpha 90.000000
_cell_angle_beta 94.115602
_cell_angle_gamma 90.000000
_cell_volume 1528.564209
_symmetry_space_group_name_H-M "C 2"
_symmetry_group_IT_number 5
_symmetry_cell_setting 'monoclinic'
loop_
_space_group_symop_operation_xyz
x,y,z
-x,y,-z
1/2+x,1/2+y,z
1/2-x,1/2+y,-z
loop_
_atom_site_type_symbol
_atom_site_label
_atom_site_fract_x
_atom_site_fract_y
_atom_site_fract_z
Si Si1 0.642156 0.809000 0.562729
Si Si2 0.247789 0.256929 0.256607
Si Si3 0.415014 0.168550 0.928474
Si Si4 0.043887 0.483814 0.344226
Si Si5 0.367102 0.677758 0.070047
Si Si6 0.189111 0.523361 0.818496
Si Si7 0.167085 0.910578 0.982691
Si Si8 0.000000 0.340300 0.000000
O O1 0.702459 0.790700 0.422785
O O2 0.577780 0.859977 0.429905
O O3 0.638181 0.703819 0.713738
O O4 0.654161 0.922576 0.693015
O O5 0.286644 0.132302 0.304178
O O6 0.199749 0.224441 0.066615
O O7 0.304587 0.355902 0.202436
O O8 0.376169 0.300549 0.929212
O O9 0.411721 0.092137 0.740097
O O10 0.500000 0.180817 0.000000
O O11 0.365713 0.084374 0.050433
O O12 0.000000 0.539245 0.500000
O O13 0.999924 0.428897 0.170456
O O14 0.431850 0.755415 0.003757
O O15 0.376515 0.534621 0.043722
O O16 0.259423 0.458745 0.912879
#
# Coordination Sequence:
#
# PCOD9126241 Si02
#       8
#     4   4   4   4   4   4   4   2
#     4  12  22  36  65  97 122 168 229 283 332 392
#     4  10  22  39  61  91 129 169 217 273 336 399
#     4  11  23  43  70  97 136 180 226 280 340 410
#     4  12  23  38  66  96 128 172 228 284 339 405
#     4  11  23  40  64  93 132 174 224 273 335 405
#     4  10  22  41  63  96 130 172 223 276 338 406
#     4  10  23  43  67  93 136 183 219 271 352 409
#     4  12  22  42  62  96 136 174 218 284 338 408
#
# _framework density 19.626259999999998
#
# number of rings (size 3 to 8) (size 9 to 14) (size 15 to 20)
#    0.000    1.067    4.667    2.400    2.800    1.067 
#    0.000    0.000    0.000    0.800    0.000    0.000 
#    0.000    0.000    0.000    0.000    0.000    0.000 
#
# Total GULP energy -83527.725381 kJ/mol
# GULP energy per Si atom -5568.515025 kJ/mol
# Density = 1.958159 g / cm^3
# Si number density = 19.626260 Si / 1000 Ang^3
#
#
#
# Elastic Constant Matrix: (Units=GPa)
#
#
# Indices 1 2 3 4 5 6 
#
# 1 77.5124 39.3162 27.2083 0.0000 -18.3457 0.0000
# 2 39.3162 143.6616 50.4754 0.0000 -16.8986 0.0000
# 3 27.2083 50.4754 96.9158 0.0000 -23.2843 0.0000
# 4 0.0000 0.0000 0.0000 17.3435 0.0000 -18.9875
# 5 -18.3457 -16.8986 -23.2843 0.0000 38.6123 0.0000
# 6 0.0000 0.0000 0.0000 -18.9875 0.0000 14.8809
#
#
#
# Elastic Compliance Matrix: (Units=1/GPa)
#
#
# Indices 1 2 3 4 5 6 
#
# 1 0.016409 -0.003296 -0.001594 0.000000 0.005392 0.000000
# 2 -0.003296 0.009232 -0.003846 0.000000 0.000155 0.000000
# 3 -0.001594 -0.003846 0.014246 0.000000 0.006150 0.000000
# 4 0.000000 0.000000 0.000000 -0.145267 0.000000 -0.185356
# 5 0.005392 0.000155 0.006150 0.000000 0.032237 0.000000
# 6 0.000000 0.000000 0.000000 -0.185356 0.000000 -0.169308
#
#
# Mechanical properties :
#
#
# Convention : Reuss Voigt Hill
#
# Bulk Modulus (GPa) = 44.61281 61.34329 52.97805
# Shear Modulus (GPa) = -22.98794 27.57335 2.29270
#
# Velocity S-wave (km/s) = -3.42612 3.75229 1.08200
# Velocity P-wave (km/s) = 2.67011 7.07789 5.34911
#
# Compressibility (1/GPa) = 0.02241509
#
# Stress axis : x y z
#
# Youngs Moduli (GPa) = 60.94222 108.31512 70.19327
#
# Poissons Ratio (x) = 0.35703 0.11192
# Poissons Ratio (y) = 0.20088 0.26994
# Poissons Ratio (z) = 0.09717 0.41654
#
# Static dielectric constant tensor:
#      x y z
#    x 2.062630 0.000000 0.302050 
#    y 0.000000 1.724760 0.000000 
#    z 0.302050 0.000000 2.092480 
# 
# From -- ./inp_files/9577.got.cif
#   From: 2010.05.17/outbox.cif.g08.bks.cpg/sg5_5_cif.got.tgz:9577.got - 2010.06.03 18:56:24.
