data_PCOD9126885
_publ_section_title
;
Structure prediction by ZEFSAII (Michael W. Deem and Ramdas Pophale) SiO2 
 PCOD9126885
Probable space group: C 2
;
_chemical_formula_sum "Si O2"
_cell_formula_units_Z 26
_cell_length_a 26.278886
_cell_length_b 4.959674
_cell_length_c 23.012253
_cell_angle_alpha 90.000000
_cell_angle_beta 159.244522
_cell_angle_gamma 90.000000
_cell_volume 1062.891588
_symmetry_space_group_name_H-M "C 2"
_symmetry_group_IT_number 5
_symmetry_cell_setting 'monoclinic'
loop_
_space_group_symop_operation_xyz
x,y,z
-x,y,-z
1/2+x,1/2+y,z
1/2-x,1/2+y,-z
loop_
_atom_site_type_symbol
_atom_site_label
_atom_site_fract_x
_atom_site_fract_y
_atom_site_fract_z
Si Si1 0.328407 0.563960 0.561205
Si Si2 0.944329 0.908810 0.108860
Si Si3 0.011724 0.410222 0.919663
Si Si4 0.110244 0.360070 0.737756
Si Si5 0.758319 0.465273 0.737582
Si Si6 0.065226 0.821865 0.437902
Si Si7 0.500000 0.853198 0.500000
O O1 0.223698 0.365430 0.485072
O O2 0.483354 0.505960 0.754840
O O3 0.332822 0.463855 0.500176
O O4 0.002179 0.110775 0.120491
O O5 0.983567 0.610316 0.129697
O O6 0.772800 0.907874 0.928205
O O7 0.889767 0.513852 0.833589
O O8 0.160376 0.411658 0.115329
O O9 0.081078 0.479291 0.641747
O O10 0.005530 0.551966 0.662470
O O11 0.057574 0.050483 0.682135
O O12 0.664165 0.254061 0.599647
O O13 0.633253 0.680301 0.616118
#
# Coordination Sequence:
#
# PCOD9126885 Si02
#       7
#     4   4   4   4   4   4   2
#     4  12  26  47  73  96 132 180 228 283 337 403
#     4  12  25  45  69  98 135 175 227 275 340 401
#     4  11  25  42  67 101 135 175 223 282 340 390
#     4  11  25  41  68 100 139 178 220 279 336 410
#     4  10  23  42  67  98 138 176 225 279 332 410
#     4  11  25  42  67 101 134 179 225 278 336 396
#     4  10  22  42  68  98 144 180 224 266 350 398
#
# _framework density 24.461573000000001
#
# number of rings (size 3 to 8) (size 9 to 14) (size 15 to 20)
#    0.000    0.923    1.538    4.615    4.308    8.000 
#    0.000    0.000    0.000    0.000    0.000    0.000 
#    0.000    0.000    0.000    0.000    0.000    0.000 
#
# Total GULP energy -72648.336375 kJ/mol
# GULP energy per Si atom -5588.333567 kJ/mol
# Density = 2.440590 g / cm^3
# Si number density = 24.461573 Si / 1000 Ang^3
#
#
#
# Elastic Constant Matrix: (Units=GPa)
#
#
# Indices 1 2 3 4 5 6 
#
# 1 27.1146 3.1413 3.1379 -0.0010 6.7508 -0.0009
# 2 3.1413 82.9976 22.4594 -0.0006 13.3120 -0.0014
# 3 3.1379 22.4594 146.6248 -0.0011 -4.0380 -0.0008
# 4 -0.0010 -0.0006 -0.0011 29.6215 0.0004 5.8277
# 5 6.7508 13.3120 -4.0380 0.0004 46.8623 0.0000
# 6 -0.0009 -0.0014 -0.0008 5.8277 0.0000 21.2170
#
#
#
# Elastic Compliance Matrix: (Units=1/GPa)
#
#
# Indices 1 2 3 4 5 6 
#
# 1 0.038399 -0.000317 -0.000925 0.000001 -0.005521 0.000001
# 2 -0.000317 0.013264 -0.002133 0.000000 -0.003906 0.000001
# 3 -0.000925 -0.002133 0.007204 0.000000 0.001360 0.000000
# 4 0.000001 0.000000 0.000000 0.035688 0.000000 -0.009802
# 5 -0.005521 -0.003906 0.001360 0.000000 0.023361 0.000000
# 6 0.000001 0.000001 0.000000 -0.009802 0.000000 0.049825
#
#
# Mechanical properties :
#
#
# Convention : Reuss Voigt Hill
#
# Bulk Modulus (GPa) = 19.18762 34.91266 27.05014
# Shear Modulus (GPa) = 26.06024 34.74006 30.40015
#
# Velocity S-wave (km/s) = 3.26752 3.77263 3.52912
# Velocity P-wave (km/s) = 4.70070 5.76892 5.26198
#
# Compressibility (1/GPa) = 0.05211694
#
# Stress axis : x y z
#
# Youngs Moduli (GPa) = 26.04231 75.39152 138.81124
#
# Poissons Ratio (x) = 0.02393 0.12843
# Poissons Ratio (y) = 0.00827 0.29602
# Poissons Ratio (z) = 0.02409 0.16077
#
# Static dielectric constant tensor:
#      x y z
#    x 2.019150 0.000000 0.017440 
#    y 0.000000 1.938410 0.000000 
#    z 0.017440 0.000000 1.927880 
# 
# From -- ./inp_files/32192.got.cif
#   From: 2010.05.17/outbox.cif.g08.bks.cpg/sg5_17_cif.got.tgz:32192.got - 2010.06.03 18:56:24.
