data_PCOD9126970
_publ_section_title
;
Structure prediction by ZEFSAII (Michael W. Deem and Ramdas Pophale) SiO2 
 PCOD9126970
Probable space group: C 2
;
_chemical_formula_sum "Si O2"
_cell_formula_units_Z 30
_cell_length_a 14.996356
_cell_length_b 17.995977
_cell_length_c 14.485879
_cell_angle_alpha 90.000000
_cell_angle_beta 160.440755
_cell_angle_gamma 90.000000
_cell_volume 1308.782062
_symmetry_space_group_name_H-M "C 2"
_symmetry_group_IT_number 5
_symmetry_cell_setting 'monoclinic'
loop_
_space_group_symop_operation_xyz
x,y,z
-x,y,-z
1/2+x,1/2+y,z
1/2-x,1/2+y,-z
loop_
_atom_site_type_symbol
_atom_site_label
_atom_site_fract_x
_atom_site_fract_y
_atom_site_fract_z
Si Si1 0.244543 0.414850 0.185582
Si Si2 0.479927 0.457081 0.218514
Si Si3 0.789370 0.807239 0.945009
Si Si4 0.487277 0.051369 0.719026
Si Si5 0.000000 0.252600 0.500000
Si Si6 0.478052 0.190343 0.369575
Si Si7 0.486023 0.777982 0.826820
Si Si8 0.095503 0.661115 0.199007
O O1 0.500000 0.400297 0.500000
O O2 0.373942 0.449845 0.220278
O O3 0.088295 0.343471 0.992649
O O4 0.000000 0.456232 0.000000
O O5 0.780762 0.484283 0.510412
O O6 0.443931 0.380314 0.128251
O O7 0.280973 0.520244 0.986855
O O8 0.697605 0.805348 0.749117
O O9 0.550425 0.801176 0.785409
O O10 0.947639 0.729667 0.104634
O O11 0.426690 0.116509 0.588215
O O12 0.443787 0.089951 0.776377
O O13 0.886185 0.196026 0.465806
O O14 0.500000 0.182174 0.500000
O O15 0.680447 0.256815 0.540683
O O16 0.181125 0.210628 0.046481
O O17 0.000000 0.650883 0.000000
#
# Coordination Sequence:
#
# PCOD9126970 Si02
#       8
#     4   4   4   4   2   4   4   4
#     4  11  22  41  64 101 134 173 222 272 334 417
#     4  11  28  44  69  96 144 188 225 279 359 410
#     4  10  23  44  70 104 132 185 229 294 347 416
#     4  12  26  47  66 101 143 184 228 288 349 422
#     4  10  22  42  74 106 130 174 250 296 348 406
#     4  12  24  41  66  98 132 177 224 277 338 399
#     4  11  22  39  71  98 136 164 222 284 339 398
#     4  10  23  42  73 106 136 181 239 295 356 410
#
# _framework density 22.922073999999999
#
# number of rings (size 3 to 8) (size 9 to 14) (size 15 to 20)
#    0.000    1.067    1.333    4.800    5.600    3.733 
#    1.200    0.000    0.000    0.000    0.000    0.000 
#    0.000    0.000    0.000    0.000    0.000    0.000 
#
# Total GULP energy -83896.933003 kJ/mol
# GULP energy per Si atom -5593.128867 kJ/mol
# Density = 2.286990 g / cm^3
# Si number density = 22.922074 Si / 1000 Ang^3
#
#
#
# Elastic Constant Matrix: (Units=GPa)
#
#
# Indices 1 2 3 4 5 6 
#
# 1 50.1509 15.2751 1.1831 0.0010 -1.1654 -0.0006
# 2 15.2751 75.9717 11.0979 0.0016 -19.0588 -0.0005
# 3 1.1831 11.0979 73.8477 0.0016 -6.1394 -0.0018
# 4 0.0010 0.0016 0.0016 33.3250 0.0003 6.5012
# 5 -1.1654 -19.0588 -6.1394 0.0003 29.0090 -0.0003
# 6 -0.0006 -0.0005 -0.0018 6.5012 -0.0003 25.8434
#
#
#
# Elastic Compliance Matrix: (Units=1/GPa)
#
#
# Indices 1 2 3 4 5 6 
#
# 1 0.021377 -0.004911 0.000202 0.000000 -0.002325 0.000000
# 2 -0.004911 0.017061 -0.001598 -0.000001 0.010674 0.000000
# 3 0.000202 -0.001598 0.013937 -0.000001 0.001908 0.000001
# 4 0.000000 -0.000001 -0.000001 0.031556 -0.000001 -0.007938
# 5 -0.002325 0.010674 0.001908 -0.000001 0.041795 0.000001
# 6 0.000000 0.000000 0.000001 -0.007938 0.000001 0.040692
#
#
# Mechanical properties :
#
#
# Convention : Reuss Voigt Hill
#
# Bulk Modulus (GPa) = 25.14969 28.34251 26.74610
# Shear Modulus (GPa) = 26.00310 29.12975 27.56642
#
# Velocity S-wave (km/s) = 3.37176 3.56872 3.47164
# Velocity P-wave (km/s) = 5.11410 5.41965 5.26909
#
# Compressibility (1/GPa) = 0.03976192
#
# Stress axis : x y z
#
# Youngs Moduli (GPa) = 46.77975 58.61223 71.75199
#
# Poissons Ratio (x) = 0.28783 -0.01451
# Poissons Ratio (y) = 0.22973 0.11466
# Poissons Ratio (z) = -0.00946 0.09366
#
# Static dielectric constant tensor:
#      x y z
#    x 1.895560 0.000000 0.005380 
#    y 0.000000 1.846490 0.000000 
#    z 0.005380 0.000000 1.904320 
# 
# From -- ./inp_files/54999.got.cif
#   From: 2010.05.17/outbox.cif.g08.bks.cpg/sg5_28_cif.got.tgz:54999.got - 2010.06.03 18:56:24.
