data_PCOD9126283
_publ_section_title
;
Structure prediction by ZEFSAII (Michael W. Deem and Ramdas Pophale) SiO2 
 PCOD9126283
Probable space group: C 2
;
_chemical_formula_sum "Si O2"
_cell_formula_units_Z 30
_cell_length_a 15.406324
_cell_length_b 9.681859
_cell_length_c 11.384032
_cell_angle_alpha 90.000000
_cell_angle_beta 60.867453
_cell_angle_gamma 90.000000
_cell_volume 1483.251235
_symmetry_space_group_name_H-M "C 2"
_symmetry_group_IT_number 5
_symmetry_cell_setting 'monoclinic'
loop_
_space_group_symop_operation_xyz
x,y,z
-x,y,-z
1/2+x,1/2+y,z
1/2-x,1/2+y,-z
loop_
_atom_site_type_symbol
_atom_site_label
_atom_site_fract_x
_atom_site_fract_y
_atom_site_fract_z
Si Si1 0.187039 0.716860 0.625213
Si Si2 0.660904 0.793221 0.861878
Si Si3 0.034206 0.953203 0.733222
Si Si4 0.619954 0.115878 0.923171
Si Si5 0.500000 0.583717 0.000000
Si Si6 0.100461 0.242798 0.629035
Si Si7 0.867708 0.727476 0.835270
Si Si8 0.024590 0.532445 0.617466
O O1 0.129114 0.859856 0.640357
O O2 0.167271 0.675950 0.773202
O O3 0.300479 0.728944 0.513707
O O4 0.128204 0.602092 0.588303
O O5 0.588022 0.687938 0.977911
O O6 0.634342 0.773347 0.741674
O O7 0.771978 0.747575 0.818410
O O8 0.642342 0.951726 0.910437
O O9 0.936997 0.862036 0.776080
O O10 0.035120 0.989663 0.870450
O O11 0.041534 0.099263 0.664752
O O12 0.500000 0.133309 0.000000
O O13 0.658803 0.196392 0.012008
O O14 0.034951 0.370577 0.631005
O O15 0.937825 0.600275 0.751641
O O16 0.000000 0.565188 0.500000
#
# Coordination Sequence:
#
# PCOD9126283 Si02
#       8
#     4   4   4   4   2   4   4   4
#     4  11  22  42  72  96 131 179 224 275 331 414
#     4  11  24  42  69  97 135 173 229 275 340 402
#     4  10  22  39  65  97 133 163 224 274 336 388
#     4  12  21  45  70  98 135 183 222 274 343 411
#     4  10  22  40  64  96 126 176 208 282 324 402
#     4  11  23  45  67  99 131 181 224 277 338 406
#     4  11  25  43  68 100 135 178 220 286 337 408
#     4  11  23  45  67  97 133 178 225 276 342 401
#
# _framework density 20.225839000000001
#
# number of rings (size 3 to 8) (size 9 to 14) (size 15 to 20)
#    0.000    1.067    4.667    2.400    3.733    1.067 
#    4.800    0.667    0.000    0.000    0.000    0.000 
#    0.000    0.000    0.000    0.000    0.000    0.000 
#
# Total GULP energy -83884.591926 kJ/mol
# GULP energy per Si atom -5592.306128 kJ/mol
# Density = 2.017980 g / cm^3
# Si number density = 20.225839 Si / 1000 Ang^3
#
#
#
# Elastic Constant Matrix: (Units=GPa)
#
#
# Indices 1 2 3 4 5 6 
#
# 1 55.6664 13.8035 19.1864 0.0000 -7.9236 0.0000
# 2 13.8035 124.3978 28.9925 0.0000 -20.4762 0.0000
# 3 19.1864 28.9925 77.2095 0.0000 5.0455 0.0000
# 4 0.0000 0.0000 0.0000 16.2895 0.0000 4.0056
# 5 -7.9236 -20.4762 5.0455 0.0000 29.0085 0.0000
# 6 0.0000 0.0000 0.0000 4.0056 0.0000 8.4607
#
#
#
# Elastic Compliance Matrix: (Units=1/GPa)
#
#
# Indices 1 2 3 4 5 6 
#
# 1 0.020851 0.000122 -0.005669 0.000000 0.006767 0.000000
# 2 0.000122 0.010411 -0.004473 0.000000 0.008160 0.000000
# 3 -0.005669 -0.004473 0.016536 0.000000 -0.007582 0.000000
# 4 0.000000 0.000000 0.000000 0.069478 0.000000 -0.032893
# 5 0.006767 0.008160 -0.007582 0.000000 0.043400 0.000000
# 6 0.000000 0.000000 0.000000 -0.032893 0.000000 0.133766
#
#
# Mechanical properties :
#
#
# Convention : Reuss Voigt Hill
#
# Bulk Modulus (GPa) = 36.02751 42.35983 39.19367
# Shear Modulus (GPa) = 15.44478 23.77117 19.60798
#
# Velocity S-wave (km/s) = 2.76636 3.43197 3.11698
# Velocity P-wave (km/s) = 5.29669 6.05751 5.68983
#
# Compressibility (1/GPa) = 0.02775657
#
# Stress axis : x y z
#
# Youngs Moduli (GPa) = 47.95850 96.05411 60.47553
#
# Poissons Ratio (x) = -0.01167 0.34286
# Poissons Ratio (y) = -0.00583 0.27049
# Poissons Ratio (z) = 0.27190 0.42962
#
# Static dielectric constant tensor:
#      x y z
#    x 1.682990 0.000000 -0.004980 
#    y 0.000000 1.718530 0.000000 
#    z -0.004980 0.000000 1.779180 
# 
# From -- ./inp_files/41912.got.cif
#   From: 2010.05.17/outbox.cif.g08.bks.cpg/sg5_21_cif.got.tgz:41912.got - 2010.06.03 18:56:24.
