data_PCOD9126003
_publ_section_title
;
Structure prediction by ZEFSAII (Michael W. Deem and Ramdas Pophale) SiO2 
 PCOD9126003
Probable space group: C 2
;
_chemical_formula_sum "Si O2"
_cell_formula_units_Z 26
_cell_length_a 12.925194
_cell_length_b 19.206228
_cell_length_c 5.930223
_cell_angle_alpha 90.000000
_cell_angle_beta 48.409469
_cell_angle_gamma 90.000000
_cell_volume 1101.027688
_symmetry_space_group_name_H-M "C 2"
_symmetry_group_IT_number 5
_symmetry_cell_setting 'monoclinic'
loop_
_space_group_symop_operation_xyz
x,y,z
-x,y,-z
1/2+x,1/2+y,z
1/2-x,1/2+y,-z
loop_
_atom_site_type_symbol
_atom_site_label
_atom_site_fract_x
_atom_site_fract_y
_atom_site_fract_z
Si Si1 0.567381 0.659600 0.648707
Si Si2 0.866214 0.002748 0.360406
Si Si3 0.343265 0.373208 0.725650
Si Si4 0.727446 0.235828 0.375209
Si Si5 0.835017 0.467054 0.720177
Si Si6 0.500000 0.189011 0.000000
Si Si7 0.852511 0.615085 0.839696
O O1 0.500000 0.673439 0.500000
O O2 0.618556 0.579788 0.561061
O O3 0.676730 0.719781 0.549408
O O4 0.500000 0.659074 0.000000
O O5 0.864503 0.939868 0.536021
O O6 0.721231 0.993179 0.438589
O O7 0.000000 0.994362 0.000000
O O8 0.500000 0.344965 0.500000
O O9 0.250196 0.310426 0.765522
O O10 0.262929 0.403971 0.058274
O O11 0.731291 0.172536 0.185063
O O12 0.574693 0.233150 0.702628
O O13 0.799955 0.536536 0.915462
O O14 0.000000 0.452491 0.500000
O O15 0.610801 0.141700 0.967172
O O16 0.000000 0.609774 0.500000
#
# Coordination Sequence:
#
# PCOD9126003 Si02
#       7
#     4   4   4   4   4   2   4
#     4  11  27  50  79 113 153 209 272 330 394 480
#     4  11  24  44  76 108 149 209 267 325 393 475
#     4  12  26  45  75 109 153 203 263 324 398 484
#     4  11  25  44  71 105 150 197 259 318 394 472
#     4  11  25  46  73 109 156 200 262 326 399 470
#     4  10  22  36  72 100 144 188 252 320 380 452
#     4   9  20  40  67 106 139 189 251 314 380 464
#
# _framework density 23.614303
#
# number of rings (size 3 to 8) (size 9 to 14) (size 15 to 20)
#    0.000    1.231    3.077    1.846    7.538    1.846 
#    2.769    0.000    0.000    0.000    0.000    0.000 
#    0.000    0.000    0.000    0.000    0.000    0.000 
#
# Total GULP energy -72525.581398 kJ/mol
# GULP energy per Si atom -5578.890877 kJ/mol
# Density = 2.356056 g / cm^3
# Si number density = 23.614303 Si / 1000 Ang^3
#
#
#
# Elastic Constant Matrix: (Units=GPa)
#
#
# Indices 1 2 3 4 5 6 
#
# 1 166.2426 41.7795 14.8323 0.0000 19.1473 0.0000
# 2 41.7795 112.5059 12.8089 0.0000 10.0334 0.0000
# 3 14.8323 12.8089 75.6372 0.0000 -6.3646 0.0000
# 4 0.0000 0.0000 0.0000 22.7947 0.0000 16.2898
# 5 19.1473 10.0334 -6.3646 0.0000 27.6609 0.0000
# 6 0.0000 0.0000 0.0000 16.2898 0.0000 32.5324
#
#
#
# Elastic Compliance Matrix: (Units=1/GPa)
#
#
# Indices 1 2 3 4 5 6 
#
# 1 0.007196 -0.002103 -0.001438 0.000000 -0.004549 0.000000
# 2 -0.002103 0.010068 -0.001507 0.000000 -0.002543 0.000000
# 3 -0.001438 -0.001507 0.014162 0.000000 0.004800 0.000000
# 4 0.000000 0.000000 0.000000 0.068315 0.000000 -0.034207
# 5 -0.004549 -0.002543 0.004800 0.000000 0.041328 0.000000
# 6 0.000000 0.000000 0.000000 -0.034207 0.000000 0.047867
#
#
# Mechanical properties :
#
#
# Convention : Reuss Voigt Hill
#
# Bulk Modulus (GPa) = 46.87958 54.80303 50.84130
# Shear Modulus (GPa) = 24.25522 35.59525 29.92523
#
# Velocity S-wave (km/s) = 3.20838 3.88669 3.56371
# Velocity P-wave (km/s) = 5.79830 6.58785 6.20564
#
# Compressibility (1/GPa) = 0.02133125
#
# Stress axis : x y z
#
# Youngs Moduli (GPa) = 138.96513 99.32829 70.61143
#
# Poissons Ratio (x) = 0.20888 0.10153
# Poissons Ratio (y) = 0.29223 0.10638
# Poissons Ratio (z) = 0.19981 0.14964
#
# Static dielectric constant tensor:
#      x y z
#    x 2.026740 0.000000 -0.081930 
#    y 0.000000 1.880200 0.000000 
#    z -0.081930 0.000000 2.039730 
# 
# From -- ./inp_files/5576.got.cif
#   From: 2010.05.17/outbox.cif.g08.bks.cpg/sg5_3_cif.got.tgz:5576.got - 2010.06.03 18:56:24.
