data_PCOD9126284
_publ_section_title
;
Structure prediction by ZEFSAII (Michael W. Deem and Ramdas Pophale) SiO2 
 PCOD9126284
Probable space group: C 2
;
_chemical_formula_sum "Si O2"
_cell_formula_units_Z 26
_cell_length_a 7.846977
_cell_length_b 12.898819
_cell_length_c 13.901029
_cell_angle_alpha 90.000000
_cell_angle_beta 113.233289
_cell_angle_gamma 90.000000
_cell_volume 1292.916590
_symmetry_space_group_name_H-M "C 2"
_symmetry_group_IT_number 5
_symmetry_cell_setting 'monoclinic'
loop_
_space_group_symop_operation_xyz
x,y,z
-x,y,-z
1/2+x,1/2+y,z
1/2-x,1/2+y,-z
loop_
_atom_site_type_symbol
_atom_site_label
_atom_site_fract_x
_atom_site_fract_y
_atom_site_fract_z
Si Si1 0.530047 0.881820 0.891035
Si Si2 0.776091 0.589649 0.113651
Si Si3 0.883373 0.858812 0.573232
Si Si4 0.380719 0.652386 0.111643
Si Si5 0.568449 0.125889 0.342868
Si Si6 0.500000 0.978034 0.500000
Si Si7 0.182827 0.998135 0.729553
O O1 0.590446 0.772599 0.861844
O O2 0.677901 0.970537 0.899195
O O3 0.340707 0.918082 0.798564
O O4 0.500000 0.872693 0.000000
O O5 0.576694 0.608457 0.116455
O O6 0.931883 0.631250 0.220624
O O7 0.766678 0.643590 0.007660
O O8 0.883631 0.740346 0.610042
O O9 0.678011 0.905962 0.519978
O O10 0.000000 0.860154 0.500000
O O11 0.997223 0.934651 0.669422
O O12 0.328699 0.583300 0.189844
O O13 0.747313 0.060718 0.348230
O O14 0.472818 0.055337 0.403461
#
# Coordination Sequence:
#
# PCOD9126284 Si02
#       7
#     4   4   4   4   4   2   4
#     4  11  21  40  65  93 135 181 221 270 333 400
#     4  10  22  39  65  97 134 175 223 274 330 408
#     4  12  26  47  74 100 134 184 229 287 352 394
#     4  11  22  40  64 100 137 177 222 272 336 405
#     4  11  25  45  69 101 137 176 229 287 343 402
#     4  12  26  48  70 102 134 174 240 290 332 422
#     4  11  25  43  69 100 135 177 225 281 337 413
#
# _framework density 20.109573999999999
#
# number of rings (size 3 to 8) (size 9 to 14) (size 15 to 20)
#    0.000    0.923    5.385    1.846    0.000    4.923 
#    2.769    4.615    0.000    0.000    0.000    0.000 
#    0.000    0.000    0.000    0.000    0.000    0.000 
#
# Total GULP energy -72668.500274 kJ/mol
# GULP energy per Si atom -5589.884636 kJ/mol
# Density = 2.006380 g / cm^3
# Si number density = 20.109574 Si / 1000 Ang^3
#
#
#
# Elastic Constant Matrix: (Units=GPa)
#
#
# Indices 1 2 3 4 5 6 
#
# 1 63.1844 49.2014 27.2777 0.0000 9.1335 0.0000
# 2 49.2014 164.2344 65.7085 0.0000 10.0009 0.0000
# 3 27.2777 65.7085 75.0329 0.0000 2.3771 0.0000
# 4 0.0000 0.0000 0.0000 6.3569 0.0000 -2.3664
# 5 9.1335 10.0009 2.3771 0.0000 33.5169 0.0000
# 6 0.0000 0.0000 0.0000 -2.3664 0.0000 32.1897
#
#
#
# Elastic Compliance Matrix: (Units=1/GPa)
#
#
# Indices 1 2 3 4 5 6 
#
# 1 0.021730 -0.004842 -0.003526 0.000000 -0.004227 0.000000
# 2 -0.004842 0.010619 -0.007498 0.000000 -0.001317 0.000000
# 3 -0.003526 -0.007498 0.021121 0.000000 0.001700 0.000000
# 4 0.000000 0.000000 0.000000 0.161737 0.000000 0.011890
# 5 -0.004227 -0.001317 0.001700 0.000000 0.031260 0.000000
# 6 0.000000 0.000000 0.000000 0.011890 0.000000 0.031940
#
#
# Mechanical properties :
#
#
# Convention : Reuss Voigt Hill
#
# Bulk Modulus (GPa) = 45.99785 65.20299 55.60042
# Shear Modulus (GPa) = 15.75374 25.09698 20.42536
#
# Velocity S-wave (km/s) = 2.80196 3.53655 3.19047
# Velocity P-wave (km/s) = 5.77851 7.01217 6.42502
#
# Compressibility (1/GPa) = 0.02174015
#
# Stress axis : x y z
#
# Youngs Moduli (GPa) = 46.01890 94.16738 47.34546
#
# Poissons Ratio (x) = 0.45595 0.16693
# Poissons Ratio (y) = 0.22282 0.35498
# Poissons Ratio (z) = 0.16225 0.70604
#
# Static dielectric constant tensor:
#      x y z
#    x 1.711970 0.000000 -0.012750 
#    y 0.000000 1.666990 0.000000 
#    z -0.012750 0.000000 1.734990 
# 
# From -- ./inp_files/50368.got.cif
#   From: 2010.05.17/outbox.cif.g08.bks.cpg/sg5_26_cif.got.tgz:50368.got - 2010.06.03 18:56:24.
