data_PCOD9126758
_publ_section_title
;
Structure prediction by ZEFSAII (Michael W. Deem and Ramdas Pophale) SiO2 
 PCOD9126758
Probable space group: C 2
;
_chemical_formula_sum "Si O2"
_cell_formula_units_Z 26
_cell_length_a 22.314361
_cell_length_b 7.462118
_cell_length_c 16.064612
_cell_angle_alpha 90.000000
_cell_angle_beta 31.201805
_cell_angle_gamma 90.000000
_cell_volume 1385.772064
_symmetry_space_group_name_H-M "C 2"
_symmetry_group_IT_number 5
_symmetry_cell_setting 'monoclinic'
loop_
_space_group_symop_operation_xyz
x,y,z
-x,y,-z
1/2+x,1/2+y,z
1/2-x,1/2+y,-z
loop_
_atom_site_type_symbol
_atom_site_label
_atom_site_fract_x
_atom_site_fract_y
_atom_site_fract_z
Si Si1 0.500000 0.974741 0.000000
Si Si2 0.749569 0.843548 0.896489
Si Si3 0.350272 0.620234 0.458678
Si Si4 0.745243 0.331578 0.300557
Si Si5 0.452600 0.135904 0.880851
Si Si6 0.320620 0.038644 0.490914
Si Si7 0.889770 0.998392 0.880737
O O1 0.615875 0.856619 0.862497
O O2 0.497332 0.094136 0.920261
O O3 0.646071 0.989642 0.020752
O O4 0.697222 0.652660 0.986023
O O5 0.792097 0.832023 0.750982
O O6 0.844178 0.910514 0.849498
O O7 0.307466 0.497787 0.585487
O O8 0.330585 0.829344 0.498012
O O9 0.484444 0.583742 0.281690
O O10 0.276361 0.566797 0.464930
O O11 0.710197 0.155204 0.392340
O O12 0.559282 0.108937 0.691217
O O13 0.402645 0.334489 0.929782
#
# Coordination Sequence:
#
# PCOD9126758 Si02
#       7
#     2   4   4   4   4   4   4
#     4  10  22  42  64 102 136 168 220 278 326 402
#     4  11  26  45  68  97 131 175 232 274 323 391
#     4  12  23  40  71 100 134 179 212 268 336 402
#     4  11  25  42  65 101 139 169 221 279 326 392
#     4  11  21  43  69  96 136 171 217 276 333 392
#     4  12  22  43  67 103 135 172 217 267 343 401
#     4  12  24  45  72  92 130 183 223 270 336 387
#
# _framework density 18.762104999999998
#
# number of rings (size 3 to 8) (size 9 to 14) (size 15 to 20)
#    0.000    0.615    7.692    0.000    2.154    3.077 
#    0.000    0.769    3.385    0.000    0.000    0.000 
#    0.000    0.000    0.000    0.000    0.000    0.000 
#
# Total GULP energy -72706.668171 kJ/mol
# GULP energy per Si atom -5592.820629 kJ/mol
# Density = 1.871940 g / cm^3
# Si number density = 18.762105 Si / 1000 Ang^3
#
#
#
# Elastic Constant Matrix: (Units=GPa)
#
#
# Indices 1 2 3 4 5 6 
#
# 1 63.1081 36.7344 20.9479 0.0003 7.3234 -0.0002
# 2 36.7344 166.1074 31.3516 0.0004 10.3835 -0.0004
# 3 20.9479 31.3516 52.9486 0.0004 11.9354 -0.0004
# 4 0.0003 0.0004 0.0004 29.9686 -0.0002 6.3718
# 5 7.3234 10.3835 11.9354 -0.0002 27.5430 0.0001
# 6 -0.0002 -0.0004 -0.0004 6.3718 0.0001 27.1061
#
#
#
# Elastic Compliance Matrix: (Units=1/GPa)
#
#
# Indices 1 2 3 4 5 6 
#
# 1 0.019748 -0.003220 -0.005537 0.000000 -0.001637 0.000000
# 2 -0.003220 0.007323 -0.002918 0.000000 -0.000640 0.000000
# 3 -0.005537 -0.002918 0.024631 0.000000 -0.008101 0.000000
# 4 0.000000 0.000000 0.000000 0.035124 0.000000 -0.008256
# 5 -0.001637 -0.000640 -0.008101 0.000000 0.040494 0.000000
# 6 0.000000 0.000000 0.000000 -0.008256 0.000000 0.038833
#
#
# Mechanical properties :
#
#
# Convention : Reuss Voigt Hill
#
# Bulk Modulus (GPa) = 35.27098 51.13687 43.20393
# Shear Modulus (GPa) = 25.13154 29.79888 27.46521
#
# Velocity S-wave (km/s) = 3.66387 3.98961 3.83020
# Velocity P-wave (km/s) = 6.06122 6.96686 6.52976
#
# Compressibility (1/GPa) = 0.02835192
#
# Stress axis : x y z
#
# Youngs Moduli (GPa) = 50.63791 136.55603 40.59958
#
# Poissons Ratio (x) = 0.43968 0.22481
# Poissons Ratio (y) = 0.16304 0.11847
# Poissons Ratio (z) = 0.28040 0.39846
#
# Static dielectric constant tensor:
#      x y z
#    x 1.633310 0.000000 -0.009510 
#    y 0.000000 1.629920 0.000000 
#    z -0.009510 0.000000 1.633730 
# 
# From -- ./inp_files/63149.got.cif
#   From: 2010.05.17/outbox.cif.g08.bks.cpg/sg5_32_cif.got.tgz:63149.got - 2010.06.03 18:56:24.
