data_PCOD9126736
_publ_section_title
;
Structure prediction by ZEFSAII (Michael W. Deem and Ramdas Pophale) SiO2 
 PCOD9126736
Probable space group: C 2
;
_chemical_formula_sum "Si O2"
_cell_formula_units_Z 30
_cell_length_a 11.866069
_cell_length_b 7.937996
_cell_length_c 30.632507
_cell_angle_alpha 90.000000
_cell_angle_beta 152.803008
_cell_angle_gamma 90.000000
_cell_volume 1318.758194
_symmetry_space_group_name_H-M "C 2"
_symmetry_group_IT_number 5
_symmetry_cell_setting 'monoclinic'
loop_
_space_group_symop_operation_xyz
x,y,z
-x,y,-z
1/2+x,1/2+y,z
1/2-x,1/2+y,-z
loop_
_atom_site_type_symbol
_atom_site_label
_atom_site_fract_x
_atom_site_fract_y
_atom_site_fract_z
Si Si1 0.342281 0.402670 0.260281
Si Si2 0.704910 0.425610 0.316568
Si Si3 0.607841 0.796961 0.408062
Si Si4 0.557013 0.707932 0.825295
Si Si5 0.592637 0.179301 0.128664
Si Si6 0.816440 0.421992 0.972516
Si Si7 0.759129 0.183947 0.448952
Si Si8 0.500000 0.068639 0.500000
O O1 0.461004 0.347523 0.254573
O O2 0.282872 0.597420 0.228806
O O3 0.560281 0.325112 0.365367
O O4 0.094745 0.333206 0.196695
O O5 0.633727 0.599454 0.269176
O O6 0.817947 0.303597 0.319387
O O7 0.903837 0.470984 0.423335
O O8 0.662956 0.991734 0.415429
O O9 0.699703 0.728287 0.486553
O O10 0.765496 0.684169 0.430045
O O11 0.755923 0.771068 0.858210
O O12 0.688908 0.574157 0.902133
O O13 0.386764 0.296604 0.078642
O O14 0.466101 0.015846 0.062436
O O15 0.000000 0.340548 0.000000
O O16 0.000000 0.180602 0.500000
#
# Coordination Sequence:
#
# PCOD9126736 Si02
#       8
#     4   4   4   4   4   4   4   2
#     4  11  22  41  64  90 131 169 212 266 320 380
#     4  11  23  39  59  87 128 165 213 273 325 365
#     4  12  23  39  63  85 120 171 223 274 328 374
#     4  10  22  42  62  93 130 164 211 264 318 382
#     4  10  23  41  68 100 128 169 204 260 324 384
#     4  10  22  44  70  97 132 163 205 258 320 393
#     4  12  24  42  62  92 125 176 227 276 326 380
#     4  12  24  38  62  92 122 168 230 278 318 386
#
# _framework density 22.748674000000001
#
# number of rings (size 3 to 8) (size 9 to 14) (size 15 to 20)
#    0.000    1.067    4.667    1.600    0.000    3.200 
#    0.000    1.333    0.000    0.000    0.000    0.000 
#    0.000    0.000    0.000    0.000    0.000    0.000 
#
# Total GULP energy -83622.073978 kJ/mol
# GULP energy per Si atom -5574.804932 kJ/mol
# Density = 2.269690 g / cm^3
# Si number density = 22.748674 Si / 1000 Ang^3
#
#
#
# Elastic Constant Matrix: (Units=GPa)
#
#
# Indices 1 2 3 4 5 6 
#
# 1 213.3750 57.9120 41.3466 -0.0001 46.5875 0.0000
# 2 57.9120 43.8760 12.1662 -0.0002 8.3234 0.0000
# 3 41.3466 12.1662 69.2361 -0.0002 13.7216 0.0000
# 4 -0.0001 -0.0002 -0.0002 23.9103 0.0001 5.7022
# 5 46.5875 8.3234 13.7216 0.0001 42.2948 0.0000
# 6 0.0000 0.0000 0.0000 5.7022 0.0000 52.5995
#
#
#
# Elastic Compliance Matrix: (Units=1/GPa)
#
#
# Indices 1 2 3 4 5 6 
#
# 1 0.009797 -0.010770 -0.002393 0.000000 -0.007896 0.000000
# 2 -0.010770 0.036316 -0.000945 0.000000 0.005023 0.000000
# 3 -0.002393 -0.000945 0.016543 0.000000 -0.002545 0.000000
# 4 0.000000 0.000000 0.000000 0.042933 0.000000 -0.004654
# 5 -0.007896 0.005023 -0.002545 0.000000 0.032178 0.000000
# 6 0.000000 0.000000 0.000000 -0.004654 0.000000 0.019516
#
#
# Mechanical properties :
#
#
# Convention : Reuss Voigt Hill
#
# Bulk Modulus (GPa) = 29.03689 61.03742 45.03715
# Shear Modulus (GPa) = 25.38317 38.09840 31.74078
#
# Velocity S-wave (km/s) = 3.34400 4.09681 3.73940
# Velocity P-wave (km/s) = 5.26324 7.01911 6.20361
#
# Compressibility (1/GPa) = 0.03443896
#
# Stress axis : x y z
#
# Youngs Moduli (GPa) = 102.06764 27.53595 60.44816
#
# Poissons Ratio (x) = 0.29656 0.14468
# Poissons Ratio (y) = 1.09928 0.05714
# Poissons Ratio (z) = 0.24430 0.02603
#
# Static dielectric constant tensor:
#      x y z
#    x 1.876130 0.000000 -0.002340 
#    y 0.000000 1.841140 0.000000 
#    z -0.002340 0.000000 2.029150 
# 
# From -- ./inp_files/71714.got.cif
#   From: 2010.05.17/outbox.cif.g08.bks.cpg/sg5_36_cif.got.tgz:71714.got - 2010.06.03 18:56:24.
