data_PCOD9126905
_publ_section_title
;
Structure prediction by ZEFSAII (Michael W. Deem and Ramdas Pophale) SiO2 
 PCOD9126905
Probable space group: C 2
;
_chemical_formula_sum "Si O2"
_cell_formula_units_Z 26
_cell_length_a 10.051099
_cell_length_b 10.595867
_cell_length_c 14.933723
_cell_angle_alpha 90.000000
_cell_angle_beta 129.427220
_cell_angle_gamma 90.000000
_cell_volume 1228.509060
_symmetry_space_group_name_H-M "C 2"
_symmetry_group_IT_number 5
_symmetry_cell_setting 'monoclinic'
loop_
_space_group_symop_operation_xyz
x,y,z
-x,y,-z
1/2+x,1/2+y,z
1/2-x,1/2+y,-z
loop_
_atom_site_type_symbol
_atom_site_label
_atom_site_fract_x
_atom_site_fract_y
_atom_site_fract_z
Si Si1 0.955256 0.083090 0.128167
Si Si2 0.607184 0.424451 0.356612
Si Si3 0.191342 0.732978 0.127522
Si Si4 0.453777 0.127028 0.667355
Si Si5 0.000000 0.506659 0.500000
Si Si6 0.728628 0.520407 0.119304
Si Si7 0.370772 0.598558 0.376963
O O1 0.838407 0.192525 0.119208
O O2 0.030031 0.996760 0.237811
O O3 0.112488 0.115637 0.129211
O O4 0.834041 0.007294 0.008386
O O5 0.571966 0.276106 0.340668
O O6 0.814773 0.441403 0.440090
O O7 0.492656 0.491966 0.385410
O O8 0.263054 0.666490 0.250086
O O9 0.206764 0.882073 0.151171
O O10 0.000000 0.707122 0.000000
O O11 0.523089 0.088174 0.599927
O O12 0.585298 0.077235 0.796822
O O13 0.278098 0.057164 0.618668
O O14 0.500000 0.674548 0.500000
#
# Coordination Sequence:
#
# PCOD9126905 Si02
#       7
#     4   4   4   4   2   4   4
#     4  10  22  42  69  98 134 178 229 279 346 406
#     4  11  26  47  69 102 143 176 236 287 340 424
#     4  11  23  43  74 100 141 185 234 288 344 421
#     4  12  27  43  75 100 138 183 230 287 353 406
#     4  12  26  44  70 104 134 188 228 274 352 416
#     4  11  23  43  68 104 132 180 233 285 348 410
#     4  11  25  46  69 106 141 185 234 288 349 414
#
# _framework density 21.163865000000001
#
# number of rings (size 3 to 8) (size 9 to 14) (size 15 to 20)
#    0.000    0.923    4.615    1.846    4.308    1.231 
#    0.000    0.000    0.000    0.000    0.000    0.000 
#    0.000    0.000    0.000    0.000    0.000    0.000 
#
# Total GULP energy -72394.424212 kJ/mol
# GULP energy per Si atom -5568.801862 kJ/mol
# Density = 2.111569 g / cm^3
# Si number density = 21.163865 Si / 1000 Ang^3
#
#
#
# Elastic Constant Matrix: (Units=GPa)
#
#
# Indices 1 2 3 4 5 6 
#
# 1 135.7942 44.4284 32.7419 0.0000 18.6403 0.0000
# 2 44.4284 53.9376 26.2183 0.0000 25.0958 0.0000
# 3 32.7419 26.2183 114.2436 0.0000 35.2332 0.0000
# 4 0.0000 0.0000 0.0000 16.6947 0.0000 9.0954
# 5 18.6403 25.0958 35.2332 0.0000 44.0470 0.0000
# 6 0.0000 0.0000 0.0000 9.0954 0.0000 19.0420
#
#
#
# Elastic Compliance Matrix: (Units=1/GPa)
#
#
# Indices 1 2 3 4 5 6 
#
# 1 0.010287 -0.008538 -0.001522 0.000000 0.001728 0.000000
# 2 -0.008538 0.032596 -0.000558 0.000000 -0.014512 0.000000
# 3 -0.001522 -0.000558 0.011975 0.000000 -0.008617 0.000000
# 4 0.000000 0.000000 0.000000 0.080970 0.000000 -0.038675
# 5 0.001728 -0.014512 -0.008617 0.000000 0.037132 0.000000
# 6 0.000000 0.000000 0.000000 -0.038675 0.000000 0.070989
#
#
# Mechanical properties :
#
#
# Convention : Reuss Voigt Hill
#
# Bulk Modulus (GPa) = 29.74231 56.75027 43.24629
# Shear Modulus (GPa) = 18.09024 29.32919 23.70972
#
# Velocity S-wave (km/s) = 2.92682 3.72669 3.35071
# Velocity P-wave (km/s) = 5.05030 6.73725 5.95383
#
# Compressibility (1/GPa) = 0.03362214
#
# Stress axis : x y z
#
# Youngs Moduli (GPa) = 97.20836 30.67859 83.50801
#
# Poissons Ratio (x) = 0.26193 0.12709
# Poissons Ratio (y) = 0.82996 0.04660
# Poissons Ratio (z) = 0.14794 0.01712
#
# Static dielectric constant tensor:
#      x y z
#    x 1.845790 0.000000 -0.017060 
#    y 0.000000 1.715880 0.000000 
#    z -0.017060 0.000000 1.929640 
# 
# From -- ./inp_files/50360.got.cif
#   From: 2010.05.17/outbox.cif.g08.bks.cpg/sg5_26_cif.got.tgz:50360.got - 2010.06.03 18:56:24.
