data_PCOD9126854
_publ_section_title
;
Structure prediction by ZEFSAII (Michael W. Deem and Ramdas Pophale) SiO2 
 PCOD9126854
Probable space group: C 2
;
_chemical_formula_sum "Si O2"
_cell_formula_units_Z 26
_cell_length_a 10.605176
_cell_length_b 9.718134
_cell_length_c 20.621867
_cell_angle_alpha 90.000000
_cell_angle_beta 148.789200
_cell_angle_gamma 90.000000
_cell_volume 1101.327013
_symmetry_space_group_name_H-M "C 2"
_symmetry_group_IT_number 5
_symmetry_cell_setting 'monoclinic'
loop_
_space_group_symop_operation_xyz
x,y,z
-x,y,-z
1/2+x,1/2+y,z
1/2-x,1/2+y,-z
loop_
_atom_site_type_symbol
_atom_site_label
_atom_site_fract_x
_atom_site_fract_y
_atom_site_fract_z
Si Si1 0.500000 0.961931 0.500000
Si Si2 0.633927 0.920415 0.887195
Si Si3 0.487313 0.599634 0.282926
Si Si4 0.610093 0.350825 0.672987
Si Si5 0.801848 0.592620 0.212788
Si Si6 0.598010 0.859628 0.404301
Si Si7 0.219724 0.117179 0.944765
O O1 0.534942 0.866311 0.452556
O O2 0.262699 0.056511 0.384819
O O3 0.371226 0.854623 0.754141
O O4 0.781022 0.781046 0.970782
O O5 0.715961 0.021497 0.865393
O O6 0.607784 0.017231 0.938718
O O7 0.436049 0.501055 0.320232
O O8 0.458203 0.750479 0.299343
O O9 0.319053 0.577970 0.146751
O O10 0.623026 0.250460 0.741336
O O11 0.382022 0.320706 0.527243
O O12 0.539682 0.588133 0.132887
O O13 0.013011 0.507363 0.341633
#
# Coordination Sequence:
#
# PCOD9126854 Si02
#       7
#     2   4   4   4   4   4   4
#     4  10  22  42  68 100 146 176 220 290 342 410
#     4  11  26  46  68  97 140 180 233 290 339 411
#     4  11  23  41  70 101 136 178 229 280 346 411
#     4  10  25  41  66 104 136 178 220 289 350 407
#     4  11  23  46  69  99 135 183 232 281 348 407
#     4  11  22  41  72 105 136 182 226 280 352 416
#     4  11  25  46  70  99 131 189 231 281 345 408
#
# _framework density 23.607883000000001
#
# number of rings (size 3 to 8) (size 9 to 14) (size 15 to 20)
#    0.000    1.231    3.077    2.308    4.308    4.923 
#    2.769    0.000    0.000    0.000    0.000    0.000 
#    0.000    0.000    0.000    0.000    0.000    0.000 
#
# Total GULP energy -72644.962296 kJ/mol
# GULP energy per Si atom -5588.074023 kJ/mol
# Density = 2.355415 g / cm^3
# Si number density = 23.607883 Si / 1000 Ang^3
#
#
#
# Elastic Constant Matrix: (Units=GPa)
#
#
# Indices 1 2 3 4 5 6 
#
# 1 89.3358 22.2501 17.4550 0.0000 -26.2732 0.0000
# 2 22.2501 84.4440 -6.0789 0.0000 -5.2560 0.0000
# 3 17.4550 -6.0789 77.7479 0.0002 -8.9456 0.0001
# 4 0.0000 0.0000 0.0002 37.2633 0.0000 -14.4538
# 5 -26.2732 -5.2560 -8.9456 0.0000 41.0863 0.0000
# 6 0.0000 0.0000 0.0001 -14.4538 0.0000 37.8479
#
#
#
# Elastic Compliance Matrix: (Units=1/GPa)
#
#
# Indices 1 2 3 4 5 6 
#
# 1 0.015174 -0.003654 -0.002697 0.000000 0.008649 0.000000
# 2 -0.003654 0.012916 0.001797 0.000000 -0.000293 0.000000
# 3 -0.002697 0.001797 0.013781 0.000000 0.001506 0.000000
# 4 0.000000 0.000000 0.000000 0.031502 0.000000 0.012031
# 5 0.008649 -0.000293 0.001506 0.000000 0.030160 0.000000
# 6 0.000000 0.000000 0.000000 0.012031 0.000000 0.031016
#
#
# Mechanical properties :
#
#
# Convention : Reuss Voigt Hill
#
# Bulk Modulus (GPa) = 30.52334 35.42003 32.97169
# Shear Modulus (GPa) = 32.34559 37.76629 35.05594
#
# Velocity S-wave (km/s) = 3.70553 4.00400 3.85765
# Velocity P-wave (km/s) = 5.59154 6.03425 5.81710
#
# Compressibility (1/GPa) = 0.03276181
#
# Stress axis : x y z
#
# Youngs Moduli (GPa) = 65.90049 77.42294 72.56188
#
# Poissons Ratio (x) = 0.28292 0.19573
# Poissons Ratio (y) = 0.24081 -0.13036
# Poissons Ratio (z) = 0.17776 -0.13909
#
# Static dielectric constant tensor:
#      x y z
#    x 1.907940 0.000000 0.072940 
#    y 0.000000 1.831780 0.000000 
#    z 0.072940 0.000000 1.954310 
# 
# From -- ./inp_files/68320.got.cif
#   From: 2010.05.17/outbox.cif.g08.bks.cpg/sg5_35_cif.got.tgz:68320.got - 2010.06.03 18:56:24.
