data_PCOD9126997
_publ_section_title
;
Structure prediction by ZEFSAII (Michael W. Deem and Ramdas Pophale) SiO2 
 PCOD9126997
Probable space group: C 2
;
_chemical_formula_sum "Si O2"
_cell_formula_units_Z 28
_cell_length_a 14.611756
_cell_length_b 4.986192
_cell_length_c 16.550370
_cell_angle_alpha 90.000000
_cell_angle_beta 122.613914
_cell_angle_gamma 90.000000
_cell_volume 1015.680279
_symmetry_space_group_name_H-M "C 2"
_symmetry_group_IT_number 5
_symmetry_cell_setting 'monoclinic'
loop_
_space_group_symop_operation_xyz
x,y,z
-x,y,-z
1/2+x,1/2+y,z
1/2-x,1/2+y,-z
loop_
_atom_site_type_symbol
_atom_site_label
_atom_site_fract_x
_atom_site_fract_y
_atom_site_fract_z
Si Si1 0.524169 0.138530 0.227129
Si Si2 0.500000 0.075701 0.500000
Si Si3 0.825309 0.492262 0.036010
Si Si4 0.667298 0.749217 0.198729
Si Si5 0.861206 0.977046 0.331440
Si Si6 0.937343 0.155113 0.652719
Si Si7 0.500000 0.735665 0.000000
Si Si8 0.233676 0.401280 0.602111
O O1 0.403178 0.053668 0.148294
O O2 0.595935 0.011355 0.188906
O O3 0.525705 0.444604 0.257438
O O4 0.574732 0.954008 0.321123
O O5 0.441262 0.255963 0.405292
O O6 0.609823 0.948125 0.515436
O O7 0.741492 0.257369 0.015835
O O8 0.907627 0.398182 0.004784
O O9 0.780697 0.878121 0.223075
O O10 0.721451 0.575326 0.298228
O O11 0.580537 0.589131 0.102592
O O12 0.787542 0.112715 0.366021
O O13 0.953606 0.179693 0.347821
O O14 0.821891 0.007443 0.578112
#
# Coordination Sequence:
#
# PCOD9126997 Si02
#       8
#     4   2   4   4   4   4   2   4
#     4  10  22  43  63  97 137 174 231 289 334 411
#     4  10  24  46  64  98 136 166 224 280 350 414
#     4  11  25  43  65  97 141 185 233 298 350 405
#     4   9  21  42  66  92 139 181 225 283 345 398
#     4  11  23  42  71  95 131 182 220 279 348 411
#     4  11  24  41  72  99 130 178 233 273 348 420
#     4  10  24  44  64 104 140 186 242 286 350 418
#     4  10  22  46  67  97 139 176 222 290 342 414
#
# _framework density 27.567727999999999
#
# number of rings (size 3 to 8) (size 9 to 14) (size 15 to 20)
#    0.000    1.714    1.429    1.286    8.000    0.571 
#    5.143    0.000    0.000    0.000    0.000    0.000 
#    0.000    0.000    0.000    0.000    0.000    0.000 
#
# Total GULP energy -78018.017038 kJ/mol
# GULP energy per Si atom -5572.715503 kJ/mol
# Density = 2.750498 g / cm^3
# Si number density = 27.567728 Si / 1000 Ang^3
#
#
#
# Elastic Constant Matrix: (Units=GPa)
#
#
# Indices 1 2 3 4 5 6 
#
# 1 129.1361 6.7967 40.9982 0.0000 41.3001 -0.0001
# 2 6.7967 80.8809 32.3510 0.0000 12.5348 0.0001
# 3 40.9982 32.3510 192.0156 0.0000 65.2980 0.0000
# 4 0.0000 0.0000 0.0000 39.5365 -0.0001 20.4312
# 5 41.3001 12.5348 65.2980 -0.0001 59.6101 0.0000
# 6 -0.0001 0.0001 0.0000 20.4312 0.0000 27.5797
#
#
#
# Elastic Compliance Matrix: (Units=1/GPa)
#
#
# Indices 1 2 3 4 5 6 
#
# 1 0.009965 0.000163 0.000326 0.000000 -0.007295 0.000000
# 2 0.000163 0.013271 -0.002045 0.000000 -0.000663 0.000000
# 3 0.000326 -0.002045 0.008627 0.000000 -0.009246 0.000000
# 4 0.000000 0.000000 0.000000 0.040982 0.000000 -0.030360
# 5 -0.007295 -0.000663 -0.009246 0.000000 0.032098 0.000000
# 6 0.000000 0.000000 0.000000 -0.030360 0.000000 0.058749
#
#
# Mechanical properties :
#
#
# Convention : Reuss Voigt Hill
#
# Bulk Modulus (GPa) = 34.78261 62.48048 48.63154
# Shear Modulus (GPa) = 28.34648 46.80436 37.57542
#
# Velocity S-wave (km/s) = 3.21011 4.12490 3.69592
# Velocity P-wave (km/s) = 5.13656 6.73795 5.99100
#
# Compressibility (1/GPa) = 0.02875000
#
# Stress axis : x y z
#
# Youngs Moduli (GPa) = 100.35228 75.35237 115.91260
#
# Poissons Ratio (x) = -0.01228 -0.03775
# Poissons Ratio (y) = -0.01635 0.23706
# Poissons Ratio (z) = -0.03269 0.15411
#
# Static dielectric constant tensor:
#      x y z
#    x 2.763740 0.000000 -0.215950 
#    y 0.000000 2.174300 0.000000 
#    z -0.215950 0.000000 2.265610 
# 
# From -- ./inp_files/65717.got.cif
#   From: 2010.05.17/outbox.cif.g08.bks.cpg/sg5_33_cif.got.tgz:65717.got - 2010.06.03 18:56:24.
