data_PCOD9126145
_publ_section_title
;
Structure prediction by ZEFSAII (Michael W. Deem and Ramdas Pophale) SiO2 
 PCOD9126145
Probable space group: C 2
;
_chemical_formula_sum "Si O2"
_cell_formula_units_Z 32
_cell_length_a 18.707900
_cell_length_b 8.875760
_cell_length_c 15.426665
_cell_angle_alpha 90.000000
_cell_angle_beta 33.201782
_cell_angle_gamma 90.000000
_cell_volume 1402.676597
_symmetry_space_group_name_H-M "C 2"
_symmetry_group_IT_number 5
_symmetry_cell_setting 'monoclinic'
loop_
_space_group_symop_operation_xyz
x,y,z
-x,y,-z
1/2+x,1/2+y,z
1/2-x,1/2+y,-z
loop_
_atom_site_type_symbol
_atom_site_label
_atom_site_fract_x
_atom_site_fract_y
_atom_site_fract_z
Si Si1 0.008260 0.651010 0.888614
Si Si2 0.459350 0.502178 0.142066
Si Si3 0.494494 0.746380 0.259262
Si Si4 0.725612 0.916037 0.605932
Si Si5 0.479004 0.480060 0.683298
Si Si6 0.808398 0.512682 0.963111
Si Si7 0.196528 0.627254 0.375366
Si Si8 0.412357 0.174153 0.697417
O O1 0.004199 0.829969 0.873557
O O2 0.137176 0.560202 0.723061
O O3 0.880764 0.577101 0.974399
O O4 0.000000 0.632634 0.000000
O O5 0.503520 0.629479 0.167097
O O6 0.303004 0.511479 0.298634
O O7 0.500000 0.536205 0.000000
O O8 0.359026 0.830827 0.380196
O O9 0.500721 0.658367 0.344302
O O10 0.611430 0.862929 0.139295
O O11 0.742828 0.792676 0.665742
O O12 0.876360 0.941473 0.426849
O O13 0.445122 0.350742 0.649516
O O14 0.342744 0.478451 0.873175
O O15 0.833597 0.632661 0.862012
O O16 0.162623 0.613594 0.309129
O O17 0.057466 0.608145 0.562654
#
# Coordination Sequence:
#
# PCOD9126145 Si02
#       8
#     4   4   4   4   4   4   4   4
#     4  10  23  43  65  93 130 171 214 268 327 384
#     4  10  22  38  65  88 122 165 220 260 316 382
#     4  10  23  40  61  94 124 170 212 260 324 380
#     4   9  22  41  66  93 124 172 216 261 316 389
#     4  11  23  39  63  99 127 169 209 267 322 378
#     4  11  24  40  65  97 131 171 208 272 323 384
#     4   9  21  41  66  92 121 176 212 266 316 383
#     4  10  22  42  64  92 134 164 216 262 328 378
#
# _framework density 22.813528999999999
#
# number of rings (size 3 to 8) (size 9 to 14) (size 15 to 20)
#    0.000    2.000    0.000    1.500    5.250   11.500 
#    2.250    0.000    0.000    1.500    0.000    0.000 
#    0.000    0.000    0.000    0.000    0.000    0.000 
#
# Total GULP energy -89211.248246 kJ/mol
# GULP energy per Si atom -5575.703015 kJ/mol
# Density = 2.276160 g / cm^3
# Si number density = 22.813529 Si / 1000 Ang^3
#
#
#
# Elastic Constant Matrix: (Units=GPa)
#
#
# Indices 1 2 3 4 5 6 
#
# 1 45.7829 23.2186 49.0211 0.0000 -17.4107 0.0000
# 2 23.2186 87.9923 20.7815 0.0000 -2.4503 0.0000
# 3 49.0211 20.7815 107.7500 0.0000 -22.7443 0.0000
# 4 0.0000 0.0000 0.0000 20.8466 0.0000 2.1296
# 5 -17.4107 -2.4503 -22.7443 0.0000 41.3989 0.0000
# 6 0.0000 0.0000 0.0000 2.1296 0.0000 21.0993
#
#
#
# Elastic Compliance Matrix: (Units=1/GPa)
#
#
# Indices 1 2 3 4 5 6 
#
# 1 0.050672 -0.008540 -0.019247 0.000000 0.010231 0.000000
# 2 -0.008540 0.013361 0.000811 0.000000 -0.002355 0.000000
# 3 -0.019247 0.000811 0.018305 0.000000 0.002010 0.000000
# 4 0.000000 0.000000 0.000000 0.048469 0.000000 -0.004892
# 5 0.010231 -0.002355 0.002010 0.000000 0.029423 0.000000
# 6 0.000000 0.000000 0.000000 -0.004892 0.000000 0.047889
#
#
# Mechanical properties :
#
#
# Convention : Reuss Voigt Hill
#
# Bulk Modulus (GPa) = 35.22758 47.50752 41.36755
# Shear Modulus (GPa) = 18.41399 26.56922 22.49160
#
# Velocity S-wave (km/s) = 2.84412 3.41636 3.14329
# Velocity P-wave (km/s) = 5.12449 6.03585 5.59875
#
# Compressibility (1/GPa) = 0.02838685
#
# Stress axis : x y z
#
# Youngs Moduli (GPa) = 19.73467 74.84491 54.63022
#
# Poissons Ratio (x) = 0.63921 1.05145
# Poissons Ratio (y) = 0.16854 -0.04433
# Poissons Ratio (z) = 0.37983 -0.06073
#
# Static dielectric constant tensor:
#      x y z
#    x 1.834000 0.000000 0.029500 
#    y 0.000000 1.910080 0.000000 
#    z 0.029500 0.000000 1.865550 
# 
# From -- ./inp_files/62781.got.cif
#   From: 2010.05.17/outbox.cif.g08.bks.cpg/sg5_32_cif.got.tgz:62781.got - 2010.06.03 18:56:24.
