data_PCOD9126429
_publ_section_title
;
Structure prediction by ZEFSAII (Michael W. Deem and Ramdas Pophale) SiO2 
 PCOD9126429
Probable space group: C 2
;
_chemical_formula_sum "Si O2"
_cell_formula_units_Z 24
_cell_length_a 13.103137
_cell_length_b 5.963309
_cell_length_c 13.450932
_cell_angle_alpha 90.000000
_cell_angle_beta 68.421863
_cell_angle_gamma 90.000000
_cell_volume 977.370232
_symmetry_space_group_name_H-M "C 2"
_symmetry_group_IT_number 5
_symmetry_cell_setting 'monoclinic'
loop_
_space_group_symop_operation_xyz
x,y,z
-x,y,-z
1/2+x,1/2+y,z
1/2-x,1/2+y,-z
loop_
_atom_site_type_symbol
_atom_site_label
_atom_site_fract_x
_atom_site_fract_y
_atom_site_fract_z
Si Si1 0.000000 0.327891 0.000000
Si Si2 0.865471 0.055489 0.191730
Si Si3 0.238133 0.015727 0.450826
Si Si4 0.441788 0.213717 0.310487
Si Si5 0.500000 0.384053 0.500000
Si Si6 0.296177 0.159380 0.070169
Si Si7 0.326017 0.281022 0.837311
O O1 0.894903 0.483573 0.031339
O O2 0.970130 0.178425 0.106472
O O3 0.891681 0.947825 0.288048
O O4 0.839778 0.854990 0.123885
O O5 0.752513 0.192338 0.221610
O O6 0.249877 0.264061 0.502731
O O7 0.344186 0.035798 0.340525
O O8 0.114872 0.017593 0.451401
O O9 0.485340 0.237695 0.406584
O O10 0.552532 0.183331 0.208947
O O11 0.188449 0.048865 0.157630
O O12 0.277634 0.222645 0.962969
#
# Coordination Sequence:
#
# PCOD9126429 Si02
#       7
#     2   4   4   4   2   4   4
#     4  10  22  40  66  92 148 194 242 306 362 432
#     4  11  24  41  67 106 143 195 250 299 365 445
#     4  10  25  52  80 110 147 195 252 322 392 454
#     4  11  26  46  75 110 144 195 256 313 378 456
#     4  10  26  52  80 104 152 190 250 322 394 452
#     4  11  22  43  65 103 148 197 243 305 366 442
#     4  11  24  42  73 103 150 197 247 299 373 445
#
# _framework density 24.555689000000001
#
# number of rings (size 3 to 8) (size 9 to 14) (size 15 to 20)
#    0.000    1.333    1.667    2.500    4.667    9.333 
#   15.000    0.000    0.000    0.000    0.000    0.000 
#    0.000    0.000    0.000    0.000    0.000    0.000 
#
# Total GULP energy -66998.514284 kJ/mol
# GULP energy per Si atom -5583.209524 kJ/mol
# Density = 2.449980 g / cm^3
# Si number density = 24.555689 Si / 1000 Ang^3
#
#
#
# Elastic Constant Matrix: (Units=GPa)
#
#
# Indices 1 2 3 4 5 6 
#
# 1 161.0457 42.0891 30.7791 0.0000 -20.2371 0.0000
# 2 42.0891 92.3826 21.8116 0.0000 -4.8402 -0.0001
# 3 30.7791 21.8116 64.1225 0.0000 -7.5898 0.0000
# 4 0.0000 0.0000 0.0000 8.4670 0.0000 1.5938
# 5 -20.2371 -4.8402 -7.5898 0.0000 59.5645 0.0000
# 6 0.0000 -0.0001 0.0000 1.5938 0.0000 33.3481
#
#
#
# Elastic Compliance Matrix: (Units=1/GPa)
#
#
# Indices 1 2 3 4 5 6 
#
# 1 0.007676 -0.002802 -0.002487 0.000000 0.002063 0.000000
# 2 -0.002802 0.012805 -0.003046 0.000000 -0.000300 0.000000
# 3 -0.002487 -0.003046 0.017967 0.000000 0.001197 0.000000
# 4 0.000000 0.000000 0.000000 0.119178 0.000000 -0.005696
# 5 0.002063 -0.000300 0.001197 0.000000 0.017618 0.000000
# 6 0.000000 0.000000 0.000000 -0.005696 0.000000 0.030259
#
#
# Mechanical properties :
#
#
# Convention : Reuss Voigt Hill
#
# Bulk Modulus (GPa) = 45.91980 56.32340 51.12160
# Shear Modulus (GPa) = 21.79292 35.13397 28.46345
#
# Velocity S-wave (km/s) = 2.98231 3.78668 3.40831
# Velocity P-wave (km/s) = 5.53170 6.48887 6.02931
#
# Compressibility (1/GPa) = 0.02177710
#
# Stress axis : x y z
#
# Youngs Moduli (GPa) = 130.26973 78.09707 55.65793
#
# Poissons Ratio (x) = 0.21882 0.13844
# Poissons Ratio (y) = 0.36501 0.16954
# Poissons Ratio (z) = 0.32403 0.23789
#
# Static dielectric constant tensor:
#      x y z
#    x 1.927900 0.000000 0.028990 
#    y 0.000000 2.062840 0.000000 
#    z 0.028990 0.000000 2.223190 
# 
# From -- ./inp_files/53768.got.cif
#   From: 2010.05.17/outbox.cif.g08.bks.cpg/sg5_27_cif.got.tgz:53768.got - 2010.06.03 18:56:24.
