data_PCOD9126938
_publ_section_title
;
Structure prediction by ZEFSAII (Michael W. Deem and Ramdas Pophale) SiO2 
 PCOD9126938
Probable space group: C 2
;
_chemical_formula_sum "Si O2"
_cell_formula_units_Z 16
_cell_length_a 18.326213
_cell_length_b 9.135615
_cell_length_c 13.638023
_cell_angle_alpha 90.000000
_cell_angle_beta 160.492381
_cell_angle_gamma 90.000000
_cell_volume 762.465580
_symmetry_space_group_name_H-M "C 2"
_symmetry_group_IT_number 5
_symmetry_cell_setting 'monoclinic'
loop_
_space_group_symop_operation_xyz
x,y,z
-x,y,-z
1/2+x,1/2+y,z
1/2-x,1/2+y,-z
loop_
_atom_site_type_symbol
_atom_site_label
_atom_site_fract_x
_atom_site_fract_y
_atom_site_fract_z
Si Si1 0.406867 0.632130 0.167577
Si Si2 0.775858 0.155902 0.599191
Si Si3 0.006348 0.821624 0.391099
Si Si4 0.710964 0.329017 0.333674
O O1 0.491332 0.638529 0.161044
O O2 0.438569 0.473070 0.253538
O O3 0.581917 0.738351 0.443601
O O4 0.168139 0.699421 0.864140
O O5 0.737022 0.260780 0.642220
O O6 0.643837 0.237217 0.345280
O O7 0.709573 0.990608 0.537793
O O8 0.000000 0.837253 0.500000
O O9 0.500000 0.341341 0.000000
#
# Coordination Sequence:
#
# PCOD9126938 Si02
#       4
#     4   4   4   4
#     4  10  24  46  63 101 138 169 229 276 323 413
#     4  10  22  45  67  99 135 172 231 272 326 413
#     4  12  26  44  71 102 136 179 222 283 341 391
#     4  10  22  42  71  92 131 182 217 271 338 388
#
# _framework density 20.984552999999998
#
# number of rings (size 3 to 8) (size 9 to 14) (size 15 to 20)
#    1.500    0.000    2.500    1.500    3.500    4.000 
#    0.000    2.500    0.000    0.000    0.000    0.000 
#    0.000    0.000    0.000    0.000    0.000    0.000 
#
# Total GULP energy -44564.738514 kJ/mol
# GULP energy per Si atom -5570.592314 kJ/mol
# Density = 2.093679 g / cm^3
# Si number density = 20.984553 Si / 1000 Ang^3
#
#
#
# Elastic Constant Matrix: (Units=GPa)
#
#
# Indices 1 2 3 4 5 6 
#
# 1 113.7615 45.9375 46.5439 0.0003 -8.2318 0.0001
# 2 45.9375 146.4650 63.9963 0.0005 -10.1128 0.0004
# 3 46.5439 63.9963 74.8326 0.0003 -4.8903 0.0001
# 4 0.0003 0.0005 0.0003 4.1231 0.0003 6.1172
# 5 -8.2318 -10.1128 -4.8903 0.0003 29.4103 0.0001
# 6 0.0001 0.0004 0.0001 6.1172 0.0001 24.9890
#
#
#
# Elastic Compliance Matrix: (Units=1/GPa)
#
#
# Indices 1 2 3 4 5 6 
#
# 1 0.011961 -0.000671 -0.006736 -0.000001 0.001997 0.000000
# 2 -0.000671 0.011084 -0.008922 -0.000001 0.002140 0.000000
# 3 -0.006736 -0.008922 0.025132 0.000000 -0.000774 0.000000
# 4 -0.000001 -0.000001 0.000000 0.380862 -0.000004 -0.093233
# 5 0.001997 0.002140 -0.000774 -0.000004 0.035168 0.000001
# 6 0.000000 0.000000 0.000000 -0.093233 0.000001 0.062841
#
#
# Mechanical properties :
#
#
# Convention : Reuss Voigt Hill
#
# Bulk Modulus (GPa) = 64.42933 72.00160 68.21547
# Shear Modulus (GPa) = 8.85147 23.60990 16.23068
#
# Velocity S-wave (km/s) = 2.05603 3.35790 2.78413
# Velocity P-wave (km/s) = 6.03376 7.02995 6.55082
#
# Compressibility (1/GPa) = 0.01552088
#
# Stress axis : x y z
#
# Youngs Moduli (GPa) = 83.60188 90.21970 39.78988
#
# Poissons Ratio (x) = 0.06050 0.26801
# Poissons Ratio (y) = 0.05607 0.35501
# Poissons Ratio (z) = 0.56311 0.80494
#
# Static dielectric constant tensor:
#      x y z
#    x 1.839700 0.000000 0.025710 
#    y 0.000000 1.713510 0.000000 
#    z 0.025710 0.000000 1.732890 
# 
# From -- ./inp_files/13571.got.cif
#   From: 2010.05.17/outbox.cif.g08.bks.cpg/sg5_7_cif.got.tgz:13571.got - 2010.06.03 18:56:24.
