data_PCOD9126605
_publ_section_title
;
Structure prediction by ZEFSAII (Michael W. Deem and Ramdas Pophale) SiO2 
 PCOD9126605
Probable space group: C 2
;
_chemical_formula_sum "Si O2"
_cell_formula_units_Z 22
_cell_length_a 12.129262
_cell_length_b 8.269237
_cell_length_c 9.426808
_cell_angle_alpha 90.000000
_cell_angle_beta 75.487869
_cell_angle_gamma 90.000000
_cell_volume 915.339657
_symmetry_space_group_name_H-M "C 2"
_symmetry_group_IT_number 5
_symmetry_cell_setting 'monoclinic'
loop_
_space_group_symop_operation_xyz
x,y,z
-x,y,-z
1/2+x,1/2+y,z
1/2-x,1/2+y,-z
loop_
_atom_site_type_symbol
_atom_site_label
_atom_site_fract_x
_atom_site_fract_y
_atom_site_fract_z
Si Si1 0.537185 0.883880 0.210356
Si Si2 0.675958 0.088554 0.846157
Si Si3 0.696822 0.297587 0.570239
Si Si4 0.747668 0.789851 0.942646
Si Si5 0.853118 0.151091 0.302479
Si Si6 0.000000 0.579167 0.500000
O O1 0.646072 0.851684 0.078274
O O2 0.481918 0.707617 0.247603
O O3 0.437516 0.991739 0.165620
O O4 0.553225 0.970794 0.356519
O O5 0.720081 0.200202 0.706148
O O6 0.660671 0.203324 0.988363
O O7 0.772613 0.956111 0.853219
O O8 0.798168 0.284631 0.425349
O O9 0.665506 0.478552 0.621945
O O10 0.595391 0.196678 0.531594
O O11 0.703941 0.668686 0.834232
#
# Coordination Sequence:
#
# PCOD9126605 Si02
#       6
#     4   4   4   4   4   2
#     4  10  24  45  69 100 141 182 231 295 347 419
#     4  10  22  41  65 101 133 180 233 279 347 414
#     4  11  24  44  68  99 139 182 232 287 347 424
#     4  11  23  43  71 101 138 185 228 291 354 410
#     4  11  23  44  68  98 138 179 232 289 347 418
#     4  10  24  44  68 102 136 182 230 288 354 416
#
# _framework density 24.034793000000001
#
# number of rings (size 3 to 8) (size 9 to 14) (size 15 to 20)
#    0.000    1.455    0.000    6.545    7.636    0.727 
#    6.545    7.273    0.000    0.000    0.000    0.000 
#    0.000    0.000    0.000    0.000    0.000    0.000 
#
# Total GULP energy -61586.844964 kJ/mol
# GULP energy per Si atom -5598.804088 kJ/mol
# Density = 2.398009 g / cm^3
# Si number density = 24.034793 Si / 1000 Ang^3
#
#
#
# Elastic Constant Matrix: (Units=GPa)
#
#
# Indices 1 2 3 4 5 6 
#
# 1 53.2636 40.5959 39.0092 0.0000 4.7710 0.0000
# 2 40.5959 140.3613 68.3360 0.0000 8.5001 0.0000
# 3 39.0092 68.3360 148.0941 0.0000 20.5603 0.0000
# 4 0.0000 0.0000 0.0000 55.0814 0.0000 3.4531
# 5 4.7710 8.5001 20.5603 0.0000 45.3688 0.0000
# 6 0.0000 0.0000 0.0000 3.4531 0.0000 31.7447
#
#
#
# Elastic Compliance Matrix: (Units=1/GPa)
#
#
# Indices 1 2 3 4 5 6 
#
# 1 0.026115 -0.005420 -0.004416 0.000000 0.000270 0.000000
# 2 -0.005420 0.010315 -0.003354 0.000000 0.000157 0.000000
# 3 -0.004416 -0.003354 0.009937 0.000000 -0.003410 0.000000
# 4 0.000000 0.000000 0.000000 0.018280 0.000000 -0.001988
# 5 0.000270 0.000157 -0.003410 0.000000 0.023529 0.000000
# 6 0.000000 0.000000 0.000000 -0.001988 0.000000 0.031718
#
#
# Mechanical properties :
#
#
# Convention : Reuss Voigt Hill
#
# Bulk Modulus (GPa) = 50.02922 70.84456 60.43689
# Shear Modulus (GPa) = 32.69356 39.35749 36.02552
#
# Velocity S-wave (km/s) = 3.69217 4.05102 3.87575
# Velocity P-wave (km/s) = 6.24793 7.17083 6.72523
#
# Compressibility (1/GPa) = 0.01998832
#
# Stress axis : x y z
#
# Youngs Moduli (GPa) = 38.29226 96.94192 100.63630
#
# Poissons Ratio (x) = 0.52539 0.44437
# Poissons Ratio (y) = 0.20753 0.33755
# Poissons Ratio (z) = 0.16908 0.32516
#
# Static dielectric constant tensor:
#      x y z
#    x 1.955460 0.000000 0.020540 
#    y 0.000000 1.934060 0.000000 
#    z 0.020540 0.000000 1.956370 
# 
# From -- ./inp_files/22657.got.cif
#   From: 2010.05.17/outbox.cif.g08.bks.cpg/sg5_12_cif.got.tgz:22657.got - 2010.06.03 18:56:24.
