data_PCOD9126777
_publ_section_title
;
Structure prediction by ZEFSAII (Michael W. Deem and Ramdas Pophale) SiO2 
 PCOD9126777
Probable space group: C 2
;
_chemical_formula_sum "Si O2"
_cell_formula_units_Z 22
_cell_length_a 12.917436
_cell_length_b 5.981500
_cell_length_c 12.111555
_cell_angle_alpha 90.000000
_cell_angle_beta 101.533445
_cell_angle_gamma 90.000000
_cell_volume 916.911424
_symmetry_space_group_name_H-M "C 2"
_symmetry_group_IT_number 5
_symmetry_cell_setting 'monoclinic'
loop_
_space_group_symop_operation_xyz
x,y,z
-x,y,-z
1/2+x,1/2+y,z
1/2-x,1/2+y,-z
loop_
_atom_site_type_symbol
_atom_site_label
_atom_site_fract_x
_atom_site_fract_y
_atom_site_fract_z
Si Si1 0.480831 0.097280 0.662963
Si Si2 0.355587 0.868906 0.434824
Si Si3 0.500000 0.537518 0.000000
Si Si4 0.709666 0.368314 0.948153
Si Si5 0.867393 0.335836 0.801847
Si Si6 0.120411 0.008146 0.400001
O O1 0.480653 0.360756 0.648738
O O2 0.405797 0.022541 0.543143
O O3 0.587404 0.958680 0.662858
O O4 0.428328 0.052024 0.770040
O O5 0.383562 0.622708 0.482147
O O6 0.230588 0.879156 0.410115
O O7 0.412853 0.395485 0.047716
O O8 0.562803 0.699065 0.096657
O O9 0.753988 0.373374 0.832730
O O10 0.757570 0.612674 0.003752
O O11 0.865332 0.194599 0.689932
#
# Coordination Sequence:
#
# PCOD9126777 Si02
#       6
#     4   4   2   4   4   4
#     4  10  23  40  69 102 134 183 231 278 350 427
#     4  10  22  42  65 101 139 181 220 292 347 410
#     4  10  24  50  70 102 146 188 228 304 356 414
#     4  10  24  47  74 103 142 187 241 297 357 423
#     4  10  25  44  66 107 137 185 241 286 353 429
#     4  11  22  44  68 101 141 179 234 286 351 424
#
# _framework density 23.993593000000001
#
# number of rings (size 3 to 8) (size 9 to 14) (size 15 to 20)
#    0.000    1.818    1.818    0.000    5.091   11.636 
#    6.545    0.000    0.000    0.000    0.000    0.000 
#    0.000    0.000    0.000    0.000    0.000    0.000 
#
# Total GULP energy -61332.736551 kJ/mol
# GULP energy per Si atom -5575.703323 kJ/mol
# Density = 2.393898 g / cm^3
# Si number density = 23.993593 Si / 1000 Ang^3
#
#
#
# Elastic Constant Matrix: (Units=GPa)
#
#
# Indices 1 2 3 4 5 6 
#
# 1 136.4224 38.7992 34.9129 0.0000 -34.8798 0.0000
# 2 38.7992 106.8325 25.1360 0.0000 -21.4231 0.0000
# 3 34.9129 25.1360 68.3387 0.0000 -34.9346 0.0000
# 4 0.0000 0.0000 0.0000 45.3849 0.0000 -16.5844
# 5 -34.8798 -21.4231 -34.9346 0.0000 43.5215 0.0000
# 6 0.0000 0.0000 0.0000 -16.5844 0.0000 41.2732
#
#
#
# Elastic Compliance Matrix: (Units=1/GPa)
#
#
# Indices 1 2 3 4 5 6 
#
# 1 0.009714 -0.002078 -0.001257 0.000000 0.005753 0.000000
# 2 -0.002078 0.011002 -0.001811 0.000000 0.002296 0.000000
# 3 -0.001257 -0.001811 0.025389 0.000000 0.018480 0.000000
# 4 0.000000 0.000000 0.000000 0.025826 0.000000 0.010377
# 5 0.005753 0.002296 0.018480 0.000000 0.043552 0.000000
# 6 0.000000 0.000000 0.000000 0.010377 0.000000 0.028399
#
#
# Mechanical properties :
#
#
# Convention : Reuss Voigt Hill
#
# Bulk Modulus (GPa) = 27.92476 56.58775 42.25626
# Shear Modulus (GPa) = 30.10034 40.21895 35.15965
#
# Velocity S-wave (km/s) = 3.54576 4.09863 3.83218
# Velocity P-wave (km/s) = 5.33169 6.78484 6.10168
#
# Compressibility (1/GPa) = 0.03581051
#
# Stress axis : x y z
#
# Youngs Moduli (GPa) = 102.94519 90.89392 39.38790
#
# Poissons Ratio (x) = 0.18892 0.04953
# Poissons Ratio (y) = 0.21397 0.07133
# Poissons Ratio (z) = 0.12944 0.16461
#
# Static dielectric constant tensor:
#      x y z
#    x 1.850900 0.000000 -0.054620 
#    y 0.000000 2.147810 0.000000 
#    z -0.054620 0.000000 1.882520 
# 
# From -- ./inp_files/41123.got.cif
#   From: 2010.05.17/outbox.cif.g08.bks.cpg/sg5_21_cif.got.tgz:41123.got - 2010.06.03 18:56:24.
