data_PCOD9126674
_publ_section_title
;
Structure prediction by ZEFSAII (Michael W. Deem and Ramdas Pophale) SiO2 
 PCOD9126674
Probable space group: C 2
;
_chemical_formula_sum "Si O2"
_cell_formula_units_Z 16
_cell_length_a 11.728145
_cell_length_b 14.926510
_cell_length_c 9.628530
_cell_angle_alpha 90.000000
_cell_angle_beta 153.552066
_cell_angle_gamma 90.000000
_cell_volume 750.727931
_symmetry_space_group_name_H-M "C 2"
_symmetry_group_IT_number 5
_symmetry_cell_setting 'monoclinic'
loop_
_space_group_symop_operation_xyz
x,y,z
-x,y,-z
1/2+x,1/2+y,z
1/2-x,1/2+y,-z
loop_
_atom_site_type_symbol
_atom_site_label
_atom_site_fract_x
_atom_site_fract_y
_atom_site_fract_z
Si Si1 0.581669 0.827600 0.238260
Si Si2 0.780795 0.456655 0.368626
Si Si3 0.864463 0.199879 0.209739
Si Si4 0.179302 0.644623 0.455423
O O1 0.701329 0.901394 0.468984
O O2 0.363567 0.781250 0.097580
O O3 0.761125 0.740428 0.408318
O O4 0.500000 0.862982 0.000000
O O5 0.831083 0.561066 0.455172
O O6 0.000000 0.427942 0.500000
O O7 0.500000 0.443822 0.000000
O O8 0.000000 0.228327 0.500000
O O9 0.071476 0.131475 0.369665
O O10 0.584600 0.158449 0.914941
#
# Coordination Sequence:
#
# PCOD9126674 Si02
#       4
#     4   4   4   4
#     4  10  26  43  70 104 141 178 233 286 346 400
#     4  12  27  47  73 103 140 186 232 282 348 420
#     4  10  22  41  69 101 132 185 222 283 339 410
#     4  10  24  42  72  95 140 181 234 272 347 408
#
# _framework density 21.312646000000001
#
# number of rings (size 3 to 8) (size 9 to 14) (size 15 to 20)
#    1.500    0.000    0.000    3.750   10.500    2.000 
#    0.000    0.000    0.000    0.000    0.000    0.000 
#    0.000    0.000    0.000    0.000    0.000    0.000 
#
# Total GULP energy -44596.739989 kJ/mol
# GULP energy per Si atom -5574.592499 kJ/mol
# Density = 2.126414 g / cm^3
# Si number density = 21.312646 Si / 1000 Ang^3
#
#
#
# Elastic Constant Matrix: (Units=GPa)
#
#
# Indices 1 2 3 4 5 6 
#
# 1 68.2366 41.2130 56.8915 0.0000 -26.9748 0.0000
# 2 41.2130 98.9657 55.3460 0.0000 -12.1675 0.0000
# 3 56.8915 55.3460 163.9901 0.0000 -14.2316 0.0000
# 4 0.0000 0.0000 0.0000 12.4329 0.0000 -14.7612
# 5 -26.9748 -12.1675 -14.2316 0.0000 46.6142 0.0000
# 6 0.0000 0.0000 0.0000 -14.7612 0.0000 0.4655
#
#
#
# Elastic Compliance Matrix: (Units=1/GPa)
#
#
# Indices 1 2 3 4 5 6 
#
# 1 0.029851 -0.006958 -0.006847 0.000000 0.013367 0.000000
# 2 -0.006958 0.014265 -0.002493 0.000000 -0.001064 0.000000
# 3 -0.006847 -0.002493 0.009157 0.000000 -0.001817 0.000000
# 4 0.000000 0.000000 0.000000 -0.002195 0.000000 -0.069594
# 5 0.013367 -0.001064 -0.001817 0.000000 0.028355 0.000000
# 6 0.000000 0.000000 0.000000 -0.069594 0.000000 -0.058617
#
#
# Mechanical properties :
#
#
# Convention : Reuss Voigt Hill
#
# Bulk Modulus (GPa) = 48.36479 70.89927 59.63203
# Shear Modulus (GPa) = 82.91077 23.75198 53.33137
#
# Velocity S-wave (km/s) = 6.24393 3.34197 5.00776
# Velocity P-wave (km/s) = 8.64433 6.94479 7.84074
#
# Compressibility (1/GPa) = 0.02067620
#
# Stress axis : x y z
#
# Youngs Moduli (GPa) = 33.50026 70.09925 109.20521
#
# Poissons Ratio (x) = 0.48776 0.74777
# Poissons Ratio (y) = 0.23310 0.27225
# Poissons Ratio (z) = 0.22939 0.17476
#
# Static dielectric constant tensor:
#      x y z
#    x 1.822100 0.000000 -0.001550 
#    y 0.000000 1.771050 0.000000 
#    z -0.001550 0.000000 1.751430 
# 
# From -- ./inp_files/2487.got.cif
#   From: 2010.05.17/outbox.cif.g08.bks.cpg/sg5_2_cif.got.tgz:2487.got - 2010.06.03 18:56:24.
