data_PCOD9126634
_publ_section_title
;
Structure prediction by ZEFSAII (Michael W. Deem and Ramdas Pophale) SiO2 
 PCOD9126634
Probable space group: C 2
;
_chemical_formula_sum "Si O2"
_cell_formula_units_Z 20
_cell_length_a 20.371870
_cell_length_b 5.132533
_cell_length_c 7.293929
_cell_angle_alpha 90.000000
_cell_angle_beta 97.271357
_cell_angle_gamma 90.000000
_cell_volume 756.514737
_symmetry_space_group_name_H-M "C 2"
_symmetry_group_IT_number 5
_symmetry_cell_setting 'monoclinic'
loop_
_space_group_symop_operation_xyz
x,y,z
-x,y,-z
1/2+x,1/2+y,z
1/2-x,1/2+y,-z
loop_
_atom_site_type_symbol
_atom_site_label
_atom_site_fract_x
_atom_site_fract_y
_atom_site_fract_z
Si Si1 0.708451 0.004430 0.038064
Si Si2 0.782325 0.709019 0.549711
Si Si3 0.971340 0.017900 0.692413
Si Si4 0.415270 0.027250 0.533314
Si Si5 0.055988 0.407281 0.872843
O O1 0.705947 0.123317 0.239382
O O2 0.749120 0.235117 0.947922
O O3 0.632297 0.947534 0.951204
O O4 0.722141 0.517815 0.472851
O O5 0.840988 0.590602 0.449790
O O6 0.033137 0.102678 0.839711
O O7 0.000000 0.993126 0.500000
O O8 0.923517 0.265247 0.653309
O O9 0.930379 0.757472 0.683507
O O10 0.549058 0.005531 0.655903
O O11 0.000000 0.503020 0.000000
#
# Coordination Sequence:
#
# PCOD9126634 Si02
#       5
#     4   4   4   4   4
#     4  12  28  50  74 110 152 193 244 310 374 433
#     4  12  25  46  75 104 143 202 251 294 364 454
#     4  10  22  41  66  98 138 185 232 289 358 430
#     4  11  23  44  69 103 145 189 240 296 360 436
#     4  11  25  47  77 113 149 191 247 313 368 427
#
# _framework density 26.437025999999999
#
# number of rings (size 3 to 8) (size 9 to 14) (size 15 to 20)
#    0.000    0.800    0.000    7.800    0.000    8.000 
#    0.000   14.000    0.000    0.000    0.000    0.000 
#    0.000    0.000    0.000    0.000    0.000    0.000 
#
# Total GULP energy -55801.028530 kJ/mol
# GULP energy per Si atom -5580.102853 kJ/mol
# Density = 2.637685 g / cm^3
# Si number density = 26.437026 Si / 1000 Ang^3
#
#
#
# Elastic Constant Matrix: (Units=GPa)
#
#
# Indices 1 2 3 4 5 6 
#
# 1 134.5034 40.6109 42.9758 0.0000 14.5023 0.0000
# 2 40.6109 152.4614 26.2239 0.0000 23.2466 0.0000
# 3 42.9758 26.2239 143.2386 0.0000 14.7848 0.0000
# 4 0.0000 0.0000 0.0000 36.8248 0.0000 8.7944
# 5 14.5023 23.2466 14.7848 0.0000 53.7748 0.0000
# 6 0.0000 0.0000 0.0000 8.7944 0.0000 38.9042
#
#
#
# Elastic Compliance Matrix: (Units=1/GPa)
#
#
# Indices 1 2 3 4 5 6 
#
# 1 0.008792 -0.001813 -0.002205 0.000000 -0.000981 0.000000
# 2 -0.001813 0.007538 -0.000566 0.000000 -0.002614 0.000000
# 3 -0.002205 -0.000566 0.007884 0.000000 -0.001328 0.000000
# 4 0.000000 0.000000 0.000000 0.028705 0.000000 -0.006489
# 5 -0.000981 -0.002614 -0.001328 0.000000 0.020356 0.000000
# 6 0.000000 0.000000 0.000000 -0.006489 0.000000 0.027171
#
#
# Mechanical properties :
#
#
# Convention : Reuss Voigt Hill
#
# Bulk Modulus (GPa) = 66.46429 72.20274 69.33351
# Shear Modulus (GPa) = 43.61869 47.26028 45.43948
#
# Velocity S-wave (km/s) = 4.06631 4.23265 4.15032
# Velocity P-wave (km/s) = 6.87326 7.15944 7.01781
#
# Compressibility (1/GPa) = 0.01504567
#
# Stress axis : x y z
#
# Youngs Moduli (GPa) = 113.73373 132.66160 126.84557
#
# Poissons Ratio (x) = 0.24054 0.27966
# Poissons Ratio (y) = 0.20622 0.07182
# Poissons Ratio (z) = 0.25076 0.07512
#
# Static dielectric constant tensor:
#      x y z
#    x 2.280740 0.000000 0.047740 
#    y 0.000000 2.243940 0.000000 
#    z 0.047740 0.000000 2.137080 
# 
# From -- ./inp_files/28199.got.cif
#   From: 2010.05.17/outbox.cif.g08.bks.cpg/sg5_15_cif.got.tgz:28199.got - 2010.06.03 18:56:24.
