data_PCOD9126564
_publ_section_title
;
Structure prediction by ZEFSAII (Michael W. Deem and Ramdas Pophale) SiO2 
 PCOD9126564
Probable space group: C 2
;
_chemical_formula_sum "Si O2"
_cell_formula_units_Z 28
_cell_length_a 28.458840
_cell_length_b 5.321661
_cell_length_c 8.631142
_cell_angle_alpha 90.000000
_cell_angle_beta 101.969536
_cell_angle_gamma 90.000000
_cell_volume 1278.751256
_symmetry_space_group_name_H-M "C 2"
_symmetry_group_IT_number 5
_symmetry_cell_setting 'monoclinic'
loop_
_space_group_symop_operation_xyz
x,y,z
-x,y,-z
1/2+x,1/2+y,z
1/2-x,1/2+y,-z
loop_
_atom_site_type_symbol
_atom_site_label
_atom_site_fract_x
_atom_site_fract_y
_atom_site_fract_z
Si Si1 0.550304 0.054020 0.606972
Si Si2 0.454396 0.803305 0.075763
Si Si3 0.141199 0.557159 0.471880
Si Si4 0.176695 0.072705 0.653861
Si Si5 0.357678 0.049735 0.892490
Si Si6 0.740159 0.860336 0.082857
Si Si7 0.889220 0.924595 0.136791
O O1 0.500000 0.141043 0.500000
O O2 0.587876 0.979522 0.497889
O O3 0.581378 0.256485 0.722277
O O4 0.537428 0.858179 0.735919
O O5 0.430449 0.530902 0.054745
O O6 0.500000 0.833569 0.000000
O O7 0.410338 0.965032 0.981440
O O8 0.174859 0.326677 0.552809
O O9 0.141822 0.590924 0.288958
O O10 0.157125 0.825863 0.552107
O O11 0.226971 0.983243 0.760098
O O12 0.140588 0.116503 0.775835
O O13 0.314942 0.859582 0.900634
O O14 0.350858 0.284542 0.003203
O O15 0.744476 0.077492 0.952533
#
# Coordination Sequence:
#
# PCOD9126564 Si02
#       7
#     4   4   4   4   4   4   4
#     4  10  22  41  62  93 134 179 228 283 354 408
#     4  11  23  41  69  96 134 179 235 285 345 421
#     4  11  25  43  68  98 145 179 228 289 351 415
#     4  11  23  45  67 100 136 185 225 285 353 412
#     4  11  26  43  68 102 137 180 236 291 346 421
#     4  12  25  42  76 103 136 184 235 284 349 418
#     4  10  22  43  65  94 136 180 231 289 342 425
#
# _framework density 21.896360999999999
#
# number of rings (size 3 to 8) (size 9 to 14) (size 15 to 20)
#    0.000    1.143    2.857    2.571    4.000    5.143 
#    2.571    0.000    0.000    0.000    0.000    0.000 
#    0.000    0.000    0.000    0.000    0.000    0.000 
#
# Total GULP energy -78112.079064 kJ/mol
# GULP energy per Si atom -5579.434219 kJ/mol
# Density = 2.184652 g / cm^3
# Si number density = 21.896361 Si / 1000 Ang^3
#
#
#
# Elastic Constant Matrix: (Units=GPa)
#
#
# Indices 1 2 3 4 5 6 
#
# 1 69.6957 0.5876 11.3356 0.0000 6.3558 0.0000
# 2 0.5876 60.9339 17.8090 0.0000 -3.1673 0.0000
# 3 11.3356 17.8090 117.0165 0.0000 8.4968 0.0000
# 4 0.0000 0.0000 0.0000 5.1334 0.0000 2.0256
# 5 6.3558 -3.1673 8.4968 0.0000 20.2966 0.0000
# 6 0.0000 0.0000 0.0000 2.0256 0.0000 25.4757
#
#
#
# Elastic Compliance Matrix: (Units=1/GPa)
#
#
# Indices 1 2 3 4 5 6 
#
# 1 0.014916 -0.000030 -0.001135 0.000000 -0.004200 0.000000
# 2 -0.000030 0.017479 -0.002945 0.000000 0.003970 0.000000
# 3 -0.001135 -0.002945 0.009397 0.000000 -0.004038 0.000000
# 4 0.000000 0.000000 0.000000 0.201112 0.000000 -0.015991
# 5 -0.004200 0.003970 -0.004038 0.000000 0.052895 0.000000
# 6 0.000000 0.000000 0.000000 -0.015991 0.000000 0.040525
#
#
# Mechanical properties :
#
#
# Convention : Reuss Voigt Hill
#
# Bulk Modulus (GPa) = 29.78871 34.12340 31.95605
# Shear Modulus (GPa) = 14.05539 24.70872 19.38205
#
# Velocity S-wave (km/s) = 2.53633 3.36287 2.97841
# Velocity P-wave (km/s) = 4.71288 5.54043 5.14333
#
# Compressibility (1/GPa) = 0.03356977
#
# Stress axis : x y z
#
# Youngs Moduli (GPa) = 67.04192 57.21230 106.41373
#
# Poissons Ratio (x) = 0.00174 0.12081
# Poissons Ratio (y) = 0.00203 0.31344
# Poissons Ratio (z) = 0.07611 0.16852
#
# Static dielectric constant tensor:
#      x y z
#    x 1.792460 0.000000 -0.011410 
#    y 0.000000 1.913730 0.000000 
#    z -0.011410 0.000000 1.829740 
# 
# From -- ./inp_files/32177.got.cif
#   From: 2010.05.17/outbox.cif.g08.bks.cpg/sg5_17_cif.got.tgz:32177.got - 2010.06.03 18:56:24.
