data_PCOD9126617
_publ_section_title
;
Structure prediction by ZEFSAII (Michael W. Deem and Ramdas Pophale) SiO2 
 PCOD9126617
Probable space group: C 2
;
_chemical_formula_sum "Si O2"
_cell_formula_units_Z 22
_cell_length_a 19.385374
_cell_length_b 8.443196
_cell_length_c 8.263969
_cell_angle_alpha 90.000000
_cell_angle_beta 41.578715
_cell_angle_gamma 90.000000
_cell_volume 897.651505
_symmetry_space_group_name_H-M "C 2"
_symmetry_group_IT_number 5
_symmetry_cell_setting 'monoclinic'
loop_
_space_group_symop_operation_xyz
x,y,z
-x,y,-z
1/2+x,1/2+y,z
1/2-x,1/2+y,-z
loop_
_atom_site_type_symbol
_atom_site_label
_atom_site_fract_x
_atom_site_fract_y
_atom_site_fract_z
Si Si1 0.545628 0.112620 0.751264
Si Si2 0.000000 0.662948 0.500000
Si Si3 0.944106 0.980682 0.249188
Si Si4 0.757154 0.945466 0.345370
Si Si5 0.205986 0.877162 0.075630
Si Si6 0.162780 0.165773 0.340292
O O1 0.501890 0.055810 0.656846
O O2 0.518859 0.300635 0.790444
O O3 0.666418 0.071972 0.526800
O O4 0.500000 0.052430 0.000000
O O5 0.106512 0.768735 0.299619
O O6 0.830832 0.952389 0.369180
O O7 0.942766 0.089325 0.409294
O O8 0.000000 0.060190 0.000000
O O9 0.689031 0.779408 0.144620
O O10 0.812514 0.957794 0.070490
O O11 0.223315 0.008047 0.180366
O O12 0.294240 0.771865 0.587968
#
# Coordination Sequence:
#
# PCOD9126617 Si02
#       6
#     4   2   4   4   4   4
#     4  11  24  43  71 101 136 188 232 284 348 424
#     4  12  22  42  74  96 136 184 236 278 346 434
#     4  11  22  42  69  98 130 181 232 277 351 413
#     4  10  24  42  64 100 134 178 230 287 342 406
#     4  10  22  41  65  94 129 177 227 276 347 401
#     4  10  23  39  67  92 134 170 224 282 338 404
#
# _framework density 24.508399000000001
#
# number of rings (size 3 to 8) (size 9 to 14) (size 15 to 20)
#    1.091    0.364    1.818    4.364    2.545    0.727 
#    0.000    0.909    0.000    0.000    0.000    0.000 
#    0.000    0.000    0.000    0.000    0.000    0.000 
#
# Total GULP energy -61256.500046 kJ/mol
# GULP energy per Si atom -5568.772731 kJ/mol
# Density = 2.445262 g / cm^3
# Si number density = 24.508399 Si / 1000 Ang^3
#
#
#
# Elastic Constant Matrix: (Units=GPa)
#
#
# Indices 1 2 3 4 5 6 
#
# 1 55.1349 -1.7050 2.0732 0.0000 15.5315 0.0000
# 2 -1.7050 50.6106 24.5690 0.0000 1.0956 0.0000
# 3 2.0732 24.5690 158.3267 0.0000 26.4517 0.0000
# 4 0.0000 0.0000 0.0000 35.9518 0.0000 3.4617
# 5 15.5315 1.0956 26.4517 0.0000 36.9369 0.0000
# 6 0.0000 0.0000 0.0000 3.4617 0.0000 23.9686
#
#
#
# Elastic Compliance Matrix: (Units=1/GPa)
#
#
# Indices 1 2 3 4 5 6 
#
# 1 0.020830 0.000278 0.001305 0.000000 -0.009701 0.000000
# 2 0.000278 0.021500 -0.003651 0.000000 0.001860 0.000000
# 3 0.001305 -0.003651 0.007882 0.000000 -0.006085 0.000000
# 4 0.000000 0.000000 0.000000 0.028207 0.000000 -0.004074
# 5 -0.009701 0.001860 -0.006085 0.000000 0.035455 0.000000
# 6 0.000000 0.000000 0.000000 -0.004074 0.000000 0.042310
#
#
# Mechanical properties :
#
#
# Convention : Reuss Voigt Hill
#
# Bulk Modulus (GPa) = 21.70291 34.88299 28.29295
# Shear Modulus (GPa) = 28.46118 35.31380 31.88749
#
# Velocity S-wave (km/s) = 3.41146 3.80002 3.61097
# Velocity P-wave (km/s) = 4.93882 5.78943 5.38096
#
# Compressibility (1/GPa) = 0.04607676
#
# Stress axis : x y z
#
# Youngs Moduli (GPa) = 48.00830 46.51150 126.86957
#
# Poissons Ratio (x) = -0.01294 -0.16555
# Poissons Ratio (y) = -0.01336 0.46316
# Poissons Ratio (z) = -0.06264 0.16980
#
# Static dielectric constant tensor:
#      x y z
#    x 1.986140 0.000000 -0.017010 
#    y 0.000000 1.951390 0.000000 
#    z -0.017010 0.000000 2.030040 
# 
# From -- ./inp_files/30526.got.cif
#   From: 2010.05.17/outbox.cif.g08.bks.cpg/sg5_16_cif.got.tgz:30526.got - 2010.06.03 18:56:24.
