data_PCOD9126486
_publ_section_title
;
Structure prediction by ZEFSAII (Michael W. Deem and Ramdas Pophale) SiO2 
 PCOD9126486
Probable space group: C 2
;
_chemical_formula_sum "Si O2"
_cell_formula_units_Z 26
_cell_length_a 24.509017
_cell_length_b 8.636285
_cell_length_c 9.134886
_cell_angle_alpha 90.000000
_cell_angle_beta 146.050869
_cell_angle_gamma 90.000000
_cell_volume 1079.805283
_symmetry_space_group_name_H-M "C 2"
_symmetry_group_IT_number 5
_symmetry_cell_setting 'monoclinic'
loop_
_space_group_symop_operation_xyz
x,y,z
-x,y,-z
1/2+x,1/2+y,z
1/2-x,1/2+y,-z
loop_
_atom_site_type_symbol
_atom_site_label
_atom_site_fract_x
_atom_site_fract_y
_atom_site_fract_z
Si Si1 0.667185 0.618300 0.480624
Si Si2 0.499625 0.176947 0.745631
Si Si3 0.656718 0.677629 0.798319
Si Si4 0.774408 0.391628 0.553577
Si Si5 0.000000 0.884847 0.000000
Si Si6 0.500000 0.426870 0.500000
Si Si7 0.500000 0.939911 0.500000
Si Si8 0.714140 0.129131 0.647050
O O1 0.676703 0.645039 0.673520
O O2 0.768611 0.544856 0.643829
O O3 0.646577 0.777227 0.346017
O O4 0.581382 0.496940 0.251394
O O5 0.478125 0.317432 0.587080
O O6 0.401316 0.106985 0.596951
O O7 0.535745 0.043918 0.716442
O O8 0.548259 0.270144 0.987544
O O9 0.590852 0.540709 0.719569
O O10 0.590985 0.831500 0.659951
O O11 0.748500 0.676840 0.109681
O O12 0.733744 0.271823 0.583255
O O13 0.737145 0.478124 0.320913
#
# Coordination Sequence:
#
# PCOD9126486 Si02
#       8
#     4   4   4   4   2   2   2   4
#     4  11  24  46  70 103 140 183 244 289 364 410
#     4  11  24  44  67 101 144 181 239 290 351 411
#     4  11  24  45  73 101 143 186 238 295 355 425
#     4  10  24  42  69 100 139 180 236 286 356 425
#     4  12  24  46  72  96 146 198 232 300 342 430
#     4  10  22  40  68  98 132 184 234 280 358 416
#     4  10  26  46  66 110 140 184 240 286 360 412
#     4  11  24  45  69 103 143 185 238 292 357 421
#
# _framework density 24.078413999999999
#
# number of rings (size 3 to 8) (size 9 to 14) (size 15 to 20)
#    0.000    1.231    3.077    0.923    4.308    6.154 
#    2.769    1.538    0.000    0.000    0.000    0.000 
#    0.000    0.000    0.000    0.000    0.000    0.000 
#
# Total GULP energy -72418.246551 kJ/mol
# GULP energy per Si atom -5570.634350 kJ/mol
# Density = 2.402361 g / cm^3
# Si number density = 24.078414 Si / 1000 Ang^3
#
#
#
# Elastic Constant Matrix: (Units=GPa)
#
#
# Indices 1 2 3 4 5 6 
#
# 1 114.1920 56.7016 51.8739 0.0000 -40.6275 0.0000
# 2 56.7016 136.0340 41.3571 0.0000 -18.6210 0.0000
# 3 51.8739 41.3571 111.6484 0.0000 -38.3580 0.0000
# 4 0.0000 0.0000 0.0000 19.7959 0.0000 -7.2454
# 5 -40.6275 -18.6210 -38.3580 0.0000 30.0068 0.0000
# 6 0.0000 0.0000 0.0000 -7.2454 0.0000 49.0642
#
#
#
# Elastic Compliance Matrix: (Units=1/GPa)
#
#
# Indices 1 2 3 4 5 6 
#
# 1 0.019653 -0.005179 0.001471 0.000000 0.025276 0.000000
# 2 -0.005179 0.009729 -0.002732 0.000000 -0.004468 0.000000
# 3 0.001471 -0.002732 0.016738 0.000000 0.021692 0.000000
# 4 0.000000 0.000000 0.000000 0.053402 0.000000 0.007886
# 5 0.025276 -0.004468 0.021692 0.000000 0.092505 0.000000
# 6 0.000000 0.000000 0.000000 0.007886 0.000000 0.021546
#
#
# Mechanical properties :
#
#
# Convention : Reuss Voigt Hill
#
# Bulk Modulus (GPa) = 30.08500 73.52660 51.80580
# Shear Modulus (GPa) = 21.04956 33.90286 27.47621
#
# Velocity S-wave (km/s) = 2.95991 3.75643 3.38170
# Velocity P-wave (km/s) = 4.91967 7.02972 6.06713
#
# Compressibility (1/GPa) = 0.03323915
#
# Stress axis : x y z
#
# Youngs Moduli (GPa) = 50.88164 102.78498 59.74400
#
# Poissons Ratio (x) = 0.53235 -0.08788
# Poissons Ratio (y) = 0.26353 0.16325
# Poissons Ratio (z) = -0.07485 0.28086
#
# Static dielectric constant tensor:
#      x y z
#    x 1.937060 0.000000 0.044780 
#    y 0.000000 1.943380 0.000000 
#    z 0.044780 0.000000 1.951300 
# 
# From -- ./inp_files/29124.got.cif
#   From: 2010.05.17/outbox.cif.g08.bks.cpg/sg5_15_cif.got.tgz:29124.got - 2010.06.03 18:56:24.
