data_PCOD9126613
_publ_section_title
;
Structure prediction by ZEFSAII (Michael W. Deem and Ramdas Pophale) SiO2 
 PCOD9126613
Probable space group: C 2
;
_chemical_formula_sum "Si O2"
_cell_formula_units_Z 28
_cell_length_a 21.721648
_cell_length_b 11.087603
_cell_length_c 5.133044
_cell_angle_alpha 90.000000
_cell_angle_beta 94.501153
_cell_angle_gamma 90.000000
_cell_volume 1232.434608
_symmetry_space_group_name_H-M "C 2"
_symmetry_group_IT_number 5
_symmetry_cell_setting 'monoclinic'
loop_
_space_group_symop_operation_xyz
x,y,z
-x,y,-z
1/2+x,1/2+y,z
1/2-x,1/2+y,-z
loop_
_atom_site_type_symbol
_atom_site_label
_atom_site_fract_x
_atom_site_fract_y
_atom_site_fract_z
Si Si1 0.372336 0.413250 0.964386
Si Si2 0.131819 0.198423 0.067144
Si Si3 0.562534 0.906981 0.891513
Si Si4 0.131608 0.406794 0.404839
Si Si5 0.240044 0.742128 0.133731
Si Si6 0.810636 0.620402 0.378783
Si Si7 0.927169 0.784888 0.478235
O O1 0.369870 0.556201 0.927519
O O2 0.408437 0.347698 0.742353
O O3 0.303079 0.357714 0.938584
O O4 0.407113 0.375492 0.240251
O O5 0.139614 0.265752 0.346893
O O6 0.188465 0.249097 0.914114
O O7 0.070622 0.262659 0.935851
O O8 0.577406 0.925923 0.597004
O O9 0.500000 0.949961 0.000000
O O10 0.613759 0.957138 0.112126
O O11 0.188373 0.481384 0.535935
O O12 0.214882 0.645193 0.914043
O O13 0.226787 0.696034 0.418921
O O14 0.880770 0.671959 0.422566
O O15 0.000000 0.756173 0.500000
#
# Coordination Sequence:
#
# PCOD9126613 Si02
#       7
#     4   4   4   4   4   4   4
#     4  10  23  41  61  94 126 157 213 258 306 375
#     4  10  26  39  66  93 123 172 207 255 320 372
#     4  10  23  40  60  92 129 160 212 253 312 376
#     4  10  23  40  63  93 126 165 209 256 320 372
#     4  10  23  40  64  93 125 165 204 261 318 375
#     4  10  22  42  63  94 129 156 210 264 312 377
#     4  10  22  41  65  92 121 167 207 255 314 369
#
# _framework density 22.719258
#
# number of rings (size 3 to 8) (size 9 to 14) (size 15 to 20)
#    0.857    1.143    0.000    1.714    6.000    2.286 
#    2.571    0.000    0.000    0.000    0.000    0.000 
#    0.000    0.000    0.000    0.000    0.000    0.000 
#
# Total GULP energy -78150.016076 kJ/mol
# GULP energy per Si atom -5582.144005 kJ/mol
# Density = 2.266755 g / cm^3
# Si number density = 22.719258 Si / 1000 Ang^3
#
#
#
# Elastic Constant Matrix: (Units=GPa)
#
#
# Indices 1 2 3 4 5 6 
#
# 1 84.6427 -12.4588 21.1239 0.0000 -15.8779 0.0000
# 2 -12.4588 75.6977 11.9919 0.0000 3.2004 0.0000
# 3 21.1239 11.9919 95.1651 0.0000 -12.7825 0.0000
# 4 0.0000 0.0000 0.0000 22.7858 0.0000 4.1347
# 5 -15.8779 3.2004 -12.7825 0.0000 28.4663 0.0000
# 6 0.0000 0.0000 0.0000 4.1347 0.0000 8.9483
#
#
#
# Elastic Compliance Matrix: (Units=1/GPa)
#
#
# Indices 1 2 3 4 5 6 
#
# 1 0.014011 0.002441 -0.002559 0.000000 0.006392 0.000000
# 2 0.002441 0.014064 -0.002494 0.000000 -0.001339 0.000000
# 3 -0.002559 -0.002494 0.011958 0.000000 0.004222 0.000000
# 4 0.000000 0.000000 0.000000 0.047904 0.000000 -0.022135
# 5 0.006392 -0.001339 0.004222 0.000000 0.040741 0.000000
# 6 0.000000 0.000000 0.000000 -0.022135 0.000000 0.121981
#
#
# Mechanical properties :
#
#
# Convention : Reuss Voigt Hill
#
# Bulk Modulus (GPa) = 28.72823 32.97994 30.85409
# Shear Modulus (GPa) = 18.69260 27.69664 23.19462
#
# Velocity S-wave (km/s) = 2.87150 3.49532 3.19866
# Velocity P-wave (km/s) = 4.86481 5.55315 5.22034
#
# Compressibility (1/GPa) = 0.03480896
#
# Stress axis : x y z
#
# Youngs Moduli (GPa) = 71.37051 71.10364 83.62919
#
# Poissons Ratio (x) = -0.17358 0.21403
# Poissons Ratio (y) = -0.17424 0.20857
# Poissons Ratio (z) = 0.18265 0.17733
#
# Static dielectric constant tensor:
#      x y z
#    x 1.882040 0.000000 0.018760 
#    y 0.000000 1.858700 0.000000 
#    z 0.018760 0.000000 1.822080 
# 
# From -- ./inp_files/9557.got.cif
#   From: 2010.05.17/outbox.cif.g08.bks.cpg/sg5_5_cif.got.tgz:9557.got - 2010.06.03 18:56:24.
