data_PCOD9126964
_publ_section_title
;
Structure prediction by ZEFSAII (Michael W. Deem and Ramdas Pophale) SiO2 
 PCOD9126964
Probable space group: C 2
;
_chemical_formula_sum "Si O2"
_cell_formula_units_Z 28
_cell_length_a 17.052507
_cell_length_b 14.737085
_cell_length_c 5.081904
_cell_angle_alpha 90.000000
_cell_angle_beta 112.424587
_cell_angle_gamma 90.000000
_cell_volume 1180.532534
_symmetry_space_group_name_H-M "C 2"
_symmetry_group_IT_number 5
_symmetry_cell_setting 'monoclinic'
loop_
_space_group_symop_operation_xyz
x,y,z
-x,y,-z
1/2+x,1/2+y,z
1/2-x,1/2+y,-z
loop_
_atom_site_type_symbol
_atom_site_label
_atom_site_fract_x
_atom_site_fract_y
_atom_site_fract_z
Si Si1 0.500000 0.345670 0.500000
Si Si2 0.000000 0.587847 0.000000
Si Si3 0.387502 0.187698 0.583944
Si Si4 0.738638 0.785863 0.149334
Si Si5 0.558580 0.699559 0.817397
Si Si6 0.415772 0.498819 0.065176
Si Si7 0.414756 0.993646 0.332442
Si Si8 0.244474 0.902321 0.317001
O O1 0.438732 0.277341 0.574430
O O2 0.436453 0.414271 0.275807
O O3 0.922658 0.667009 0.917539
O O4 0.065486 0.516233 0.942176
O O5 0.294358 0.205284 0.354151
O O6 0.422551 0.089641 0.513836
O O7 0.742945 0.864567 0.374879
O O8 0.642252 0.757438 0.976055
O O9 0.772955 0.819888 0.910823
O O10 0.500000 0.726591 0.500000
O O11 0.591199 0.596159 0.806528
O O12 0.500000 0.700995 0.000000
O O13 0.500000 0.505125 0.000000
O O14 0.332684 0.472783 0.795764
O O15 0.500000 0.937690 0.500000
O O16 0.328601 0.948871 0.307917
#
# Coordination Sequence:
#
# PCOD9126964 Si02
#       8
#     2   2   4   4   4   4   4   4
#     4  12  20  40  68 108 144 180 240 302 378 444
#     4  10  22  42  74 100 144 198 242 302 388 460
#     4  11  23  41  68 108 146 189 234 308 378 451
#     4  12  28  46  72 107 147 195 255 303 367 449
#     4  11  25  50  74 103 143 202 254 305 373 435
#     4  11  25  44  73 106 151 191 246 317 380 451
#     4  10  24  45  70 103 144 192 244 306 375 441
#     4  12  28  46  71 111 149 193 251 309 370 447
#
# _framework density 23.718108999999998
#
# number of rings (size 3 to 8) (size 9 to 14) (size 15 to 20)
#    0.000    0.857    4.286    2.571    9.000    1.714 
#    2.571    0.000    0.000    0.000    0.000    0.000 
#    0.000    0.000    0.000    0.000    0.000    0.000 
#
# Total GULP energy -77990.239806 kJ/mol
# GULP energy per Si atom -5570.731415 kJ/mol
# Density = 2.366413 g / cm^3
# Si number density = 23.718109 Si / 1000 Ang^3
#
#
#
# Elastic Constant Matrix: (Units=GPa)
#
#
# Indices 1 2 3 4 5 6 
#
# 1 91.2725 10.2174 22.1913 0.0000 35.3956 0.0000
# 2 10.2174 77.4560 17.8703 0.0000 14.3669 0.0000
# 3 22.1913 17.8703 68.4434 0.0000 33.6105 0.0000
# 4 0.0000 0.0000 0.0000 6.4558 0.0000 28.6094
# 5 35.3956 14.3669 33.6105 0.0000 54.5671 0.0000
# 6 0.0000 0.0000 0.0000 28.6094 0.0000 32.8240
#
#
#
# Elastic Compliance Matrix: (Units=1/GPa)
#
#
# Indices 1 2 3 4 5 6 
#
# 1 0.014641 -0.000168 -0.000088 0.000000 -0.009399 0.000000
# 2 -0.000168 0.013897 -0.002625 0.000000 -0.001934 0.000000
# 3 -0.000088 -0.002625 0.021443 0.000000 -0.012460 0.000000
# 4 0.000000 0.000000 0.000000 -0.054112 0.000000 0.047164
# 5 -0.009399 -0.001934 -0.012460 0.000000 0.032607 0.000000
# 6 0.000000 0.000000 0.000000 0.047164 0.000000 -0.010643
#
#
# Mechanical properties :
#
#
# Convention : Reuss Voigt Hill
#
# Bulk Modulus (GPa) = 22.61367 37.52554 30.06960
# Shear Modulus (GPa) = 130.43543 31.22893 80.83218
#
# Velocity S-wave (km/s) = 7.42384 3.63253 5.84417
# Velocity P-wave (km/s) = 9.11261 5.78356 7.63181
#
# Compressibility (1/GPa) = 0.04422105
#
# Stress axis : x y z
#
# Youngs Moduli (GPa) = 68.30017 71.95884 46.63536
#
# Poissons Ratio (x) = 0.01207 0.00409
# Poissons Ratio (y) = 0.01146 0.12240
# Poissons Ratio (z) = 0.00599 0.18886
#
# Static dielectric constant tensor:
#      x y z
#    x 2.302620 0.000000 0.014650 
#    y 0.000000 1.971130 0.000000 
#    z 0.014650 0.000000 1.439870 
# 
# From -- ./inp_files/8700.got.cif
#   From: 2010.05.17/outbox.cif.g08.bks.cpg/sg5_5_cif.got.tgz:8700.got - 2010.06.03 18:56:24.
