data_PCOD9126987
_publ_section_title
;
Structure prediction by ZEFSAII (Michael W. Deem and Ramdas Pophale) SiO2 
 PCOD9126987
Probable space group: C 2
;
_chemical_formula_sum "Si O2"
_cell_formula_units_Z 30
_cell_length_a 9.686588
_cell_length_b 7.844605
_cell_length_c 27.024314
_cell_angle_alpha 90.000000
_cell_angle_beta 142.995540
_cell_angle_gamma 90.000000
_cell_volume 1235.960156
_symmetry_space_group_name_H-M "C 2"
_symmetry_group_IT_number 5
_symmetry_cell_setting 'monoclinic'
loop_
_space_group_symop_operation_xyz
x,y,z
-x,y,-z
1/2+x,1/2+y,z
1/2-x,1/2+y,-z
loop_
_atom_site_type_symbol
_atom_site_label
_atom_site_fract_x
_atom_site_fract_y
_atom_site_fract_z
Si Si1 0.882488 0.879810 0.210067
Si Si2 0.408526 0.448805 0.820041
Si Si3 0.301496 0.861217 0.479529
Si Si4 0.895860 0.733439 0.312450
Si Si5 0.231313 0.249418 0.426761
Si Si6 0.876768 0.235366 0.062172
Si Si7 0.000000 0.007026 0.000000
Si Si8 0.480265 0.775601 0.249710
O O1 0.003023 0.805990 0.293075
O O2 0.619598 0.830981 0.139009
O O3 0.990225 0.814903 0.189596
O O4 0.915906 0.081233 0.220332
O O5 0.217431 0.556792 0.735347
O O6 0.605418 0.569517 0.896985
O O7 0.256574 0.376265 0.820760
O O8 0.500000 0.801631 0.500000
O O9 0.372385 0.850056 0.556561
O O10 0.082555 0.740523 0.408247
O O11 0.230040 0.049720 0.441396
O O12 0.676246 0.839751 0.268819
O O13 0.500000 0.299899 0.500000
O O14 0.097421 0.275725 0.337433
O O15 0.683124 0.361059 0.029312
O O16 0.913898 0.151199 0.017851
#
# Coordination Sequence:
#
# PCOD9126987 Si02
#       8
#     4   4   4   4   4   4   2   4
#     4  10  24  45  71 103 147 189 246 313 367 461
#     4  10  26  42  75 101 147 189 250 303 384 455
#     4  11  25  39  60  86 133 177 247 310 388 458
#     4  10  22  43  59  99 133 182 244 314 375 456
#     4  11  24  41  59  89 132 185 240 314 381 454
#     4  11  30  52  82 121 162 207 258 315 389 477
#     4  12  32  54  90 122 170 212 262 318 398 490
#     4  11  23  40  71  96 138 191 251 316 388 456
#
# _framework density 24.272625000000001
#
# number of rings (size 3 to 8) (size 9 to 14) (size 15 to 20)
#    0.000    1.333    2.667    0.000   14.933    2.667 
#    0.000    0.000    0.000    0.000    0.000    0.000 
#    0.000    0.000    0.000    0.000    0.000    0.000 
#
# Total GULP energy -83573.652460 kJ/mol
# GULP energy per Si atom -5571.576831 kJ/mol
# Density = 2.421738 g / cm^3
# Si number density = 24.272625 Si / 1000 Ang^3
#
#
#
# Elastic Constant Matrix: (Units=GPa)
#
#
# Indices 1 2 3 4 5 6 
#
# 1 147.5096 19.0755 33.7121 0.0000 -17.0044 0.0000
# 2 19.0755 35.2239 20.6777 0.0000 -0.9650 0.0000
# 3 33.7121 20.6777 39.9553 0.0000 -7.3969 0.0000
# 4 0.0000 0.0000 0.0000 33.1292 0.0000 -1.7130
# 5 -17.0044 -0.9650 -7.3969 0.0000 33.0976 0.0000
# 6 0.0000 0.0000 0.0000 -1.7130 0.0000 33.7756
#
#
#
# Elastic Compliance Matrix: (Units=1/GPa)
#
#
# Indices 1 2 3 4 5 6 
#
# 1 0.008685 -0.000931 -0.006286 0.000000 0.003030 0.000000
# 2 -0.000931 0.041312 -0.021343 0.000000 -0.004044 0.000000
# 3 -0.006286 -0.021343 0.042419 0.000000 0.005629 0.000000
# 4 0.000000 0.000000 0.000000 0.030264 0.000000 0.001535
# 5 0.003030 -0.004044 0.005629 0.000000 0.032911 0.000000
# 6 0.000000 0.000000 0.000000 0.001535 0.000000 0.029685
#
#
# Mechanical properties :
#
#
# Convention : Reuss Voigt Hill
#
# Bulk Modulus (GPa) = 28.33055 41.06881 34.69968
# Shear Modulus (GPa) = 19.67253 29.94871 24.81062
#
# Velocity S-wave (km/s) = 2.84999 3.51643 3.20060
# Velocity P-wave (km/s) = 4.74627 5.78304 5.29011
#
# Compressibility (1/GPa) = 0.03529758
#
# Stress axis : x y z
#
# Youngs Moduli (GPa) = 115.13529 24.20590 23.57433
#
# Poissons Ratio (x) = 0.02253 0.14818
# Poissons Ratio (y) = 0.10715 0.50315
# Poissons Ratio (z) = 0.72370 0.51663
#
# Static dielectric constant tensor:
#      x y z
#    x 2.039300 0.000000 -0.030600 
#    y 0.000000 1.970620 0.000000 
#    z -0.030600 0.000000 1.932700 
# 
# From -- ./inp_files/70180.got.cif
#   From: 2010.05.17/outbox.cif.g08.bks.cpg/sg5_36_cif.got.tgz:70180.got - 2010.06.03 18:56:24.
