data_PCOD9126580
_publ_section_title
;
Structure prediction by ZEFSAII (Michael W. Deem and Ramdas Pophale) SiO2 
 PCOD9126580
Probable space group: C 2
;
_chemical_formula_sum "Si O2"
_cell_formula_units_Z 30
_cell_length_a 12.033709
_cell_length_b 8.328891
_cell_length_c 14.028561
_cell_angle_alpha 90.000000
_cell_angle_beta 83.579568
_cell_angle_gamma 90.000000
_cell_volume 1397.228327
_symmetry_space_group_name_H-M "C 2"
_symmetry_group_IT_number 5
_symmetry_cell_setting 'monoclinic'
loop_
_space_group_symop_operation_xyz
x,y,z
-x,y,-z
1/2+x,1/2+y,z
1/2-x,1/2+y,-z
loop_
_atom_site_type_symbol
_atom_site_label
_atom_site_fract_x
_atom_site_fract_y
_atom_site_fract_z
Si Si1 0.000000 0.835860 0.000000
Si Si2 0.717852 0.923698 0.734988
Si Si3 0.000580 0.618214 0.184911
Si Si4 0.866538 0.041228 0.874930
Si Si5 0.200656 0.381468 0.188537
Si Si6 0.626161 0.672778 0.597986
Si Si7 0.141519 0.201263 0.382162
Si Si8 0.928296 0.934977 0.256657
O O1 0.021268 0.713567 0.910992
O O2 0.904864 0.957064 0.968444
O O3 0.689281 0.770681 0.674435
O O4 0.599761 0.002096 0.775442
O O5 0.784711 0.917694 0.827930
O O6 0.795223 0.043666 0.664869
O O7 0.990296 0.764643 0.260855
O O8 0.115197 0.520350 0.167828
O O9 0.815190 0.220098 0.874150
O O10 0.978644 0.050670 0.798756
O O11 0.171983 0.331893 0.300232
O O12 0.328765 0.429367 0.189334
O O13 0.674945 0.710695 0.489797
O O14 0.493245 0.706043 0.605210
O O15 0.621434 0.492167 0.638549
#
# Coordination Sequence:
#
# PCOD9126580 Si02
#       8
#     2   4   4   4   4   4   4   4
#     4  10  26  44  64 100 130 160 234 286 324 420
#     4  11  21  43  69  91 136 180 210 276 339 389
#     4  11  23  44  67 100 127 167 229 273 338 406
#     4  10  22  47  63  93 133 170 219 278 339 399
#     4  11  22  43  69  92 134 183 213 270 342 392
#     4  11  23  39  67  97 139 181 220 270 325 388
#     4  10  22  41  63  97 137 174 233 263 312 401
#     4  11  22  40  66  96 131 176 213 271 335 389
#
# _framework density 21.471080000000001
#
# number of rings (size 3 to 8) (size 9 to 14) (size 15 to 20)
#    0.000    1.333    6.667    0.000    5.600    0.533 
#    4.800    0.000    5.867    0.000    0.000    0.000 
#    0.000    0.000    0.000    0.000    0.000    0.000 
#
# Total GULP energy -83591.136733 kJ/mol
# GULP energy per Si atom -5572.742449 kJ/mol
# Density = 2.142221 g / cm^3
# Si number density = 21.471080 Si / 1000 Ang^3
#
#
#
# Elastic Constant Matrix: (Units=GPa)
#
#
# Indices 1 2 3 4 5 6 
#
# 1 74.1453 19.5720 -14.5163 0.0000 16.3364 0.0000
# 2 19.5720 68.3531 31.5654 0.0000 18.7146 0.0000
# 3 -14.5163 31.5654 81.5139 0.0000 16.5547 0.0000
# 4 0.0000 0.0000 0.0000 26.9905 0.0000 5.3935
# 5 16.3364 18.7146 16.5547 0.0000 33.1164 0.0000
# 6 0.0000 0.0000 0.0000 5.3935 0.0000 29.4962
#
#
#
# Elastic Compliance Matrix: (Units=1/GPa)
#
#
# Indices 1 2 3 4 5 6 
#
# 1 0.018778 -0.006335 0.007737 0.000000 -0.009551 0.000000
# 2 -0.006335 0.021729 -0.008551 0.000000 -0.004880 0.000000
# 3 0.007737 -0.008551 0.018644 0.000000 -0.008304 0.000000
# 4 0.000000 0.000000 0.000000 0.038455 0.000000 -0.007032
# 5 -0.009551 -0.004880 -0.008304 0.000000 0.041817 0.000000
# 6 0.000000 0.000000 0.000000 -0.007032 0.000000 0.035188
#
#
# Mechanical properties :
#
#
# Convention : Reuss Voigt Hill
#
# Bulk Modulus (GPa) = 22.29543 33.02829 27.66186
# Shear Modulus (GPa) = 24.52661 30.41337 27.46999
#
# Velocity S-wave (km/s) = 3.38347 3.76770 3.58074
# Velocity P-wave (km/s) = 5.06659 5.86033 5.47786
#
# Compressibility (1/GPa) = 0.04485224
#
# Stress axis : x y z
#
# Youngs Moduli (GPa) = 53.25274 46.02190 53.63794
#
# Poissons Ratio (x) = 0.29154 -0.41499
# Poissons Ratio (y) = 0.33735 0.45868
# Poissons Ratio (z) = -0.41201 0.39355
#
# Static dielectric constant tensor:
#      x y z
#    x 1.891020 0.000000 0.004420 
#    y 0.000000 1.817460 0.000000 
#    z 0.004420 0.000000 1.823000 
# 
# From -- ./inp_files/52290.got.cif
#   From: 2010.05.17/outbox.cif.g08.bks.cpg/sg5_27_cif.got.tgz:52290.got - 2010.06.03 18:56:24.
