data_PCOD9126998
_publ_section_title
;
Structure prediction by ZEFSAII (Michael W. Deem and Ramdas Pophale) SiO2 
 PCOD9126998
Probable space group: C 2
;
_chemical_formula_sum "Si O2"
_cell_formula_units_Z 24
_cell_length_a 7.341917
_cell_length_b 7.353825
_cell_length_c 17.080913
_cell_angle_alpha 90.000000
_cell_angle_beta 66.197853
_cell_angle_gamma 90.000000
_cell_volume 843.778809
_symmetry_space_group_name_H-M "C 2"
_symmetry_group_IT_number 5
_symmetry_cell_setting 'monoclinic'
loop_
_space_group_symop_operation_xyz
x,y,z
-x,y,-z
1/2+x,1/2+y,z
1/2-x,1/2+y,-z
loop_
_atom_site_type_symbol
_atom_site_label
_atom_site_fract_x
_atom_site_fract_y
_atom_site_fract_z
Si Si1 0.166817 0.351650 0.887965
Si Si2 0.081517 0.151612 0.565496
Si Si3 0.936747 0.746276 0.245624
Si Si4 0.572072 0.920723 0.285460
Si Si5 0.280420 0.232531 0.031345
Si Si6 0.960266 0.738560 0.410027
O O1 0.344467 0.327186 0.795656
O O2 0.187703 0.547278 0.925773
O O3 0.939034 0.306728 0.907480
O O4 0.243688 0.214548 0.944076
O O5 0.987216 0.949144 0.583312
O O6 0.000000 0.241598 0.500000
O O7 0.316140 0.163065 0.503067
O O8 0.043568 0.259913 0.651549
O O9 0.955778 0.530177 0.238687
O O10 0.781941 0.847797 0.218053
O O11 0.840315 0.771762 0.348145
O O12 0.593506 0.079163 0.348432
O O13 0.500000 0.327333 0.000000
#
# Coordination Sequence:
#
# PCOD9126998 Si02
#       6
#     4   4   4   4   4   4
#     4  11  25  47  81 112 160 202 259 318 397 470
#     4  12  21  40  64  96 140 197 263 319 380 461
#     4  10  22  47  67 102 149 196 250 322 393 465
#     4  10  22  43  64 103 144 195 256 319 390 460
#     4  11  24  48  76 117 147 201 257 313 384 481
#     4  10  23  38  66  96 137 196 252 319 383 455
#
# _framework density 28.443473999999998
#
# number of rings (size 3 to 8) (size 9 to 14) (size 15 to 20)
#    1.000    0.333    5.000    1.000    2.333    2.000 
#    3.000    0.000    3.667    0.000    0.000    0.000 
#    0.000    0.000    0.000    0.000    0.000    0.000 
#
# Total GULP energy -67006.469565 kJ/mol
# GULP energy per Si atom -5583.872464 kJ/mol
# Density = 2.837874 g / cm^3
# Si number density = 28.443474 Si / 1000 Ang^3
#
#
#
# Elastic Constant Matrix: (Units=GPa)
#
#
# Indices 1 2 3 4 5 6 
#
# 1 182.6775 71.3216 36.0909 0.0000 -59.8834 0.0000
# 2 71.3216 183.9945 46.9498 0.0000 -20.0144 0.0000
# 3 36.0909 46.9498 122.9992 0.0000 -48.8507 0.0000
# 4 0.0000 0.0000 0.0000 54.7739 0.0000 -2.3515
# 5 -59.8834 -20.0144 -48.8507 0.0000 45.9919 0.0000
# 6 0.0000 0.0000 0.0000 -2.3515 0.0000 60.3576
#
#
#
# Elastic Compliance Matrix: (Units=1/GPa)
#
#
# Indices 1 2 3 4 5 6 
#
# 1 0.013209 -0.004393 0.006698 0.000000 0.022402 0.000000
# 2 -0.004393 0.007485 -0.004404 0.000000 -0.007140 0.000000
# 3 0.006698 -0.004404 0.018245 0.000000 0.026184 0.000000
# 4 0.000000 0.000000 0.000000 0.018287 0.000000 0.000712
# 5 0.022402 -0.007140 0.026184 0.000000 0.075615 0.000000
# 6 0.000000 0.000000 0.000000 0.000712 0.000000 0.016596
#
#
# Mechanical properties :
#
#
# Convention : Reuss Voigt Hill
#
# Bulk Modulus (GPa) = 28.78338 88.71063 58.74701
# Shear Modulus (GPa) = 30.26361 54.57861 42.42111
#
# Velocity S-wave (km/s) = 3.26543 4.38521 3.86608
# Velocity P-wave (km/s) = 4.93547 7.54296 6.37397
#
# Compressibility (1/GPa) = 0.03474227
#
# Stress axis : x y z
#
# Youngs Moduli (GPa) = 75.70368 133.60561 54.80992
#
# Poissons Ratio (x) = 0.58688 -0.36712
# Poissons Ratio (y) = 0.33254 0.24137
# Poissons Ratio (z) = -0.50706 0.58836
#
# Static dielectric constant tensor:
#      x y z
#    x 2.672710 0.000000 0.142460 
#    y 0.000000 2.278410 0.000000 
#    z 0.142460 0.000000 2.223630 
# 
# From -- ./inp_files/64296.got.cif
#   From: 2010.05.17/outbox.cif.g08.bks.cpg/sg5_33_cif.got.tgz:64296.got - 2010.06.03 18:56:24.
