data_PCOD9126834
_publ_section_title
;
Structure prediction by ZEFSAII (Michael W. Deem and Ramdas Pophale) SiO2 
 PCOD9126834
Probable space group: C 2
;
_chemical_formula_sum "Si O2"
_cell_formula_units_Z 20
_cell_length_a 9.724885
_cell_length_b 8.529860
_cell_length_c 8.951746
_cell_angle_alpha 90.000000
_cell_angle_beta 78.869897
_cell_angle_gamma 90.000000
_cell_volume 728.597794
_symmetry_space_group_name_H-M "C 2"
_symmetry_group_IT_number 5
_symmetry_cell_setting 'monoclinic'
loop_
_space_group_symop_operation_xyz
x,y,z
-x,y,-z
1/2+x,1/2+y,z
1/2-x,1/2+y,-z
loop_
_atom_site_type_symbol
_atom_site_label
_atom_site_fract_x
_atom_site_fract_y
_atom_site_fract_z
Si Si1 0.564324 0.580900 0.771353
Si Si2 0.316419 0.721301 0.979574
Si Si3 0.363448 0.019078 0.179604
Si Si4 0.843062 0.319307 0.470930
Si Si5 0.953388 0.762217 0.339298
O O1 0.444002 0.705977 0.835962
O O2 0.643660 0.650753 0.613792
O O3 0.490892 0.418236 0.750745
O O4 0.657672 0.586877 0.899555
O O5 0.188674 0.668898 0.905759
O O6 0.339893 0.880515 0.065572
O O7 0.491920 0.109341 0.235247
O O8 0.303546 0.939604 0.345203
O O9 0.714612 0.300396 0.611846
O O10 0.000000 0.353406 0.500000
O O11 0.000000 0.746223 0.500000
#
# Coordination Sequence:
#
# PCOD9126834 Si02
#       5
#     4   4   4   4   4
#     4  10  22  42  67  94 142 190 235 289 357 427
#     4  10  22  43  66  99 139 192 239 293 358 422
#     4  11  23  41  68 102 143 186 241 295 352 427
#     4  11  23  42  69 103 144 188 232 293 364 429
#     4  12  24  42  71 106 142 187 241 294 353 432
#
# _framework density 27.449987
#
# number of rings (size 3 to 8) (size 9 to 14) (size 15 to 20)
#    0.000    1.200    0.000    6.000    0.000    0.000 
#    0.000   30.000    0.000    0.000    0.000    2.800 
#    0.000    0.000    0.000    0.000    0.000    0.000 
#
# Total GULP energy -55809.894766 kJ/mol
# GULP energy per Si atom -5580.989477 kJ/mol
# Density = 2.738751 g / cm^3
# Si number density = 27.449987 Si / 1000 Ang^3
#
#
#
# Elastic Constant Matrix: (Units=GPa)
#
#
# Indices 1 2 3 4 5 6 
#
# 1 98.7462 -6.6280 44.2988 0.0000 12.6317 0.0000
# 2 -6.6280 169.6552 76.4483 0.0000 19.7126 0.0000
# 3 44.2988 76.4483 153.4038 0.0000 16.8208 0.0000
# 4 0.0000 0.0000 0.0000 65.0317 0.0000 10.6634
# 5 12.6317 19.7126 16.8208 0.0000 58.7411 0.0000
# 6 0.0000 0.0000 0.0000 10.6634 0.0000 8.8612
#
#
#
# Elastic Compliance Matrix: (Units=1/GPa)
#
#
# Indices 1 2 3 4 5 6 
#
# 1 0.012851 0.003007 -0.004951 0.000000 -0.002355 0.000000
# 2 0.003007 0.008437 -0.004844 0.000000 -0.002091 0.000000
# 3 -0.004951 -0.004844 0.010394 0.000000 -0.000286 0.000000
# 4 0.000000 0.000000 0.000000 0.019157 0.000000 -0.023054
# 5 -0.002355 -0.002091 -0.000286 0.000000 0.018314 0.000000
# 6 0.000000 0.000000 0.000000 -0.023054 0.000000 0.140594
#
#
# Mechanical properties :
#
#
# Convention : Reuss Voigt Hill
#
# Bulk Modulus (GPa) = 55.23079 72.22706 63.72892
# Shear Modulus (GPa) = 21.79982 47.03920 34.41951
#
# Velocity S-wave (km/s) = 2.82115 4.14410 3.54489
# Velocity P-wave (km/s) = 5.54762 7.01907 6.32627
#
# Compressibility (1/GPa) = 0.01810584
#
# Stress axis : x y z
#
# Youngs Moduli (GPa) = 77.81361 118.52042 96.21143
#
# Poissons Ratio (x) = -0.35636 0.47637
# Poissons Ratio (y) = -0.23397 0.46602
# Poissons Ratio (z) = 0.38528 0.57408
#
# Static dielectric constant tensor:
#      x y z
#    x 2.265060 0.000000 -0.023040 
#    y 0.000000 2.297770 0.000000 
#    z -0.023040 0.000000 2.024700 
# 
# From -- ./inp_files/18312.got.cif
#   From: 2010.05.17/outbox.cif.g08.bks.cpg/sg5_10_cif.got.tgz:18312.got - 2010.06.03 18:56:24.
