data_PCOD9126928
_publ_section_title
;
Structure prediction by ZEFSAII (Michael W. Deem and Ramdas Pophale) SiO2 
 PCOD9126928
Probable space group: C 2
;
_chemical_formula_sum "Si O2"
_cell_formula_units_Z 18
_cell_length_a 7.309379
_cell_length_b 12.058307
_cell_length_c 9.862716
_cell_angle_alpha 90.000000
_cell_angle_beta 127.714518
_cell_angle_gamma 90.000000
_cell_volume 687.665865
_symmetry_space_group_name_H-M "C 2"
_symmetry_group_IT_number 5
_symmetry_cell_setting 'monoclinic'
loop_
_space_group_symop_operation_xyz
x,y,z
-x,y,-z
1/2+x,1/2+y,z
1/2-x,1/2+y,-z
loop_
_atom_site_type_symbol
_atom_site_label
_atom_site_fract_x
_atom_site_fract_y
_atom_site_fract_z
Si Si1 0.310465 0.022200 0.320815
Si Si2 0.378259 0.608617 0.300364
Si Si3 0.710128 0.373365 0.772168
Si Si4 0.500000 0.238824 0.500000
Si Si5 0.669989 0.825681 0.866312
O O1 0.500000 0.960830 0.500000
O O2 0.436023 0.141127 0.358318
O O3 0.078598 0.059866 0.291662
O O4 0.265165 0.938714 0.179435
O O5 0.500000 0.629819 0.500000
O O6 0.220900 0.499481 0.229631
O O7 0.261154 0.716637 0.184831
O O8 0.466493 0.334497 0.602558
O O9 0.891086 0.308154 0.756732
O O10 0.745418 0.339004 0.941709
#
# Coordination Sequence:
#
# PCOD9126928 Si02
#       5
#     4   4   4   2   4
#     4  10  23  42  70  95 135 175 222 272 334 388
#     4  12  25  43  70 100 133 179 227 274 333 400
#     4  11  25  43  70 100 140 174 220 277 338 393
#     4  10  22  42  70  98 138 176 218 276 334 398
#     4  11  25  46  67 103 135 176 223 278 331 399
#
# _framework density 26.175502999999999
#
# number of rings (size 3 to 8) (size 9 to 14) (size 15 to 20)
#    0.667    0.444    3.333    2.000    3.111    2.667 
#    0.000    0.000    0.000    0.000    0.000    0.000 
#    0.000    0.000    0.000    0.000    0.000    0.000 
#
# Total GULP energy -50109.800128 kJ/mol
# GULP energy per Si atom -5567.755570 kJ/mol
# Density = 2.611593 g / cm^3
# Si number density = 26.175503 Si / 1000 Ang^3
#
#
#
# Elastic Constant Matrix: (Units=GPa)
#
#
# Indices 1 2 3 4 5 6 
#
# 1 62.9973 7.2068 1.9479 0.0006 -4.4012 0.0013
# 2 7.2068 222.4846 80.3520 0.0001 -32.5800 0.0004
# 3 1.9479 80.3520 181.5835 0.0004 -21.6443 0.0011
# 4 0.0006 0.0001 0.0004 30.1001 0.0003 -26.5588
# 5 -4.4012 -32.5800 -21.6443 0.0003 29.3920 0.0006
# 6 0.0013 0.0004 0.0011 -26.5588 0.0006 -32.7065
#
#
#
# Elastic Compliance Matrix: (Units=1/GPa)
#
#
# Indices 1 2 3 4 5 6 
#
# 1 0.016056 -0.000266 0.000216 0.000000 0.002268 0.000001
# 2 -0.000266 0.005985 -0.002039 0.000000 0.005094 0.000000
# 3 0.000216 -0.002039 0.006732 0.000000 0.002730 0.000000
# 4 0.000000 0.000000 0.000000 0.019355 0.000000 -0.015717
# 5 0.002268 0.005094 0.002730 0.000000 0.042019 0.000001
# 6 0.000001 0.000000 0.000000 -0.015717 0.000001 -0.017812
#
#
# Mechanical properties :
#
#
# Convention : Reuss Voigt Hill
#
# Bulk Modulus (GPa) = 40.65639 71.78655 56.22147
# Shear Modulus (GPa) = 59.02395 30.52771 44.77583
#
# Velocity S-wave (km/s) = 4.75376 3.41877 4.14043
# Velocity P-wave (km/s) = 6.75995 6.56267 6.66204
#
# Compressibility (1/GPa) = 0.02459638
#
# Stress axis : x y z
#
# Youngs Moduli (GPa) = 62.28237 167.07148 148.53697
#
# Poissons Ratio (x) = 0.04441 -0.03205
# Poissons Ratio (y) = 0.01656 0.30281
# Poissons Ratio (z) = -0.01344 0.34059
#
# Static dielectric constant tensor:
#      x y z
#    x 13.667180 0.000000 14.074390 
#    y 0.000000 2.058840 0.000000 
#    z 14.074390 0.000000 19.171780 
# 
# From -- ./inp_files/14199.got.cif
#   From: 2010.05.17/outbox.cif.g08.bks.cpg/sg5_8_cif.got.tgz:14199.got - 2010.06.03 18:56:24.
