data_PCOD9126291
_publ_section_title
;
Structure prediction by ZEFSAII (Michael W. Deem and Ramdas Pophale) SiO2 
 PCOD9126291
Probable space group: C 2
;
_chemical_formula_sum "Si O2"
_cell_formula_units_Z 22
_cell_length_a 7.221800
_cell_length_b 16.665797
_cell_length_c 14.365876
_cell_angle_alpha 90.000000
_cell_angle_beta 37.511228
_cell_angle_gamma 90.000000
_cell_volume 1052.838303
_symmetry_space_group_name_H-M "C 2"
_symmetry_group_IT_number 5
_symmetry_cell_setting 'monoclinic'
loop_
_space_group_symop_operation_xyz
x,y,z
-x,y,-z
1/2+x,1/2+y,z
1/2-x,1/2+y,-z
loop_
_atom_site_type_symbol
_atom_site_label
_atom_site_fract_x
_atom_site_fract_y
_atom_site_fract_z
Si Si1 0.313941 0.825880 0.328708
Si Si2 0.000000 0.516954 0.500000
Si Si3 0.817592 0.870262 0.279716
Si Si4 0.500000 0.072910 0.000000
Si Si5 0.781702 0.428954 0.961748
Si Si6 0.541797 0.656416 0.675611
Si Si7 0.000000 0.245729 0.500000
O O1 0.585583 0.837904 0.294815
O O2 0.436769 0.881063 0.196000
O O3 0.302007 0.728559 0.326245
O O4 0.000000 0.854278 0.500000
O O5 0.818600 0.456675 0.639519
O O6 0.743749 0.579005 0.571044
O O7 0.783136 0.808617 0.379279
O O8 0.140224 0.878601 0.103506
O O9 0.243580 0.126993 0.150501
O O10 0.626267 0.013896 0.030644
O O11 0.500000 0.437429 0.000000
O O12 0.476968 0.692463 0.600079
#
# Coordination Sequence:
#
# PCOD9126291 Si02
#       7
#     4   2   4   2   4   4   2
#     4  10  22  39  66  92 128 171 217 263 324 387
#     4  11  20  40  62  85 130 160 206 277 308 372
#     4   9  20  40  64  86 126 172 211 261 321 388
#     4  12  26  42  68  96 132 176 218 270 336 378
#     4  10  23  43  67  95 131 172 223 265 321 397
#     4  11  24  41  63  96 131 164 218 273 330 378
#     4   9  22  38  64  91 122 170 212 251 330 386
#
# _framework density 20.895897999999999
#
# number of rings (size 3 to 8) (size 9 to 14) (size 15 to 20)
#    0.000    1.818    2.727    0.000    8.909    4.364 
#    0.000    0.000    2.000    0.000    0.000    0.000 
#    0.000    0.000    0.000    0.000    0.000    0.000 
#
# Total GULP energy -61313.679835 kJ/mol
# GULP energy per Si atom -5573.970894 kJ/mol
# Density = 2.084834 g / cm^3
# Si number density = 20.895898 Si / 1000 Ang^3
#
#
#
# Elastic Constant Matrix: (Units=GPa)
#
#
# Indices 1 2 3 4 5 6 
#
# 1 43.4597 27.6543 31.0542 0.0296 14.4887 0.0122
# 2 27.6543 131.6334 74.6116 0.0449 14.8028 0.0188
# 3 31.0542 74.6116 217.9652 0.0365 13.8499 0.0173
# 4 0.0296 0.0449 0.0365 -636.7362 -0.0152 -275.8944
# 5 14.4887 14.8028 13.8499 -0.0152 30.0676 -0.0065
# 6 0.0122 0.0188 0.0173 -275.8944 -0.0065 -72.1477
#
#
#
# Elastic Compliance Matrix: (Units=1/GPa)
#
#
# Indices 1 2 3 4 5 6 
#
# 1 0.031158 -0.003859 -0.002354 0.000001 -0.012030 0.000000
# 2 -0.003859 0.010222 -0.002831 0.000000 -0.001869 0.000000
# 3 -0.002354 -0.002831 0.005904 0.000000 -0.000192 0.000000
# 4 0.000001 0.000000 0.000000 0.002391 -0.000002 -0.009142
# 5 -0.012030 -0.001869 -0.000192 -0.000002 0.040064 0.000000
# 6 0.000000 0.000000 0.000000 -0.009142 0.000000 0.021099
#
#
# Mechanical properties :
#
#
# Convention : Reuss Voigt Hill
#
# Bulk Modulus (GPa) = 34.24904 73.29983 53.77443
# Shear Modulus (GPa) = 36.06019 -118.44738 -41.19360
#
# Velocity S-wave (km/s) = 4.15867 -7.53708 -4.44483
# Velocity P-wave (km/s) = 6.28373 6.37093 0.74278
#
# Compressibility (1/GPa) = 0.02919790
#
# Stress axis : x y z
#
# Youngs Moduli (GPa) = 32.09470 97.82666 169.36579
#
# Poissons Ratio (x) = 0.37749 0.39866
# Poissons Ratio (y) = 0.12385 0.47941
# Poissons Ratio (z) = 0.07555 0.27691
#
# Static dielectric constant tensor:
#      x y z
#    x 2.335870 -0.000040 0.140840 
#    y -0.000040 1.816970 -0.000010 
#    z 0.140840 -0.000010 1.815650 
# 
# From -- ./inp_files/14965.got.cif
#   From: 2010.05.17/outbox.cif.g08.bks.cpg/sg5_8_cif.got.tgz:14965.got - 2010.06.03 18:56:24.
