data_PCOD9126784
_publ_section_title
;
Structure prediction by ZEFSAII (Michael W. Deem and Ramdas Pophale) SiO2 
 PCOD9126784
Probable space group: C 2
;
_chemical_formula_sum "Si O2"
_cell_formula_units_Z 28
_cell_length_a 14.210236
_cell_length_b 12.507931
_cell_length_c 8.112188
_cell_angle_alpha 90.000000
_cell_angle_beta 124.590450
_cell_angle_gamma 90.000000
_cell_volume 1186.988449
_symmetry_space_group_name_H-M "C 2"
_symmetry_group_IT_number 5
_symmetry_cell_setting 'monoclinic'
loop_
_space_group_symop_operation_xyz
x,y,z
-x,y,-z
1/2+x,1/2+y,z
1/2-x,1/2+y,-z
loop_
_atom_site_type_symbol
_atom_site_label
_atom_site_fract_x
_atom_site_fract_y
_atom_site_fract_z
Si Si1 0.795474 0.909520 0.761686
Si Si2 0.722169 0.839994 0.217697
Si Si3 0.201555 0.040572 0.915242
Si Si4 0.558001 0.340417 0.390790
Si Si5 0.568166 0.921427 0.340392
Si Si6 0.862892 0.259970 0.205990
Si Si7 0.447950 0.125352 0.262145
O O1 0.890050 0.903487 0.712380
O O2 0.677705 0.952615 0.562144
O O3 0.739476 0.798591 0.774955
O O4 0.838740 0.973980 0.964288
O O5 0.827589 0.787506 0.417893
O O6 0.621281 0.856933 0.243656
O O7 0.681009 0.775546 0.022284
O O8 0.764032 0.954626 0.189245
O O9 0.317874 0.095250 0.097794
O O10 0.119787 0.133144 0.763202
O O11 0.500000 0.389228 0.500000
O O12 0.476139 0.246940 0.244706
O O13 0.468861 0.843767 0.314201
O O14 0.514106 0.032549 0.230924
O O15 0.500000 0.112970 0.500000
#
# Coordination Sequence:
#
# PCOD9126784 Si02
#       7
#     4   4   4   4   4   4   4
#     4  10  22  42  65  94 132 174 219 267 317 395
#     4  10  23  40  61  94 135 164 220 272 316 384
#     4  11  23  40  67  97 134 167 216 269 332 379
#     4  10  23  42  65  91 129 171 222 269 319 382
#     4  11  20  39  67  93 130 171 220 264 315 393
#     4  11  21  38  62 101 134 166 208 278 323 377
#     4  11  19  37  68  95 119 172 220 260 319 385
#
# _framework density 23.589110000000002
#
# number of rings (size 3 to 8) (size 9 to 14) (size 15 to 20)
#    0.000    1.429    4.286    2.571    2.000    0.000 
#    0.000   10.000    0.000    0.000    0.000    0.000 
#    0.000    0.000    0.000    0.000    0.000    0.000 
#
# Total GULP energy -78112.754218 kJ/mol
# GULP energy per Si atom -5579.482444 kJ/mol
# Density = 2.353542 g / cm^3
# Si number density = 23.589110 Si / 1000 Ang^3
#
#
#
# Elastic Constant Matrix: (Units=GPa)
#
#
# Indices 1 2 3 4 5 6 
#
# 1 142.9339 36.4801 20.6526 0.0000 -9.7538 0.0000
# 2 36.4801 88.8819 -2.9612 0.0000 2.7204 0.0000
# 3 20.6526 -2.9612 51.1014 0.0000 6.1442 0.0000
# 4 0.0000 0.0000 0.0000 20.6333 0.0000 15.4543
# 5 -9.7538 2.7204 6.1442 0.0000 35.4782 0.0000
# 6 0.0000 0.0000 0.0000 15.4543 0.0000 17.3276
#
#
#
# Elastic Compliance Matrix: (Units=1/GPa)
#
#
# Indices 1 2 3 4 5 6 
#
# 1 0.008827 -0.003869 -0.004207 0.000000 0.003452 0.000000
# 2 -0.003869 0.013003 0.002619 0.000000 -0.002514 0.000000
# 3 -0.004207 0.002619 0.022043 0.000000 -0.005175 0.000000
# 4 0.000000 0.000000 0.000000 0.145990 0.000000 -0.130206
# 5 0.003452 -0.002514 -0.005175 0.000000 0.030224 0.000000
# 6 0.000000 0.000000 0.000000 -0.130206 0.000000 0.173840
#
#
# Mechanical properties :
#
#
# Convention : Reuss Voigt Hill
#
# Bulk Modulus (GPa) = 30.33895 43.47335 36.90615
# Shear Modulus (GPa) = 12.02425 29.93753 20.98089
#
# Velocity S-wave (km/s) = 2.26019 3.56634 2.98557
# Velocity P-wave (km/s) = 4.43854 5.95213 5.25016
#
# Compressibility (1/GPa) = 0.03296093
#
# Stress axis : x y z
#
# Youngs Moduli (GPa) = 113.28870 76.90563 45.36578
#
# Poissons Ratio (x) = 0.29752 0.19084
# Poissons Ratio (y) = 0.43828 -0.11883
# Poissons Ratio (z) = 0.47657 -0.20144
#
# Static dielectric constant tensor:
#      x y z
#    x 1.890680 0.000000 0.018720 
#    y 0.000000 1.944700 0.000000 
#    z 0.018720 0.000000 1.940230 
# 
# From -- ./inp_files/23939.got.cif
#   From: 2010.05.17/outbox.cif.g08.bks.cpg/sg5_12_cif.got.tgz:23939.got - 2010.06.03 18:56:24.
