data_PCOD9126879
_publ_section_title
;
Structure prediction by ZEFSAII (Michael W. Deem and Ramdas Pophale) SiO2 
 PCOD9126879
Probable space group: C 2
;
_chemical_formula_sum "Si O2"
_cell_formula_units_Z 24
_cell_length_a 8.776305
_cell_length_b 15.803217
_cell_length_c 8.441705
_cell_angle_alpha 90.000000
_cell_angle_beta 95.856540
_cell_angle_gamma 90.000000
_cell_volume 1164.701532
_symmetry_space_group_name_H-M "C 2"
_symmetry_group_IT_number 5
_symmetry_cell_setting 'monoclinic'
loop_
_space_group_symop_operation_xyz
x,y,z
-x,y,-z
1/2+x,1/2+y,z
1/2-x,1/2+y,-z
loop_
_atom_site_type_symbol
_atom_site_label
_atom_site_fract_x
_atom_site_fract_y
_atom_site_fract_z
Si Si1 0.838923 0.246840 0.723651
Si Si2 0.343188 0.317362 0.576324
Si Si3 0.490637 0.006716 0.241554
Si Si4 0.243662 0.496819 0.508815
Si Si5 0.000000 0.366356 0.000000
Si Si6 0.000000 0.132399 0.500000
Si Si7 0.497149 0.198593 0.176736
O O1 0.793732 0.293519 0.554792
O O2 0.674566 0.210962 0.768673
O O3 0.963202 0.182255 0.660727
O O4 0.904573 0.305193 0.871970
O O5 0.500000 0.306156 0.500000
O O6 0.327741 0.417250 0.598313
O O7 0.370650 0.251458 0.719231
O O8 0.641520 0.971545 0.346221
O O9 0.371119 0.026623 0.367569
O O10 0.531162 0.098529 0.177688
O O11 0.427100 0.935483 0.114973
O O12 0.354910 0.570857 0.467610
O O13 0.500000 0.232192 0.000000
#
# Coordination Sequence:
#
# PCOD9126879 Si02
#       7
#     4   4   4   4   2   2   4
#     4  11  26  43  65 104 135 185 232 281 353 401
#     4  10  22  42  68  97 133 175 232 277 345 413
#     4  11  24  44  67  98 139 181 236 274 349 418
#     4  11  23  42  70 100 130 186 229 285 340 412
#     4  12  26  44  68 100 142 180 230 300 340 414
#     4  12  24  44  72 100 140 176 244 288 336 416
#     4  11  24  44  69  99 140 184 226 289 348 418
#
# _framework density 20.606138000000001
#
# number of rings (size 3 to 8) (size 9 to 14) (size 15 to 20)
#    0.000    1.000    5.000    1.000    9.333    1.333 
#    0.000    0.000    1.833    0.000    0.000    0.000 
#    0.000    0.000    0.000    0.000    0.000    0.000 
#
# Total GULP energy -66818.977142 kJ/mol
# GULP energy per Si atom -5568.248095 kJ/mol
# Density = 2.055924 g / cm^3
# Si number density = 20.606138 Si / 1000 Ang^3
#
#
#
# Elastic Constant Matrix: (Units=GPa)
#
#
# Indices 1 2 3 4 5 6 
#
# 1 68.2081 37.6881 46.2374 0.0000 1.8457 0.0000
# 2 37.6881 133.4896 67.0325 0.0000 19.5090 0.0000
# 3 46.2374 67.0325 125.8780 0.0000 14.6520 0.0000
# 4 0.0000 0.0000 0.0000 39.6364 0.0000 -0.7547
# 5 1.8457 19.5090 14.6520 0.0000 30.8738 0.0000
# 6 0.0000 0.0000 0.0000 -0.7547 0.0000 22.3108
#
#
#
# Elastic Compliance Matrix: (Units=1/GPa)
#
#
# Indices 1 2 3 4 5 6 
#
# 1 0.020601 -0.003205 -0.006301 0.000000 0.003784 0.000000
# 2 -0.003205 0.011240 -0.004238 0.000000 -0.004900 0.000000
# 3 -0.006301 -0.004238 0.012871 0.000000 -0.003054 0.000000
# 4 0.000000 0.000000 0.000000 0.025246 0.000000 0.000854
# 5 0.003784 -0.004900 -0.003054 0.000000 0.036709 0.000000
# 6 0.000000 0.000000 0.000000 0.000854 0.000000 0.044850
#
#
# Mechanical properties :
#
#
# Convention : Reuss Voigt Hill
#
# Bulk Modulus (GPa) = 58.05829 69.94351 64.00090
# Shear Modulus (GPa) = 27.06414 30.33872 28.70143
#
# Velocity S-wave (km/s) = 3.62802 3.84124 3.73615
# Velocity P-wave (km/s) = 6.76657 7.32736 7.05254
#
# Compressibility (1/GPa) = 0.01722407
#
# Stress axis : x y z
#
# Youngs Moduli (GPa) = 48.54173 88.96456 77.69524
#
# Poissons Ratio (x) = 0.28516 0.48953
# Poissons Ratio (y) = 0.15559 0.32927
# Poissons Ratio (z) = 0.30584 0.37703
#
# Static dielectric constant tensor:
#      x y z
#    x 1.744370 0.000000 0.005050 
#    y 0.000000 1.811970 0.000000 
#    z 0.005050 0.000000 1.780820 
# 
# From -- ./inp_files/15039.got.cif
#   From: 2010.05.17/outbox.cif.g08.bks.cpg/sg5_8_cif.got.tgz:15039.got - 2010.06.03 18:56:24.
