data_PCOD9126932
_publ_section_title
;
Structure prediction by ZEFSAII (Michael W. Deem and Ramdas Pophale) SiO2 
 PCOD9126932
Probable space group: C 2
;
_chemical_formula_sum "Si O2"
_cell_formula_units_Z 16
_cell_length_a 8.865161
_cell_length_b 11.351575
_cell_length_c 9.519560
_cell_angle_alpha 90.000000
_cell_angle_beta 135.062486
_cell_angle_gamma 90.000000
_cell_volume 676.659954
_symmetry_space_group_name_H-M "C 2"
_symmetry_group_IT_number 5
_symmetry_cell_setting 'monoclinic'
loop_
_space_group_symop_operation_xyz
x,y,z
-x,y,-z
1/2+x,1/2+y,z
1/2-x,1/2+y,-z
loop_
_atom_site_type_symbol
_atom_site_label
_atom_site_fract_x
_atom_site_fract_y
_atom_site_fract_z
Si Si1 0.773323 0.986130 0.919776
Si Si2 0.225023 0.217156 0.227853
Si Si3 0.092178 0.320520 0.411589
Si Si4 0.016644 0.955966 0.664916
O O1 0.599566 0.884352 0.798254
O O2 0.683305 0.096365 0.772786
O O3 0.843465 0.019346 0.124218
O O4 0.000000 0.949173 0.000000
O O5 0.184664 0.221539 0.368245
O O6 0.359868 0.332032 0.279706
O O7 0.000000 0.225245 0.000000
O O8 0.281711 0.415727 0.559100
O O9 0.000000 0.283402 0.500000
O O10 0.000000 0.012629 0.500000
#
# Coordination Sequence:
#
# PCOD9126932 Si02
#       4
#     4   4   4   4
#     4  11  22  42  70 102 138 178 220 284 339 393
#     4  10  22  42  71  98 139 178 220 282 339 393
#     4  11  22  40  71  98 139 181 224 278 338 402
#     4  10  22  42  71 101 138 178 227 280 336 404
#
# _framework density 23.645553
#
# number of rings (size 3 to 8) (size 9 to 14) (size 15 to 20)
#    0.000    1.500    5.000    0.000    0.000    3.000 
#    0.000    5.000   44.000    0.000    0.000    0.000 
#    0.000    0.000    0.000    0.000    0.000    0.000 
#
# Total GULP energy -44739.835085 kJ/mol
# GULP energy per Si atom -5592.479386 kJ/mol
# Density = 2.359173 g / cm^3
# Si number density = 23.645553 Si / 1000 Ang^3
#
#
#
# Elastic Constant Matrix: (Units=GPa)
#
#
# Indices 1 2 3 4 5 6 
#
# 1 92.9757 27.6747 33.7757 0.0000 -29.0883 0.0000
# 2 27.6747 74.9683 23.7711 0.0000 -16.9330 0.0000
# 3 33.7757 23.7711 139.1731 0.0000 -36.3235 0.0000
# 4 0.0000 0.0000 0.0000 33.3039 0.0000 -2.5681
# 5 -29.0883 -16.9330 -36.3235 0.0000 59.5446 0.0000
# 6 0.0000 0.0000 0.0000 -2.5681 0.0000 29.1552
#
#
#
# Elastic Compliance Matrix: (Units=1/GPa)
#
#
# Indices 1 2 3 4 5 6 
#
# 1 0.013875 -0.003551 -0.001493 0.000000 0.004857 0.000000
# 2 -0.003551 0.015484 -0.001292 0.000000 0.001880 0.000000
# 3 -0.001493 -0.001292 0.008899 0.000000 0.004332 0.000000
# 4 0.000000 0.000000 0.000000 0.030232 0.000000 0.002663
# 5 0.004857 0.001880 0.004332 0.000000 0.022344 0.000000
# 6 0.000000 0.000000 0.000000 0.002663 0.000000 0.034534
#
#
# Mechanical properties :
#
#
# Convention : Reuss Voigt Hill
#
# Bulk Modulus (GPa) = 39.08538 53.06223 46.07381
# Shear Modulus (GPa) = 34.11372 39.19380 36.65376
#
# Velocity S-wave (km/s) = 3.80243 4.07572 3.94144
# Velocity P-wave (km/s) = 5.98694 6.68118 6.34356
#
# Compressibility (1/GPa) = 0.02558502
#
# Stress axis : x y z
#
# Youngs Moduli (GPa) = 72.07448 64.58129 112.37374
#
# Poissons Ratio (x) = 0.22935 0.16776
# Poissons Ratio (y) = 0.25596 0.14521
# Poissons Ratio (z) = 0.10760 0.08345
#
# Static dielectric constant tensor:
#      x y z
#    x 1.914380 0.000000 -0.050830 
#    y 0.000000 1.912900 0.000000 
#    z -0.050830 0.000000 1.891660 
# 
# From -- ./inp_files/14098.got.cif
#   From: 2010.05.17/outbox.cif.g08.bks.cpg/sg5_8_cif.got.tgz:14098.got - 2010.06.03 18:56:24.
