data_PCOD9126499
_publ_section_title
;
Structure prediction by ZEFSAII (Michael W. Deem and Ramdas Pophale) SiO2 
 PCOD9126499
Probable space group: C 2
;
_chemical_formula_sum "Si O2"
_cell_formula_units_Z 28
_cell_length_a 13.522864
_cell_length_b 7.671049
_cell_length_c 13.882600
_cell_angle_alpha 90.000000
_cell_angle_beta 128.663450
_cell_angle_gamma 90.000000
_cell_volume 1124.476126
_symmetry_space_group_name_H-M "C 2"
_symmetry_group_IT_number 5
_symmetry_cell_setting 'monoclinic'
loop_
_space_group_symop_operation_xyz
x,y,z
-x,y,-z
1/2+x,1/2+y,z
1/2-x,1/2+y,-z
loop_
_atom_site_type_symbol
_atom_site_label
_atom_site_fract_x
_atom_site_fract_y
_atom_site_fract_z
Si Si1 0.110429 0.594820 0.486822
Si Si2 0.355116 0.728246 0.430643
Si Si3 0.278822 0.880827 0.674116
Si Si4 0.228010 0.449309 0.111018
Si Si5 0.495371 0.113481 0.215031
Si Si6 0.190951 0.086174 0.025363
Si Si7 0.850344 0.796767 0.848285
O O1 0.147886 0.391564 0.499884
O O2 0.228231 0.705951 0.596746
O O3 0.046824 0.664595 0.351389
O O4 0.000000 0.598982 0.500000
O O5 0.500000 0.686847 0.500000
O O6 0.047047 0.756274 0.170949
O O7 0.283119 0.794819 0.290455
O O8 0.233477 0.887390 0.758629
O O9 0.426134 0.935789 0.762505
O O10 0.212565 0.048925 0.584360
O O11 0.154984 0.286033 0.020607
O O12 0.151736 0.625741 0.085735
O O13 0.331457 0.509490 0.094982
O O14 0.345502 0.088624 0.126277
O O15 0.141252 0.964578 0.080326
#
# Coordination Sequence:
#
# PCOD9126499 Si02
#       7
#     4   4   4   4   4   4   4
#     4  11  21  40  65  94 128 175 218 266 341 403
#     4   9  18  34  60  88 124 171 210 262 324 394
#     4  10  23  39  58  95 133 166 218 278 331 404
#     4  10  22  40  69  93 128 175 223 284 341 412
#     4  10  25  40  67 103 131 178 222 285 333 410
#     4  12  21  45  71  94 133 178 227 279 353 401
#     4  10  23  43  61 100 136 170 227 281 338 412
#
# _framework density 24.900483000000001
#
# number of rings (size 3 to 8) (size 9 to 14) (size 15 to 20)
#    0.000    2.000    1.429    3.857    4.000    3.429 
#    0.000    5.714    6.286    0.000    0.000    0.000 
#    0.000    0.000    0.000    0.000    0.000    0.000 
#
# Total GULP energy -78326.997262 kJ/mol
# GULP energy per Si atom -5594.785519 kJ/mol
# Density = 2.484381 g / cm^3
# Si number density = 24.900483 Si / 1000 Ang^3
#
#
#
# Elastic Constant Matrix: (Units=GPa)
#
#
# Indices 1 2 3 4 5 6 
#
# 1 124.2873 36.5144 55.5820 0.0000 -4.0873 0.0000
# 2 36.5144 128.6490 8.2312 0.0000 -8.6779 0.0000
# 3 55.5820 8.2312 100.0151 0.0000 1.9054 0.0000
# 4 0.0000 0.0000 0.0000 32.3808 0.0000 -7.9134
# 5 -4.0873 -8.6779 1.9054 0.0000 61.5723 0.0000
# 6 0.0000 0.0000 0.0000 -7.9134 0.0000 36.9722
#
#
#
# Elastic Compliance Matrix: (Units=1/GPa)
#
#
# Indices 1 2 3 4 5 6 
#
# 1 0.011725 -0.002887 -0.006289 0.000000 0.000566 0.000000
# 2 -0.002887 0.008604 0.000878 0.000000 0.000994 0.000000
# 3 -0.006289 0.000878 0.013435 0.000000 -0.000710 0.000000
# 4 0.000000 0.000000 0.000000 0.032587 0.000000 0.006975
# 5 0.000566 0.000994 -0.000710 0.000000 0.016441 0.000000
# 6 0.000000 0.000000 0.000000 0.006975 0.000000 0.028540
#
#
# Mechanical properties :
#
#
# Convention : Reuss Voigt Hill
#
# Bulk Modulus (GPa) = 58.25600 61.51184 59.88392
# Shear Modulus (GPa) = 37.41056 43.02665 40.21861
#
# Velocity S-wave (km/s) = 3.88029 4.16136 4.02328
# Velocity P-wave (km/s) = 6.59711 6.91708 6.75899
#
# Compressibility (1/GPa) = 0.01716561
#
# Stress axis : x y z
#
# Youngs Moduli (GPa) = 85.28465 116.23163 74.43235
#
# Poissons Ratio (x) = 0.33561 0.46813
# Poissons Ratio (y) = 0.24625 -0.06533
# Poissons Ratio (z) = 0.53639 -0.10201
#
# Static dielectric constant tensor:
#      x y z
#    x 2.010750 0.000000 -0.037700 
#    y 0.000000 1.949030 0.000000 
#    z -0.037700 0.000000 1.986210 
# 
# From -- ./inp_files/54207.got.cif
#   From: 2010.05.17/outbox.cif.g08.bks.cpg/sg5_28_cif.got.tgz:54207.got - 2010.06.03 18:56:24.
