data_PCOD9126817
_publ_section_title
;
Structure prediction by ZEFSAII (Michael W. Deem and Ramdas Pophale) SiO2 
 PCOD9126817
Probable space group: C 2
;
_chemical_formula_sum "Si O2"
_cell_formula_units_Z 26
_cell_length_a 10.583300
_cell_length_b 8.581874
_cell_length_c 12.996024
_cell_angle_alpha 90.000000
_cell_angle_beta 99.709492
_cell_angle_gamma 90.000000
_cell_volume 1163.450006
_symmetry_space_group_name_H-M "C 2"
_symmetry_group_IT_number 5
_symmetry_cell_setting 'monoclinic'
loop_
_space_group_symop_operation_xyz
x,y,z
-x,y,-z
1/2+x,1/2+y,z
1/2-x,1/2+y,-z
loop_
_atom_site_type_symbol
_atom_site_label
_atom_site_fract_x
_atom_site_fract_y
_atom_site_fract_z
Si Si1 0.397722 0.881920 0.073720
Si Si2 0.147272 0.490603 0.722537
Si Si3 0.647935 0.303629 0.365379
Si Si4 0.139815 0.826705 0.750508
Si Si5 0.632342 0.512375 0.960848
Si Si6 0.500000 0.937131 0.500000
Si Si7 0.758791 0.461842 0.564098
O O1 0.376295 0.697166 0.060402
O O2 0.438872 0.927804 0.195426
O O3 0.500000 0.929068 0.000000
O O4 0.261262 0.966165 0.038818
O O5 0.252532 0.362454 0.707307
O O6 0.203231 0.656204 0.764270
O O7 0.074721 0.519296 0.603991
O O8 0.508686 0.298939 0.297456
O O9 0.657375 0.427691 0.460164
O O10 0.689988 0.137582 0.417851
O O11 0.145606 0.921049 0.855794
O O12 0.204333 0.915239 0.665486
O O13 0.500000 0.466789 0.000000
O O14 0.382697 0.858996 0.544859
#
# Coordination Sequence:
#
# PCOD9126817 Si02
#       7
#     4   4   4   4   4   2   4
#     4  11  26  47  74 107 142 188 242 297 361 429
#     4  11  24  45  70 100 142 187 231 291 350 419
#     4  11  24  44  65  99 140 186 232 291 342 426
#     4  12  25  43  72  98 141 184 234 293 350 423
#     4  11  26  48  72 108 144 184 240 300 361 426
#     4  10  22  42  66  96 140 178 226 280 340 420
#     4  11  23  43  67  95 139 184 231 284 350 409
#
# _framework density 22.347327
#
# number of rings (size 3 to 8) (size 9 to 14) (size 15 to 20)
#    0.000    0.923    1.538    5.077    2.154    4.923 
#   22.154    0.000    0.000    0.000    0.000    0.000 
#    0.000    0.000    0.000    0.000    0.000    0.000 
#
# Total GULP energy -72633.848508 kJ/mol
# GULP energy per Si atom -5587.219116 kJ/mol
# Density = 2.229646 g / cm^3
# Si number density = 22.347327 Si / 1000 Ang^3
#
#
#
# Elastic Constant Matrix: (Units=GPa)
#
#
# Indices 1 2 3 4 5 6 
#
# 1 71.1859 22.1340 33.1838 0.0000 -19.0453 0.0000
# 2 22.1340 72.8358 34.3792 0.0000 1.0245 0.0000
# 3 33.1838 34.3792 156.0291 0.0000 -28.8848 0.0000
# 4 0.0000 0.0000 0.0000 30.6508 0.0000 -2.8729
# 5 -19.0453 1.0245 -28.8848 0.0000 40.4416 0.0000
# 6 0.0000 0.0000 0.0000 -2.8729 0.0000 18.2375
#
#
#
# Elastic Compliance Matrix: (Units=1/GPa)
#
#
# Indices 1 2 3 4 5 6 
#
# 1 0.018330 -0.005046 -0.001342 0.000000 0.007801 0.000000
# 2 -0.005046 0.017087 -0.003701 0.000000 -0.005453 0.000000
# 3 -0.001342 -0.003701 0.008539 0.000000 0.005561 0.000000
# 4 0.000000 0.000000 0.000000 0.033115 0.000000 0.005216
# 5 0.007801 -0.005453 0.005561 0.000000 0.032511 0.000000
# 6 0.000000 0.000000 0.000000 0.005216 0.000000 0.055654
#
#
# Mechanical properties :
#
#
# Convention : Reuss Voigt Hill
#
# Bulk Modulus (GPa) = 42.05825 53.27163 47.66494
# Shear Modulus (GPa) = 25.86123 31.88957 28.87540
#
# Velocity S-wave (km/s) = 3.40551 3.78166 3.59851
# Velocity P-wave (km/s) = 5.85871 6.55421 6.21620
#
# Compressibility (1/GPa) = 0.02377655
#
# Stress axis : x y z
#
# Youngs Moduli (GPa) = 54.55639 58.52510 117.10374
#
# Poissons Ratio (x) = 0.29534 0.15717
# Poissons Ratio (y) = 0.27531 0.43341
# Poissons Ratio (z) = 0.07322 0.21660
#
# Static dielectric constant tensor:
#      x y z
#    x 1.876710 0.000000 0.019500 
#    y 0.000000 1.802560 0.000000 
#    z 0.019500 0.000000 1.823390 
# 
# From -- ./inp_files/38377.got.cif
#   From: 2010.05.17/outbox.cif.g08.bks.cpg/sg5_20_cif.got.tgz:38377.got - 2010.06.03 18:56:24.
