data_PCOD9126677
_publ_section_title
;
Structure prediction by ZEFSAII (Michael W. Deem and Ramdas Pophale) SiO2 
 PCOD9126677
Probable space group: C 2
;
_chemical_formula_sum "Si O2"
_cell_formula_units_Z 30
_cell_length_a 18.577836
_cell_length_b 5.295030
_cell_length_c 14.144345
_cell_angle_alpha 90.000000
_cell_angle_beta 94.809682
_cell_angle_gamma 90.000000
_cell_volume 1386.482565
_symmetry_space_group_name_H-M "C 2"
_symmetry_group_IT_number 5
_symmetry_cell_setting 'monoclinic'
loop_
_space_group_symop_operation_xyz
x,y,z
-x,y,-z
1/2+x,1/2+y,z
1/2-x,1/2+y,-z
loop_
_atom_site_type_symbol
_atom_site_label
_atom_site_fract_x
_atom_site_fract_y
_atom_site_fract_z
Si Si1 0.740771 0.520390 0.646853
Si Si2 0.000241 0.651290 0.710057
Si Si3 0.355038 0.771571 0.517577
Si Si4 0.000000 0.589791 0.500000
Si Si5 0.087767 0.127784 0.290478
Si Si6 0.204817 0.876679 0.992723
Si Si7 0.798417 0.881444 0.805684
Si Si8 0.340274 0.184687 0.207498
O O1 0.681890 0.679627 0.581957
O O2 0.792631 0.409435 0.571321
O O3 0.792508 0.677934 0.722354
O O4 0.694687 0.332596 0.707581
O O5 0.008846 0.726156 0.600527
O O6 0.960985 0.894657 0.748720
O O7 0.078860 0.607299 0.760920
O O8 0.953683 0.394019 0.712733
O O9 0.426211 0.929795 0.500860
O O10 0.383422 0.573734 0.599543
O O11 0.157207 0.117365 0.230530
O O12 0.162710 0.843540 0.890114
O O13 0.268108 0.664487 0.993741
O O14 0.169020 0.806812 0.089614
O O15 0.714927 0.954239 0.813332
#
# Coordination Sequence:
#
# PCOD9126677 Si02
#       8
#     4   4   4   2   4   4   4   4
#     4  12  24  41  67 102 136 182 230 297 337 411
#     4  11  27  41  67  94 140 179 225 273 339 406
#     4  11  25  40  64  98 135 176 230 269 342 402
#     4  10  24  42  62  94 134 186 220 268 332 406
#     4  11  25  45  63  98 135 183 222 272 341 415
#     4  10  22  41  69 107 132 170 228 290 353 405
#     4  11  22  44  73  94 138 176 234 290 349 408
#     4  11  25  42  69 102 136 176 237 287 346 411
#
# _framework density 21.637488999999999
#
# number of rings (size 3 to 8) (size 9 to 14) (size 15 to 20)
#    0.000    1.067    2.667    3.200    9.333    0.533 
#    0.000    0.667    0.000    3.200    0.000    0.000 
#    0.000    0.000    0.000    0.000    0.000    0.000 
#
# Total GULP energy -83748.473229 kJ/mol
# GULP energy per Si atom -5583.231549 kJ/mol
# Density = 2.158824 g / cm^3
# Si number density = 21.637489 Si / 1000 Ang^3
#
#
#
# Elastic Constant Matrix: (Units=GPa)
#
#
# Indices 1 2 3 4 5 6 
#
# 1 114.2739 26.9980 32.1430 0.0000 13.0684 0.0000
# 2 26.9980 65.5919 11.7755 0.0000 1.3565 0.0000
# 3 32.1430 11.7755 109.4333 0.0000 5.7149 0.0000
# 4 0.0000 0.0000 0.0000 31.8362 0.0000 -2.6447
# 5 13.0684 1.3565 5.7149 0.0000 10.6822 0.0000
# 6 0.0000 0.0000 0.0000 -2.6447 0.0000 25.5723
#
#
#
# Elastic Compliance Matrix: (Units=1/GPa)
#
#
# Indices 1 2 3 4 5 6 
#
# 1 0.011862 -0.004194 -0.002369 0.000000 -0.012712 0.000000
# 2 -0.004194 0.017042 -0.000779 0.000000 0.003384 0.000000
# 3 -0.002369 -0.000779 0.010042 0.000000 -0.002375 0.000000
# 4 0.000000 0.000000 0.000000 0.031683 0.000000 0.003277
# 5 -0.012712 0.003384 -0.002375 0.000000 0.110006 0.000000
# 6 0.000000 0.000000 0.000000 0.003277 0.000000 0.039444
#
#
# Mechanical properties :
#
#
# Convention : Reuss Voigt Hill
#
# Bulk Modulus (GPa) = 41.21673 47.90355 44.56014
# Shear Modulus (GPa) = 20.58893 28.17698 24.38295
#
# Velocity S-wave (km/s) = 3.08805 3.61256 3.36055
# Velocity P-wave (km/s) = 5.63958 6.29190 5.97465
#
# Compressibility (1/GPa) = 0.02426199
#
# Stress axis : x y z
#
# Youngs Moduli (GPa) = 84.30377 58.67880 99.58562
#
# Poissons Ratio (x) = 0.24611 0.23591
# Poissons Ratio (y) = 0.35359 0.07753
# Poissons Ratio (z) = 0.19971 0.04568
#
# Static dielectric constant tensor:
#      x y z
#    x 1.792180 0.000000 -0.019590 
#    y 0.000000 1.883260 0.000000 
#    z -0.019590 0.000000 1.843360 
# 
# From -- ./inp_files/55312.got.cif
#   From: 2010.05.17/outbox.cif.g08.bks.cpg/sg5_28_cif.got.tgz:55312.got - 2010.06.03 18:56:24.
