data_PCOD9126891
_publ_section_title
;
Structure prediction by ZEFSAII (Michael W. Deem and Ramdas Pophale) SiO2 
 PCOD9126891
Probable space group: C 2
;
_chemical_formula_sum "Si O2"
_cell_formula_units_Z 32
_cell_length_a 18.311650
_cell_length_b 14.407523
_cell_length_c 12.157383
_cell_angle_alpha 90.000000
_cell_angle_beta 27.291618
_cell_angle_gamma 90.000000
_cell_volume 1470.668388
_symmetry_space_group_name_H-M "C 2"
_symmetry_group_IT_number 5
_symmetry_cell_setting 'monoclinic'
loop_
_space_group_symop_operation_xyz
x,y,z
-x,y,-z
1/2+x,1/2+y,z
1/2-x,1/2+y,-z
loop_
_atom_site_type_symbol
_atom_site_label
_atom_site_fract_x
_atom_site_fract_y
_atom_site_fract_z
Si Si1 0.287554 0.375000 0.505155
Si Si2 0.140484 0.565087 0.723348
Si Si3 0.736558 0.011826 0.126770
Si Si4 0.659061 0.730827 0.836136
Si Si5 0.370318 0.697669 0.876261
Si Si6 0.284023 0.759894 0.608805
Si Si7 0.850177 0.811445 0.976444
Si Si8 0.900510 0.570989 0.477808
O O1 0.271316 0.483519 0.551573
O O2 0.179913 0.322814 0.738214
O O3 0.226696 0.341801 0.466718
O O4 0.465179 0.336043 0.278725
O O5 0.210973 0.667058 0.651508
O O6 0.084657 0.558148 0.671806
O O7 0.000000 0.549582 0.000000
O O8 0.571730 0.051159 0.299933
O O9 0.719043 0.011516 0.283479
O O10 0.763661 0.906755 0.056675
O O11 0.862618 0.087968 0.915151
O O12 0.818127 0.670664 0.605895
O O13 0.500000 0.682128 0.000000
O O14 0.639104 0.745202 0.991572
O O15 0.534622 0.732855 0.604398
O O16 0.221626 0.730131 0.002292
O O17 0.189936 0.785770 0.844372
#
# Coordination Sequence:
#
# PCOD9126891 Si02
#       8
#     4   4   4   4   4   4   4   4
#     4  12  25  44  70 102 142 185 241 287 353 429
#     4  12  26  42  73 105 144 186 240 297 362 413
#     4  10  24  43  71 101 140 190 240 290 355 422
#     4  11  21  43  70 100 135 185 233 292 346 421
#     4  11  25  44  73 100 141 185 240 291 354 417
#     4  12  26  47  72 103 146 191 235 297 358 422
#     4  12  27  45  71 103 147 187 238 292 360 423
#     4  10  22  42  69 100 140 182 240 287 348 428
#
# _framework density 21.758814000000001
#
# number of rings (size 3 to 8) (size 9 to 14) (size 15 to 20)
#    0.000    0.750    2.500    4.125    7.000    2.500 
#    0.000    0.000    0.000    0.000    0.000    0.000 
#    0.000    0.000    0.000    0.000    0.000    0.000 
#
# Total GULP energy -89416.926189 kJ/mol
# GULP energy per Si atom -5588.557887 kJ/mol
# Density = 2.170929 g / cm^3
# Si number density = 21.758814 Si / 1000 Ang^3
#
#
#
# Elastic Constant Matrix: (Units=GPa)
#
#
# Indices 1 2 3 4 5 6 
#
# 1 74.7147 24.7330 15.0049 -0.0001 9.1197 0.0000
# 2 24.7330 100.4836 32.8330 -0.0001 4.0888 0.0000
# 3 15.0049 32.8330 98.1800 -0.0002 -3.8015 0.0001
# 4 -0.0001 -0.0001 -0.0002 -7.1819 0.0000 24.4514
# 5 9.1197 4.0888 -3.8015 0.0000 39.4830 0.0000
# 6 0.0000 0.0000 0.0001 24.4514 0.0000 10.2728
#
#
#
# Elastic Compliance Matrix: (Units=1/GPa)
#
#
# Indices 1 2 3 4 5 6 
#
# 1 0.015102 -0.003129 -0.001389 0.000000 -0.003298 0.000000
# 2 -0.003129 0.011913 -0.003539 0.000000 -0.000852 0.000000
# 3 -0.001389 -0.003539 0.011651 0.000000 0.001809 0.000000
# 4 0.000000 0.000000 0.000000 -0.015295 0.000000 0.036405
# 5 -0.003298 -0.000852 0.001809 0.000000 0.026351 0.000000
# 6 0.000000 0.000000 0.000000 0.036405 0.000000 0.010693
#
#
# Mechanical properties :
#
#
# Convention : Reuss Voigt Hill
#
# Bulk Modulus (GPa) = 44.34230 46.50224 45.42227
# Shear Modulus (GPa) = 59.49109 21.90195 40.69652
#
# Velocity S-wave (km/s) = 5.23455 3.17610 4.32944
# Velocity P-wave (km/s) = 7.54700 5.90494 6.77590
#
# Compressibility (1/GPa) = 0.02255183
#
# Stress axis : x y z
#
# Youngs Moduli (GPa) = 66.21828 83.94225 85.82849
#
# Poissons Ratio (x) = 0.26265 0.11924
# Poissons Ratio (y) = 0.20719 0.30372
# Poissons Ratio (z) = 0.09200 0.29704
#
# Static dielectric constant tensor:
#      x y z
#    x 1.775280 0.000000 -0.019100 
#    y 0.000000 1.811600 0.000000 
#    z -0.019100 0.000000 1.823010 
# 
# From -- ./inp_files/44963.got.cif
#   From: 2010.05.17/outbox.cif.g08.bks.cpg/sg5_23_cif.got.tgz:44963.got - 2010.06.03 18:56:24.
