data_PCOD9126889
_publ_section_title
;
Structure prediction by ZEFSAII (Michael W. Deem and Ramdas Pophale) SiO2 
 PCOD9126889
Probable space group: C 2
;
_chemical_formula_sum "Si O2"
_cell_formula_units_Z 28
_cell_length_a 17.232145
_cell_length_b 5.004737
_cell_length_c 14.127293
_cell_angle_alpha 90.000000
_cell_angle_beta 57.062833
_cell_angle_gamma 90.000000
_cell_volume 1022.538985
_symmetry_space_group_name_H-M "C 2"
_symmetry_group_IT_number 5
_symmetry_cell_setting 'monoclinic'
loop_
_space_group_symop_operation_xyz
x,y,z
-x,y,-z
1/2+x,1/2+y,z
1/2-x,1/2+y,-z
loop_
_atom_site_type_symbol
_atom_site_label
_atom_site_fract_x
_atom_site_fract_y
_atom_site_fract_z
Si Si1 0.500000 0.580950 0.500000
Si Si2 0.681170 0.895275 0.303680
Si Si3 0.699752 0.929745 0.494813
Si Si4 0.299139 0.141669 0.918980
Si Si5 0.534073 0.849069 0.140000
Si Si6 0.500000 0.512674 0.000000
Si Si7 0.048625 0.050741 0.659992
Si Si8 0.370877 0.193460 0.224906
O O1 0.584141 0.751776 0.396503
O O2 0.531989 0.411748 0.570229
O O3 0.700365 0.053426 0.389534
O O4 0.694026 0.059156 0.197557
O O5 0.766984 0.687155 0.255370
O O6 0.747901 0.143131 0.530288
O O7 0.600150 0.822692 0.592428
O O8 0.405030 0.105988 0.883173
O O9 0.244172 0.917064 0.016812
O O10 0.541131 0.653596 0.224711
O O11 0.425455 0.917411 0.201758
O O12 0.560120 0.699157 0.028344
O O13 0.569510 0.335531 0.895492
O O14 0.104507 0.874579 0.698431
#
# Coordination Sequence:
#
# PCOD9126889 Si02
#       8
#     2   4   4   4   4   2   4   4
#     4  10  22  46  72 102 152 200 252 312 394 458
#     4  11  24  47  76 112 154 208 256 322 392 461
#     4  11  23  43  71 109 145 189 251 313 371 448
#     4  12  30  50  78 113 162 205 258 316 395 466
#     4  11  24  44  71 107 146 195 251 320 373 452
#     4  10  24  40  72 108 144 190 256 320 368 452
#     4  10  22  42  68  99 143 189 244 309 370 449
#     4  11  23  43  74 104 145 193 260 309 383 447
#
# _framework density 27.382819000000001
#
# number of rings (size 3 to 8) (size 9 to 14) (size 15 to 20)
#    0.000    1.143    2.857    2.143    8.000    1.143 
#    0.000    2.143    0.000    0.000    0.000    0.000 
#    0.000    0.000    0.000    0.000    0.000    0.000 
#
# Total GULP energy -78282.878533 kJ/mol
# GULP energy per Si atom -5591.634181 kJ/mol
# Density = 2.732049 g / cm^3
# Si number density = 27.382819 Si / 1000 Ang^3
#
#
#
# Elastic Constant Matrix: (Units=GPa)
#
#
# Indices 1 2 3 4 5 6 
#
# 1 104.1724 11.7700 58.4892 -0.0021 -1.9039 0.0010
# 2 11.7700 94.9672 30.1948 -0.0118 2.7666 -0.0036
# 3 58.4892 30.1948 172.7563 -0.0077 37.0459 -0.0067
# 4 -0.0021 -0.0118 -0.0077 45.6401 -0.0060 -9.4546
# 5 -1.9039 2.7666 37.0459 -0.0060 66.2890 -0.0010
# 6 0.0010 -0.0036 -0.0067 -9.4546 -0.0010 24.8814
#
#
#
# Elastic Compliance Matrix: (Units=1/GPa)
#
#
# Indices 1 2 3 4 5 6 
#
# 1 0.012378 -0.000087 -0.004832 0.000000 0.003059 -0.000002
# 2 -0.000087 0.011180 -0.002072 0.000003 0.000689 0.000002
# 3 -0.004832 -0.002072 0.008859 0.000001 -0.005003 0.000002
# 4 0.000000 0.000003 0.000001 0.023783 0.000002 0.009037
# 5 0.003059 0.000689 -0.005003 0.000002 0.017941 0.000000
# 6 -0.000002 0.000002 0.000002 0.009037 0.000000 0.043625
#
#
# Mechanical properties :
#
#
# Convention : Reuss Voigt Hill
#
# Bulk Modulus (GPa) = 54.24403 63.64487 58.94445
# Shear Modulus (GPa) = 36.26035 45.45825 40.85930
#
# Velocity S-wave (km/s) = 3.64290 4.07885 3.86703
# Velocity P-wave (km/s) = 6.12755 6.74358 6.44293
#
# Compressibility (1/GPa) = 0.01843521
#
# Stress axis : x y z
#
# Youngs Moduli (GPa) = 80.78868 89.44910 112.87409
#
# Poissons Ratio (x) = 0.00778 0.54536
# Poissons Ratio (y) = 0.00703 0.23391
# Poissons Ratio (z) = 0.39034 0.18536
#
# Static dielectric constant tensor:
#      x y z
#    x 2.322540 0.000000 -0.034090 
#    y 0.000000 2.038040 0.000000 
#    z -0.034090 0.000000 2.260840 
# 
# From -- ./inp_files/55263.got.cif
#   From: 2010.05.17/outbox.cif.g08.bks.cpg/sg5_28_cif.got.tgz:55263.got - 2010.06.03 18:56:24.
