data_PCOD9126421
_publ_section_title
;
Structure prediction by ZEFSAII (Michael W. Deem and Ramdas Pophale) SiO2 
 PCOD9126421
Probable space group: C 2
;
_chemical_formula_sum "Si O2"
_cell_formula_units_Z 26
_cell_length_a 14.964615
_cell_length_b 14.524824
_cell_length_c 8.444287
_cell_angle_alpha 90.000000
_cell_angle_beta 139.518053
_cell_angle_gamma 90.000000
_cell_volume 1191.580970
_symmetry_space_group_name_H-M "C 2"
_symmetry_group_IT_number 5
_symmetry_cell_setting 'monoclinic'
loop_
_space_group_symop_operation_xyz
x,y,z
-x,y,-z
1/2+x,1/2+y,z
1/2-x,1/2+y,-z
loop_
_atom_site_type_symbol
_atom_site_label
_atom_site_fract_x
_atom_site_fract_y
_atom_site_fract_z
Si Si1 0.192855 0.879010 0.835770
Si Si2 0.888138 0.599452 0.638817
Si Si3 0.124930 0.106651 0.063984
Si Si4 0.311899 0.066944 0.890481
Si Si5 0.591501 0.314251 0.381404
Si Si6 0.500000 0.433962 0.000000
Si Si7 0.355604 0.730952 0.218429
O O1 0.197824 0.831997 0.666957
O O2 0.051508 0.846407 0.728892
O O3 0.214626 0.986726 0.828194
O O4 0.306218 0.831393 0.099232
O O5 0.768392 0.592018 0.348018
O O6 0.836621 0.557453 0.735702
O O7 0.911825 0.709288 0.676739
O O8 0.041530 0.560095 0.821879
O O9 0.068697 0.003117 0.966847
O O10 0.137187 0.167982 0.928159
O O11 0.000000 0.148886 0.000000
O O12 0.251491 0.169816 0.825498
O O13 0.606328 0.373721 0.242440
O O14 0.500000 0.733723 0.500000
#
# Coordination Sequence:
#
# PCOD9126421 Si02
#       7
#     4   4   4   4   4   2   4
#     4  11  25  45  66 105 135 185 232 291 353 413
#     4  11  22  46  70 101 141 184 234 287 349 418
#     4  10  23  43  67 100 134 179 231 285 352 417
#     4  11  25  43  72 102 138 186 233 291 351 417
#     4  11  22  43  73  97 141 178 235 286 347 426
#     4  10  22  40  66 104 124 180 222 278 346 424
#     4  12  25  46  66  96 139 184 231 292 354 416
#
# _framework density 21.819749000000002
#
# number of rings (size 3 to 8) (size 9 to 14) (size 15 to 20)
#    0.462    0.615    3.077    3.692    4.308    0.615 
#    8.308    0.000    0.000    0.000    0.000    0.000 
#    0.000    0.000    0.000    0.000    0.000    0.000 
#
# Total GULP energy -72535.382197 kJ/mol
# GULP energy per Si atom -5579.644784 kJ/mol
# Density = 2.177009 g / cm^3
# Si number density = 21.819749 Si / 1000 Ang^3
#
#
#
# Elastic Constant Matrix: (Units=GPa)
#
#
# Indices 1 2 3 4 5 6 
#
# 1 39.7532 -0.6958 0.0154 0.0000 -1.2375 0.0000
# 2 -0.6958 93.3254 -2.4210 0.0000 -2.9347 0.0000
# 3 0.0154 -2.4210 133.9759 0.0000 3.8345 0.0000
# 4 0.0000 0.0000 0.0000 22.1882 0.0000 -8.2392
# 5 -1.2375 -2.9347 3.8345 0.0000 21.0561 0.0000
# 6 0.0000 0.0000 0.0000 -8.2392 0.0000 28.1819
#
#
#
# Elastic Compliance Matrix: (Units=1/GPa)
#
#
# Indices 1 2 3 4 5 6 
#
# 1 0.025207 0.000235 -0.000042 0.000000 0.001522 0.000000
# 2 0.000235 0.010768 0.000152 0.000000 0.001487 0.000000
# 3 -0.000042 0.000152 0.007505 0.000000 -0.001348 0.000000
# 4 0.000000 0.000000 0.000000 0.050557 0.000000 0.014781
# 5 0.001522 0.001487 -0.001348 0.000000 0.048034 0.000000
# 6 0.000000 0.000000 0.000000 0.014781 0.000000 0.039805
#
#
# Mechanical properties :
#
#
# Convention : Reuss Voigt Hill
#
# Bulk Modulus (GPa) = 22.64047 28.98352 25.81200
# Shear Modulus (GPa) = 25.52184 32.29564 28.90874
#
# Velocity S-wave (km/s) = 3.42375 3.85139 3.64385
# Velocity P-wave (km/s) = 5.10177 5.75236 5.43681
#
# Compressibility (1/GPa) = 0.04416869
#
# Stress axis : x y z
#
# Youngs Moduli (GPa) = 39.67195 92.87084 133.23803
#
# Poissons Ratio (x) = -0.02180 0.00562
# Poissons Ratio (y) = -0.00931 -0.02025
# Poissons Ratio (z) = 0.00167 -0.01412
#
# Static dielectric constant tensor:
#      x y z
#    x 1.927130 0.000000 0.000090 
#    y 0.000000 1.781120 0.000000 
#    z 0.000090 0.000000 1.806140 
# 
# From -- ./inp_files/24834.got.cif
#   From: 2010.05.17/outbox.cif.g08.bks.cpg/sg5_13_cif.got.tgz:24834.got - 2010.06.03 18:56:24.
