data_PCOD9126529
_publ_section_title
;
Structure prediction by ZEFSAII (Michael W. Deem and Ramdas Pophale) SiO2 
 PCOD9126529
Probable space group: C 2
;
_chemical_formula_sum "Si O2"
_cell_formula_units_Z 30
_cell_length_a 18.705223
_cell_length_b 5.207511
_cell_length_c 12.405358
_cell_angle_alpha 90.000000
_cell_angle_beta 90.788462
_cell_angle_gamma 90.000000
_cell_volume 1208.262412
_symmetry_space_group_name_H-M "C 2"
_symmetry_group_IT_number 5
_symmetry_cell_setting 'monoclinic'
loop_
_space_group_symop_operation_xyz
x,y,z
-x,y,-z
1/2+x,1/2+y,z
1/2-x,1/2+y,-z
loop_
_atom_site_type_symbol
_atom_site_label
_atom_site_fract_x
_atom_site_fract_y
_atom_site_fract_z
Si Si1 0.446255 0.087090 0.346889
Si Si2 0.094097 0.849113 0.861563
Si Si3 0.500000 0.066445 0.000000
Si Si4 0.473407 0.707932 0.795790
Si Si5 0.904778 0.735482 0.574200
Si Si6 0.780384 0.079828 0.552328
Si Si7 0.175933 0.369301 0.259540
Si Si8 0.763573 0.105018 0.068117
O O1 0.396657 0.188268 0.248438
O O2 0.408515 0.082463 0.461299
O O3 0.516025 0.263862 0.375845
O O4 0.483512 0.828633 0.304245
O O5 0.075609 0.698362 0.970015
O O6 0.156049 0.051445 0.886479
O O7 0.015921 0.966505 0.838370
O O8 0.483081 0.906558 0.893398
O O9 0.389551 0.686628 0.776485
O O10 0.863495 0.997659 0.547836
O O11 0.859840 0.574220 0.659978
O O12 0.740894 0.812679 0.526363
O O13 0.769539 0.197093 0.670550
O O14 0.211922 0.517767 0.163197
O O15 0.748983 0.893548 0.973495
#
# Coordination Sequence:
#
# PCOD9126529 Si02
#       8
#     4   4   2   4   4   4   4   4
#     4   9  22  42  72 109 144 184 246 307 375 429
#     4  11  24  42  73 106 144 194 251 315 368 452
#     4  10  22  40  72 106 138 190 254 314 376 438
#     4  10  22  43  75 105 143 192 252 314 371 444
#     4  10  22  46  72 108 148 193 241 310 366 451
#     4  12  26  45  73 107 144 198 248 296 360 456
#     4  11  26  48  77 107 153 199 254 306 381 454
#     4  12  32  51  75 110 157 200 247 318 387 450
#
# _framework density 24.829044
#
# number of rings (size 3 to 8) (size 9 to 14) (size 15 to 20)
#    0.000    1.333    1.333    2.000   11.200    1.067 
#    2.400    2.667    0.000    0.000    0.000    0.000 
#    0.000    0.000    0.000    0.000    0.000    0.000 
#
# Total GULP energy -83911.221470 kJ/mol
# GULP energy per Si atom -5594.081431 kJ/mol
# Density = 2.477253 g / cm^3
# Si number density = 24.829044 Si / 1000 Ang^3
#
#
#
# Elastic Constant Matrix: (Units=GPa)
#
#
# Indices 1 2 3 4 5 6 
#
# 1 76.4151 6.6140 23.5179 0.0000 0.0872 0.0000
# 2 6.6140 74.1009 7.3286 0.0000 0.6785 0.0000
# 3 23.5179 7.3286 107.6992 0.0000 -25.2895 0.0000
# 4 0.0000 0.0000 0.0000 77.5627 0.0000 -1.3765
# 5 0.0872 0.6785 -25.2895 0.0000 43.4263 0.0000
# 6 0.0000 0.0000 0.0000 -1.3765 0.0000 31.9989
#
#
#
# Elastic Compliance Matrix: (Units=1/GPa)
#
#
# Indices 1 2 3 4 5 6 
#
# 1 0.014256 -0.000903 -0.003539 0.000000 -0.002075 0.000000
# 2 -0.000903 0.013672 -0.000907 0.000000 -0.000740 0.000000
# 3 -0.003539 -0.000907 0.011728 0.000000 0.006851 0.000000
# 4 0.000000 0.000000 0.000000 0.012903 0.000000 0.000555
# 5 -0.002075 -0.000740 0.006851 0.000000 0.027033 0.000000
# 6 0.000000 0.000000 0.000000 0.000555 0.000000 0.031275
#
#
# Mechanical properties :
#
#
# Convention : Reuss Voigt Hill
#
# Bulk Modulus (GPa) = 34.53228 37.01511 35.77370
# Shear Modulus (GPa) = 38.10434 45.31457 41.70945
#
# Velocity S-wave (km/s) = 3.92173 4.27671 4.10306
# Velocity P-wave (km/s) = 5.86898 6.27115 6.07339
#
# Compressibility (1/GPa) = 0.02895841
#
# Stress axis : x y z
#
# Youngs Moduli (GPa) = 70.14524 73.14102 85.26298
#
# Poissons Ratio (x) = 0.06608 0.30174
# Poissons Ratio (y) = 0.06337 0.07732
# Poissons Ratio (z) = 0.24824 0.06632
#
# Static dielectric constant tensor:
#      x y z
#    x 1.962490 0.000000 0.020180 
#    y 0.000000 2.012480 0.000000 
#    z 0.020180 0.000000 2.002140 
# 
# From -- ./inp_files/45676.got.cif
#   From: 2010.05.17/outbox.cif.g08.bks.cpg/sg5_23_cif.got.tgz:45676.got - 2010.06.03 18:56:24.
