data_PCOD9126776
_publ_section_title
;
Structure prediction by ZEFSAII (Michael W. Deem and Ramdas Pophale) SiO2 
 PCOD9126776
Probable space group: C 2
;
_chemical_formula_sum "Si O2"
_cell_formula_units_Z 28
_cell_length_a 17.885357
_cell_length_b 7.027590
_cell_length_c 12.817015
_cell_angle_alpha 90.000000
_cell_angle_beta 55.030983
_cell_angle_gamma 90.000000
_cell_volume 1320.139387
_symmetry_space_group_name_H-M "C 2"
_symmetry_group_IT_number 5
_symmetry_cell_setting 'monoclinic'
loop_
_space_group_symop_operation_xyz
x,y,z
-x,y,-z
1/2+x,1/2+y,z
1/2-x,1/2+y,-z
loop_
_atom_site_type_symbol
_atom_site_label
_atom_site_fract_x
_atom_site_fract_y
_atom_site_fract_z
Si Si1 0.779979 0.973910 0.239875
Si Si2 0.799882 0.167357 0.846739
Si Si3 0.509261 0.758928 0.696844
Si Si4 0.709329 0.806640 0.918225
Si Si5 0.470510 0.039535 0.904754
Si Si6 0.410952 0.078070 0.504813
Si Si7 0.923303 0.847576 0.299582
O O1 0.762742 0.801499 0.173783
O O2 0.681618 0.047545 0.357945
O O3 0.843020 0.894100 0.281733
O O4 0.820032 0.155372 0.145412
O O5 0.792542 0.945424 0.821852
O O6 0.774062 0.191085 0.989112
O O7 0.902398 0.246308 0.755315
O O8 0.520315 0.877255 0.795810
O O9 0.561269 0.875615 0.567276
O O10 0.543394 0.548045 0.685007
O O11 0.631414 0.960385 0.006717
O O12 0.495574 0.233439 0.824767
O O13 0.500000 0.057521 0.000000
O O14 0.500000 0.141487 0.500000
O O15 0.394573 0.219152 0.420743
#
# Coordination Sequence:
#
# PCOD9126776 Si02
#       7
#     4   4   4   4   4   4   4
#     4  12  26  46  70 107 143 191 238 302 362 416
#     4  11  23  40  69 103 141 183 234 287 358 436
#     4  10  24  43  68  98 139 189 240 292 355 424
#     4  11  24  39  71 104 144 182 235 292 354 431
#     4  10  22  42  65 100 144 178 229 295 358 432
#     4  11  26  49  70  99 143 187 249 300 349 431
#     4  11  27  44  73 101 139 192 242 294 364 422
#
# _framework density 21.209879999999998
#
# number of rings (size 3 to 8) (size 9 to 14) (size 15 to 20)
#    0.000    1.143    2.857    1.714    6.000    5.714 
#    0.000    0.000    0.000    0.000    0.000    0.000 
#    0.000    0.000    0.000    0.000    0.000    0.000 
#
# Total GULP energy -78245.135494 kJ/mol
# GULP energy per Si atom -5588.938250 kJ/mol
# Density = 2.116161 g / cm^3
# Si number density = 21.209880 Si / 1000 Ang^3
#
#
#
# Elastic Constant Matrix: (Units=GPa)
#
#
# Indices 1 2 3 4 5 6 
#
# 1 100.5948 40.5051 22.8579 0.0000 19.2387 0.0000
# 2 40.5051 125.4557 22.0419 0.0000 12.1057 0.0000
# 3 22.8579 22.0419 65.5538 0.0000 4.4627 0.0000
# 4 0.0000 0.0000 0.0000 10.0165 0.0000 9.5568
# 5 19.2387 12.1057 4.4627 0.0000 27.6049 0.0000
# 6 0.0000 0.0000 0.0000 9.5568 0.0000 34.5711
#
#
#
# Elastic Compliance Matrix: (Units=1/GPa)
#
#
# Indices 1 2 3 4 5 6 
#
# 1 0.013287 -0.003027 -0.003110 0.000000 -0.007430 0.000000
# 2 -0.003027 0.009467 -0.002011 0.000000 -0.001717 0.000000
# 3 -0.003110 -0.002011 0.016995 0.000000 0.000302 0.000000
# 4 0.000000 0.000000 0.000000 0.135600 0.000000 -0.037485
# 5 -0.007430 -0.001717 0.000302 0.000000 0.042108 0.000000
# 6 0.000000 0.000000 0.000000 -0.037485 0.000000 0.039288
#
#
# Mechanical properties :
#
#
# Convention : Reuss Voigt Hill
#
# Bulk Modulus (GPa) = 42.63577 51.37933 47.00755
# Shear Modulus (GPa) = 17.80262 28.18514 22.99388
#
# Velocity S-wave (km/s) = 2.90031 3.64932 3.29616
# Velocity P-wave (km/s) = 5.60011 6.48333 6.05783
#
# Compressibility (1/GPa) = 0.02345448
#
# Stress axis : x y z
#
# Youngs Moduli (GPa) = 75.26047 105.62839 58.84235
#
# Poissons Ratio (x) = 0.31970 0.18298
# Poissons Ratio (y) = 0.22779 0.11833
# Poissons Ratio (z) = 0.23403 0.21242
#
# Static dielectric constant tensor:
#      x y z
#    x 1.776450 0.000000 -0.019880 
#    y 0.000000 1.756550 0.000000 
#    z -0.019880 0.000000 1.779440 
# 
# From -- ./inp_files/55409.got.cif
#   From: 2010.05.17/outbox.cif.g08.bks.cpg/sg5_28_cif.got.tgz:55409.got - 2010.06.03 18:56:24.
