data_PCOD9126670
_publ_section_title
;
Structure prediction by ZEFSAII (Michael W. Deem and Ramdas Pophale) SiO2 
 PCOD9126670
Probable space group: C 2
;
_chemical_formula_sum "Si O2"
_cell_formula_units_Z 28
_cell_length_a 11.564745
_cell_length_b 21.464587
_cell_length_c 5.027385
_cell_angle_alpha 90.000000
_cell_angle_beta 74.887793
_cell_angle_gamma 90.000000
_cell_volume 1204.802149
_symmetry_space_group_name_H-M "C 2"
_symmetry_group_IT_number 5
_symmetry_cell_setting 'monoclinic'
loop_
_space_group_symop_operation_xyz
x,y,z
-x,y,-z
1/2+x,1/2+y,z
1/2-x,1/2+y,-z
loop_
_atom_site_type_symbol
_atom_site_label
_atom_site_fract_x
_atom_site_fract_y
_atom_site_fract_z
Si Si1 0.615313 0.590160 0.124557
Si Si2 0.384360 0.864023 0.876703
Si Si3 0.251588 0.394451 0.524641
Si Si4 0.362276 0.263539 0.475822
Si Si5 0.417146 0.131294 0.293094
Si Si6 0.712400 0.536028 0.568325
Si Si7 0.639924 0.729804 0.008428
O O1 0.617652 0.566471 0.421930
O O2 0.500000 0.587447 0.000000
O O3 0.704673 0.550754 0.885368
O O4 0.657550 0.661449 0.110082
O O5 0.282475 0.884540 0.146890
O O6 0.368210 0.791320 0.809390
O O7 0.500000 0.870392 0.000000
O O8 0.362638 0.896459 0.608471
O O9 0.329895 0.333681 0.399436
O O10 0.303426 0.462850 0.461832
O O11 0.500000 0.268721 0.500000
O O12 0.366423 0.202181 0.285425
O O13 0.249739 0.244846 0.739413
O O14 0.500000 0.137014 0.500000
O O15 0.327993 0.074366 0.400135
O O16 0.500000 0.115380 0.000000
O O17 0.500000 0.726774 0.000000
#
# Coordination Sequence:
#
# PCOD9126670 Si02
#       7
#     4   4   4   4   4   4   4
#     4  11  24  42  69  99 135 181 234 302 363 428
#     4  10  22  41  68  99 134 179 232 298 359 428
#     4  11  25  42  65 100 142 188 237 297 367 445
#     4  10  23  43  70 104 146 194 244 301 368 442
#     4  11  25  43  69 102 138 190 246 299 362 434
#     4  12  25  44  67  99 143 186 241 299 368 437
#     4   9  20  41  70 105 140 182 244 303 365 427
#
# _framework density 23.240328999999999
#
# number of rings (size 3 to 8) (size 9 to 14) (size 15 to 20)
#    0.000    1.429    1.429    2.571    4.000    5.143 
#    0.000    5.000    0.000    0.000    0.000    0.000 
#    0.000    0.000    0.000    0.000    0.000    0.000 
#
# Total GULP energy -77989.408908 kJ/mol
# GULP energy per Si atom -5570.672065 kJ/mol
# Density = 2.318743 g / cm^3
# Si number density = 23.240329 Si / 1000 Ang^3
#
#
#
# Elastic Constant Matrix: (Units=GPa)
#
#
# Indices 1 2 3 4 5 6 
#
# 1 116.5240 45.0300 15.7888 0.0000 -0.8403 0.0000
# 2 45.0300 74.6347 -8.9833 0.0000 19.3124 0.0000
# 3 15.7888 -8.9833 55.6870 0.0000 14.5979 0.0000
# 4 0.0000 0.0000 0.0000 -32.5343 0.0000 26.2061
# 5 -0.8403 19.3124 14.5979 0.0000 37.9500 0.0000
# 6 0.0000 0.0000 0.0000 26.2061 0.0000 -7.1620
#
#
#
# Elastic Compliance Matrix: (Units=1/GPa)
#
#
# Indices 1 2 3 4 5 6 
#
# 1 0.014706 -0.012556 -0.008847 0.000000 0.010118 0.000000
# 2 -0.012556 0.027547 0.013069 0.000000 -0.019324 0.000000
# 3 -0.008847 0.013069 0.027102 0.000000 -0.017272 0.000000
# 4 0.000000 0.000000 0.000000 0.015784 0.000000 0.057755
# 5 0.010118 -0.019324 -0.017272 0.000000 0.043052 0.000000
# 6 0.000000 0.000000 0.000000 0.057755 0.000000 0.071701
#
#
# Mechanical properties :
#
#
# Convention : Reuss Voigt Hill
#
# Bulk Modulus (GPa) = 18.97983 38.94630 28.96307
# Shear Modulus (GPa) = 21.35636 12.65140 17.00388
#
# Velocity S-wave (km/s) = 3.03468 2.33571 2.70784
# Velocity P-wave (km/s) = 4.52367 4.90597 4.71869
#
# Compressibility (1/GPa) = 0.05268751
#
# Stress axis : x y z
#
# Youngs Moduli (GPa) = 68.00053 36.30129 36.89764
#
# Poissons Ratio (x) = 0.45579 0.32645
# Poissons Ratio (y) = 0.85379 -0.48223
# Poissons Ratio (z) = 0.60163 -0.47443
#
# Static dielectric constant tensor:
#      x y z
#    x 2.151640 0.000000 -0.015290 
#    y 0.000000 1.856620 0.000000 
#    z -0.015290 0.000000 1.873440 
# 
# From -- ./inp_files/5605.got.cif
#   From: 2010.05.17/outbox.cif.g08.bks.cpg/sg5_3_cif.got.tgz:5605.got - 2010.06.03 18:56:24.
