data_PCOD9126510
_publ_section_title
;
Structure prediction by ZEFSAII (Michael W. Deem and Ramdas Pophale) SiO2 
 PCOD9126510
Probable space group: C 2
;
_chemical_formula_sum "Si O2"
_cell_formula_units_Z 26
_cell_length_a 21.907879
_cell_length_b 8.681242
_cell_length_c 10.676647
_cell_angle_alpha 90.000000
_cell_angle_beta 146.393960
_cell_angle_gamma 90.000000
_cell_volume 1123.876275
_symmetry_space_group_name_H-M "C 2"
_symmetry_group_IT_number 5
_symmetry_cell_setting 'monoclinic'
loop_
_space_group_symop_operation_xyz
x,y,z
-x,y,-z
1/2+x,1/2+y,z
1/2-x,1/2+y,-z
loop_
_atom_site_type_symbol
_atom_site_label
_atom_site_fract_x
_atom_site_fract_y
_atom_site_fract_z
Si Si1 0.251213 0.872680 0.324566
Si Si2 0.500000 0.769469 0.500000
Si Si3 0.661799 0.931513 0.184253
Si Si4 0.188698 0.031102 0.792056
Si Si5 0.367765 0.256725 0.128859
Si Si6 0.518342 0.001616 0.317430
Si Si7 0.714853 0.629237 0.425279
O O1 0.350622 0.985048 0.456126
O O2 0.315065 0.733856 0.504933
O O3 0.174681 0.970112 0.291206
O O4 0.182423 0.815394 0.089220
O O5 0.596601 0.660346 0.616713
O O6 0.469214 0.880811 0.333837
O O7 0.692278 0.760651 0.283349
O O8 0.752286 0.972177 0.232438
O O9 0.675670 0.053140 0.322468
O O10 0.544325 0.955649 0.917601
O O11 0.136442 0.894413 0.782020
O O12 0.284893 0.121470 0.031139
O O13 0.481911 0.172369 0.295404
#
# Coordination Sequence:
#
# PCOD9126510 Si02
#       7
#     4   2   4   4   4   4   4
#     4  11  23  45  69  99 138 181 237 287 350 422
#     4  12  24  40  68 104 142 180 236 288 352 442
#     4  10  22  42  66  96 132 185 230 282 355 398
#     4  11  23  42  65 100 144 179 235 291 355 417
#     4  11  24  43  69 100 140 190 228 292 362 411
#     4  11  24  43  70 100 137 185 234 286 360 418
#     4  10  22  40  70  92 134 182 231 286 345 411
#
# _framework density 23.134219000000002
#
# number of rings (size 3 to 8) (size 9 to 14) (size 15 to 20)
#    0.000    1.231    4.615    1.846    4.308    4.308 
#    0.000    0.000    6.769    0.000    0.000    0.000 
#    0.000    0.000    0.000    0.000    0.000    0.000 
#
# Total GULP energy -72455.014015 kJ/mol
# GULP energy per Si atom -5573.462617 kJ/mol
# Density = 2.308156 g / cm^3
# Si number density = 23.134219 Si / 1000 Ang^3
#
#
#
# Elastic Constant Matrix: (Units=GPa)
#
#
# Indices 1 2 3 4 5 6 
#
# 1 59.5950 25.4789 18.4103 0.0000 -9.6822 0.0000
# 2 25.4789 108.1343 31.7894 0.0000 -11.6420 0.0000
# 3 18.4103 31.7894 44.9321 0.0000 -7.3135 0.0000
# 4 0.0000 0.0000 0.0000 48.5124 0.0000 -7.1853
# 5 -9.6822 -11.6420 -7.3135 0.0000 32.9100 0.0000
# 6 0.0000 0.0000 0.0000 -7.1853 0.0000 49.8127
#
#
#
# Elastic Compliance Matrix: (Units=1/GPa)
#
#
# Indices 1 2 3 4 5 6 
#
# 1 0.020332 -0.002674 -0.005830 0.000000 0.003740 0.000000
# 2 -0.002674 0.012211 -0.007230 0.000000 0.001926 0.000000
# 3 -0.005830 -0.007230 0.030155 0.000000 0.002428 0.000000
# 4 0.000000 0.000000 0.000000 0.021063 0.000000 0.003038
# 5 0.003740 0.001926 0.002428 0.000000 0.032707 0.000000
# 6 0.000000 0.000000 0.000000 0.003038 0.000000 0.020513
#
#
# Mechanical properties :
#
#
# Convention : Reuss Voigt Hill
#
# Bulk Modulus (GPa) = 32.02090 40.44651 36.23370
# Shear Modulus (GPa) = 27.95497 35.37921 31.66709
#
# Velocity S-wave (km/s) = 3.47995 3.91487 3.70380
# Velocity P-wave (km/s) = 5.47888 6.16087 5.82986
#
# Compressibility (1/GPa) = 0.03122960
#
# Stress axis : x y z
#
# Youngs Moduli (GPa) = 49.18392 81.89588 33.16213
#
# Poissons Ratio (x) = 0.21900 0.19333
# Poissons Ratio (y) = 0.13152 0.23976
# Poissons Ratio (z) = 0.28674 0.59209
#
# Static dielectric constant tensor:
#      x y z
#    x 1.958790 0.000000 0.006740 
#    y 0.000000 1.893640 0.000000 
#    z 0.006740 0.000000 1.870680 
# 
# From -- ./inp_files/47946.got.cif
#   From: 2010.05.17/outbox.cif.g08.bks.cpg/sg5_24_cif.got.tgz:47946.got - 2010.06.03 18:56:24.
