data_PCOD9126018
_publ_section_title
;
Structure prediction by ZEFSAII (Michael W. Deem and Ramdas Pophale) SiO2 
 PCOD9126018
Probable space group: C 2
;
_chemical_formula_sum "Si O2"
_cell_formula_units_Z 30
_cell_length_a 16.823446
_cell_length_b 14.526281
_cell_length_c 16.848502
_cell_angle_alpha 90.000000
_cell_angle_beta 159.912951
_cell_angle_gamma 90.000000
_cell_volume 1414.135242
_symmetry_space_group_name_H-M "C 2"
_symmetry_group_IT_number 5
_symmetry_cell_setting 'monoclinic'
loop_
_space_group_symop_operation_xyz
x,y,z
-x,y,-z
1/2+x,1/2+y,z
1/2-x,1/2+y,-z
loop_
_atom_site_type_symbol
_atom_site_label
_atom_site_fract_x
_atom_site_fract_y
_atom_site_fract_z
Si Si1 0.000000 0.859961 0.000000
Si Si2 0.531561 0.088030 0.219798
Si Si3 0.361054 0.006103 0.299613
Si Si4 0.322268 0.730910 0.565079
Si Si5 0.912745 0.072904 0.102222
Si Si6 0.149365 0.222494 0.719686
Si Si7 0.722341 0.935387 0.513244
Si Si8 0.239289 0.530534 0.249360
O O1 0.206448 0.932781 0.202702
O O2 0.124018 0.786462 0.058174
O O3 0.588294 0.184824 0.313690
O O4 0.656149 0.078052 0.252868
O O5 0.667094 0.012303 0.397314
O O6 0.265927 0.069197 0.991583
O O7 0.500000 0.056760 0.500000
O O8 0.523040 0.946413 0.392521
O O9 0.219321 0.071142 0.106185
O O10 0.427210 0.662928 0.731148
O O11 0.496785 0.727871 0.654328
O O12 0.276189 0.838832 0.530519
O O13 0.046753 0.975085 0.229757
O O14 0.221987 0.117232 0.772608
O O15 0.000000 0.248629 0.500000
O O16 0.500000 0.487635 0.500000
O O17 0.000000 0.478049 0.000000
#
# Coordination Sequence:
#
# PCOD9126018 Si02
#       8
#     2   4   4   4   4   4   4   4
#     4  12  22  32  60  90 134 164 212 266 336 410
#     4  10  22  37  60  92 129 171 218 263 322 406
#     4  11  23  39  59  93 132 171 219 272 329 407
#     4  11  21  40  62  91 137 168 219 264 328 416
#     4  10  24  40  60  89 132 181 221 266 336 398
#     4  11  21  31  55  96 133 164 203 258 349 409
#     4  10  23  40  60  93 129 171 215 269 336 392
#     4  11  21  35  58  92 127 170 208 266 334 404
#
# _framework density 21.214376999999999
#
# number of rings (size 3 to 8) (size 9 to 14) (size 15 to 20)
#    0.000    1.333    4.667    2.000    3.733    2.133 
#    0.000    0.000    0.000    0.000   12.133    0.000 
#    0.000    0.000    0.000    0.000    0.000    0.000 
#
# Total GULP energy -83509.749772 kJ/mol
# GULP energy per Si atom -5567.316651 kJ/mol
# Density = 2.116609 g / cm^3
# Si number density = 21.214377 Si / 1000 Ang^3
#
#
#
# Elastic Constant Matrix: (Units=GPa)
#
#
# Indices 1 2 3 4 5 6 
#
# 1 41.2221 14.5676 28.8212 -0.0036 -4.1199 -0.0106
# 2 14.5676 66.5224 21.1026 -0.0874 -12.9177 -0.0411
# 3 28.8212 21.1026 108.2319 -0.0180 0.4083 -0.0111
# 4 -0.0036 -0.0874 -0.0180 16.2508 -0.0130 8.7813
# 5 -4.1199 -12.9177 0.4083 -0.0130 44.1644 -0.0047
# 6 -0.0106 -0.0411 -0.0111 8.7813 -0.0047 12.0953
#
#
#
# Elastic Compliance Matrix: (Units=1/GPa)
#
#
# Indices 1 2 3 4 5 6 
#
# 1 0.031124 -0.004093 -0.007497 -0.000043 0.001776 0.000038
# 2 -0.004093 0.017608 -0.002361 0.000107 0.004790 -0.000021
# 3 -0.007497 -0.002361 0.011702 0.000000 -0.001498 -0.000004
# 4 -0.000043 0.000107 0.000000 0.101262 0.000049 -0.073517
# 5 0.001776 0.004790 -0.001498 0.000049 0.024223 -0.000010
# 6 0.000038 -0.000021 -0.000004 -0.073517 -0.000010 0.136051
#
#
# Mechanical properties :
#
#
# Convention : Reuss Voigt Hill
#
# Bulk Modulus (GPa) = 30.73875 38.32881 34.53378
# Shear Modulus (GPa) = 13.86132 24.60108 19.23120
#
# Velocity S-wave (km/s) = 2.55893 3.40905 3.01411
# Velocity P-wave (km/s) = 4.82202 5.79673 5.33169
#
# Compressibility (1/GPa) = 0.03253223
#
# Stress axis : x y z
#
# Youngs Moduli (GPa) = 32.12930 56.79157 85.45685
#
# Poissons Ratio (x) = 0.23244 0.64065
# Poissons Ratio (y) = 0.13150 0.20179
# Poissons Ratio (z) = 0.24087 0.13410
#
# Static dielectric constant tensor:
#      x y z
#    x 1.770340 -0.000020 -0.058410 
#    y -0.000020 1.735450 0.000000 
#    z -0.058410 0.000000 1.991960 
# 
# From -- ./inp_files/62477.got.cif
#   From: 2010.05.17/outbox.cif.g08.bks.cpg/sg5_32_cif.got.tgz:62477.got - 2010.06.03 18:56:24.
