data_PCOD9126224
_publ_section_title
;
Structure prediction by ZEFSAII (Michael W. Deem and Ramdas Pophale) SiO2 
 PCOD9126224
Probable space group: C 2
;
_chemical_formula_sum "Si O2"
_cell_formula_units_Z 32
_cell_length_a 10.974414
_cell_length_b 9.616727
_cell_length_c 15.282909
_cell_angle_alpha 90.000000
_cell_angle_beta 94.206499
_cell_angle_gamma 90.000000
_cell_volume 1608.581824
_symmetry_space_group_name_H-M "C 2"
_symmetry_group_IT_number 5
_symmetry_cell_setting 'monoclinic'
loop_
_space_group_symop_operation_xyz
x,y,z
-x,y,-z
1/2+x,1/2+y,z
1/2-x,1/2+y,-z
loop_
_atom_site_type_symbol
_atom_site_label
_atom_site_fract_x
_atom_site_fract_y
_atom_site_fract_z
Si Si1 0.412552 0.813800 0.342019
Si Si2 0.277598 0.406230 0.818581
Si Si3 0.572740 0.153733 0.226015
Si Si4 0.884097 0.573419 0.452460
Si Si5 0.236170 0.059701 0.615381
Si Si6 0.038686 0.417251 0.903646
Si Si7 0.838783 0.783424 0.304932
Si Si8 0.401691 0.699448 0.789790
O O1 0.314718 0.877734 0.267769
O O2 0.345568 0.696848 0.394624
O O3 0.519500 0.739446 0.292571
O O4 0.443444 0.943309 0.404658
O O5 0.354491 0.265204 0.828125
O O6 0.184083 0.424337 0.894070
O O7 0.363816 0.539220 0.804398
O O8 0.659853 0.094665 0.306941
O O9 0.462870 0.236568 0.265985
O O10 0.520196 0.029489 0.165422
O O11 0.795094 0.527767 0.525154
O O12 0.815765 0.670077 0.379645
O O13 0.000000 0.653677 0.500000
O O14 0.159558 0.932842 0.650379
O O15 0.981964 0.268906 0.870671
O O16 0.000000 0.446550 0.000000
O O17 0.728197 0.775240 0.230462
#
# Coordination Sequence:
#
# PCOD9126224 Si02
#       8
#     4   4   4   4   4   4   4   4
#     4  10  22  39  59  90 122 168 212 259 309 366
#     4  10  22  41  66  91 126 160 208 253 308 379
#     4  11  22  42  65  92 124 168 207 255 315 376
#     4  12  22  38  57  88 129 166 215 264 306 360
#     4  11  23  38  60  89 126 167 215 258 311 365
#     4  11  24  43  67  97 127 160 204 258 320 380
#     4  12  21  39  66  89 124 173 211 256 312 366
#     4  11  20  41  68  90 124 168 208 256 316 374
#
# _framework density 19.893298999999999
#
# number of rings (size 3 to 8) (size 9 to 14) (size 15 to 20)
#    0.000    1.000    5.000    3.000    0.000    1.000 
#    0.000    1.250    0.000    0.000    0.000    0.000 
#    0.000    0.000    0.000    0.000    0.000    0.000 
#
# Total GULP energy -89373.930819 kJ/mol
# GULP energy per Si atom -5585.870676 kJ/mol
# Density = 1.984802 g / cm^3
# Si number density = 19.893299 Si / 1000 Ang^3
#
#
#
# Elastic Constant Matrix: (Units=GPa)
#
#
# Indices 1 2 3 4 5 6 
#
# 1 83.1709 43.8803 26.6437 0.0000 -17.6151 0.0000
# 2 43.8803 108.0928 17.0985 0.0000 -16.9223 0.0000
# 3 26.6437 17.0985 56.7408 0.0000 -27.2988 0.0000
# 4 0.0000 0.0000 0.0000 8.9523 0.0000 -5.5522
# 5 -17.6151 -16.9223 -27.2988 0.0000 26.6534 0.0000
# 6 0.0000 0.0000 0.0000 -5.5522 0.0000 42.4064
#
#
#
# Elastic Compliance Matrix: (Units=1/GPa)
#
#
# Indices 1 2 3 4 5 6 
#
# 1 0.017262 -0.005810 -0.005207 0.000000 0.002387 0.000000
# 2 -0.005810 0.012228 0.001836 0.000000 0.005804 0.000000
# 3 -0.005207 0.001836 0.036316 0.000000 0.034920 0.000000
# 4 0.000000 0.000000 0.000000 0.121575 0.000000 0.015918
# 5 0.002387 0.005804 0.034920 0.000000 0.078547 0.000000
# 6 0.000000 0.000000 0.000000 0.015918 0.000000 0.025665
#
#
# Mechanical properties :
#
#
# Convention : Reuss Voigt Hill
#
# Bulk Modulus (GPa) = 21.07709 47.02772 34.05240
# Shear Modulus (GPa) = 15.34818 26.29456 20.82137
#
# Velocity S-wave (km/s) = 2.78065 3.63957 3.23871
# Velocity P-wave (km/s) = 4.57465 6.43065 5.58035
#
# Compressibility (1/GPa) = 0.04744488
#
# Stress axis : x y z
#
# Youngs Moduli (GPa) = 57.92931 81.77772 27.53579
#
# Poissons Ratio (x) = 0.47516 0.14337
# Poissons Ratio (y) = 0.33659 -0.05055
# Poissons Ratio (z) = 0.30161 -0.15013
#
# Static dielectric constant tensor:
#      x y z
#    x 1.724590 0.000000 -0.001100 
#    y 0.000000 1.703420 0.000000 
#    z -0.001100 0.000000 1.684900 
# 
# From -- ./inp_files/52447.got.cif
#   From: 2010.05.17/outbox.cif.g08.bks.cpg/sg5_27_cif.got.tgz:52447.got - 2010.06.03 18:56:24.
