data_PCOD9126821
_publ_section_title
;
Structure prediction by ZEFSAII (Michael W. Deem and Ramdas Pophale) SiO2 
 PCOD9126821
Probable space group: C 2
;
_chemical_formula_sum "Si O2"
_cell_formula_units_Z 32
_cell_length_a 11.421490
_cell_length_b 16.464529
_cell_length_c 14.302159
_cell_angle_alpha 90.000000
_cell_angle_beta 147.748379
_cell_angle_gamma 90.000000
_cell_volume 1435.227626
_symmetry_space_group_name_H-M "C 2"
_symmetry_group_IT_number 5
_symmetry_cell_setting 'monoclinic'
loop_
_space_group_symop_operation_xyz
x,y,z
-x,y,-z
1/2+x,1/2+y,z
1/2-x,1/2+y,-z
loop_
_atom_site_type_symbol
_atom_site_label
_atom_site_fract_x
_atom_site_fract_y
_atom_site_fract_z
Si Si1 0.808174 0.522180 0.795301
Si Si2 0.615467 0.908401 0.479860
Si Si3 0.907480 0.595372 0.537841
Si Si4 0.212432 0.837557 0.700322
Si Si5 0.546879 0.305886 0.786627
Si Si6 0.933414 0.149000 0.239420
Si Si7 0.601663 0.121308 0.855951
Si Si8 0.622373 0.827499 0.842667
O O1 0.704547 0.435735 0.702779
O O2 0.651721 0.588500 0.737926
O O3 0.926054 0.562603 0.786470
O O4 0.000000 0.505536 0.000000
O O5 0.500000 0.889239 0.500000
O O6 0.453623 0.891831 0.284523
O O7 0.825631 0.851337 0.610302
O O8 0.677679 0.002710 0.522855
O O9 0.695383 0.648879 0.417362
O O10 0.000000 0.616829 0.500000
O O11 0.096397 0.600934 0.743278
O O12 0.197180 0.804626 0.795303
O O13 0.427977 0.815494 0.787361
O O14 0.000000 0.809707 0.500000
O O15 0.518565 0.214315 0.802996
O O16 0.668948 0.350961 0.954316
O O17 0.848610 0.241341 0.190301
O O18 0.824044 0.118562 0.067418
#
# Coordination Sequence:
#
# PCOD9126821 Si02
#       8
#     4   4   4   4   4   4   4   4
#     4  10  22  42  66  98 128 162 217 268 318 385
#     4  11  25  43  63  97 127 169 215 257 317 387
#     4  11  25  41  63  91 129 167 213 257 311 385
#     4  12  24  40  66 101 131 167 217 269 323 383
#     4  11  24  43  67  95 130 170 213 266 323 382
#     4  10  24  42  66  95 127 167 213 264 321 378
#     4  10  24  42  66  95 127 167 213 264 321 378
#     4  11  24  43  67  95 130 170 213 266 323 382
#
# _framework density 22.296115
#
# number of rings (size 3 to 8) (size 9 to 14) (size 15 to 20)
#    0.000    1.250    1.250    3.375    5.250    4.000 
#    0.000    2.500    0.000    0.000    0.000    0.000 
#    0.000    0.000    0.000    0.000    0.000    0.000 
#
# Total GULP energy -89520.709890 kJ/mol
# GULP energy per Si atom -5595.044368 kJ/mol
# Density = 2.224537 g / cm^3
# Si number density = 22.296115 Si / 1000 Ang^3
#
#
#
# Elastic Constant Matrix: (Units=GPa)
#
#
# Indices 1 2 3 4 5 6 
#
# 1 55.2830 1.5773 11.3186 -0.0210 -25.4581 -0.0055
# 2 1.5773 74.0157 -0.6098 0.0045 -3.1805 0.0013
# 3 11.3186 -0.6098 73.1696 0.0679 -24.5552 0.0181
# 4 -0.0210 0.0045 0.0679 -37.0004 0.0340 -26.9578
# 5 -25.4581 -3.1805 -24.5552 0.0340 26.0952 0.0093
# 6 -0.0055 0.0013 0.0181 -26.9578 0.0093 23.1842
#
#
#
# Elastic Compliance Matrix: (Units=1/GPa)
#
#
# Indices 1 2 3 4 5 6 
#
# 1 0.036797 0.001221 0.009376 0.000027 0.044871 0.000015
# 2 0.001221 0.013670 0.001292 0.000005 0.004073 0.000003
# 3 0.009376 0.001292 0.022434 0.000045 0.030415 0.000025
# 4 0.000027 0.000005 0.000045 -0.014631 0.000095 -0.017013
# 5 0.044871 0.004073 0.030415 0.000095 0.111213 0.000052
# 6 0.000015 0.000003 0.000025 -0.017013 0.000052 0.023351
#
#
# Mechanical properties :
#
#
# Convention : Reuss Voigt Hill
#
# Bulk Modulus (GPa) = 10.34329 25.22671 17.78500
# Shear Modulus (GPa) = 24.84071 15.13460 19.98766
#
# Velocity S-wave (km/s) = 3.34148 2.60821 2.99735
# Velocity P-wave (km/s) = 4.42000 4.51766 4.46910
#
# Compressibility (1/GPa) = 0.09668101
#
# Stress axis : x y z
#
# Youngs Moduli (GPa) = 27.17583 73.15123 44.57466
#
# Poissons Ratio (x) = -0.08934 -0.41794
# Poissons Ratio (y) = -0.03319 -0.05759
# Poissons Ratio (z) = -0.25481 -0.09451
#
# Static dielectric constant tensor:
#      x y z
#    x 1.810560 0.000000 -0.060590 
#    y 0.000000 1.816130 0.000000 
#    z -0.060590 0.000000 2.243300 
# 
# From -- ./inp_files/53450.got.cif
#   From: 2010.05.17/outbox.cif.g08.bks.cpg/sg5_27_cif.got.tgz:53450.got - 2010.06.03 18:56:24.
