data_PCOD9126263
_publ_section_title
;
Structure prediction by ZEFSAII (Michael W. Deem and Ramdas Pophale) SiO2 
 PCOD9126263
Probable space group: C 2
;
_chemical_formula_sum "Si O2"
_cell_formula_units_Z 30
_cell_length_a 21.199395
_cell_length_b 6.540017
_cell_length_c 20.660893
_cell_angle_alpha 90.000000
_cell_angle_beta 147.218367
_cell_angle_gamma 90.000000
_cell_volume 1550.960539
_symmetry_space_group_name_H-M "C 2"
_symmetry_group_IT_number 5
_symmetry_cell_setting 'monoclinic'
loop_
_space_group_symop_operation_xyz
x,y,z
-x,y,-z
1/2+x,1/2+y,z
1/2-x,1/2+y,-z
loop_
_atom_site_type_symbol
_atom_site_label
_atom_site_fract_x
_atom_site_fract_y
_atom_site_fract_z
Si Si1 0.073023 0.098100 0.646412
Si Si2 0.183466 0.739509 0.669794
Si Si3 0.344209 0.818984 0.406429
Si Si4 0.596779 0.911795 0.921022
Si Si5 0.302328 0.733378 0.119819
Si Si6 0.640457 0.061858 0.234302
Si Si7 0.500000 0.256687 0.000000
Si Si8 0.172574 0.069928 0.085149
O O1 0.147026 0.237560 0.660206
O O2 0.125517 0.114852 0.762679
O O3 0.944633 0.194302 0.530159
O O4 0.090905 0.875549 0.630163
O O5 0.135246 0.558830 0.583243
O O6 0.264947 0.885651 0.696833
O O7 0.266293 0.642611 0.796357
O O8 0.217084 0.757146 0.321922
O O9 0.624035 0.783461 0.880213
O O10 0.465666 0.995515 0.812110
O O11 0.619846 0.762478 0.001807
O O12 0.689693 0.096731 0.005449
O O13 0.262056 0.947777 0.116608
O O14 0.582095 0.119417 0.115337
O O15 0.574867 0.404457 0.019011
#
# Coordination Sequence:
#
# PCOD9126263 Si02
#       8
#     4   4   4   4   4   4   2   4
#     4  10  22  40  64  93 126 160 216 266 311 385
#     4  11  20  39  65  94 123 167 205 262 336 363
#     4  10  22  39  63  94 125 163 205 274 318 372
#     4  12  25  39  63  90 129 169 217 257 310 388
#     4  12  23  42  61  89 125 171 217 259 309 379
#     4  11  23  37  58  93 130 161 207 259 320 382
#     4  12  20  36  62  94 134 158 194 276 324 382
#     4  12  21  36  61  91 122 165 203 258 326 373
#
# _framework density 19.342852000000001
#
# number of rings (size 3 to 8) (size 9 to 14) (size 15 to 20)
#    0.000    0.800    6.667    2.400    0.000    4.267 
#    0.000    0.000    2.933    0.000    0.000    0.000 
#    0.000    0.000    0.000    0.000    0.000    0.000 
#
# Total GULP energy -83797.327786 kJ/mol
# GULP energy per Si atom -5586.488519 kJ/mol
# Density = 1.929883 g / cm^3
# Si number density = 19.342852 Si / 1000 Ang^3
#
#
#
# Elastic Constant Matrix: (Units=GPa)
#
#
# Indices 1 2 3 4 5 6 
#
# 1 70.4546 15.2095 31.7395 0.0000 14.5563 0.0000
# 2 15.2095 97.7467 36.0605 0.0000 14.8160 0.0000
# 3 31.7395 36.0605 97.2630 0.0000 15.3046 0.0000
# 4 0.0000 0.0000 0.0000 26.3986 0.0000 4.4869
# 5 14.5563 14.8160 15.3046 0.0000 23.2667 0.0000
# 6 0.0000 0.0000 0.0000 4.4869 0.0000 32.2248
#
#
#
# Elastic Compliance Matrix: (Units=1/GPa)
#
#
# Indices 1 2 3 4 5 6 
#
# 1 0.017951 0.000167 -0.004614 0.000000 -0.008303 0.000000
# 2 0.000167 0.012444 -0.003798 0.000000 -0.005531 0.000000
# 3 -0.004614 -0.003798 0.013787 0.000000 -0.003764 0.000000
# 4 0.000000 0.000000 0.000000 0.038799 0.000000 -0.005402
# 5 -0.008303 -0.005531 -0.003764 0.000000 0.054172 0.000000
# 6 0.000000 0.000000 0.000000 -0.005402 0.000000 0.031784
#
#
# Mechanical properties :
#
#
# Convention : Reuss Voigt Hill
#
# Bulk Modulus (GPa) = 36.10895 47.94261 42.02578
# Shear Modulus (GPa) = 25.68615 28.54168 27.11391
#
# Velocity S-wave (km/s) = 3.64804 3.84548 3.74806
# Velocity P-wave (km/s) = 6.03761 6.67506 6.36432
#
# Compressibility (1/GPa) = 0.02769396
#
# Stress axis : x y z
#
# Youngs Moduli (GPa) = 55.70669 80.36052 72.53024
#
# Poissons Ratio (x) = -0.01344 0.33462
# Poissons Ratio (y) = -0.00932 0.27547
# Poissons Ratio (z) = 0.25700 0.30521
#
# Static dielectric constant tensor:
#      x y z
#    x 1.659480 0.000000 0.017890 
#    y 0.000000 1.717890 0.000000 
#    z 0.017890 0.000000 1.695580 
# 
# From -- ./inp_files/69378.got.cif
#   From: 2010.05.17/outbox.cif.g08.bks.cpg/sg5_35_cif.got.tgz:69378.got - 2010.06.03 18:56:24.
