data_PCOD9126534
_publ_section_title
;
Structure prediction by ZEFSAII (Michael W. Deem and Ramdas Pophale) SiO2 
 PCOD9126534
Probable space group: C 2
;
_chemical_formula_sum "Si O2"
_cell_formula_units_Z 20
_cell_length_a 12.343726
_cell_length_b 18.325885
_cell_length_c 5.392410
_cell_angle_alpha 90.000000
_cell_angle_beta 128.043461
_cell_angle_gamma 90.000000
_cell_volume 960.657771
_symmetry_space_group_name_H-M "C 2"
_symmetry_group_IT_number 5
_symmetry_cell_setting 'monoclinic'
loop_
_space_group_symop_operation_xyz
x,y,z
-x,y,-z
1/2+x,1/2+y,z
1/2-x,1/2+y,-z
loop_
_atom_site_type_symbol
_atom_site_label
_atom_site_fract_x
_atom_site_fract_y
_atom_site_fract_z
Si Si1 0.845171 0.970210 0.863690
Si Si2 0.500000 0.649658 0.500000
Si Si3 0.000000 0.525167 0.000000
Si Si4 0.288371 0.917124 0.838166
Si Si5 0.852172 0.248288 0.920797
Si Si6 0.231583 0.111308 0.454015
O O1 0.757187 0.937337 0.507667
O O2 0.809526 0.056143 0.824071
O O3 0.815178 0.938378 0.089992
O O4 0.000000 0.958700 0.000000
O O5 0.598870 0.605998 0.450509
O O6 0.611890 0.703688 0.782283
O O7 0.924924 0.466873 0.077863
O O8 0.874575 0.578536 0.751059
O O9 0.306583 0.830709 0.884192
O O10 0.758863 0.194139 0.625624
O O11 0.000000 0.251435 0.000000
#
# Coordination Sequence:
#
# PCOD9126534 Si02
#       6
#     4   2   2   4   4   4
#     4  11  25  44  70  97 137 184 239 285 346 416
#     4  10  22  40  72  92 136 180 240 280 340 412
#     4  10  24  44  68 104 142 178 228 294 352 404
#     4  11  25  43  71 100 141 183 233 289 352 410
#     4  10  22  42  67 100 131 186 234 286 340 421
#     4  10  24  41  68 102 133 181 235 286 347 410
#
# _framework density 20.819068999999999
#
# number of rings (size 3 to 8) (size 9 to 14) (size 15 to 20)
#    0.000    1.600    1.000    2.400   16.800    3.200 
#    1.800    2.000    0.000    0.000    0.000    0.000 
#    0.000    0.000    0.000    0.000    0.000    0.000 
#
# Total GULP energy -55748.831747 kJ/mol
# GULP energy per Si atom -5574.883175 kJ/mol
# Density = 2.077168 g / cm^3
# Si number density = 20.819069 Si / 1000 Ang^3
#
#
#
# Elastic Constant Matrix: (Units=GPa)
#
#
# Indices 1 2 3 4 5 6 
#
# 1 62.1731 46.6881 17.3621 0.0000 13.4224 0.0000
# 2 46.6881 177.5468 40.1450 0.0000 12.3729 0.0000
# 3 17.3621 40.1450 65.4624 0.0000 15.5506 0.0000
# 4 0.0000 0.0000 0.0000 15.7802 0.0000 -2.9519
# 5 13.4224 12.3729 15.5506 0.0000 36.2951 0.0000
# 6 0.0000 0.0000 0.0000 -2.9519 0.0000 28.6360
#
#
#
# Elastic Compliance Matrix: (Units=1/GPa)
#
#
# Indices 1 2 3 4 5 6 
#
# 1 0.021374 -0.004932 -0.001298 0.000000 -0.005667 0.000000
# 2 -0.004932 0.007688 -0.003582 0.000000 0.000738 0.000000
# 3 -0.001298 -0.003582 0.019386 0.000000 -0.006605 0.000000
# 4 0.000000 0.000000 0.000000 0.064616 0.000000 0.006661
# 5 -0.005667 0.000738 -0.006605 0.000000 0.032226 0.000000
# 6 0.000000 0.000000 0.000000 0.006661 0.000000 0.035608
#
#
# Mechanical properties :
#
#
# Convention : Reuss Voigt Hill
#
# Bulk Modulus (GPa) = 34.69390 57.06361 45.87875
# Shear Modulus (GPa) = 23.79499 29.54143 26.66821
#
# Velocity S-wave (km/s) = 3.38441 3.77100 3.58292
# Velocity P-wave (km/s) = 5.65446 6.81391 6.26108
#
# Compressibility (1/GPa) = 0.02882351
#
# Stress axis : x y z
#
# Youngs Moduli (GPa) = 46.78652 130.07800 51.58457
#
# Poissons Ratio (x) = 0.64155 0.06696
# Poissons Ratio (y) = 0.23075 0.18476
# Poissons Ratio (z) = 0.06073 0.46590
#
# Static dielectric constant tensor:
#      x y z
#    x 1.790550 0.000000 -0.086470 
#    y 0.000000 1.788800 0.000000 
#    z -0.086470 0.000000 1.929270 
# 
# From -- ./inp_files/5010.got.cif
#   From: 2010.05.17/outbox.cif.g08.bks.cpg/sg5_3_cif.got.tgz:5010.got - 2010.06.03 18:56:24.
