data_PCOD9126893
_publ_section_title
;
Structure prediction by ZEFSAII (Michael W. Deem and Ramdas Pophale) SiO2 
 PCOD9126893
Probable space group: C 2
;
_chemical_formula_sum "Si O2"
_cell_formula_units_Z 24
_cell_length_a 7.446271
_cell_length_b 13.230664
_cell_length_c 9.997073
_cell_angle_alpha 90.000000
_cell_angle_beta 94.309467
_cell_angle_gamma 90.000000
_cell_volume 982.118146
_symmetry_space_group_name_H-M "C 2"
_symmetry_group_IT_number 5
_symmetry_cell_setting 'monoclinic'
loop_
_space_group_symop_operation_xyz
x,y,z
-x,y,-z
1/2+x,1/2+y,z
1/2-x,1/2+y,-z
loop_
_atom_site_type_symbol
_atom_site_label
_atom_site_fract_x
_atom_site_fract_y
_atom_site_fract_z
Si Si1 0.725740 0.637220 0.901574
Si Si2 0.581750 0.185771 0.803639
Si Si3 0.000000 0.967482 0.000000
Si Si4 0.163206 0.861703 0.335214
Si Si5 0.206200 0.679405 0.528930
Si Si6 0.862079 0.362187 0.108488
Si Si7 0.000000 0.029661 0.500000
O O1 0.587744 0.545731 0.899635
O O2 0.625926 0.742227 0.866038
O O3 0.899399 0.619887 0.816917
O O4 0.810734 0.664113 0.053535
O O5 0.480283 0.292091 0.757818
O O6 0.721331 0.173961 0.689903
O O7 0.831052 0.898133 0.957083
O O8 0.221053 0.789300 0.461376
O O9 0.336102 0.899113 0.259533
O O10 0.058942 0.956725 0.385021
O O11 0.336861 0.604246 0.461807
O O12 0.000000 0.647975 0.500000
O O13 0.000000 0.392913 0.000000
#
# Coordination Sequence:
#
# PCOD9126893 Si02
#       7
#     4   4   2   4   4   4   2
#     4  10  22  42  69 102 136 180 225 286 343 405
#     4   9  19  42  71  93 142 178 216 290 342 393
#     4  12  26  42  70 108 132 184 234 274 348 414
#     4  10  22  46  69 101 142 174 235 288 330 418
#     4  10  23  45  68 100 137 180 228 283 345 406
#     4  11  25  44  67 103 138 178 227 283 348 408
#     4  12  24  42  74 100 128 192 228 278 342 402
#
# _framework density 24.436980999999999
#
# number of rings (size 3 to 8) (size 9 to 14) (size 15 to 20)
#    0.000    1.667    3.333    2.000    4.667    5.333 
#    1.500    1.667    0.000    0.000    0.000    0.000 
#    0.000    0.000    0.000    0.000    0.000    0.000 
#
# Total GULP energy -66915.487679 kJ/mol
# GULP energy per Si atom -5576.290640 kJ/mol
# Density = 2.438136 g / cm^3
# Si number density = 24.436981 Si / 1000 Ang^3
#
#
#
# Elastic Constant Matrix: (Units=GPa)
#
#
# Indices 1 2 3 4 5 6 
#
# 1 99.6252 38.0791 43.5499 0.0000 -39.3341 0.0000
# 2 38.0791 95.4664 25.6226 0.0000 -22.8622 0.0000
# 3 43.5499 25.6226 147.2156 0.0000 -38.2705 0.0000
# 4 0.0000 0.0000 0.0000 24.8116 0.0000 -25.8760
# 5 -39.3341 -22.8622 -38.2705 0.0000 52.7865 0.0000
# 6 0.0000 0.0000 0.0000 -25.8760 0.0000 31.5845
#
#
#
# Elastic Compliance Matrix: (Units=1/GPa)
#
#
# Indices 1 2 3 4 5 6 
#
# 1 0.015685 -0.003678 -0.001695 0.000000 0.008866 0.000000
# 2 -0.003678 0.012644 -0.000495 0.000000 0.002377 0.000000
# 3 -0.001695 -0.000495 0.008621 0.000000 0.004773 0.000000
# 4 0.000000 0.000000 0.000000 0.276823 0.000000 0.226790
# 5 0.008866 0.002377 0.004773 0.000000 0.030040 0.000000
# 6 0.000000 0.000000 0.000000 0.226790 0.000000 0.217461
#
#
# Mechanical properties :
#
#
# Convention : Reuss Voigt Hill
#
# Bulk Modulus (GPa) = 39.66044 61.86785 50.76414
# Shear Modulus (GPa) = 8.59971 37.50688 23.05330
#
# Velocity S-wave (km/s) = 1.87797 3.92195 3.07478
# Velocity P-wave (km/s) = 4.57900 6.77357 5.78137
#
# Compressibility (1/GPa) = 0.02521404
#
# Stress axis : x y z
#
# Youngs Moduli (GPa) = 63.75583 79.08904 115.99445
#
# Poissons Ratio (x) = 0.29091 0.19661
# Poissons Ratio (y) = 0.23451 0.05738
# Poissons Ratio (z) = 0.10807 0.03913
#
# Static dielectric constant tensor:
#      x y z
#    x 1.922700 0.000000 0.001670 
#    y 0.000000 1.950960 0.000000 
#    z 0.001670 0.000000 2.176480 
# 
# From -- ./inp_files/35659.got.cif
#   From: 2010.05.17/outbox.cif.g08.bks.cpg/sg5_18_cif.got.tgz:35659.got - 2010.06.03 18:56:24.
