data_PCOD9126826
_publ_section_title
;
Structure prediction by ZEFSAII (Michael W. Deem and Ramdas Pophale) SiO2 
 PCOD9126826
Probable space group: C 2
;
_chemical_formula_sum "Si O2"
_cell_formula_units_Z 24
_cell_length_a 16.300756
_cell_length_b 9.811662
_cell_length_c 11.791939
_cell_angle_alpha 90.000000
_cell_angle_beta 30.900089
_cell_angle_gamma 90.000000
_cell_volume 968.527624
_symmetry_space_group_name_H-M "C 2"
_symmetry_group_IT_number 5
_symmetry_cell_setting 'monoclinic'
loop_
_space_group_symop_operation_xyz
x,y,z
-x,y,-z
1/2+x,1/2+y,z
1/2-x,1/2+y,-z
loop_
_atom_site_type_symbol
_atom_site_label
_atom_site_fract_x
_atom_site_fract_y
_atom_site_fract_z
Si Si1 0.128077 0.891870 0.085208
Si Si2 0.579700 0.617067 0.702017
Si Si3 0.971480 0.385593 0.777543
Si Si4 0.736306 0.993006 0.310810
Si Si5 0.134847 0.551468 0.765077
Si Si6 0.873598 0.805429 0.552552
O O1 0.981577 0.802064 0.308466
O O2 0.290267 0.866227 0.959135
O O3 0.180942 0.915147 0.891725
O O4 0.060564 0.041413 0.196615
O O5 0.516388 0.762318 0.808679
O O6 0.644877 0.519278 0.723265
O O7 0.724781 0.644712 0.445726
O O8 0.081488 0.409541 0.536356
O O9 0.027016 0.510580 0.786257
O O10 0.687296 0.152415 0.344839
O O11 0.233672 0.419870 0.700142
O O12 0.000000 0.618180 0.000000
O O13 0.000000 0.847197 0.500000
#
# Coordination Sequence:
#
# PCOD9126826 Si02
#       6
#     4   4   4   4   4   4
#     4  11  25  42  70 108 140 192 243 299 364 440
#     4  10  24  45  67 102 143 184 241 299 361 435
#     4  11  23  43  68 102 143 185 243 296 362 433
#     4  11  24  46  70 103 144 194 242 296 371 436
#     4  10  22  42  66  99 134 192 234 293 359 435
#     4  11  23  42  72 106 144 189 243 301 362 441
#
# _framework density 24.779882000000001
#
# number of rings (size 3 to 8) (size 9 to 14) (size 15 to 20)
#    0.000    1.333    1.667    3.000    7.000    0.000 
#    6.000    8.333    0.000    0.000    0.000    0.000 
#    0.000    0.000    0.000    0.000    0.000    0.000 
#
# Total GULP energy -66936.150412 kJ/mol
# GULP energy per Si atom -5578.012534 kJ/mol
# Density = 2.472348 g / cm^3
# Si number density = 24.779882 Si / 1000 Ang^3
#
#
#
# Elastic Constant Matrix: (Units=GPa)
#
#
# Indices 1 2 3 4 5 6 
#
# 1 79.9704 21.3678 18.4167 0.0000 -4.3682 0.0000
# 2 21.3678 52.0387 -9.6351 0.0000 -5.2766 0.0000
# 3 18.4167 -9.6351 140.9973 0.0000 6.3253 0.0000
# 4 0.0000 0.0000 0.0000 3.8685 0.0000 -3.4703
# 5 -4.3682 -5.2766 6.3253 0.0000 36.7484 0.0000
# 6 0.0000 0.0000 0.0000 -3.4703 0.0000 24.8213
#
#
#
# Elastic Compliance Matrix: (Units=1/GPa)
#
#
# Indices 1 2 3 4 5 6 
#
# 1 0.014850 -0.006420 -0.002435 0.000000 0.001262 0.000000
# 2 -0.006420 0.022485 0.002282 0.000000 0.002073 0.000000
# 3 -0.002435 0.002282 0.007623 0.000000 -0.001274 0.000000
# 4 0.000000 0.000000 0.000000 0.295567 0.000000 0.041324
# 5 0.001262 0.002073 -0.001274 0.000000 0.027879 0.000000
# 6 0.000000 0.000000 0.000000 0.041324 0.000000 0.046065
#
#
# Mechanical properties :
#
#
# Convention : Reuss Voigt Hill
#
# Bulk Modulus (GPa) = 31.43433 37.03393 34.23413
# Shear Modulus (GPa) = 11.40976 29.27810 20.34393
#
# Velocity S-wave (km/s) = 2.14812 3.44106 2.86839
# Velocity P-wave (km/s) = 4.34345 5.54667 4.98152
#
# Compressibility (1/GPa) = 0.03181235
#
# Stress axis : x y z
#
# Youngs Moduli (GPa) = 67.34068 44.47314 131.17342
#
# Poissons Ratio (x) = 0.28554 0.31941
# Poissons Ratio (y) = 0.43235 -0.29936
# Poissons Ratio (z) = 0.16398 -0.10150
#
# Static dielectric constant tensor:
#      x y z
#    x 2.005120 0.000000 0.108850 
#    y 0.000000 1.936400 0.000000 
#    z 0.108850 0.000000 2.137700 
# 
# From -- ./inp_files/44657.got.cif
#   From: 2010.05.17/outbox.cif.g08.bks.cpg/sg5_23_cif.got.tgz:44657.got - 2010.06.03 18:56:24.
