data_PCOD9126216
_publ_section_title
;
Structure prediction by ZEFSAII (Michael W. Deem and Ramdas Pophale) SiO2 
 PCOD9126216
Probable space group: C 2
;
_chemical_formula_sum "Si O2"
_cell_formula_units_Z 32
_cell_length_a 23.851277
_cell_length_b 10.831292
_cell_length_c 5.187592
_cell_angle_alpha 90.000000
_cell_angle_beta 110.841233
_cell_angle_gamma 90.000000
_cell_volume 1252.476231
_symmetry_space_group_name_H-M "C 2"
_symmetry_group_IT_number 5
_symmetry_cell_setting 'monoclinic'
loop_
_space_group_symop_operation_xyz
x,y,z
-x,y,-z
1/2+x,1/2+y,z
1/2-x,1/2+y,-z
loop_
_atom_site_type_symbol
_atom_site_label
_atom_site_fract_x
_atom_site_fract_y
_atom_site_fract_z
Si Si1 0.333934 0.714990 0.575448
Si Si2 0.962076 0.067830 0.175265
Si Si3 0.540096 0.855845 0.825522
Si Si4 0.365795 0.217798 0.459046
Si Si5 0.727445 0.532978 0.138119
Si Si6 0.129140 0.980745 0.616893
Si Si7 0.207251 0.769863 0.184959
Si Si8 0.367165 0.962911 0.376470
O O1 0.301456 0.655710 0.777552
O O2 0.378717 0.607464 0.553330
O O3 0.276460 0.731287 0.290175
O O4 0.365260 0.848677 0.576793
O O5 0.947091 0.211241 0.103000
O O6 0.903584 0.994353 0.161003
O O7 0.000000 0.062323 0.500000
O O8 0.000000 0.019462 0.000000
O O9 0.500000 0.863010 0.500000
O O10 0.602469 0.915583 0.835775
O O11 0.500000 0.901990 0.000000
O O12 0.393973 0.353762 0.541199
O O13 0.324919 0.197562 0.641549
O O14 0.401848 0.090787 0.497322
O O15 0.328060 0.245085 0.135478
O O16 0.708364 0.412907 0.274701
O O17 0.798923 0.512731 0.232893
O O18 0.698504 0.493385 0.817521
#
# Coordination Sequence:
#
# PCOD9126216 Si02
#       8
#     4   4   4   4   4   4   4   4
#     4  11  21  38  64  95 136 177 230 272 343 409
#     4  10  23  42  69  99 129 172 235 293 343 400
#     4  10  23  45  68  97 134 178 236 298 344 405
#     4  11  23  41  61  91 137 175 218 274 338 413
#     4  10  22  39  65 100 140 179 230 280 347 421
#     4  11  23  41  67  97 138 178 227 283 351 408
#     4  10  22  39  58  91 136 179 214 270 333 414
#     4  11  23  43  64 106 136 190 230 287 355 420
#
# _framework density 25.549385000000001
#
# number of rings (size 3 to 8) (size 9 to 14) (size 15 to 20)
#    0.000    1.500    3.750    0.750    1.750    2.000 
#    4.500    1.250    0.000    0.000    0.000    0.000 
#    0.000    0.000    0.000    0.000    0.000    0.000 
#
# Total GULP energy -89301.752556 kJ/mol
# GULP energy per Si atom -5581.359535 kJ/mol
# Density = 2.549123 g / cm^3
# Si number density = 25.549385 Si / 1000 Ang^3
#
#
#
# Elastic Constant Matrix: (Units=GPa)
#
#
# Indices 1 2 3 4 5 6 
#
# 1 92.7436 41.1569 38.4883 0.0000 -26.5474 0.0000
# 2 41.1569 197.9228 36.2609 0.0000 -19.7068 0.0000
# 3 38.4883 36.2609 124.5979 0.0000 -26.3780 0.0000
# 4 0.0000 0.0000 0.0000 32.2428 0.0000 -13.6374
# 5 -26.5474 -19.7068 -26.3780 0.0000 42.3259 0.0000
# 6 0.0000 0.0000 0.0000 -13.6374 0.0000 32.5548
#
#
#
# Elastic Compliance Matrix: (Units=1/GPa)
#
#
# Indices 1 2 3 4 5 6 
#
# 1 0.014595 -0.001904 -0.002539 0.000000 0.006685 0.000000
# 2 -0.001904 0.005700 -0.000877 0.000000 0.000913 0.000000
# 3 -0.002539 -0.000877 0.009955 0.000000 0.004203 0.000000
# 4 0.000000 0.000000 0.000000 0.037693 0.000000 0.015790
# 5 0.006685 0.000913 0.004203 0.000000 0.030864 0.000000
# 6 0.000000 0.000000 0.000000 0.015790 0.000000 0.037332
#
#
# Mechanical properties :
#
#
# Convention : Reuss Voigt Hill
#
# Bulk Modulus (GPa) = 50.99645 71.89740 61.44693
# Shear Modulus (GPa) = 32.61237 41.38190 36.99714
#
# Velocity S-wave (km/s) = 3.57661 4.02889 3.80947
# Velocity P-wave (km/s) = 6.08765 7.06005 6.59181
#
# Compressibility (1/GPa) = 0.01960921
#
# Stress axis : x y z
#
# Youngs Moduli (GPa) = 68.51840 175.43670 100.44916
#
# Poissons Ratio (x) = 0.33405 0.25503
# Poissons Ratio (y) = 0.13047 0.08814
# Poissons Ratio (z) = 0.17396 0.15393
#
# Static dielectric constant tensor:
#      x y z
#    x 2.090500 0.000000 0.072210 
#    y 0.000000 2.142100 0.000000 
#    z 0.072210 0.000000 2.096900 
# 
# From -- ./inp_files/10344.got.cif
#   From: 2010.05.17/outbox.cif.g08.bks.cpg/sg5_6_cif.got.tgz:10344.got - 2010.06.03 18:56:24.
