data_PCOD9126002
_publ_section_title
;
Structure prediction by ZEFSAII (Michael W. Deem and Ramdas Pophale) SiO2 
 PCOD9126002
Probable space group: C 2
;
_chemical_formula_sum "Si O2"
_cell_formula_units_Z 24
_cell_length_a 10.643842
_cell_length_b 9.145613
_cell_length_c 11.254046
_cell_angle_alpha 90.000000
_cell_angle_beta 95.027703
_cell_angle_gamma 90.000000
_cell_volume 1091.303954
_symmetry_space_group_name_H-M "C 2"
_symmetry_group_IT_number 5
_symmetry_cell_setting 'monoclinic'
loop_
_space_group_symop_operation_xyz
x,y,z
-x,y,-z
1/2+x,1/2+y,z
1/2-x,1/2+y,-z
loop_
_atom_site_type_symbol
_atom_site_label
_atom_site_fract_x
_atom_site_fract_y
_atom_site_fract_z
Si Si1 0.000000 0.031560 0.500000
Si Si2 0.658898 0.782907 0.437073
Si Si3 0.405922 0.122796 0.097075
Si Si4 0.497245 0.811464 0.815866
Si Si5 0.071865 0.782267 0.666069
Si Si6 0.630228 0.635337 0.993058
Si Si7 0.000000 0.533301 0.500000
O O1 0.879745 0.138221 0.495019
O O2 0.997335 0.928282 0.383637
O O3 0.564958 0.786091 0.315591
O O4 0.798164 0.783344 0.397770
O O5 0.619837 0.925352 0.508987
O O6 0.400719 0.250705 0.194878
O O7 0.268062 0.082133 0.034054
O O8 0.460424 0.976146 0.161213
O O9 0.500000 0.164188 0.000000
O O10 0.398124 0.762547 0.910538
O O11 0.614349 0.706086 0.861460
O O12 0.995954 0.642710 0.610216
O O13 0.500000 0.542016 0.000000
#
# Coordination Sequence:
#
# PCOD9126002 Si02
#       7
#     2   4   4   4   4   4   2
#     4  10  26  42  60 102 124 162 232 264 320 390
#     4  11  20  43  66  91 126 175 212 270 335 383
#     4  12  21  40  69  96 131 176 215 264 331 386
#     4   9  19  40  63  89 126 167 215 264 313 392
#     4  11  22  42  63  95 136 163 215 280 315 387
#     4   8  19  41  58  91 129 165 206 265 317 376
#     4  10  22  36  70  94 116 176 216 262 346 374
#
# _framework density 21.992041
#
# number of rings (size 3 to 8) (size 9 to 14) (size 15 to 20)
#    1.000    0.667    5.000    1.000    0.000    0.000 
#    9.000    2.500    0.000    0.000    0.000    0.000 
#    0.000    0.000    0.000    0.000    0.000    0.000 
#
# Total GULP energy -66897.897549 kJ/mol
# GULP energy per Si atom -5574.824796 kJ/mol
# Density = 2.194199 g / cm^3
# Si number density = 21.992041 Si / 1000 Ang^3
#
#
#
# Elastic Constant Matrix: (Units=GPa)
#
#
# Indices 1 2 3 4 5 6 
#
# 1 92.4561 21.3064 5.3557 0.0000 -5.1130 0.0000
# 2 21.3064 91.6935 1.3831 0.0000 -0.3671 0.0000
# 3 5.3557 1.3831 46.0626 0.0000 14.3243 0.0000
# 4 0.0000 0.0000 0.0000 12.3893 0.0000 -3.3906
# 5 -5.1130 -0.3671 14.3243 0.0000 30.7558 0.0000
# 6 0.0000 0.0000 0.0000 -3.3906 0.0000 10.7862
#
#
#
# Elastic Compliance Matrix: (Units=1/GPa)
#
#
# Indices 1 2 3 4 5 6 
#
# 1 0.011723 -0.002679 -0.002197 0.000000 0.002940 0.000000
# 2 -0.002679 0.011526 0.000071 0.000000 -0.000341 0.000000
# 3 -0.002197 0.000071 0.025815 0.000000 -0.012388 0.000000
# 4 0.000000 0.000000 0.000000 0.088312 0.000000 0.027761
# 5 0.002940 -0.000341 -0.012388 0.000000 0.038768 0.000000
# 6 0.000000 0.000000 0.000000 0.027761 0.000000 0.101437
#
#
# Mechanical properties :
#
#
# Convention : Reuss Voigt Hill
#
# Bulk Modulus (GPa) = 25.34525 31.81142 28.57833
# Shear Modulus (GPa) = 16.64765 24.26407 20.45586
#
# Velocity S-wave (km/s) = 2.75432 3.32522 3.05314
# Velocity P-wave (km/s) = 4.65455 5.40732 5.04499
#
# Compressibility (1/GPa) = 0.03945513
#
# Stress axis : x y z
#
# Youngs Moduli (GPa) = 85.30088 86.76037 38.73701
#
# Poissons Ratio (x) = 0.23245 0.08510
# Poissons Ratio (y) = 0.22854 -0.00277
# Poissons Ratio (z) = 0.18740 -0.00620
#
# Static dielectric constant tensor:
#      x y z
#    x 1.816930 0.000000 0.012330 
#    y 0.000000 1.833430 0.000000 
#    z 0.012330 0.000000 1.820590 
# 
# From -- ./inp_files/38372.got.cif
#   From: 2010.05.17/outbox.cif.g08.bks.cpg/sg5_20_cif.got.tgz:38372.got - 2010.06.03 18:56:24.
