data_PCOD9126017
_publ_section_title
;
Structure prediction by ZEFSAII (Michael W. Deem and Ramdas Pophale) SiO2 
 PCOD9126017
Probable space group: C 2
;
_chemical_formula_sum "Si O2"
_cell_formula_units_Z 30
_cell_length_a 10.000782
_cell_length_b 10.062741
_cell_length_c 19.504991
_cell_angle_alpha 90.000000
_cell_angle_beta 40.693369
_cell_angle_gamma 90.000000
_cell_volume 1279.825340
_symmetry_space_group_name_H-M "C 2"
_symmetry_group_IT_number 5
_symmetry_cell_setting 'monoclinic'
loop_
_space_group_symop_operation_xyz
x,y,z
-x,y,-z
1/2+x,1/2+y,z
1/2-x,1/2+y,-z
loop_
_atom_site_type_symbol
_atom_site_label
_atom_site_fract_x
_atom_site_fract_y
_atom_site_fract_z
Si Si1 0.107871 0.038890 0.145175
Si Si2 0.500000 0.156172 0.000000
Si Si3 0.041549 0.157064 0.567045
Si Si4 0.246500 0.401198 0.049726
Si Si5 0.155962 0.266831 0.760554
Si Si6 0.795727 0.133804 0.114815
Si Si7 0.401340 0.352683 0.419409
Si Si8 0.887779 0.777956 0.263349
O O1 0.988808 0.165973 0.223141
O O2 0.326824 0.057895 0.097395
O O3 0.945064 0.922383 0.215082
O O4 0.189068 0.002136 0.035917
O O5 0.633595 0.260109 0.994522
O O6 0.821311 0.209927 0.678382
O O7 0.000000 0.149371 0.500000
O O8 0.214374 0.265110 0.521102
O O9 0.111515 0.010819 0.564301
O O10 0.295810 0.478031 0.100914
O O11 0.003672 0.374182 0.148176
O O12 0.204479 0.173998 0.806869
O O13 0.367099 0.315672 0.646857
O O14 0.584589 0.190032 0.168184
O O15 0.000000 0.192128 0.000000
O O16 0.389640 0.307168 0.344480
#
# Coordination Sequence:
#
# PCOD9126017 Si02
#       8
#     4   2   4   4   4   4   4   4
#     4  11  23  36  59  92 127 169 209 255 304 370
#     4  10  24  36  50  88 126 162 216 250 288 358
#     4  10  23  48  69  95 122 162 208 267 333 391
#     4  11  21  39  58  85 131 170 210 254 296 362
#     4  10  22  37  60  92 123 163 214 253 310 370
#     4  11  19  37  60  84 121 174 205 247 305 355
#     4  10  23  44  70  92 125 161 208 271 328 387
#     4  10  24  38  64  93 127 160 212 263 316 382
#
# _framework density 23.440698999999999
#
# number of rings (size 3 to 8) (size 9 to 14) (size 15 to 20)
#    0.000    1.600    2.000    1.600    8.400    1.067 
#    2.400    0.000    0.000    0.000    0.000    0.000 
#    0.000    0.000    0.000    0.000    0.000    0.000 
#
# Total GULP energy -83548.438081 kJ/mol
# GULP energy per Si atom -5569.895872 kJ/mol
# Density = 2.338735 g / cm^3
# Si number density = 23.440699 Si / 1000 Ang^3
#
#
#
# Elastic Constant Matrix: (Units=GPa)
#
#
# Indices 1 2 3 4 5 6 
#
# 1 70.8938 35.8469 42.0263 0.0000 -38.0551 0.0000
# 2 35.8469 135.2506 51.1005 0.0000 -37.2658 0.0000
# 3 42.0263 51.1005 109.0838 0.0000 -60.3161 0.0000
# 4 0.0000 0.0000 0.0000 33.8264 0.0000 -4.6922
# 5 -38.0551 -37.2658 -60.3161 0.0000 46.7771 0.0000
# 6 0.0000 0.0000 0.0000 -4.6922 0.0000 30.4481
#
#
#
# Elastic Compliance Matrix: (Units=1/GPa)
#
#
# Indices 1 2 3 4 5 6 
#
# 1 0.026328 -0.001555 0.006074 0.000000 0.028012 0.000000
# 2 -0.001555 0.009592 -0.001284 0.000000 0.004722 0.000000
# 3 0.006074 -0.001284 0.033430 0.000000 0.047025 0.000000
# 4 0.000000 0.000000 0.000000 0.030208 0.000000 0.004655
# 5 0.028012 0.004722 0.047025 0.000000 0.108564 0.000000
# 6 0.000000 0.000000 0.000000 0.004655 0.000000 0.033560
#
#
# Mechanical properties :
#
#
# Convention : Reuss Voigt Hill
#
# Bulk Modulus (GPa) = 13.18895 63.68619 38.43757
# Shear Modulus (GPa) = 19.19503 34.62729 26.91116
#
# Velocity S-wave (km/s) = 2.86471 3.84764 3.39197
# Velocity P-wave (km/s) = 4.07195 6.85326 5.63684
#
# Compressibility (1/GPa) = 0.07582105
#
# Stress axis : x y z
#
# Youngs Moduli (GPa) = 37.98287 104.25792 29.91317
#
# Poissons Ratio (x) = 0.16207 -0.18169
# Poissons Ratio (y) = 0.05904 0.03840
# Poissons Ratio (z) = -0.23071 0.13383
#
# Static dielectric constant tensor:
#      x y z
#    x 2.079880 0.000000 0.030500 
#    y 0.000000 1.975310 0.000000 
#    z 0.030500 0.000000 1.951910 
# 
# From -- ./inp_files/65334.got.cif
#   From: 2010.05.17/outbox.cif.g08.bks.cpg/sg5_33_cif.got.tgz:65334.got - 2010.06.03 18:56:24.
