data_PCOD9126462
_publ_section_title
;
Structure prediction by ZEFSAII (Michael W. Deem and Ramdas Pophale) SiO2 
 PCOD9126462
Probable space group: C 2
;
_chemical_formula_sum "Si O2"
_cell_formula_units_Z 28
_cell_length_a 27.629613
_cell_length_b 5.212409
_cell_length_c 8.949489
_cell_angle_alpha 90.000000
_cell_angle_beta 57.787854
_cell_angle_gamma 90.000000
_cell_volume 1090.493422
_symmetry_space_group_name_H-M "C 2"
_symmetry_group_IT_number 5
_symmetry_cell_setting 'monoclinic'
loop_
_space_group_symop_operation_xyz
x,y,z
-x,y,-z
1/2+x,1/2+y,z
1/2-x,1/2+y,-z
loop_
_atom_site_type_symbol
_atom_site_label
_atom_site_fract_x
_atom_site_fract_y
_atom_site_fract_z
Si Si1 0.350879 0.358810 0.104971
Si Si2 0.092046 0.499025 0.771067
Si Si3 0.744109 0.075499 0.914710
Si Si4 0.538906 0.930950 0.569869
Si Si5 0.249408 0.637602 0.398279
Si Si6 0.657640 0.801840 0.416458
Si Si7 0.466548 0.613292 0.912235
O O1 0.366594 0.209114 0.230527
O O2 0.314887 0.164670 0.062899
O O3 0.307275 0.589757 0.209646
O O4 0.412068 0.453909 0.947702
O O5 0.055277 0.601295 0.689500
O O6 0.127298 0.272832 0.627870
O O7 0.058656 0.367731 0.961765
O O8 0.797900 0.095513 0.713764
O O9 0.758907 0.303337 0.004492
O O10 0.500000 0.031549 0.500000
O O11 0.601675 0.846474 0.407430
O O12 0.505363 0.701331 0.710387
O O13 0.250274 0.406611 0.519020
O O14 0.196579 0.553486 0.379932
O O15 0.500000 0.489064 0.000000
#
# Coordination Sequence:
#
# PCOD9126462 Si02
#       7
#     4   4   4   4   4   4   4
#     4  11  24  38  73  96 143 187 247 302 371 437
#     4   9  20  42  62 104 134 190 239 310 361 443
#     4  11  28  49  71 110 152 201 245 307 380 452
#     4   9  20  39  70  98 141 196 235 309 367 447
#     4  11  21  37  64  99 134 172 227 299 360 415
#     4   9  21  40  67 100 140 185 246 298 364 444
#     4  10  22  40  68 100 143 186 250 309 369 440
#
# _framework density 25.676449999999999
#
# number of rings (size 3 to 8) (size 9 to 14) (size 15 to 20)
#    0.857    1.143    1.429    0.857    4.000    5.143 
#    2.571    0.000    0.000    1.714    0.000    0.000 
#    0.000    0.000    0.000    0.000    0.000    0.000 
#
# Total GULP energy -78231.499587 kJ/mol
# GULP energy per Si atom -5587.964256 kJ/mol
# Density = 2.561801 g / cm^3
# Si number density = 25.676450 Si / 1000 Ang^3
#
#
#
# Elastic Constant Matrix: (Units=GPa)
#
#
# Indices 1 2 3 4 5 6 
#
# 1 221.6544 28.3582 44.9836 0.0000 5.3294 0.0000
# 2 28.3582 92.6315 40.1127 0.0000 13.7219 0.0000
# 3 44.9836 40.1127 77.0207 0.0000 -9.6272 0.0000
# 4 0.0000 0.0000 0.0000 32.5788 0.0000 17.4866
# 5 5.3294 13.7219 -9.6272 0.0000 52.2290 0.0000
# 6 0.0000 0.0000 0.0000 17.4866 0.0000 31.1096
#
#
#
# Elastic Compliance Matrix: (Units=1/GPa)
#
#
# Indices 1 2 3 4 5 6 
#
# 1 0.005181 -0.000073 -0.003124 0.000000 -0.001085 0.000000
# 2 -0.000073 0.015419 -0.008693 0.000000 -0.005646 0.000000
# 3 -0.003124 -0.008693 0.020124 0.000000 0.006312 0.000000
# 4 0.000000 0.000000 0.000000 0.043957 0.000000 -0.024708
# 5 -0.001085 -0.005646 0.006312 0.000000 0.021904 0.000000
# 6 0.000000 0.000000 0.000000 -0.024708 0.000000 0.046033
#
#
# Mechanical properties :
#
#
# Convention : Reuss Voigt Hill
#
# Bulk Modulus (GPa) = 59.01612 68.69064 63.85338
# Shear Modulus (GPa) = 27.46583 41.70696 34.58640
#
# Velocity S-wave (km/s) = 3.27416 4.03467 3.67414
# Velocity P-wave (km/s) = 6.10966 6.96528 6.55145
#
# Compressibility (1/GPa) = 0.01694452
#
# Stress axis : x y z
#
# Youngs Moduli (GPa) = 193.01847 64.85697 49.69096
#
# Poissons Ratio (x) = 0.00471 0.15522
# Poissons Ratio (y) = 0.01402 0.43198
# Poissons Ratio (z) = 0.60293 0.56382
#
# Static dielectric constant tensor:
#      x y z
#    x 2.105510 0.000000 -0.015230 
#    y 0.000000 2.027410 0.000000 
#    z -0.015230 0.000000 2.140450 
# 
# From -- ./inp_files/32230.got.cif
#   From: 2010.05.17/outbox.cif.g08.bks.cpg/sg5_17_cif.got.tgz:32230.got - 2010.06.03 18:56:24.
