data_PCOD9126673
_publ_section_title
;
Structure prediction by ZEFSAII (Michael W. Deem and Ramdas Pophale) SiO2 
 PCOD9126673
Probable space group: C 2
;
_chemical_formula_sum "Si O2"
_cell_formula_units_Z 28
_cell_length_a 19.414458
_cell_length_b 14.815580
_cell_length_c 5.133201
_cell_angle_alpha 90.000000
_cell_angle_beta 110.535739
_cell_angle_gamma 90.000000
_cell_volume 1382.669695
_symmetry_space_group_name_H-M "C 2"
_symmetry_group_IT_number 5
_symmetry_cell_setting 'monoclinic'
loop_
_space_group_symop_operation_xyz
x,y,z
-x,y,-z
1/2+x,1/2+y,z
1/2-x,1/2+y,-z
loop_
_atom_site_type_symbol
_atom_site_label
_atom_site_fract_x
_atom_site_fract_y
_atom_site_fract_z
Si Si1 0.869357 0.386610 0.872146
Si Si2 0.156344 0.548705 0.854481
Si Si3 0.662954 0.286162 0.297374
Si Si4 0.085566 0.271450 0.568741
Si Si5 0.257715 0.456795 0.590260
Si Si6 0.716459 0.638905 0.640675
Si Si7 0.583632 0.229050 0.681520
O O1 0.905985 0.337795 0.671741
O O2 0.782878 0.402667 0.697161
O O3 0.887638 0.489295 0.989958
O O4 0.885636 0.323208 0.137711
O O5 0.190428 0.481729 0.688581
O O6 0.106385 0.625091 0.662661
O O7 0.228761 0.599188 0.065207
O O8 0.686795 0.383994 0.226672
O O9 0.732890 0.219117 0.405106
O O10 0.629471 0.288915 0.539611
O O11 0.606082 0.247169 0.009555
O O12 0.139472 0.185525 0.606190
O O13 0.000000 0.248879 0.500000
O O14 0.292805 0.551281 0.552836
O O15 0.500000 0.243209 0.500000
#
# Coordination Sequence:
#
# PCOD9126673 Si02
#       7
#     4   4   4   4   4   4   4
#     4  11  23  42  66  98 133 171 223 272 338 392
#     4  10  22  41  69 101 126 171 224 284 325 389
#     4  11  23  41  71  95 131 177 217 274 323 394
#     4  12  26  44  65  99 140 181 212 273 343 407
#     4  11  22  41  72 103 126 167 234 281 320 384
#     4  10  23  39  70  99 133 169 231 270 331 390
#     4  11  25  44  65  96 138 175 213 266 342 396
#
# _framework density 20.250677
#
# number of rings (size 3 to 8) (size 9 to 14) (size 15 to 20)
#    0.000    1.143    4.286    0.857   10.000    0.571 
#    2.571    0.714    3.143    0.000    0.000    0.000 
#    0.000    0.000    0.000    0.000    0.000    0.000 
#
# Total GULP energy -78091.982976 kJ/mol
# GULP energy per Si atom -5577.998784 kJ/mol
# Density = 2.020459 g / cm^3
# Si number density = 20.250677 Si / 1000 Ang^3
#
#
#
# Elastic Constant Matrix: (Units=GPa)
#
#
# Indices 1 2 3 4 5 6 
#
# 1 100.7328 50.3955 19.0554 0.0000 7.4401 0.0000
# 2 50.3955 104.8514 23.1429 0.0000 9.5969 0.0000
# 3 19.0554 23.1429 59.7978 0.0000 -13.8126 0.0000
# 4 0.0000 0.0000 0.0000 21.2721 0.0000 -12.0586
# 5 7.4401 9.5969 -13.8126 0.0000 25.4502 0.0000
# 6 0.0000 0.0000 0.0000 -12.0586 0.0000 10.0110
#
#
#
# Elastic Compliance Matrix: (Units=1/GPa)
#
#
# Indices 1 2 3 4 5 6 
#
# 1 0.013507 -0.005517 -0.002973 0.000000 -0.003482 0.000000
# 2 -0.005517 0.013900 -0.005099 0.000000 -0.006396 0.000000
# 3 -0.002973 -0.005099 0.023197 0.000000 0.015382 0.000000
# 4 0.000000 0.000000 0.000000 0.148215 0.000000 0.178530
# 5 -0.003482 -0.006396 0.015382 0.000000 0.051070 0.000000
# 6 0.000000 0.000000 0.000000 0.178530 0.000000 0.314936
#
#
# Mechanical properties :
#
#
# Convention : Reuss Voigt Hill
#
# Bulk Modulus (GPa) = 42.68867 50.06327 46.37597
# Shear Modulus (GPa) = 8.33597 22.86586 15.60091
#
# Velocity S-wave (km/s) = 2.03109 3.36391 2.77860
# Velocity P-wave (km/s) = 5.16007 6.31374 5.76583
#
# Compressibility (1/GPa) = 0.02342542
#
# Stress axis : x y z
#
# Youngs Moduli (GPa) = 74.03583 71.94347 43.10935
#
# Poissons Ratio (x) = 0.39691 0.12818
# Poissons Ratio (y) = 0.40845 0.21981
# Poissons Ratio (z) = 0.22013 0.36683
#
# Static dielectric constant tensor:
#      x y z
#    x 1.711950 0.000000 -0.030290 
#    y 0.000000 1.754710 0.000000 
#    z -0.030290 0.000000 1.780000 
# 
# From -- ./inp_files/8567.got.cif
#   From: 2010.05.17/outbox.cif.g08.bks.cpg/sg5_5_cif.got.tgz:8567.got - 2010.06.03 18:56:24.
