data_PCOD9126567
_publ_section_title
;
Structure prediction by ZEFSAII (Michael W. Deem and Ramdas Pophale) SiO2 
 PCOD9126567
Probable space group: C 2
;
_chemical_formula_sum "Si O2"
_cell_formula_units_Z 30
_cell_length_a 14.242517
_cell_length_b 8.570253
_cell_length_c 10.848747
_cell_angle_alpha 90.000000
_cell_angle_beta 70.478579
_cell_angle_gamma 90.000000
_cell_volume 1248.098871
_symmetry_space_group_name_H-M "C 2"
_symmetry_group_IT_number 5
_symmetry_cell_setting 'monoclinic'
loop_
_space_group_symop_operation_xyz
x,y,z
-x,y,-z
1/2+x,1/2+y,z
1/2-x,1/2+y,-z
loop_
_atom_site_type_symbol
_atom_site_label
_atom_site_fract_x
_atom_site_fract_y
_atom_site_fract_z
Si Si1 0.960676 0.221650 0.823661
Si Si2 0.521081 0.252263 0.317396
Si Si3 0.163007 0.473551 0.234574
Si Si4 0.303203 0.121035 0.052656
Si Si5 0.158296 0.866027 0.465113
Si Si6 0.179787 0.116143 0.647614
Si Si7 0.858870 0.925716 0.925770
Si Si8 0.500000 0.984909 0.000000
O O1 0.882578 0.298176 0.759577
O O2 0.979208 0.372892 0.896419
O O3 0.064999 0.150833 0.733117
O O4 0.908607 0.091803 0.934419
O O5 0.584105 0.363068 0.382113
O O6 0.406615 0.270541 0.403003
O O7 0.553867 0.321061 0.171443
O O8 0.568572 0.082324 0.318259
O O9 0.191144 0.563301 0.093570
O O10 0.254791 0.507672 0.287387
O O11 0.301472 0.307721 0.041877
O O12 0.405386 0.085670 0.073626
O O13 0.222744 0.995529 0.134216
O O14 0.258025 0.775084 0.387646
O O15 0.178700 0.030991 0.516849
#
# Coordination Sequence:
#
# PCOD9126567 Si02
#       8
#     4   4   4   4   4   4   4   2
#     4  11  24  42  67  98 138 174 226 278 335 417
#     4   9  20  42  66  85 136 169 220 278 336 390
#     4   9  22  42  62  95 128 180 215 280 337 402
#     4  10  22  41  66  94 133 173 218 271 342 397
#     4  10  22  41  62  97 125 176 220 279 333 394
#     4  11  24  42  68  97 132 174 228 277 340 407
#     4  11  22  42  65  96 134 174 215 275 337 408
#     4  10  24  42  64 100 130 178 226 270 332 416
#
# _framework density 24.036556999999998
#
# number of rings (size 3 to 8) (size 9 to 14) (size 15 to 20)
#    0.000    1.867    1.333    1.600    9.333    1.600 
#    2.400    0.000    0.000    0.000    0.000    0.000 
#    0.000    0.000    0.000    0.000    0.000    0.000 
#
# Total GULP energy -83612.771336 kJ/mol
# GULP energy per Si atom -5574.184756 kJ/mol
# Density = 2.398185 g / cm^3
# Si number density = 24.036557 Si / 1000 Ang^3
#
#
#
# Elastic Constant Matrix: (Units=GPa)
#
#
# Indices 1 2 3 4 5 6 
#
# 1 102.1059 45.9036 7.3831 0.0000 -27.4995 0.0000
# 2 45.9036 126.3160 -0.8239 0.0000 -4.3211 0.0000
# 3 7.3831 -0.8239 29.1925 0.0000 -10.7098 0.0000
# 4 0.0000 0.0000 0.0000 28.0721 0.0000 1.4897
# 5 -27.4995 -4.3211 -10.7098 0.0000 39.2215 0.0000
# 6 0.0000 0.0000 0.0000 1.4897 0.0000 10.4103
#
#
#
# Elastic Compliance Matrix: (Units=1/GPa)
#
#
# Indices 1 2 3 4 5 6 
#
# 1 0.014661 -0.005000 -0.000311 0.000000 0.009644 0.000000
# 2 -0.005000 0.009662 0.000713 0.000000 -0.002247 0.000000
# 3 -0.000311 0.000713 0.038122 0.000000 0.010270 0.000000
# 4 0.000000 0.000000 0.000000 0.035895 0.000000 -0.005137
# 5 0.009644 -0.002247 0.010270 0.000000 0.034815 0.000000
# 6 0.000000 0.000000 0.000000 -0.005137 0.000000 0.096793
#
#
# Mechanical properties :
#
#
# Convention : Reuss Voigt Hill
#
# Bulk Modulus (GPa) = 18.77994 40.28223 29.53108
# Shear Modulus (GPa) = 19.46329 29.21758 24.34044
#
# Velocity S-wave (km/s) = 2.84868 3.49025 3.18566
# Velocity P-wave (km/s) = 4.31856 5.74783 5.08368
#
# Compressibility (1/GPa) = 0.05324832
#
# Stress axis : x y z
#
# Youngs Moduli (GPa) = 68.20609 103.50347 26.23166
#
# Poissons Ratio (x) = 0.51753 0.00816
# Poissons Ratio (y) = 0.34104 -0.01870
# Poissons Ratio (z) = 0.02122 -0.07380
#
# Static dielectric constant tensor:
#      x y z
#    x 2.020920 0.000000 -0.015430 
#    y 0.000000 1.902790 0.000000 
#    z -0.015430 0.000000 2.043600 
# 
# From -- ./inp_files/41926.got.cif
#   From: 2010.05.17/outbox.cif.g08.bks.cpg/sg5_21_cif.got.tgz:41926.got - 2010.06.03 18:56:24.
