data_PCOD9126557
_publ_section_title
;
Structure prediction by ZEFSAII (Michael W. Deem and Ramdas Pophale) SiO2 
 PCOD9126557
Probable space group: C 2
;
_chemical_formula_sum "Si O2"
_cell_formula_units_Z 16
_cell_length_a 7.133395
_cell_length_b 13.529668
_cell_length_c 8.823488
_cell_angle_alpha 90.000000
_cell_angle_beta 128.892464
_cell_angle_gamma 90.000000
_cell_volume 662.803974
_symmetry_space_group_name_H-M "C 2"
_symmetry_group_IT_number 5
_symmetry_cell_setting 'monoclinic'
loop_
_space_group_symop_operation_xyz
x,y,z
-x,y,-z
1/2+x,1/2+y,z
1/2-x,1/2+y,-z
loop_
_atom_site_type_symbol
_atom_site_label
_atom_site_fract_x
_atom_site_fract_y
_atom_site_fract_z
Si Si1 0.634838 0.471580 0.923678
Si Si2 0.214651 0.129782 0.410223
Si Si3 0.006813 0.639649 0.828128
Si Si4 0.712000 0.310030 0.723716
O O1 0.447418 0.545445 0.744774
O O2 0.839516 0.539693 0.101376
O O3 0.747005 0.402998 0.850381
O O4 0.500000 0.422463 0.000000
O O5 0.500000 0.118172 0.500000
O O6 0.257197 0.126966 0.611893
O O7 0.128193 0.238170 0.304375
O O8 0.135522 0.729059 0.809028
O O9 0.000000 0.662710 0.000000
O O10 0.500000 0.339471 0.500000
#
# Coordination Sequence:
#
# PCOD9126557 Si02
#       4
#     4   4   4   4
#     4  12  21  39  70  92 124 176 210 255 324 375
#     4   9  20  42  60  89 137 159 203 277 307 365
#     4  10  22  41  61  95 131 162 215 265 310 381
#     4   9  21  40  62  92 130 160 208 269 308 369
#
# _framework density 24.139866999999999
#
# number of rings (size 3 to 8) (size 9 to 14) (size 15 to 20)
#    0.000    2.500    5.000    0.750    3.500    0.000 
#    4.500    0.000    0.000    0.000    0.000    0.000 
#    0.000    0.000    0.000    0.000    0.000    0.000 
#
# Total GULP energy -44585.803368 kJ/mol
# GULP energy per Si atom -5573.225421 kJ/mol
# Density = 2.408492 g / cm^3
# Si number density = 24.139867 Si / 1000 Ang^3
#
#
#
# Elastic Constant Matrix: (Units=GPa)
#
#
# Indices 1 2 3 4 5 6 
#
# 1 44.2318 38.9130 62.4759 0.0000 -1.0933 0.0000
# 2 38.9130 121.5548 62.7841 0.0000 7.8544 0.0000
# 3 62.4759 62.7841 198.9737 0.0000 -29.7574 0.0000
# 4 0.0000 0.0000 0.0000 49.6893 0.0000 -8.8032
# 5 -1.0933 7.8544 -29.7574 0.0000 43.7281 0.0000
# 6 0.0000 0.0000 0.0000 -8.8032 0.0000 -16.9869
#
#
#
# Elastic Compliance Matrix: (Units=1/GPa)
#
#
# Indices 1 2 3 4 5 6 
#
# 1 0.049248 -0.008146 -0.013905 0.000000 -0.006768 0.000000
# 2 -0.008146 0.011966 -0.001748 0.000000 -0.003542 0.000000
# 3 -0.013905 -0.001748 0.011064 0.000000 0.007496 0.000000
# 4 0.000000 0.000000 0.000000 0.018433 0.000000 -0.009552
# 5 -0.006768 -0.003542 0.007496 0.000000 0.028437 0.000000
# 6 0.000000 0.000000 0.000000 -0.009552 0.000000 -0.053918
#
#
# Mechanical properties :
#
#
# Convention : Reuss Voigt Hill
#
# Bulk Modulus (GPa) = 40.51800 77.01181 58.76490
# Shear Modulus (GPa) = 41.30374 28.65859 34.98117
#
# Velocity S-wave (km/s) = 4.14093 3.44930 3.81084
# Velocity P-wave (km/s) = 6.29954 6.91630 6.61511
#
# Compressibility (1/GPa) = 0.02468039
#
# Stress axis : x y z
#
# Youngs Moduli (GPa) = 20.30538 83.56884 90.37996
#
# Poissons Ratio (x) = 0.68076 1.25675
# Poissons Ratio (y) = 0.16541 0.15796
# Poissons Ratio (z) = 0.28235 0.14606
#
# Static dielectric constant tensor:
#      x y z
#    x 2.101750 0.000000 -0.029310 
#    y 0.000000 1.928350 0.000000 
#    z -0.029310 0.000000 1.993110 
# 
# From -- ./inp_files/14111.got.cif
#   From: 2010.05.17/outbox.cif.g08.bks.cpg/sg5_8_cif.got.tgz:14111.got - 2010.06.03 18:56:24.
