data_PCOD9126173
_publ_section_title
;
Structure prediction by ZEFSAII (Michael W. Deem and Ramdas Pophale) SiO2 
 PCOD9126173
Probable space group: C 2
;
_chemical_formula_sum "Si O2"
_cell_formula_units_Z 26
_cell_length_a 12.044648
_cell_length_b 8.223023
_cell_length_c 11.481877
_cell_angle_alpha 90.000000
_cell_angle_beta 85.687837
_cell_angle_gamma 90.000000
_cell_volume 1133.985133
_symmetry_space_group_name_H-M "C 2"
_symmetry_group_IT_number 5
_symmetry_cell_setting 'monoclinic'
loop_
_space_group_symop_operation_xyz
x,y,z
-x,y,-z
1/2+x,1/2+y,z
1/2-x,1/2+y,-z
loop_
_atom_site_type_symbol
_atom_site_label
_atom_site_fract_x
_atom_site_fract_y
_atom_site_fract_z
Si Si1 0.590018 0.938560 0.892274
Si Si2 0.388799 0.299700 0.369628
Si Si3 0.383467 0.439433 0.624033
Si Si4 0.369528 0.608789 0.010730
Si Si5 0.283310 0.279337 0.132333
Si Si6 0.135590 0.438504 0.643336
Si Si7 0.000000 0.213084 0.500000
O O1 0.652949 0.763661 0.902787
O O2 0.554363 0.935504 0.760569
O O3 0.640323 0.120639 0.902034
O O4 0.500000 0.927263 0.000000
O O5 0.367329 0.403553 0.486565
O O6 0.519694 0.327341 0.330595
O O7 0.312462 0.326470 0.262892
O O8 0.370783 0.116138 0.410187
O O9 0.260911 0.423433 0.683586
O O10 0.442435 0.612994 0.609249
O O11 0.306938 0.443264 0.055427
O O12 0.500000 0.568210 0.000000
O O13 0.333112 0.692180 0.891151
O O14 0.098415 0.312918 0.551009
#
# Coordination Sequence:
#
# PCOD9126173 Si02
#       7
#     4   4   4   4   4   4   2
#     4  10  24  46  65 100 134 174 232 279 327 408
#     4   9  22  41  67  99 134 169 222 274 334 401
#     4  10  22  43  65  99 137 167 221 275 330 407
#     4  11  24  43  66  94 136 171 228 277 330 399
#     4  11  22  44  70  97 133 184 220 277 345 395
#     4  11  22  43  67  94 133 176 219 271 341 392
#     4  10  22  38  68 104 128 172 224 270 334 402
#
# _framework density 22.927990999999999
#
# number of rings (size 3 to 8) (size 9 to 14) (size 15 to 20)
#    0.000    1.846    1.538    2.308    4.308    2.462 
#   16.615    0.000    0.000    0.000    0.000    0.000 
#    0.000    0.000    0.000    0.000    0.000    0.000 
#
# Total GULP energy -72413.235190 kJ/mol
# GULP energy per Si atom -5570.248861 kJ/mol
# Density = 2.287581 g / cm^3
# Si number density = 22.927991 Si / 1000 Ang^3
#
#
#
# Elastic Constant Matrix: (Units=GPa)
#
#
# Indices 1 2 3 4 5 6 
#
# 1 82.7743 13.6734 19.6219 0.0000 15.2438 0.0000
# 2 13.6734 118.9084 17.6190 0.0000 7.0904 0.0000
# 3 19.6219 17.6190 60.0990 0.0000 11.0648 0.0000
# 4 0.0000 0.0000 0.0000 11.0984 0.0000 12.0484
# 5 15.2438 7.0904 11.0648 0.0000 33.7317 0.0000
# 6 0.0000 0.0000 0.0000 12.0484 0.0000 30.0388
#
#
#
# Elastic Compliance Matrix: (Units=1/GPa)
#
#
# Indices 1 2 3 4 5 6 
#
# 1 0.013942 -0.000801 -0.003393 0.000000 -0.005019 0.000000
# 2 -0.000801 0.008874 -0.002196 0.000000 -0.000783 0.000000
# 3 -0.003393 -0.002196 0.019182 0.000000 -0.004297 0.000000
# 4 0.000000 0.000000 0.000000 0.159596 0.000000 -0.064013
# 5 -0.005019 -0.000783 -0.004297 0.000000 0.033488 0.000000
# 6 0.000000 0.000000 0.000000 -0.064013 0.000000 0.058966
#
#
# Mechanical properties :
#
#
# Convention : Reuss Voigt Hill
#
# Bulk Modulus (GPa) = 34.22555 40.40113 37.31334
# Shear Modulus (GPa) = 15.79441 29.03159 22.41300
#
# Velocity S-wave (km/s) = 2.62748 3.56224 3.12995
# Velocity P-wave (km/s) = 4.91576 5.88035 5.41956
#
# Compressibility (1/GPa) = 0.02921794
#
# Stress axis : x y z
#
# Youngs Moduli (GPa) = 71.72545 112.68860 52.13245
#
# Poissons Ratio (x) = 0.09028 0.17689
# Poissons Ratio (y) = 0.05746 0.11447
# Poissons Ratio (z) = 0.24337 0.24744
#
# Static dielectric constant tensor:
#      x y z
#    x 1.983970 0.000000 -0.003630 
#    y 0.000000 1.881970 0.000000 
#    z -0.003630 0.000000 1.887550 
# 
# From -- ./inp_files/38382.got.cif
#   From: 2010.05.17/outbox.cif.g08.bks.cpg/sg5_20_cif.got.tgz:38382.got - 2010.06.03 18:56:24.
