data_PCOD9126572
_publ_section_title
;
Structure prediction by ZEFSAII (Michael W. Deem and Ramdas Pophale) SiO2 
 PCOD9126572
Probable space group: C 2
;
_chemical_formula_sum "Si O2"
_cell_formula_units_Z 26
_cell_length_a 8.623043
_cell_length_b 9.674818
_cell_length_c 17.640439
_cell_angle_alpha 90.000000
_cell_angle_beta 129.905803
_cell_angle_gamma 90.000000
_cell_volume 1128.924322
_symmetry_space_group_name_H-M "C 2"
_symmetry_group_IT_number 5
_symmetry_cell_setting 'monoclinic'
loop_
_space_group_symop_operation_xyz
x,y,z
-x,y,-z
1/2+x,1/2+y,z
1/2-x,1/2+y,-z
loop_
_atom_site_type_symbol
_atom_site_label
_atom_site_fract_x
_atom_site_fract_y
_atom_site_fract_z
Si Si1 0.000000 0.137920 0.500000
Si Si2 0.199004 0.914403 0.672956
Si Si3 0.327020 0.160483 0.787412
Si Si4 0.878079 0.137697 0.712774
Si Si5 0.531103 0.629833 0.918311
Si Si6 0.144044 0.838340 0.974025
Si Si7 0.309582 0.346354 0.635938
O O1 0.179126 0.248359 0.539220
O O2 0.075314 0.029729 0.586870
O O3 0.292256 0.784838 0.659555
O O4 0.039874 0.848521 0.681110
O O5 0.367242 0.008876 0.765832
O O6 0.521892 0.224393 0.887955
O O7 0.282396 0.270231 0.707161
O O8 0.119143 0.140394 0.769449
O O9 0.860629 0.121917 0.799274
O O10 0.769226 0.008905 0.637457
O O11 0.657692 0.489327 0.942109
O O12 0.500000 0.637502 0.000000
O O13 0.647926 0.770600 0.938145
O O14 0.000000 0.858726 0.000000
#
# Coordination Sequence:
#
# PCOD9126572 Si02
#       7
#     2   4   4   4   4   4   4
#     4  10  24  46  64 100 124 162 208 264 336 386
#     4  10  25  40  68  97 125 165 209 267 322 388
#     4  10  22  41  63  92 132 169 213 261 320 369
#     4  11  23  42  63  99 130 171 216 264 320 371
#     4  11  26  38  61  96 129 177 223 261 313 368
#     4  11  23  42  61  91 133 175 216 265 309 374
#     4  10  23  44  68  92 128 165 210 260 323 392
#
# _framework density 23.030771999999999
#
# number of rings (size 3 to 8) (size 9 to 14) (size 15 to 20)
#    0.000    1.538    3.077    0.000    4.308    8.615 
#    0.000    0.000    0.000    0.000    0.000    0.000 
#    0.000    0.000    0.000    0.000    0.000    0.000 
#
# Total GULP energy -72439.114680 kJ/mol
# GULP energy per Si atom -5572.239591 kJ/mol
# Density = 2.297835 g / cm^3
# Si number density = 23.030772 Si / 1000 Ang^3
#
#
#
# Elastic Constant Matrix: (Units=GPa)
#
#
# Indices 1 2 3 4 5 6 
#
# 1 33.3193 23.7019 -2.5491 0.0000 -12.3270 0.0000
# 2 23.7019 195.8329 46.6831 0.0000 9.4119 0.0000
# 3 -2.5491 46.6831 53.4357 0.0000 -9.4126 0.0000
# 4 0.0000 0.0000 0.0000 92.8974 0.0000 31.3550
# 5 -12.3270 9.4119 -9.4126 0.0000 14.9770 0.0000
# 6 0.0000 0.0000 0.0000 31.3550 0.0000 38.7592
#
#
#
# Elastic Compliance Matrix: (Units=1/GPa)
#
#
# Indices 1 2 3 4 5 6 
#
# 1 0.142777 -0.046449 0.082348 0.000000 0.198458 0.000000
# 2 -0.046449 0.022704 -0.035194 0.000000 -0.074617 0.000000
# 3 0.082348 -0.035194 0.077842 0.000000 0.138816 0.000000
# 4 0.000000 0.000000 0.000000 0.014808 0.000000 -0.011979
# 5 0.198458 -0.074617 0.138816 0.000000 0.364246 0.000000
# 6 0.000000 0.000000 0.000000 -0.011979 0.000000 0.035491
#
#
# Mechanical properties :
#
#
# Convention : Reuss Voigt Hill
#
# Bulk Modulus (GPa) = 4.08610 46.47333 25.27971
# Shear Modulus (GPa) = 6.77474 43.64350 25.20912
#
# Velocity S-wave (km/s) = 1.71697 4.35789 3.31204
# Velocity P-wave (km/s) = 2.38929 6.74865 5.06226
#
# Compressibility (1/GPa) = 0.24473243
#
# Stress axis : x y z
#
# Youngs Moduli (GPa) = 7.00392 44.04498 12.84662
#
# Poissons Ratio (x) = 2.04584 -1.05790
# Poissons Ratio (y) = 0.32532 0.45213
# Poissons Ratio (z) = -0.57676 1.55014
#
# Static dielectric constant tensor:
#      x y z
#    x 1.693810 0.000000 0.158380 
#    y 0.000000 1.859320 0.000000 
#    z 0.158380 0.000000 1.795710 
# 
# From -- ./inp_files/59308.got.cif
#   From: 2010.05.17/outbox.cif.g08.bks.cpg/sg5_30_cif.got.tgz:59308.got - 2010.06.03 18:56:24.
