data_PCOD9126917
_publ_section_title
;
Structure prediction by ZEFSAII (Michael W. Deem and Ramdas Pophale) SiO2 
 PCOD9126917
Probable space group: C 2
;
_chemical_formula_sum "Si O2"
_cell_formula_units_Z 28
_cell_length_a 12.919837
_cell_length_b 6.534773
_cell_length_c 17.785108
_cell_angle_alpha 90.000000
_cell_angle_beta 51.564837
_cell_angle_gamma 90.000000
_cell_volume 1176.193799
_symmetry_space_group_name_H-M "C 2"
_symmetry_group_IT_number 5
_symmetry_cell_setting 'monoclinic'
loop_
_space_group_symop_operation_xyz
x,y,z
-x,y,-z
1/2+x,1/2+y,z
1/2-x,1/2+y,-z
loop_
_atom_site_type_symbol
_atom_site_label
_atom_site_fract_x
_atom_site_fract_y
_atom_site_fract_z
Si Si1 0.000000 0.668890 0.000000
Si Si2 0.768292 0.029734 0.609682
Si Si3 0.922355 0.950967 0.164657
Si Si4 0.409140 0.190419 0.440292
Si Si5 0.000000 0.326200 0.500000
Si Si6 0.888792 0.342060 0.933185
Si Si7 0.353714 0.206225 0.863554
Si Si8 0.213812 0.753361 0.271623
O O1 0.932183 0.515571 0.972402
O O2 0.086009 0.819221 0.908012
O O3 0.830506 0.850060 0.528308
O O4 0.715065 0.920912 0.708787
O O5 0.665412 0.148405 0.603807
O O6 0.885957 0.178617 0.581457
O O7 0.783043 0.035681 0.256281
O O8 0.009500 0.155326 0.110775
O O9 0.009532 0.822733 0.183847
O O10 0.559340 0.262351 0.360935
O O11 0.428672 0.974146 0.473077
O O12 0.877851 0.463137 0.859349
O O13 0.747251 0.263550 0.024362
O O14 0.283422 0.275248 0.819035
#
# Coordination Sequence:
#
# PCOD9126917 Si02
#       8
#     2   4   4   4   2   4   4   4
#     4  10  22  42  70  92 134 196 240 290 354 418
#     4  12  26  48  76 106 140 190 241 284 365 441
#     4  11  25  43  68 104 145 185 239 300 356 419
#     4  12  26  48  77 104 142 190 235 292 363 440
#     4  12  22  48  78  98 142 192 230 290 354 432
#     4  11  22  46  69  96 139 200 243 286 353 429
#     4  11  25  43  73 101 145 193 242 292 355 420
#     4  12  27  46  68 115 147 177 243 304 357 419
#
# _framework density 23.805600999999999
#
# number of rings (size 3 to 8) (size 9 to 14) (size 15 to 20)
#    0.000    0.571    5.714    2.143    4.000    3.429 
#    5.143    0.000    0.000    0.000    0.000    0.000 
#    0.000    0.000    0.000    0.000    0.000    0.000 
#
# Total GULP energy -78365.504210 kJ/mol
# GULP energy per Si atom -5597.536015 kJ/mol
# Density = 2.375142 g / cm^3
# Si number density = 23.805601 Si / 1000 Ang^3
#
#
#
# Elastic Constant Matrix: (Units=GPa)
#
#
# Indices 1 2 3 4 5 6 
#
# 1 105.8750 29.3828 27.0624 0.0000 2.3331 0.0001
# 2 29.3828 115.6961 33.6869 0.0000 4.2218 0.0002
# 3 27.0624 33.6869 61.4261 0.0000 10.9061 0.0000
# 4 0.0000 0.0000 0.0000 41.3423 0.0000 -5.4245
# 5 2.3331 4.2218 10.9061 0.0000 27.3414 0.0000
# 6 0.0001 0.0002 0.0000 -5.4245 0.0000 42.1454
#
#
#
# Elastic Compliance Matrix: (Units=1/GPa)
#
#
# Indices 1 2 3 4 5 6 
#
# 1 0.010919 -0.001616 -0.004093 0.000000 0.000950 0.000000
# 2 -0.001616 0.010538 -0.005169 0.000000 0.000573 0.000000
# 3 -0.004093 -0.005169 0.022293 0.000000 -0.007745 0.000000
# 4 0.000000 0.000000 0.000000 0.024604 0.000000 0.003167
# 5 0.000950 0.000573 -0.007745 0.000000 0.039494 0.000000
# 6 0.000000 0.000000 0.000000 0.003167 0.000000 0.024135
#
#
# Mechanical properties :
#
#
# Convention : Reuss Voigt Hill
#
# Bulk Modulus (GPa) = 45.46734 51.47349 48.47041
# Shear Modulus (GPa) = 31.04254 35.02349 33.03301
#
# Velocity S-wave (km/s) = 3.61501 3.83982 3.72911
# Velocity P-wave (km/s) = 6.04693 6.42871 6.24074
#
# Compressibility (1/GPa) = 0.02199381
#
# Stress axis : x y z
#
# Youngs Moduli (GPa) = 91.58496 94.89633 44.85772
#
# Poissons Ratio (x) = 0.15335 0.18360
# Poissons Ratio (y) = 0.14799 0.23186
# Poissons Ratio (z) = 0.37486 0.49050
#
# Static dielectric constant tensor:
#      x y z
#    x 1.907890 0.000000 -0.003360 
#    y 0.000000 1.912110 0.000000 
#    z -0.003360 0.000000 1.935480 
# 
# From -- ./inp_files/61200.got.cif
#   From: 2010.05.17/outbox.cif.g08.bks.cpg/sg5_31_cif.got.tgz:61200.got - 2010.06.03 18:56:24.
