data_PCOD9126595
_publ_section_title
;
Structure prediction by ZEFSAII (Michael W. Deem and Ramdas Pophale) SiO2 
 PCOD9126595
Probable space group: C 2
;
_chemical_formula_sum "Si O2"
_cell_formula_units_Z 32
_cell_length_a 10.210728
_cell_length_b 11.001469
_cell_length_c 11.026538
_cell_angle_alpha 90.000000
_cell_angle_beta 72.718099
_cell_angle_gamma 90.000000
_cell_volume 1182.725200
_symmetry_space_group_name_H-M "C 2"
_symmetry_group_IT_number 5
_symmetry_cell_setting 'monoclinic'
loop_
_space_group_symop_operation_xyz
x,y,z
-x,y,-z
1/2+x,1/2+y,z
1/2-x,1/2+y,-z
loop_
_atom_site_type_symbol
_atom_site_label
_atom_site_fract_x
_atom_site_fract_y
_atom_site_fract_z
Si Si1 0.856270 0.704860 0.559406
Si Si2 0.903101 0.637255 0.905046
Si Si3 0.981370 0.388997 0.151403
Si Si4 0.294874 0.460057 0.626339
Si Si5 0.150277 0.149477 0.127557
Si Si6 0.503268 0.396630 0.146191
Si Si7 0.311225 0.719615 0.642638
Si Si8 0.227591 0.467783 0.360297
O O1 0.880153 0.837251 0.606384
O O2 0.782368 0.721346 0.450422
O O3 0.781093 0.610413 0.666332
O O4 0.000000 0.640197 0.500000
O O5 0.923953 0.505397 0.838136
O O6 0.945721 0.762815 0.831763
O O7 0.744399 0.654442 0.984101
O O8 0.000000 0.630228 0.000000
O O9 0.835157 0.428673 0.249730
O O10 0.032246 0.252181 0.169289
O O11 0.000000 0.385495 0.000000
O O12 0.379875 0.585874 0.617162
O O13 0.241149 0.470609 0.502893
O O14 0.251901 0.192740 0.207853
O O15 0.099342 0.011621 0.151460
O O16 0.361186 0.421891 0.252711
O O17 0.500000 0.398387 0.000000
O O18 0.376434 0.853409 0.630689
#
# Coordination Sequence:
#
# PCOD9126595 Si02
#       8
#     4   4   4   4   4   4   4   4
#     4  10  23  44  69  97 129 173 221 274 334 401
#     4  10  22  42  65  93 130 173 220 272 328 390
#     4  11  23  43  68  96 132 178 225 274 329 395
#     4  10  22  44  67  97 133 169 218 275 332 398
#     4  12  24  41  66  99 133 175 220 276 335 394
#     4  11  23  43  68  96 132 178 225 274 329 395
#     4  10  22  41  64  93 131 167 213 270 332 391
#     4  10  22  44  67  97 133 169 218 275 332 398
#
# _framework density 27.056156999999999
#
# number of rings (size 3 to 8) (size 9 to 14) (size 15 to 20)
#    0.000    1.500    0.000    5.625    0.000    4.000 
#    0.000   18.125    0.000    0.000    0.000    0.000 
#    0.000    0.000    0.000    0.000    0.000    0.000 
#
# Total GULP energy -89270.097490 kJ/mol
# GULP energy per Si atom -5579.381093 kJ/mol
# Density = 2.699458 g / cm^3
# Si number density = 27.056157 Si / 1000 Ang^3
#
#
#
# Elastic Constant Matrix: (Units=GPa)
#
#
# Indices 1 2 3 4 5 6 
#
# 1 41.0551 31.6314 17.0359 0.0000 -18.5005 0.0000
# 2 31.6314 288.0629 16.7804 0.0000 -10.4582 0.0000
# 3 17.0359 16.7804 106.2693 0.0000 -20.5575 0.0000
# 4 0.0000 0.0000 0.0000 32.0683 0.0000 -4.7121
# 5 -18.5005 -10.4582 -20.5575 0.0000 62.3140 0.0000
# 6 0.0000 0.0000 0.0000 -4.7121 0.0000 27.3317
#
#
#
# Elastic Compliance Matrix: (Units=1/GPa)
#
#
# Indices 1 2 3 4 5 6 
#
# 1 0.031459 -0.002992 -0.003056 0.000000 0.007830 0.000000
# 2 -0.002992 0.003799 -0.000180 0.000000 -0.000310 0.000000
# 3 -0.003056 -0.000180 0.010412 0.000000 0.002497 0.000000
# 4 0.000000 0.000000 0.000000 0.031994 0.000000 0.005516
# 5 0.007830 -0.000310 0.002497 0.000000 0.019144 0.000000
# 6 0.000000 0.000000 0.000000 0.005516 0.000000 0.037539
#
#
# Mechanical properties :
#
#
# Convention : Reuss Voigt Hill
#
# Bulk Modulus (GPa) = 30.10873 62.92031 46.51452
# Shear Modulus (GPa) = 31.67070 49.00542 40.33806
#
# Velocity S-wave (km/s) = 3.42505 4.26049 3.86541
# Velocity P-wave (km/s) = 5.17626 6.89263 6.09516
#
# Compressibility (1/GPa) = 0.03321296
#
# Stress axis : x y z
#
# Youngs Moduli (GPa) = 31.78715 263.20870 96.04745
#
# Poissons Ratio (x) = 0.78757 0.29353
# Poissons Ratio (y) = 0.09511 0.01731
# Poissons Ratio (z) = 0.09714 0.04744
#
# Static dielectric constant tensor:
#      x y z
#    x 2.178930 0.000000 0.157370 
#    y 0.000000 2.174400 0.000000 
#    z 0.157370 0.000000 2.287080 
# 
# From -- ./inp_files/39403.got.cif
#   From: 2010.05.17/outbox.cif.g08.bks.cpg/sg5_20_cif.got.tgz:39403.got - 2010.06.03 18:56:24.
