data_PCOD9126965
_publ_section_title
;
Structure prediction by ZEFSAII (Michael W. Deem and Ramdas Pophale) SiO2 
 PCOD9126965
Probable space group: C 2
;
_chemical_formula_sum "Si O2"
_cell_formula_units_Z 26
_cell_length_a 6.430065
_cell_length_b 15.942524
_cell_length_c 14.928661
_cell_angle_alpha 90.000000
_cell_angle_beta 125.594448
_cell_angle_gamma 90.000000
_cell_volume 1244.422320
_symmetry_space_group_name_H-M "C 2"
_symmetry_group_IT_number 5
_symmetry_cell_setting 'monoclinic'
loop_
_space_group_symop_operation_xyz
x,y,z
-x,y,-z
1/2+x,1/2+y,z
1/2-x,1/2+y,-z
loop_
_atom_site_type_symbol
_atom_site_label
_atom_site_fract_x
_atom_site_fract_y
_atom_site_fract_z
Si Si1 0.500000 0.633030 0.000000
Si Si2 0.994905 0.523384 0.868935
Si Si3 0.043515 0.453239 0.690743
Si Si4 0.000000 0.983296 0.500000
Si Si5 0.500000 0.869982 0.000000
Si Si6 0.943609 0.828553 0.885686
Si Si7 0.265256 0.584941 0.605638
Si Si8 0.884515 0.163730 0.168726
O O1 0.252463 0.574928 0.944343
O O2 0.502248 0.675608 0.902299
O O3 0.971384 0.510645 0.757585
O O4 0.006878 0.433295 0.917891
O O5 0.770472 0.576521 0.858790
O O6 0.248261 0.385709 0.779614
O O7 0.185246 0.508933 0.651971
O O8 0.760007 0.429851 0.583081
O O9 0.927130 0.043808 0.565485
O O10 0.232543 0.822057 0.921946
O O11 0.811758 0.738641 0.862735
O O12 0.000000 0.862741 0.000000
O O13 0.407358 0.654106 0.701030
O O14 0.000000 0.618865 0.500000
#
# Coordination Sequence:
#
# PCOD9126965 Si02
#       8
#     2   4   4   2   2   4   4   4
#     4  12  22  39  68 103 136 180 230 282 341 428
#     4  12  21  39  69  95 127 182 234 275 337 411
#     4  11  22  42  70  99 135 178 235 289 341 417
#     4  10  22  42  74 102 128 178 244 294 340 406
#     4  12  24  43  64  97 142 184 234 280 337 426
#     4  12  27  43  62 105 148 180 224 282 367 422
#     4  10  22  43  73 100 128 179 245 293 337 412
#     4  12  25  43  66 101 143 184 229 288 352 417
#
# _framework density 20.893227
#
# number of rings (size 3 to 8) (size 9 to 14) (size 15 to 20)
#    0.000    0.615    6.154    2.769    0.000    2.462 
#    1.385    0.000    5.077    0.000    0.000    0.000 
#    0.000    0.000    0.000    0.000    0.000    0.000 
#
# Total GULP energy -72589.475238 kJ/mol
# GULP energy per Si atom -5583.805788 kJ/mol
# Density = 2.084567 g / cm^3
# Si number density = 20.893227 Si / 1000 Ang^3
#
#
#
# Elastic Constant Matrix: (Units=GPa)
#
#
# Indices 1 2 3 4 5 6 
#
# 1 157.7855 54.6936 77.3731 0.0000 -0.9761 0.0000
# 2 54.6936 43.8133 46.5457 0.0000 -6.3975 0.0000
# 3 77.3731 46.5457 156.8261 0.0000 16.0692 0.0000
# 4 0.0000 0.0000 0.0000 25.3257 0.0000 -3.6613
# 5 -0.9761 -6.3975 16.0692 0.0000 47.6979 0.0000
# 6 0.0000 0.0000 0.0000 -3.6613 0.0000 10.7843
#
#
#
# Elastic Compliance Matrix: (Units=1/GPa)
#
#
# Indices 1 2 3 4 5 6 
#
# 1 0.011648 -0.012621 -0.001918 0.000000 -0.000808 0.000000
# 2 -0.012621 0.050318 -0.009708 0.000000 0.009761 0.000000
# 3 -0.001918 -0.009708 0.010711 0.000000 -0.004950 0.000000
# 4 0.000000 0.000000 0.000000 0.041524 0.000000 0.014098
# 5 -0.000808 0.009761 -0.004950 0.000000 0.023926 0.000000
# 6 0.000000 0.000000 0.000000 0.014098 0.000000 0.097514
#
#
# Mechanical properties :
#
#
# Convention : Reuss Voigt Hill
#
# Bulk Modulus (GPa) = 41.35033 79.51663 60.43348
# Shear Modulus (GPa) = 17.11189 28.74907 22.93048
#
# Velocity S-wave (km/s) = 2.86495 3.71347 3.31646
# Velocity P-wave (km/s) = 5.54781 7.51849 6.60704
#
# Compressibility (1/GPa) = 0.02418360
#
# Stress axis : x y z
#
# Youngs Moduli (GPa) = 85.85029 19.87374 93.36034
#
# Poissons Ratio (x) = 0.25083 0.17908
# Poissons Ratio (y) = 1.08352 0.90630
# Poissons Ratio (z) = 0.16467 0.19292
#
# Static dielectric constant tensor:
#      x y z
#    x 2.233250 0.000000 0.071200 
#    y 0.000000 1.792090 0.000000 
#    z 0.071200 0.000000 1.815080 
# 
# From -- ./inp_files/49273.got.cif
#   From: 2010.05.17/outbox.cif.g08.bks.cpg/sg5_25_cif.got.tgz:49273.got - 2010.06.03 18:56:24.
