data_PCOD9126419
_publ_section_title
;
Structure prediction by ZEFSAII (Michael W. Deem and Ramdas Pophale) SiO2 
 PCOD9126419
Probable space group: C 2
;
_chemical_formula_sum "Si O2"
_cell_formula_units_Z 28
_cell_length_a 12.377528
_cell_length_b 7.271708
_cell_length_c 27.036155
_cell_angle_alpha 90.000000
_cell_angle_beta 27.738677
_cell_angle_gamma 90.000000
_cell_volume 1132.605386
_symmetry_space_group_name_H-M "C 2"
_symmetry_group_IT_number 5
_symmetry_cell_setting 'monoclinic'
loop_
_space_group_symop_operation_xyz
x,y,z
-x,y,-z
1/2+x,1/2+y,z
1/2-x,1/2+y,-z
loop_
_atom_site_type_symbol
_atom_site_label
_atom_site_fract_x
_atom_site_fract_y
_atom_site_fract_z
Si Si1 0.433200 0.220780 0.154899
Si Si2 0.001716 0.317804 0.622671
Si Si3 0.690974 0.077610 0.380980
Si Si4 0.810064 0.305868 0.199568
Si Si5 0.134789 0.856776 0.172640
Si Si6 0.707857 0.210119 0.949603
Si Si7 0.022060 0.904774 0.404556
O O1 0.524275 0.233465 0.174075
O O2 0.181951 0.316520 0.258174
O O3 0.389060 0.013555 0.157326
O O4 0.617662 0.279562 0.039921
O O5 0.269808 0.343969 0.525288
O O6 0.926080 0.484352 0.619184
O O7 0.969887 0.123867 0.606200
O O8 0.500000 0.038326 0.500000
O O9 0.700239 0.297190 0.368029
O O10 0.936192 0.973117 0.283018
O O11 0.763591 0.238220 0.162721
O O12 0.581300 0.325576 0.326026
O O13 0.014626 0.231059 0.151601
O O14 0.271530 0.009394 0.085262
O O15 0.500000 0.297605 0.000000
#
# Coordination Sequence:
#
# PCOD9126419 Si02
#       7
#     4   4   4   4   4   4   4
#     4  10  24  42  67 101 139 183 233 288 344 420
#     4  10  22  40  66 101 144 182 237 292 352 425
#     4  11  23  41  69 104 139 191 240 291 364 425
#     4  11  24  47  69 100 141 180 236 295 352 424
#     4  11  24  47  71 100 139 190 235 290 360 418
#     4  12  24  44  71 101 139 182 236 287 355 426
#     4  11  21  40  70 102 141 188 237 293 358 427
#
# _framework density 24.721761000000001
#
# number of rings (size 3 to 8) (size 9 to 14) (size 15 to 20)
#    0.000    1.143    4.286    1.714    2.000    0.571 
#    5.143    1.429    0.000    0.000    0.000    0.000 
#    0.000    0.000    0.000    0.000    0.000    0.000 
#
# Total GULP energy -77990.699525 kJ/mol
# GULP energy per Si atom -5570.764252 kJ/mol
# Density = 2.466549 g / cm^3
# Si number density = 24.721761 Si / 1000 Ang^3
#
#
#
# Elastic Constant Matrix: (Units=GPa)
#
#
# Indices 1 2 3 4 5 6 
#
# 1 118.1481 7.5650 20.4917 -0.0017 -11.6729 0.0008
# 2 7.5650 52.5586 -1.3766 -0.0004 1.8540 0.0006
# 3 20.4917 -1.3766 127.7045 -0.0076 -2.7765 0.0037
# 4 -0.0017 -0.0004 -0.0076 43.2234 0.0020 -6.4217
# 5 -11.6729 1.8540 -2.7765 0.0020 33.3081 -0.0019
# 6 0.0008 0.0006 0.0037 -6.4217 -0.0019 23.2796
#
#
#
# Elastic Compliance Matrix: (Units=1/GPa)
#
#
# Indices 1 2 3 4 5 6 
#
# 1 0.009114 -0.001460 -0.001410 0.000000 0.003158 0.000000
# 2 -0.001460 0.019302 0.000409 0.000000 -0.001552 -0.000001
# 3 -0.001410 0.000409 0.008065 0.000001 0.000156 -0.000001
# 4 0.000000 0.000000 0.000001 0.024124 -0.000001 0.006655
# 5 0.003158 -0.001552 0.000156 -0.000001 0.031229 0.000002
# 6 0.000000 -0.000001 -0.000001 0.006655 0.000002 0.044792
#
#
# Mechanical properties :
#
#
# Convention : Reuss Voigt Hill
#
# Bulk Modulus (GPa) = 31.68730 39.08572 35.38651
# Shear Modulus (GPa) = 32.88032 38.07763 35.47897
#
# Velocity S-wave (km/s) = 3.65089 3.92886 3.79242
# Velocity P-wave (km/s) = 5.53330 6.03538 5.78979
#
# Compressibility (1/GPa) = 0.03155838
#
# Stress axis : x y z
#
# Youngs Moduli (GPa) = 109.72259 51.80816 123.99963
#
# Poissons Ratio (x) = 0.07565 0.17478
# Poissons Ratio (y) = 0.16021 -0.05067
# Poissons Ratio (z) = 0.15466 -0.02117
#
# Static dielectric constant tensor:
#      x y z
#    x 1.637940 -0.000030 -0.325430 
#    y -0.000030 1.987710 -0.000010 
#    z -0.325430 -0.000010 1.854260 
# 
# From -- ./inp_files/70348.got.cif
#   From: 2010.05.17/outbox.cif.g08.bks.cpg/sg5_36_cif.got.tgz:70348.got - 2010.06.03 18:56:24.
