data_PCOD9126287
_publ_section_title
;
Structure prediction by ZEFSAII (Michael W. Deem and Ramdas Pophale) SiO2 
 PCOD9126287
Probable space group: C 2
;
_chemical_formula_sum "Si O2"
_cell_formula_units_Z 32
_cell_length_a 23.272683
_cell_length_b 6.351501
_cell_length_c 22.453708
_cell_angle_alpha 90.000000
_cell_angle_beta 27.671798
_cell_angle_gamma 90.000000
_cell_volume 1541.377050
_symmetry_space_group_name_H-M "C 2"
_symmetry_group_IT_number 5
_symmetry_cell_setting 'monoclinic'
loop_
_space_group_symop_operation_xyz
x,y,z
-x,y,-z
1/2+x,1/2+y,z
1/2-x,1/2+y,-z
loop_
_atom_site_type_symbol
_atom_site_label
_atom_site_fract_x
_atom_site_fract_y
_atom_site_fract_z
Si Si1 0.970145 0.092890 0.245994
Si Si2 0.456059 0.979311 0.177019
Si Si3 0.383987 0.646211 0.143953
Si Si4 0.004807 0.340496 0.425384
Si Si5 0.661485 0.321858 0.994984
Si Si6 0.206591 0.663770 0.204999
Si Si7 0.110645 0.058509 0.228447
Si Si8 0.778956 0.858864 0.343016
O O1 0.980205 0.330525 0.212027
O O2 0.990562 0.063434 0.297031
O O3 0.843742 0.996722 0.335362
O O4 0.081492 0.954118 0.115265
O O5 0.336896 0.127035 0.295021
O O6 0.434127 0.822068 0.142807
O O7 0.569354 0.135988 0.059790
O O8 0.283231 0.742802 0.191496
O O9 0.325431 0.464296 0.238445
O O10 0.500000 0.564263 0.000000
O O11 0.082705 0.551685 0.341805
O O12 0.076289 0.160909 0.323183
O O13 0.000000 0.297465 0.500000
O O14 0.867752 0.360696 0.524754
O O15 0.705696 0.486206 0.904720
O O16 0.787732 0.205643 0.897618
O O17 0.170660 0.834955 0.188726
#
# Coordination Sequence:
#
# PCOD9126287 Si02
#       8
#     4   4   4   4   4   4   4   4
#     4  10  23  43  65 101 133 170 221 272 336 402
#     4  10  22  39  67  96 133 179 214 265 343 393
#     4  11  21  36  64  99 135 171 223 270 336 404
#     4  11  25  47  67  96 134 174 232 285 326 392
#     4  10  22  39  65  99 140 169 216 269 337 402
#     4  11  24  42  65 101 135 178 223 275 338 395
#     4  11  26  41  69 102 131 182 223 270 343 400
#     4  10  23  44  65  91 133 180 216 283 329 388
#
# _framework density 20.760656999999998
#
# number of rings (size 3 to 8) (size 9 to 14) (size 15 to 20)
#    0.000    1.500    1.250    3.750    5.250    7.000 
#    4.500    1.250    0.000    0.000    0.000    0.000 
#    0.000    0.000    0.000    0.000    0.000    0.000 
#
# Total GULP energy -89390.118427 kJ/mol
# GULP energy per Si atom -5586.882402 kJ/mol
# Density = 2.071340 g / cm^3
# Si number density = 20.760657 Si / 1000 Ang^3
#
#
#
# Elastic Constant Matrix: (Units=GPa)
#
#
# Indices 1 2 3 4 5 6 
#
# 1 113.3648 29.6371 12.1876 0.0074 -11.3876 0.0023
# 2 29.6371 91.2225 22.8700 0.0230 2.3845 -0.0010
# 3 12.1876 22.8700 69.6168 0.0213 -19.2343 -0.0113
# 4 0.0074 0.0230 0.0213 11.8966 -0.0171 0.6870
# 5 -11.3876 2.3845 -19.2343 -0.0171 28.3328 -0.0038
# 6 0.0023 -0.0010 -0.0113 0.6870 -0.0038 17.2074
#
#
#
# Elastic Compliance Matrix: (Units=1/GPa)
#
#
# Indices 1 2 3 4 5 6 
#
# 1 0.010181 -0.003629 0.000769 0.000006 0.004920 0.000000
# 2 -0.003629 0.013729 -0.005658 -0.000023 -0.006455 -0.000003
# 3 0.000769 -0.005658 0.020070 -0.000006 0.014410 0.000016
# 4 0.000006 -0.000023 -0.000006 0.084252 0.000051 -0.003364
# 5 0.004920 -0.006455 0.014410 0.000051 0.047598 0.000017
# 6 0.000000 -0.000003 0.000016 -0.003364 0.000017 0.058249
#
#
# Mechanical properties :
#
#
# Convention : Reuss Voigt Hill
#
# Bulk Modulus (GPa) = 37.11518 44.84372 40.97945
# Shear Modulus (GPa) = 19.22370 25.45469 22.33919
#
# Velocity S-wave (km/s) = 3.04627 3.50537 3.28386
# Velocity P-wave (km/s) = 5.50359 6.16691 5.84467
#
# Compressibility (1/GPa) = 0.02694316
#
# Stress axis : x y z
#
# Youngs Moduli (GPa) = 98.21870 72.84092 49.82614
#
# Poissons Ratio (x) = 0.26435 -0.03832
# Poissons Ratio (y) = 0.35646 0.28192
# Poissons Ratio (z) = -0.07553 0.41214
#
# Static dielectric constant tensor:
#      x y z
#    x 1.763110 0.000000 -0.008880 
#    y 0.000000 1.737820 0.000000 
#    z -0.008880 0.000000 1.738050 
# 
# From -- ./inp_files/47035.got.cif
#   From: 2010.05.17/outbox.cif.g08.bks.cpg/sg5_24_cif.got.tgz:47035.got - 2010.06.03 18:56:24.
