data_PCOD9126199
_publ_section_title
;
Structure prediction by ZEFSAII (Michael W. Deem and Ramdas Pophale) SiO2 
 PCOD9126199
Probable space group: C 2
;
_chemical_formula_sum "Si O2"
_cell_formula_units_Z 30
_cell_length_a 25.888426
_cell_length_b 11.157073
_cell_length_c 5.024839
_cell_angle_alpha 90.000000
_cell_angle_beta 63.228426
_cell_angle_gamma 90.000000
_cell_volume 1295.796573
_symmetry_space_group_name_H-M "C 2"
_symmetry_group_IT_number 5
_symmetry_cell_setting 'monoclinic'
loop_
_space_group_symop_operation_xyz
x,y,z
-x,y,-z
1/2+x,1/2+y,z
1/2-x,1/2+y,-z
loop_
_atom_site_type_symbol
_atom_site_label
_atom_site_fract_x
_atom_site_fract_y
_atom_site_fract_z
Si Si1 0.156982 0.267760 0.788949
Si Si2 0.407845 0.425787 0.634837
Si Si3 0.000000 0.853314 0.000000
Si Si4 0.698307 0.033219 0.698810
Si Si5 0.727281 0.698379 0.117680
Si Si6 0.799232 0.922504 0.112593
Si Si7 0.618942 0.254520 0.716313
Si Si8 0.039266 0.135301 0.165653
O O1 0.164092 0.409505 0.822243
O O2 0.177505 0.227464 0.449459
O O3 0.200860 0.203377 0.888324
O O4 0.093892 0.219582 0.993216
O O5 0.447196 0.267622 0.012663
O O6 0.388973 0.290601 0.578273
O O7 0.435406 0.504248 0.808745
O O8 0.343342 0.483097 0.799013
O O9 0.040080 0.928824 0.701634
O O10 0.731117 0.092012 0.875428
O O11 0.654565 0.133558 0.682392
O O12 0.750386 0.992478 0.384489
O O13 0.766979 0.816456 0.038856
O O14 0.843424 0.858266 0.221921
O O15 0.000000 0.176783 0.500000
O O16 0.000000 0.141211 0.000000
#
# Coordination Sequence:
#
# PCOD9126199 Si02
#       8
#     4   4   2   4   4   4   4   4
#     4  11  25  48  72 109 151 203 253 313 392 467
#     4  10  24  42  74 104 154 193 265 318 398 453
#     4   8  22  42  74 108 146 204 254 328 384 454
#     4  10  23  45  76 110 162 206 255 330 396 479
#     4  10  24  42  73 109 150 190 250 304 387 467
#     4  10  22  38  70 110 149 194 248 318 392 464
#     4   9  22  44  66 114 149 200 264 320 389 472
#     4  12  29  46  74 107 147 203 263 329 384 463
#
# _framework density 23.151782999999998
#
# number of rings (size 3 to 8) (size 9 to 14) (size 15 to 20)
#    0.800    1.067    0.000    1.600   12.133    2.133 
#    6.000    0.000    5.867    0.000    0.000    0.000 
#    0.000    0.000    0.000    0.000    0.000    0.000 
#
# Total GULP energy -83580.730754 kJ/mol
# GULP energy per Si atom -5572.048717 kJ/mol
# Density = 2.309909 g / cm^3
# Si number density = 23.151783 Si / 1000 Ang^3
#
#
#
# Elastic Constant Matrix: (Units=GPa)
#
#
# Indices 1 2 3 4 5 6 
#
# 1 178.8979 73.4455 70.6121 0.0000 -21.6102 0.0000
# 2 73.4455 151.7373 42.3584 0.0000 -11.6752 0.0000
# 3 70.6121 42.3584 102.8490 0.0000 -33.8128 0.0000
# 4 0.0000 0.0000 0.0000 25.9584 0.0000 -2.5628
# 5 -21.6102 -11.6752 -33.8128 0.0000 55.5158 0.0000
# 6 0.0000 0.0000 0.0000 -2.5628 0.0000 63.7141
#
#
#
# Elastic Compliance Matrix: (Units=1/GPa)
#
#
# Indices 1 2 3 4 5 6 
#
# 1 0.008640 -0.002851 -0.004812 0.000000 -0.000168 0.000000
# 2 -0.002851 0.008394 -0.001605 0.000000 -0.000322 0.000000
# 3 -0.004812 -0.001605 0.016206 0.000000 0.007660 0.000000
# 4 0.000000 0.000000 0.000000 0.038677 0.000000 0.001556
# 5 -0.000168 -0.000322 0.007660 0.000000 0.022545 0.000000
# 6 0.000000 0.000000 0.000000 0.001556 0.000000 0.015758
#
#
# Mechanical properties :
#
#
# Convention : Reuss Voigt Hill
#
# Bulk Modulus (GPa) = 68.01969 89.59069 78.80519
# Shear Modulus (GPa) = 37.40878 45.50887 41.45883
#
# Velocity S-wave (km/s) = 4.02407 4.43840 4.23630
# Velocity P-wave (km/s) = 7.14384 8.06517 7.61845
#
# Compressibility (1/GPa) = 0.01470163
#
# Stress axis : x y z
#
# Youngs Moduli (GPa) = 115.74592 119.13541 61.70368
#
# Poissons Ratio (x) = 0.33969 0.29694
# Poissons Ratio (y) = 0.33003 0.09906
# Poissons Ratio (z) = 0.55702 0.19126
#
# Static dielectric constant tensor:
#      x y z
#    x 1.901940 0.000000 0.031160 
#    y 0.000000 1.942560 0.000000 
#    z 0.031160 0.000000 1.999020 
# 
# From -- ./inp_files/10328.got.cif
#   From: 2010.05.17/outbox.cif.g08.bks.cpg/sg5_6_cif.got.tgz:10328.got - 2010.06.03 18:56:24.
