data_PCOD9126121
_publ_section_title
;
Structure prediction by ZEFSAII (Michael W. Deem and Ramdas Pophale) SiO2 
 PCOD9126121
Probable space group: C 2
;
_chemical_formula_sum "Si O2"
_cell_formula_units_Z 30
_cell_length_a 19.114692
_cell_length_b 8.027454
_cell_length_c 14.197829
_cell_angle_alpha 90.000000
_cell_angle_beta 143.710240
_cell_angle_gamma 90.000000
_cell_volume 1289.415131
_symmetry_space_group_name_H-M "C 2"
_symmetry_group_IT_number 5
_symmetry_cell_setting 'monoclinic'
loop_
_space_group_symop_operation_xyz
x,y,z
-x,y,-z
1/2+x,1/2+y,z
1/2-x,1/2+y,-z
loop_
_atom_site_type_symbol
_atom_site_label
_atom_site_fract_x
_atom_site_fract_y
_atom_site_fract_z
Si Si1 0.365407 0.018810 0.887549
Si Si2 0.514474 0.238654 0.310656
Si Si3 0.340262 0.318148 0.974406
Si Si4 0.915226 0.460726 0.326573
Si Si5 0.700847 0.091400 0.376345
Si Si6 0.820567 0.744407 0.354787
Si Si7 0.144238 0.199386 0.309573
Si Si8 0.500000 0.521277 0.000000
O O1 0.361334 0.122783 0.977290
O O2 0.304374 0.128770 0.739098
O O3 0.280801 0.860267 0.797513
O O4 0.500000 0.991112 0.000000
O O5 0.575250 0.322963 0.468694
O O6 0.480983 0.050825 0.310711
O O7 0.610564 0.212512 0.331931
O O8 0.408749 0.341687 0.147711
O O9 0.201600 0.359080 0.827148
O O10 0.404877 0.409515 0.955278
O O11 0.867455 0.624863 0.327569
O O12 0.000000 0.381842 0.500000
O O13 0.658426 0.898384 0.335925
O O14 0.828636 0.116268 0.561667
O O15 0.753836 0.639054 0.363146
O O16 0.039871 0.138479 0.130595
#
# Coordination Sequence:
#
# PCOD9126121 Si02
#       8
#     4   4   4   4   4   4   4   2
#     4  11  22  37  66  94 131 159 207 268 317 374
#     4  10  22  43  63  89 128 168 214 261 311 374
#     4  12  24  41  65  97 128 164 212 264 321 371
#     4  10  23  45  65  84 125 177 215 256 310 375
#     4  10  22  38  63  93 126 168 203 266 316 380
#     4   9  21  40  64  87 122 171 211 255 321 370
#     4  10  23  36  63  92 130 158 213 251 331 374
#     4  12  24  38  64  98 130 162 200 280 322 388
#
# _framework density 23.266362999999998
#
# number of rings (size 3 to 8) (size 9 to 14) (size 15 to 20)
#    0.000    1.600    3.333    0.000   11.200    1.067 
#    2.400    3.333    0.000    0.000    0.000    0.000 
#    0.000    0.000    0.000    0.000    0.000    0.000 
#
# Total GULP energy -83605.399616 kJ/mol
# GULP energy per Si atom -5573.693308 kJ/mol
# Density = 2.321341 g / cm^3
# Si number density = 23.266363 Si / 1000 Ang^3
#
#
#
# Elastic Constant Matrix: (Units=GPa)
#
#
# Indices 1 2 3 4 5 6 
#
# 1 22.0666 -17.3070 -11.1061 0.0000 4.4893 0.0000
# 2 -17.3070 49.0294 40.3261 0.0000 0.4195 0.0000
# 3 -11.1061 40.3261 172.0190 0.0000 -5.4775 0.0000
# 4 0.0000 0.0000 0.0000 44.7331 0.0000 -0.1586
# 5 4.4893 0.4195 -5.4775 0.0000 35.7810 0.0000
# 6 0.0000 0.0000 0.0000 -0.1586 0.0000 18.7017
#
#
#
# Elastic Compliance Matrix: (Units=1/GPa)
#
#
# Indices 1 2 3 4 5 6 
#
# 1 0.065587 0.024746 -0.001847 0.000000 -0.008802 0.000000
# 2 0.024746 0.034657 -0.006671 0.000000 -0.004532 0.000000
# 3 -0.001847 -0.006671 0.007303 0.000000 0.001428 0.000000
# 4 0.000000 0.000000 0.000000 0.022355 0.000000 0.000190
# 5 -0.008802 -0.004532 0.001428 0.000000 0.029324 0.000000
# 6 0.000000 0.000000 0.000000 0.000190 0.000000 0.053473
#
#
# Mechanical properties :
#
#
# Convention : Reuss Voigt Hill
#
# Bulk Modulus (GPa) = 7.14268 29.66009 18.40139
# Shear Modulus (GPa) = 22.03506 35.25663 28.64584
#
# Velocity S-wave (km/s) = 3.08080 3.89697 3.51267
# Velocity P-wave (km/s) = 3.96633 5.74667 4.93741
#
# Compressibility (1/GPa) = 0.14000340
#
# Stress axis : x y z
#
# Youngs Moduli (GPa) = 15.24692 28.85434 136.92179
#
# Poissons Ratio (x) = -0.71403 0.25288
# Poissons Ratio (y) = -0.37730 0.91343
# Poissons Ratio (z) = 0.02816 0.19249
#
# Static dielectric constant tensor:
#      x y z
#    x 1.895550 0.000000 0.018350 
#    y 0.000000 1.939120 0.000000 
#    z 0.018350 0.000000 2.060000 
# 
# From -- ./inp_files/44140.got.cif
#   From: 2010.05.17/outbox.cif.g08.bks.cpg/sg5_23_cif.got.tgz:44140.got - 2010.06.03 18:56:24.
