data_PCOD9126341
_publ_section_title
;
Structure prediction by ZEFSAII (Michael W. Deem and Ramdas Pophale) SiO2 
 PCOD9126341
Probable space group: C 2
;
_chemical_formula_sum "Si O2"
_cell_formula_units_Z 20
_cell_length_a 25.541022
_cell_length_b 7.874973
_cell_length_c 10.379238
_cell_angle_alpha 90.000000
_cell_angle_beta 23.725659
_cell_angle_gamma 90.000000
_cell_volume 839.972836
_symmetry_space_group_name_H-M "C 2"
_symmetry_group_IT_number 5
_symmetry_cell_setting 'monoclinic'
loop_
_space_group_symop_operation_xyz
x,y,z
-x,y,-z
1/2+x,1/2+y,z
1/2-x,1/2+y,-z
loop_
_atom_site_type_symbol
_atom_site_label
_atom_site_fract_x
_atom_site_fract_y
_atom_site_fract_z
Si Si1 0.083710 0.375000 0.936450
Si Si2 0.273946 0.718963 0.754541
Si Si3 0.987274 0.582354 0.383111
Si Si4 0.138337 0.052049 0.697307
Si Si5 0.861584 0.917671 0.743105
O O1 0.116380 0.174997 0.867607
O O2 0.228311 0.453418 0.601190
O O3 0.002378 0.439665 0.241648
O O4 0.000000 0.427283 0.000000
O O5 0.346634 0.685561 0.456109
O O6 0.324376 0.566370 0.731094
O O7 0.123538 0.683620 0.056835
O O8 0.252244 0.883409 0.895015
O O9 0.000000 0.511844 0.500000
O O10 0.882801 0.735927 0.622227
O O11 0.000000 0.954215 0.000000
O O12 0.000000 0.953986 0.500000
#
# Coordination Sequence:
#
# PCOD9126341 Si02
#       5
#     4   4   4   4   4
#     4  10  22  40  61  86 119 160 201 244 293 352
#     4   9  19  37  58  84 117 153 193 243 295 348
#     4   8  18  37  60  84 114 148 191 243 292 343
#     4  10  23  39  58  87 122 155 199 248 294 353
#     4   9  19  37  60  85 115 150 193 244 294 348
#
# _framework density 23.810296000000001
#
# number of rings (size 3 to 8) (size 9 to 14) (size 15 to 20)
#    0.000    3.200    0.000    0.000    0.000   15.200 
#    0.000   12.000    0.000    0.000    0.000    0.000 
#    0.000    0.000    0.000    0.000    0.000    0.000 
#
# Total GULP energy -55739.160639 kJ/mol
# GULP energy per Si atom -5573.916064 kJ/mol
# Density = 2.375610 g / cm^3
# Si number density = 23.810296 Si / 1000 Ang^3
#
#
#
# Elastic Constant Matrix: (Units=GPa)
#
#
# Indices 1 2 3 4 5 6 
#
# 1 40.2279 11.5885 11.7832 0.0000 -0.1183 0.0000
# 2 11.5885 45.9625 0.9210 0.0000 -14.1768 0.0000
# 3 11.7832 0.9210 176.9481 0.0000 -7.9685 0.0000
# 4 0.0000 0.0000 0.0000 36.1816 0.0000 2.9575
# 5 -0.1183 -14.1768 -7.9685 0.0000 32.7815 0.0000
# 6 0.0000 0.0000 0.0000 2.9575 0.0000 24.0306
#
#
#
# Elastic Compliance Matrix: (Units=1/GPa)
#
#
# Indices 1 2 3 4 5 6 
#
# 1 0.027782 -0.008173 -0.001984 0.000000 -0.003917 0.000000
# 2 -0.008173 0.027533 0.000946 0.000000 0.012108 0.000000
# 3 -0.001984 0.000946 0.005861 0.000000 0.001827 0.000000
# 4 0.000000 0.000000 0.000000 0.027919 0.000000 -0.003436
# 5 -0.003917 0.012108 0.001827 0.000000 0.036171 0.000000
# 6 0.000000 0.000000 0.000000 -0.003436 0.000000 0.042037
#
#
# Mechanical properties :
#
#
# Convention : Reuss Voigt Hill
#
# Bulk Modulus (GPa) = 23.38919 34.63599 29.01259
# Shear Modulus (GPa) = 25.00297 34.52176 29.76237
#
# Velocity S-wave (km/s) = 3.24403 3.81184 3.53934
# Velocity P-wave (km/s) = 4.88631 5.82681 5.37717
#
# Compressibility (1/GPa) = 0.04275479
#
# Stress axis : x y z
#
# Youngs Moduli (GPa) = 35.99402 36.31995 170.62456
#
# Poissons Ratio (x) = 0.29684 0.33850
# Poissons Ratio (y) = 0.29418 -0.16144
# Poissons Ratio (z) = 0.07141 -0.03437
#
# Static dielectric constant tensor:
#      x y z
#    x 1.964610 0.000000 -0.001790 
#    y 0.000000 1.943100 0.000000 
#    z -0.001790 0.000000 1.969700 
# 
# From -- ./inp_files/47147.got.cif
#   From: 2010.05.17/outbox.cif.g08.bks.cpg/sg5_24_cif.got.tgz:47147.got - 2010.06.03 18:56:24.
