data_PCOD9126358
_publ_section_title
;
Structure prediction by ZEFSAII (Michael W. Deem and Ramdas Pophale) SiO2 
 PCOD9126358
Probable space group: C 2
;
_chemical_formula_sum "Si O2"
_cell_formula_units_Z 32
_cell_length_a 30.987424
_cell_length_b 8.435841
_cell_length_c 11.330023
_cell_angle_alpha 90.000000
_cell_angle_beta 32.693847
_cell_angle_gamma 90.000000
_cell_volume 1599.775310
_symmetry_space_group_name_H-M "C 2"
_symmetry_group_IT_number 5
_symmetry_cell_setting 'monoclinic'
loop_
_space_group_symop_operation_xyz
x,y,z
-x,y,-z
1/2+x,1/2+y,z
1/2-x,1/2+y,-z
loop_
_atom_site_type_symbol
_atom_site_label
_atom_site_fract_x
_atom_site_fract_y
_atom_site_fract_z
Si Si1 0.369744 0.869880 0.797801
Si Si2 0.873779 0.210001 0.547563
Si Si3 0.218217 0.200594 0.654171
Si Si4 0.054346 0.202225 0.159942
Si Si5 0.753243 0.843806 0.326418
Si Si6 0.915261 0.700677 0.576125
Si Si7 0.418337 0.341972 0.819331
Si Si8 0.702495 0.373293 0.317237
O O1 0.362675 0.737298 0.712798
O O2 0.427388 0.811944 0.769317
O O3 0.400227 0.028497 0.664804
O O4 0.283351 0.895448 0.055516
O O5 0.816400 0.328275 0.609327
O O6 0.967266 0.233388 0.309112
O O7 0.846273 0.035655 0.573163
O O8 0.234145 0.233599 0.481547
O O9 0.270829 0.316241 0.615364
O O10 0.238941 0.022323 0.644765
O O11 0.125869 0.226270 0.902857
O O12 0.059468 0.020871 0.195190
O O13 0.837139 0.797446 0.072870
O O14 0.904224 0.822289 0.711750
O O15 0.852287 0.742732 0.620673
O O16 0.006153 0.729909 0.325972
#
# Coordination Sequence:
#
# PCOD9126358 Si02
#       8
#     4   4   4   4   4   4   4   4
#     4  11  23  36  60  98 132 164 200 258 309 366
#     4  12  23  38  63  92 127 164 208 252 309 373
#     4  10  24  45  68  87 120 164 212 262 310 365
#     4  10  23  42  63  91 127 167 206 250 312 373
#     4  11  23  44  66  90 119 163 215 259 311 365
#     4  11  22  37  62  96 131 163 207 252 309 370
#     4  10  22  40  62  89 127 169 201 249 308 376
#     4  11  21  40  64  93 124 167 211 251 306 372
#
# _framework density 20.00281
#
# number of rings (size 3 to 8) (size 9 to 14) (size 15 to 20)
#    0.000    1.250    1.250    4.875    5.250    3.500 
#    0.000    0.625    2.750    0.000    0.000    0.000 
#    0.000    0.000    0.000    0.000    0.000    0.000 
#
# Total GULP energy -89523.720046 kJ/mol
# GULP energy per Si atom -5595.232503 kJ/mol
# Density = 1.995728 g / cm^3
# Si number density = 20.002810 Si / 1000 Ang^3
#
#
#
# Elastic Constant Matrix: (Units=GPa)
#
#
# Indices 1 2 3 4 5 6 
#
# 1 70.1304 20.7266 78.0778 0.0000 -19.4187 0.0000
# 2 20.7266 58.5902 37.8261 0.0000 -11.5076 0.0000
# 3 78.0778 37.8261 127.3857 0.0000 -21.2563 0.0000
# 4 0.0000 0.0000 0.0000 30.2278 0.0000 -3.3337
# 5 -19.4187 -11.5076 -21.2563 0.0000 34.4021 0.0000
# 6 0.0000 0.0000 0.0000 -3.3337 0.0000 34.8311
#
#
#
# Elastic Compliance Matrix: (Units=1/GPa)
#
#
# Indices 1 2 3 4 5 6 
#
# 1 0.048350 0.003676 -0.028952 0.000000 0.010632 0.000000
# 2 0.003676 0.021793 -0.007985 0.000000 0.004431 0.000000
# 3 -0.028952 -0.007985 0.027644 0.000000 -0.001933 0.000000
# 4 0.000000 0.000000 0.000000 0.033435 0.000000 0.003200
# 5 0.010632 0.004431 -0.001933 0.000000 0.035358 0.000000
# 6 0.000000 0.000000 0.000000 0.003200 0.000000 0.029016
#
#
# Mechanical properties :
#
#
# Convention : Reuss Voigt Hill
#
# Bulk Modulus (GPa) = 31.98507 58.81860 45.40183
# Shear Modulus (GPa) = 18.34593 27.85725 23.10159
#
# Velocity S-wave (km/s) = 3.03176 3.73589 3.40209
# Velocity P-wave (km/s) = 5.31794 6.93385 6.17894
#
# Compressibility (1/GPa) = 0.03126459
#
# Stress axis : x y z
#
# Youngs Moduli (GPa) = 20.68248 45.88708 36.17378
#
# Poissons Ratio (x) = -0.16868 1.04732
# Poissons Ratio (y) = -0.07603 0.28884
# Poissons Ratio (z) = 0.59881 0.36640
#
# Static dielectric constant tensor:
#      x y z
#    x 1.668350 0.000000 -0.016420 
#    y 0.000000 1.728900 0.000000 
#    z -0.016420 0.000000 1.695160 
# 
# From -- ./inp_files/48398.got.cif
#   From: 2010.05.17/outbox.cif.g08.bks.cpg/sg5_25_cif.got.tgz:48398.got - 2010.06.03 18:56:24.
