data_PCOD9126073
_publ_section_title
;
Structure prediction by ZEFSAII (Michael W. Deem and Ramdas Pophale) SiO2 
 PCOD9126073
Probable space group: C 2
;
_chemical_formula_sum "Si O2"
_cell_formula_units_Z 32
_cell_length_a 9.907031
_cell_length_b 14.042180
_cell_length_c 15.423875
_cell_angle_alpha 90.000000
_cell_angle_beta 119.761005
_cell_angle_gamma 90.000000
_cell_volume 1862.700607
_symmetry_space_group_name_H-M "C 2"
_symmetry_group_IT_number 5
_symmetry_cell_setting 'monoclinic'
loop_
_space_group_symop_operation_xyz
x,y,z
-x,y,-z
1/2+x,1/2+y,z
1/2-x,1/2+y,-z
loop_
_atom_site_type_symbol
_atom_site_label
_atom_site_fract_x
_atom_site_fract_y
_atom_site_fract_z
Si Si1 0.016155 0.757150 0.402524
Si Si2 0.117909 0.909094 0.771281
Si Si3 0.314504 0.754110 0.939961
Si Si4 0.668373 0.753125 0.594292
Si Si5 0.283864 0.412702 0.756579
Si Si6 0.119765 0.601863 0.769169
Si Si7 0.825372 0.759129 0.916316
Si Si8 0.297302 0.096919 0.767096
O O1 0.938887 0.847669 0.329759
O O2 0.936930 0.668177 0.328271
O O3 0.000000 0.757514 0.500000
O O4 0.197120 0.753642 0.434789
O O5 0.235174 0.844506 0.866168
O O6 0.960800 0.925523 0.777922
O O7 0.203279 0.003546 0.765002
O O8 0.236770 0.663831 0.866192
O O9 0.500000 0.755267 0.000000
O O10 0.269405 0.752664 0.026120
O O11 0.500000 0.746066 0.500000
O O12 0.692843 0.850911 0.655487
O O13 0.705173 0.664498 0.669824
O O14 0.204078 0.510702 0.756768
O O15 0.279617 0.345168 0.839186
O O16 0.965788 0.577745 0.776977
O O17 0.819798 0.663017 0.858431
O O18 0.000000 0.776982 0.000000
#
# Coordination Sequence:
#
# PCOD9126073 Si02
#       8
#     4   4   4   4   4   4   4   4
#     4   9  20  40  61  80 114 150 183 233 283 333
#     4  10  22  40  57  85 117 146 190 234 280 333
#     4  11  24  39  57  84 116 150 192 234 276 333
#     4   9  20  40  59  83 114 148 185 229 286 337
#     4  10  22  38  60  84 115 150 187 234 279 335
#     4  10  22  40  57  85 117 146 190 234 280 333
#     4  11  20  41  59  78 116 156 186 227 287 329
#     4  10  22  38  60  84 115 150 187 234 279 335
#
# _framework density 17.179357
#
# number of rings (size 3 to 8) (size 9 to 14) (size 15 to 20)
#    0.000    2.000    2.500    1.500    3.500    5.000 
#    4.500    5.000    0.000    0.000    0.000    0.000 
#    0.000    0.000    0.000    0.000    0.000    0.000 
#
# Total GULP energy -89264.170720 kJ/mol
# GULP energy per Si atom -5579.010670 kJ/mol
# Density = 1.714026 g / cm^3
# Si number density = 17.179357 Si / 1000 Ang^3
#
#
#
# Elastic Constant Matrix: (Units=GPa)
#
#
# Indices 1 2 3 4 5 6 
#
# 1 117.4942 53.2743 68.9258 0.0000 -9.1816 0.0000
# 2 53.2743 114.6347 27.1842 0.0000 -7.8356 0.0000
# 3 68.9258 27.1842 104.3723 0.0000 -10.3069 0.0000
# 4 0.0000 0.0000 0.0000 1.4992 0.0000 -0.2109
# 5 -9.1816 -7.8356 -10.3069 0.0000 43.1483 0.0000
# 6 0.0000 0.0000 0.0000 -0.2109 0.0000 35.6048
#
#
#
# Elastic Compliance Matrix: (Units=1/GPa)
#
#
# Indices 1 2 3 4 5 6 
#
# 1 0.016566 -0.005427 -0.009499 0.000000 0.000270 0.000000
# 2 -0.005427 0.011131 0.000789 0.000000 0.001055 0.000000
# 3 -0.009499 0.000789 0.015837 0.000000 0.001905 0.000000
# 4 0.000000 0.000000 0.000000 0.667593 0.000000 0.003954
# 5 0.000270 0.001055 0.001905 0.000000 0.023880 0.000000
# 6 0.000000 0.000000 0.000000 0.003954 0.000000 0.028110
#
#
# Mechanical properties :
#
#
# Convention : Reuss Voigt Hill
#
# Bulk Modulus (GPa) = 65.53878 70.58553 68.06215
# Shear Modulus (GPa) = 6.27764 28.52492 17.40128
#
# Velocity S-wave (km/s) = 1.91366 4.07924 3.18609
# Velocity P-wave (km/s) = 6.56623 7.96012 7.29654
#
# Compressibility (1/GPa) = 0.01525814
#
# Stress axis : x y z
#
# Youngs Moduli (GPa) = 60.36534 89.84248 63.14366
#
# Poissons Ratio (x) = 0.48762 0.59983
# Poissons Ratio (y) = 0.32763 -0.04984
# Poissons Ratio (z) = 0.57344 -0.07092
#
# Static dielectric constant tensor:
#      x y z
#    x 1.542610 0.000000 0.009420 
#    y 0.000000 1.579200 0.000000 
#    z 0.009420 0.000000 1.556280 
# 
# From -- ./inp_files/50943.got.cif
#   From: 2010.05.17/outbox.cif.g08.bks.cpg/sg5_26_cif.got.tgz:50943.got - 2010.06.03 18:56:24.
