data_PCOD9126606
_publ_section_title
;
Structure prediction by ZEFSAII (Michael W. Deem and Ramdas Pophale) SiO2 
 PCOD9126606
Probable space group: C 2
;
_chemical_formula_sum "Si O2"
_cell_formula_units_Z 16
_cell_length_a 10.823709
_cell_length_b 9.770579
_cell_length_c 6.893693
_cell_angle_alpha 90.000000
_cell_angle_beta 97.725008
_cell_angle_gamma 90.000000
_cell_volume 722.418681
_symmetry_space_group_name_H-M "C 2"
_symmetry_group_IT_number 5
_symmetry_cell_setting 'monoclinic'
loop_
_space_group_symop_operation_xyz
x,y,z
-x,y,-z
1/2+x,1/2+y,z
1/2-x,1/2+y,-z
loop_
_atom_site_type_symbol
_atom_site_label
_atom_site_fract_x
_atom_site_fract_y
_atom_site_fract_z
Si Si1 0.360586 0.110280 0.917119
Si Si2 0.205727 0.000865 0.575970
Si Si3 0.184905 0.304917 0.129376
Si Si4 0.533809 0.562243 0.214783
O O1 0.264338 0.206790 0.008591
O O2 0.500000 0.152524 0.000000
O O3 0.319337 0.094819 0.681338
O O4 0.344983 0.950310 0.975979
O O5 0.156211 0.004229 0.347888
O O6 0.086375 0.047664 0.677158
O O7 0.239327 0.851388 0.663145
O O8 0.068207 0.219835 0.183310
O O9 0.500000 0.498397 0.000000
#
# Coordination Sequence:
#
# PCOD9126606 Si02
#       4
#     4   4   4   4
#     4  10  22  41  65 101 134 166 222 271 328 395
#     4   9  24  40  65 105 125 172 224 265 331 392
#     4  10  22  43  66  98 133 175 218 270 335 388
#     4  11  19  45  69  91 135 176 215 275 325 389
#
# _framework density 22.147821
#
# number of rings (size 3 to 8) (size 9 to 14) (size 15 to 20)
#    1.500    0.500    2.500    0.750    0.000    3.000 
#   18.000    0.000    0.000    0.000    0.000    0.000 
#    0.000    0.000    0.000    0.000    0.000    0.000 
#
# Total GULP energy -44558.696060 kJ/mol
# GULP energy per Si atom -5569.837008 kJ/mol
# Density = 2.209741 g / cm^3
# Si number density = 22.147821 Si / 1000 Ang^3
#
#
#
# Elastic Constant Matrix: (Units=GPa)
#
#
# Indices 1 2 3 4 5 6 
#
# 1 60.9969 1.4994 17.1337 0.0000 18.8469 0.0000
# 2 1.4994 83.5138 8.5997 0.0000 -1.6764 0.0000
# 3 17.1337 8.5997 142.6474 0.0000 51.5086 0.0000
# 4 0.0000 0.0000 0.0000 52.8701 0.0000 36.2916
# 5 18.8469 -1.6764 51.5086 0.0000 47.2955 0.0000
# 6 0.0000 0.0000 0.0000 36.2916 0.0000 72.3639
#
#
#
# Elastic Compliance Matrix: (Units=1/GPa)
#
#
# Indices 1 2 3 4 5 6 
#
# 1 0.018771 -0.000588 0.000807 0.000000 -0.008379 0.000000
# 2 -0.000588 0.012184 -0.001491 0.000000 0.002290 0.000000
# 3 0.000807 -0.001491 0.011765 0.000000 -0.013187 0.000000
# 4 0.000000 0.000000 0.000000 0.028844 0.000000 -0.014466
# 5 -0.008379 0.002290 -0.013187 0.000000 0.038926 0.000000
# 6 0.000000 0.000000 0.000000 -0.014466 0.000000 0.021074
#
#
# Mechanical properties :
#
#
# Convention : Reuss Voigt Hill
#
# Bulk Modulus (GPa) = 24.89068 37.95819 31.42444
# Shear Modulus (GPa) = 33.89805 51.83425 42.86615
#
# Velocity S-wave (km/s) = 3.91645 4.84299 4.40416
# Velocity P-wave (km/s) = 5.63154 6.96050 6.33099
#
# Compressibility (1/GPa) = 0.04017568
#
# Stress axis : x y z
#
# Youngs Moduli (GPa) = 53.27283 82.07423 84.99701
#
# Poissons Ratio (x) = 0.04828 -0.06855
# Poissons Ratio (y) = 0.03134 0.12670
# Poissons Ratio (z) = -0.04297 0.12235
#
# Static dielectric constant tensor:
#      x y z
#    x 1.699950 0.000000 0.014150 
#    y 0.000000 1.827980 0.000000 
#    z 0.014150 0.000000 1.879050 
# 
# From -- ./inp_files/4359.got.cif
#   From: 2010.05.17/outbox.cif.g08.bks.cpg/sg5_3_cif.got.tgz:4359.got - 2010.06.03 18:56:24.
