data_PCOD9126126
_publ_section_title
;
Structure prediction by ZEFSAII (Michael W. Deem and Ramdas Pophale) SiO2 
 PCOD9126126
Probable space group: C 2
;
_chemical_formula_sum "Si O2"
_cell_formula_units_Z 30
_cell_length_a 20.827904
_cell_length_b 6.883695
_cell_length_c 8.978264
_cell_angle_alpha 90.000000
_cell_angle_beta 62.511089
_cell_angle_gamma 90.000000
_cell_volume 1141.910923
_symmetry_space_group_name_H-M "C 2"
_symmetry_group_IT_number 5
_symmetry_cell_setting 'monoclinic'
loop_
_space_group_symop_operation_xyz
x,y,z
-x,y,-z
1/2+x,1/2+y,z
1/2-x,1/2+y,-z
loop_
_atom_site_type_symbol
_atom_site_label
_atom_site_fract_x
_atom_site_fract_y
_atom_site_fract_z
Si Si1 0.015736 0.743060 0.153075
Si Si2 0.148321 0.901100 0.190769
Si Si3 0.964157 0.276690 0.880185
Si Si4 0.344356 0.858415 0.710509
Si Si5 0.500000 0.785300 0.500000
Si Si6 0.752795 0.660090 0.379158
Si Si7 0.866262 0.848636 0.461064
Si Si8 0.810822 0.403895 0.049264
O O1 0.089284 0.845510 0.131257
O O2 0.020957 0.508768 0.156507
O O3 0.944541 0.821564 0.310007
O O4 0.000000 0.786643 0.000000
O O5 0.123315 0.818306 0.375702
O O6 0.231418 0.836842 0.083916
O O7 0.155966 0.133730 0.224182
O O8 0.987215 0.199826 0.686728
O O9 0.878093 0.263642 0.011412
O O10 0.000000 0.217335 0.000000
O O11 0.423272 0.888049 0.558620
O O12 0.277468 0.852744 0.670545
O O13 0.337474 0.989321 0.862948
O O14 0.808816 0.704868 0.447661
O O15 0.678815 0.551048 0.507621
O O16 0.795608 0.533912 0.209717
#
# Coordination Sequence:
#
# PCOD9126126 Si02
#       8
#     4   4   4   4   2   4   4   4
#     4  11  24  41  63  94 132 172 217 281 333 400
#     4  10  24  40  69  91 131 175 222 277 335 404
#     4  10  22  40  65  94 133 166 226 280 325 406
#     4   9  21  39  65  90 134 167 221 270 330 408
#     4  10  22  38  64 100 118 186 208 268 352 394
#     4  10  22  42  65  98 131 176 222 280 336 402
#     4  10  23  43  66  97 134 176 221 277 338 402
#     4   9  20  41  62  94 126 172 216 274 333 383
#
# _framework density 26.271750000000001
#
# number of rings (size 3 to 8) (size 9 to 14) (size 15 to 20)
#    0.000    2.400    0.000    2.000   11.200    3.200 
#    7.200    2.667    0.000    0.000    0.000    0.000 
#    0.000    0.000    0.000    0.000    0.000    0.000 
#
# Total GULP energy -83666.095457 kJ/mol
# GULP energy per Si atom -5577.739697 kJ/mol
# Density = 2.621195 g / cm^3
# Si number density = 26.271750 Si / 1000 Ang^3
#
#
#
# Elastic Constant Matrix: (Units=GPa)
#
#
# Indices 1 2 3 4 5 6 
#
# 1 197.0285 35.6738 61.6416 0.0000 12.8798 0.0000
# 2 35.6738 84.5955 14.7317 0.0000 9.2551 0.0000
# 3 61.6416 14.7317 150.3839 0.0000 -2.2283 0.0000
# 4 0.0000 0.0000 0.0000 12.9224 0.0000 8.1496
# 5 12.8798 9.2551 -2.2283 0.0000 61.2302 0.0000
# 6 0.0000 0.0000 0.0000 8.1496 0.0000 35.1315
#
#
#
# Elastic Compliance Matrix: (Units=1/GPa)
#
#
# Indices 1 2 3 4 5 6 
#
# 1 0.006274 -0.002112 -0.002381 0.000000 -0.001087 0.000000
# 2 -0.002112 0.012953 -0.000426 0.000000 -0.001529 0.000000
# 3 -0.002381 -0.000426 0.007680 0.000000 0.000845 0.000000
# 4 0.000000 0.000000 0.000000 0.090646 0.000000 -0.021027
# 5 -0.001087 -0.001529 0.000845 0.000000 0.016822 0.000000
# 6 0.000000 0.000000 0.000000 -0.021027 0.000000 0.033342
#
#
# Mechanical properties :
#
#
# Convention : Reuss Voigt Hill
#
# Bulk Modulus (GPa) = 58.58515 72.90026 65.74270
# Shear Modulus (GPa) = 27.28597 43.18753 35.23675
#
# Velocity S-wave (km/s) = 3.22624 4.05887 3.66627
# Velocity P-wave (km/s) = 6.01882 7.05512 6.55747
#
# Compressibility (1/GPa) = 0.01706917
#
# Stress axis : x y z
#
# Youngs Moduli (GPa) = 159.39499 77.20177 130.21269
#
# Poissons Ratio (x) = 0.16306 0.31001
# Poissons Ratio (y) = 0.33666 0.05545
# Poissons Ratio (z) = 0.37948 0.03287
#
# Static dielectric constant tensor:
#      x y z
#    x 2.064500 0.000000 -0.008170 
#    y 0.000000 2.268690 0.000000 
#    z -0.008170 0.000000 2.153290 
# 
# From -- ./inp_files/30673.got.cif
#   From: 2010.05.17/outbox.cif.g08.bks.cpg/sg5_16_cif.got.tgz:30673.got - 2010.06.03 18:56:24.
