data_PCOD9126805
_publ_section_title
;
Structure prediction by ZEFSAII (Michael W. Deem and Ramdas Pophale) SiO2 
 PCOD9126805
Probable space group: C 2
;
_chemical_formula_sum "Si O2"
_cell_formula_units_Z 22
_cell_length_a 12.155164
_cell_length_b 4.990866
_cell_length_c 15.904986
_cell_angle_alpha 90.000000
_cell_angle_beta 78.670616
_cell_angle_gamma 90.000000
_cell_volume 946.071239
_symmetry_space_group_name_H-M "C 2"
_symmetry_group_IT_number 5
_symmetry_cell_setting 'monoclinic'
loop_
_space_group_symop_operation_xyz
x,y,z
-x,y,-z
1/2+x,1/2+y,z
1/2-x,1/2+y,-z
loop_
_atom_site_type_symbol
_atom_site_label
_atom_site_fract_x
_atom_site_fract_y
_atom_site_fract_z
Si Si1 0.018153 0.564090 0.195040
Si Si2 0.841291 0.675002 0.664844
Si Si3 0.784049 0.450154 0.450535
Si Si4 0.000000 0.418097 0.500000
Si Si5 0.733928 0.143959 0.057669
Si Si6 0.630634 0.559515 0.796814
O O1 0.957824 0.282125 0.221470
O O2 0.076032 0.695439 0.268799
O O3 0.116368 0.536635 0.112135
O O4 0.927835 0.778283 0.178253
O O5 0.777981 0.922346 0.629145
O O6 0.916479 0.555990 0.579082
O O7 0.733925 0.517997 0.717375
O O8 0.786963 0.760823 0.474952
O O9 0.906076 0.312758 0.447700
O O10 0.816284 0.167820 0.124712
O O11 0.720180 0.428163 0.015112
#
# Coordination Sequence:
#
# PCOD9126805 Si02
#       6
#     4   4   4   2   4   4
#     4  11  25  44  66  94 133 171 206 262 322 375
#     4  10  24  42  64  94 128 169 220 266 317 379
#     4  10  23  40  61  90 122 161 213 268 321 376
#     4  10  22  42  66  92 126 170 218 274 320 366
#     4  11  24  43  69 101 130 163 213 260 310 384
#     4  11  25  43  65  95 132 172 211 258 320 382
#
# _framework density 23.254061
#
# number of rings (size 3 to 8) (size 9 to 14) (size 15 to 20)
#    0.000    1.455    0.000    3.273    0.000   24.727 
#    0.000    0.000    0.000    0.000    0.000    0.000 
#    0.000    0.000    0.000    0.000    0.000    0.000 
#
# Total GULP energy -61341.640066 kJ/mol
# GULP energy per Si atom -5576.512733 kJ/mol
# Density = 2.320113 g / cm^3
# Si number density = 23.254061 Si / 1000 Ang^3
#
#
#
# Elastic Constant Matrix: (Units=GPa)
#
#
# Indices 1 2 3 4 5 6 
#
# 1 107.2536 19.0422 27.8028 0.0000 -3.3122 0.0000
# 2 19.0422 88.6028 11.4692 0.0000 2.6048 0.0000
# 3 27.8028 11.4692 96.0791 0.0000 -2.7038 0.0000
# 4 0.0000 0.0000 0.0000 20.6021 0.0000 4.0487
# 5 -3.3122 2.6048 -2.7038 0.0000 23.3835 0.0000
# 6 0.0000 0.0000 0.0000 4.0487 0.0000 26.4693
#
#
#
# Elastic Compliance Matrix: (Units=1/GPa)
#
#
# Indices 1 2 3 4 5 6 
#
# 1 0.010420 -0.001924 -0.002747 0.000000 0.001373 0.000000
# 2 -0.001924 0.011867 -0.000908 0.000000 -0.001699 0.000000
# 3 -0.002747 -0.000908 0.011340 0.000000 0.001023 0.000000
# 4 0.000000 0.000000 0.000000 0.050043 0.000000 -0.007655
# 5 0.001373 -0.001699 0.001023 0.000000 0.043267 0.000000
# 6 0.000000 0.000000 0.000000 -0.007655 0.000000 0.038950
#
#
# Mechanical properties :
#
#
# Convention : Reuss Voigt Hill
#
# Bulk Modulus (GPa) = 44.50422 45.39601 44.95011
# Shear Modulus (GPa) = 27.09510 29.66574 28.38042
#
# Velocity S-wave (km/s) = 3.41717 3.57560 3.49728
# Velocity P-wave (km/s) = 5.89485 6.05068 5.97327
#
# Compressibility (1/GPa) = 0.02246978
#
# Stress axis : x y z
#
# Youngs Moduli (GPa) = 95.97139 84.26510 88.18256
#
# Poissons Ratio (x) = 0.16214 0.24223
# Poissons Ratio (y) = 0.18466 0.08004
# Poissons Ratio (z) = 0.26362 0.07648
#
# Static dielectric constant tensor:
#      x y z
#    x 1.930170 0.000000 0.041800 
#    y 0.000000 1.851430 0.000000 
#    z 0.041800 0.000000 1.896620 
# 
# From -- ./inp_files/51851.got.cif
#   From: 2010.05.17/outbox.cif.g08.bks.cpg/sg5_26_cif.got.tgz:51851.got - 2010.06.03 18:56:24.
