data_PCOD9126629
_publ_section_title
;
Structure prediction by ZEFSAII (Michael W. Deem and Ramdas Pophale) SiO2 
 PCOD9126629
Probable space group: C 2
;
_chemical_formula_sum "Si O2"
_cell_formula_units_Z 30
_cell_length_a 9.190607
_cell_length_b 28.789091
_cell_length_c 5.440077
_cell_angle_alpha 90.000000
_cell_angle_beta 105.203897
_cell_angle_gamma 90.000000
_cell_volume 1389.005307
_symmetry_space_group_name_H-M "C 2"
_symmetry_group_IT_number 5
_symmetry_cell_setting 'monoclinic'
loop_
_space_group_symop_operation_xyz
x,y,z
-x,y,-z
1/2+x,1/2+y,z
1/2-x,1/2+y,-z
loop_
_atom_site_type_symbol
_atom_site_label
_atom_site_fract_x
_atom_site_fract_y
_atom_site_fract_z
Si Si1 0.597537 0.014600 0.293741
Si Si2 0.660532 0.586828 0.718412
Si Si3 0.399020 0.687303 0.205083
Si Si4 0.657997 0.888408 0.935784
Si Si5 0.403890 0.787542 0.211299
Si Si6 0.309787 0.448288 0.623410
Si Si7 0.032835 0.859774 0.751842
Si Si8 0.500000 0.521984 0.000000
O O1 0.500000 0.013513 0.500000
O O2 0.702549 0.060616 0.350505
O O3 0.714615 0.970838 0.360368
O O4 0.500000 0.014215 0.000000
O O5 0.500000 0.586376 0.500000
O O6 0.693359 0.639769 0.808710
O O7 0.624644 0.554947 0.937149
O O8 0.500000 0.688059 0.500000
O O9 0.319085 0.737916 0.155781
O O10 0.500000 0.683212 0.000000
O O11 0.663358 0.838947 0.795173
O O12 0.688401 0.931088 0.770532
O O13 0.500000 0.892778 0.000000
O O14 0.799236 0.880092 0.176161
O O15 0.500000 0.783392 0.500000
O O16 0.500000 0.789598 0.000000
O O17 0.420123 0.403677 0.678027
O O18 0.418313 0.488979 0.768339
O O19 0.000000 0.829092 0.500000
O O20 0.000000 0.837786 0.000000
#
# Coordination Sequence:
#
# PCOD9126629 Si02
#       8
#     4   4   4   4   4   4   4   2
#     4  12  29  46  63  95 139 177 219 274 334 399
#     4  11  23  39  70  95 128 169 228 272 327 392
#     4   9  18  35  61  99 126 159 210 275 325 383
#     4  10  22  41  66  96 126 173 215 270 329 387
#     4   9  19  36  60  92 133 161 204 271 332 382
#     4  11  24  42  62  89 130 177 219 264 317 385
#     4  10  23  40  59  84 118 164 208 263 305 368
#     4  12  20  40  64  96 126 168 226 276 320 372
#
# _framework density 21.598189999999999
#
# number of rings (size 3 to 8) (size 9 to 14) (size 15 to 20)
#    0.000    1.600    4.000    0.800    1.867    9.600 
#    0.000    0.667    0.000    2.400    0.000    6.533 
#    0.000    0.000    0.000    0.000    0.000    0.000 
#
# Total GULP energy -83663.027866 kJ/mol
# GULP energy per Si atom -5577.535191 kJ/mol
# Density = 2.154903 g / cm^3
# Si number density = 21.598190 Si / 1000 Ang^3
#
#
#
# Elastic Constant Matrix: (Units=GPa)
#
#
# Indices 1 2 3 4 5 6 
#
# 1 95.9669 14.2969 29.2296 0.0000 3.3067 0.0000
# 2 14.2969 103.8170 13.7381 0.0000 4.7144 0.0000
# 3 29.2296 13.7381 132.7597 0.0000 3.9087 0.0000
# 4 0.0000 0.0000 0.0000 21.2416 0.0000 -15.6870
# 5 3.3067 4.7144 3.9087 0.0000 32.6656 0.0000
# 6 0.0000 0.0000 0.0000 -15.6870 0.0000 -21.5381
#
#
#
# Elastic Compliance Matrix: (Units=1/GPa)
#
#
# Indices 1 2 3 4 5 6 
#
# 1 0.011342 -0.001219 -0.002351 0.000000 -0.000691 0.000000
# 2 -0.001219 0.009952 -0.000725 0.000000 -0.001226 0.000000
# 3 -0.002351 -0.000725 0.008144 0.000000 -0.000632 0.000000
# 4 0.000000 0.000000 0.000000 0.030612 0.000000 -0.022296
# 5 -0.000691 -0.001226 -0.000632 0.000000 0.030936 0.000000
# 6 0.000000 0.000000 0.000000 -0.022296 0.000000 -0.030190
#
#
# Mechanical properties :
#
#
# Convention : Reuss Voigt Hill
#
# Bulk Modulus (GPa) = 47.96941 49.67477 48.82209
# Shear Modulus (GPa) = 65.50177 24.82574 45.16375
#
# Velocity S-wave (km/s) = 5.51301 3.39401 4.57780
# Velocity P-wave (km/s) = 7.92354 6.19746 7.11305
#
# Compressibility (1/GPa) = 0.02084662
#
# Stress axis : x y z
#
# Youngs Moduli (GPa) = 88.17043 100.48314 122.79617
#
# Poissons Ratio (x) = 0.12254 0.28864
# Poissons Ratio (y) = 0.10752 0.08906
# Poissons Ratio (z) = 0.20725 0.07287
#
# Static dielectric constant tensor:
#      x y z
#    x 1.851220 0.000000 -0.036150 
#    y 0.000000 1.811130 0.000000 
#    z -0.036150 0.000000 1.918880 
# 
# From -- ./inp_files/3977.got.cif
#   From: 2010.05.17/outbox.cif.g08.bks.cpg/sg5_2_cif.got.tgz:3977.got - 2010.06.03 18:56:24.
