data_PCOD9126399
_publ_section_title
;
Structure prediction by ZEFSAII (Michael W. Deem and Ramdas Pophale) SiO2 
 PCOD9126399
Probable space group: C 2
;
_chemical_formula_sum "Si O2"
_cell_formula_units_Z 26
_cell_length_a 10.468259
_cell_length_b 9.082625
_cell_length_c 12.188857
_cell_angle_alpha 90.000000
_cell_angle_beta 103.842740
_cell_angle_gamma 90.000000
_cell_volume 1125.248410
_symmetry_space_group_name_H-M "C 2"
_symmetry_group_IT_number 5
_symmetry_cell_setting 'monoclinic'
loop_
_space_group_symop_operation_xyz
x,y,z
-x,y,-z
1/2+x,1/2+y,z
1/2-x,1/2+y,-z
loop_
_atom_site_type_symbol
_atom_site_label
_atom_site_fract_x
_atom_site_fract_y
_atom_site_fract_z
Si Si1 0.000000 0.732641 0.500000
Si Si2 0.069058 0.832180 0.752040
Si Si3 0.633643 0.753276 0.584422
Si Si4 0.874419 0.818117 0.895707
Si Si5 0.330928 0.640965 0.807516
Si Si6 0.762767 0.042256 0.552483
Si Si7 0.112659 0.170967 0.827648
O O1 0.970026 0.823360 0.383418
O O2 0.876457 0.623524 0.484382
O O3 0.200883 0.736768 0.798372
O O4 0.942570 0.773071 0.794083
O O5 0.100645 0.996369 0.801910
O O6 0.500000 0.800673 0.500000
O O7 0.664697 0.593606 0.541618
O O8 0.620631 0.751288 0.711334
O O9 0.738847 0.871097 0.564052
O O10 0.751700 0.718620 0.908015
O O11 0.825465 0.986202 0.870467
O O12 0.000000 0.815104 0.000000
O O13 0.331613 0.602998 0.676712
O O14 0.474950 0.711259 0.857855
#
# Coordination Sequence:
#
# PCOD9126399 Si02
#       7
#     2   4   4   4   4   4   4
#     4  10  22  40  64  94 142 170 214 262 322 398
#     4  10  25  43  66 101 135 177 218 271 333 396
#     4  12  24  37  61  96 136 178 214 260 326 402
#     4  11  25  47  70  94 130 175 226 282 333 388
#     4  10  23  44  65  97 130 170 219 275 333 390
#     4  11  23  38  60  93 135 177 215 256 323 391
#     4  11  24  41  66  96 133 172 224 274 331 393
#
# _framework density 23.106010000000001
#
# number of rings (size 3 to 8) (size 9 to 14) (size 15 to 20)
#    0.000    1.231    3.846    0.923    7.538    3.692 
#    0.000    0.769    0.000    0.000    0.000    0.000 
#    0.000    0.000    0.000    0.000    0.000    0.000 
#
# Total GULP energy -72717.390048 kJ/mol
# GULP energy per Si atom -5593.645388 kJ/mol
# Density = 2.305342 g / cm^3
# Si number density = 23.106010 Si / 1000 Ang^3
#
#
#
# Elastic Constant Matrix: (Units=GPa)
#
#
# Indices 1 2 3 4 5 6 
#
# 1 142.6388 53.3350 18.4520 0.0000 42.2893 0.0000
# 2 53.3350 70.3116 8.1200 0.0000 14.6304 0.0000
# 3 18.4520 8.1200 89.0260 0.0000 25.3391 0.0000
# 4 0.0000 0.0000 0.0000 19.0995 0.0000 12.0573
# 5 42.2893 14.6304 25.3391 0.0000 44.5405 0.0000
# 6 0.0000 0.0000 0.0000 12.0573 0.0000 33.0498
#
#
#
# Elastic Compliance Matrix: (Units=1/GPa)
#
#
# Indices 1 2 3 4 5 6 
#
# 1 0.012766 -0.007684 0.000938 0.000000 -0.010131 0.000000
# 2 -0.007684 0.019891 -0.000523 0.000000 0.001060 0.000000
# 3 0.000938 -0.000523 0.013472 0.000000 -0.008383 0.000000
# 4 0.000000 0.000000 0.000000 0.068024 0.000000 -0.024817
# 5 -0.010131 0.001060 -0.008383 0.000000 0.036491 0.000000
# 6 0.000000 0.000000 0.000000 -0.024817 0.000000 0.039311
#
#
# Mechanical properties :
#
#
# Convention : Reuss Voigt Hill
#
# Bulk Modulus (GPa) = 31.65441 51.31004 41.48223
# Shear Modulus (GPa) = 23.25323 34.14259 28.69791
#
# Velocity S-wave (km/s) = 3.17578 3.84819 3.52804
# Velocity P-wave (km/s) = 5.21314 6.48069 5.88116
#
# Compressibility (1/GPa) = 0.03159117
#
# Stress axis : x y z
#
# Youngs Moduli (GPa) = 78.33279 50.27374 74.22806
#
# Poissons Ratio (x) = 0.38631 -0.06965
# Poissons Ratio (y) = 0.60192 0.03884
# Poissons Ratio (z) = -0.07350 0.02630
#
# Static dielectric constant tensor:
#      x y z
#    x 1.900020 0.000000 -0.003340 
#    y 0.000000 1.833340 0.000000 
#    z -0.003340 0.000000 1.909010 
# 
# From -- ./inp_files/52347.got.cif
#   From: 2010.05.17/outbox.cif.g08.bks.cpg/sg5_27_cif.got.tgz:52347.got - 2010.06.03 18:56:24.
