data_PCOD9126908
_publ_section_title
;
Structure prediction by ZEFSAII (Michael W. Deem and Ramdas Pophale) SiO2 
 PCOD9126908
Probable space group: C 2
;
_chemical_formula_sum "Si O2"
_cell_formula_units_Z 16
_cell_length_a 9.411026
_cell_length_b 17.040590
_cell_length_c 4.770838
_cell_angle_alpha 90.000000
_cell_angle_beta 119.126000
_cell_angle_gamma 90.000000
_cell_volume 668.351235
_symmetry_space_group_name_H-M "C 2"
_symmetry_group_IT_number 5
_symmetry_cell_setting 'monoclinic'
loop_
_space_group_symop_operation_xyz
x,y,z
-x,y,-z
1/2+x,1/2+y,z
1/2-x,1/2+y,-z
loop_
_atom_site_type_symbol
_atom_site_label
_atom_site_fract_x
_atom_site_fract_y
_atom_site_fract_z
Si Si1 0.607889 0.278700 0.339411
Si Si2 0.110235 0.162303 0.371503
Si Si3 0.813812 0.421263 0.380743
Si Si4 0.686334 0.029160 0.125262
O O1 0.500000 0.303663 0.500000
O O2 0.746992 0.220524 0.583349
O O3 0.689766 0.350120 0.246409
O O4 0.500000 0.236140 0.000000
O O5 0.190457 0.091015 0.623742
O O6 0.000000 0.204508 0.500000
O O7 0.000000 0.140167 0.000000
O O8 0.800198 0.449310 0.686012
O O9 0.000000 0.398212 0.500000
O O10 0.784133 0.498950 0.161396
O O11 0.500000 0.055321 0.000000
#
# Coordination Sequence:
#
# PCOD9126908 Si02
#       4
#     4   4   4   4
#     4  12  26  44  69 101 140 182 229 284 341 408
#     4  12  26  44  69 101 140 182 229 284 341 408
#     4  10  22  42  69  99 135 178 223 276 339 406
#     4  10  22  42  69  99 135 178 223 276 339 406
#
# _framework density 23.939509000000001
#
# number of rings (size 3 to 8) (size 9 to 14) (size 15 to 20)
#    0.000    1.000    0.000    6.000    0.000   10.000 
#    0.000    0.000    0.000    0.000    0.000    0.000 
#    0.000    0.000    0.000    0.000    0.000    0.000 
#
# Total GULP energy -44744.923996 kJ/mol
# GULP energy per Si atom -5593.115500 kJ/mol
# Density = 2.388502 g / cm^3
# Si number density = 23.939509 Si / 1000 Ang^3
#
#
#
# Elastic Constant Matrix: (Units=GPa)
#
#
# Indices 1 2 3 4 5 6 
#
# 1 117.4689 35.4514 39.1275 0.0000 1.8614 0.0000
# 2 35.4514 83.1168 34.2836 0.0000 24.4234 0.0000
# 3 39.1275 34.2836 150.0303 0.0000 13.4592 0.0000
# 4 0.0000 0.0000 0.0000 30.8137 0.0000 10.2822
# 5 1.8614 24.4234 13.4592 0.0000 39.1149 0.0000
# 6 0.0000 0.0000 0.0000 10.2822 0.0000 16.1343
#
#
#
# Elastic Compliance Matrix: (Units=1/GPa)
#
#
# Indices 1 2 3 4 5 6 
#
# 1 0.010494 -0.004552 -0.001968 0.000000 0.003020 0.000000
# 2 -0.004552 0.017782 -0.001960 0.000000 -0.010212 0.000000
# 3 -0.001968 -0.001960 0.007747 0.000000 -0.001348 0.000000
# 4 0.000000 0.000000 0.000000 0.041218 0.000000 -0.026268
# 5 0.003020 -0.010212 -0.001348 0.000000 0.032262 0.000000
# 6 0.000000 0.000000 0.000000 -0.026268 0.000000 0.078720
#
#
# Mechanical properties :
#
#
# Convention : Reuss Voigt Hill
#
# Bulk Modulus (GPa) = 52.45401 63.14900 57.80150
# Shear Modulus (GPa) = 23.63645 33.32951 28.48298
#
# Velocity S-wave (km/s) = 3.14561 3.73532 3.45307
# Velocity P-wave (km/s) = 5.92889 6.71113 6.33210
#
# Compressibility (1/GPa) = 0.01906432
#
# Stress axis : x y z
#
# Youngs Moduli (GPa) = 95.29147 56.23684 129.07655
#
# Poissons Ratio (x) = 0.25598 0.25397
# Poissons Ratio (y) = 0.43374 0.25301
# Poissons Ratio (z) = 0.18750 0.11023
#
# Static dielectric constant tensor:
#      x y z
#    x 1.908280 0.000000 0.059810 
#    y 0.000000 1.852660 0.000000 
#    z 0.059810 0.000000 1.893900 
# 
# From -- ./inp_files/3119.got.cif
#   From: 2010.05.17/outbox.cif.g08.bks.cpg/sg5_2_cif.got.tgz:3119.got - 2010.06.03 18:56:24.
