data_PCOD9126440
_publ_section_title
;
Structure prediction by ZEFSAII (Michael W. Deem and Ramdas Pophale) SiO2 
 PCOD9126440
Probable space group: C 2
;
_chemical_formula_sum "Si O2"
_cell_formula_units_Z 30
_cell_length_a 17.756724
_cell_length_b 5.240475
_cell_length_c 12.506733
_cell_angle_alpha 90.000000
_cell_angle_beta 94.529752
_cell_angle_gamma 90.000000
_cell_volume 1160.162213
_symmetry_space_group_name_H-M "C 2"
_symmetry_group_IT_number 5
_symmetry_cell_setting 'monoclinic'
loop_
_space_group_symop_operation_xyz
x,y,z
-x,y,-z
1/2+x,1/2+y,z
1/2-x,1/2+y,-z
loop_
_atom_site_type_symbol
_atom_site_label
_atom_site_fract_x
_atom_site_fract_y
_atom_site_fract_z
Si Si1 0.442726 0.094460 0.345834
Si Si2 0.088792 0.875633 0.858744
Si Si3 0.500000 0.066672 0.000000
Si Si4 0.460519 0.733970 0.787880
Si Si5 0.908973 0.769769 0.558612
Si Si6 0.785969 0.065242 0.459406
Si Si7 0.184492 0.495145 0.267191
Si Si8 0.736413 0.671646 0.931816
O O1 0.393816 0.196529 0.241225
O O2 0.404446 0.073316 0.457217
O O3 0.507043 0.296750 0.389142
O O4 0.491017 0.861849 0.302926
O O5 0.151686 0.090509 0.884463
O O6 0.071958 0.724560 0.965290
O O7 0.004791 0.980412 0.823196
O O8 0.473639 0.904048 0.895463
O O9 0.370993 0.752105 0.755207
O O10 0.870867 0.019710 0.505871
O O11 0.863892 0.665342 0.655842
O O12 0.742430 0.848891 0.523827
O O13 0.763474 0.970666 0.339081
O O14 0.206663 0.624255 0.159411
O O15 0.742571 0.957474 0.976853
#
# Coordination Sequence:
#
# PCOD9126440 Si02
#       8
#     4   4   2   4   4   4   4   4
#     4   9  20  40  65  98 138 172 230 293 354 413
#     4  11  24  41  70 105 136 188 239 305 357 429
#     4  10  22  40  70  98 138 182 240 302 354 426
#     4  10  22  40  69  96 138 176 241 292 358 419
#     4   9  19  42  66  96 134 183 227 283 353 428
#     4  10  22  40  66  96 135 176 228 275 338 415
#     4  10  23  45  69 102 138 193 238 293 356 442
#     4  12  30  49  73 104 150 190 239 301 374 432
#
# _framework density 25.858453000000001
#
# number of rings (size 3 to 8) (size 9 to 14) (size 15 to 20)
#    0.000    1.867    0.000    2.000    9.333    2.133 
#   14.400    1.333    0.000    0.000    0.000    0.000 
#    0.000    0.000    0.000    0.000    0.000    0.000 
#
# Total GULP energy -83822.640545 kJ/mol
# GULP energy per Si atom -5588.176036 kJ/mol
# Density = 2.579960 g / cm^3
# Si number density = 25.858453 Si / 1000 Ang^3
#
#
#
# Elastic Constant Matrix: (Units=GPa)
#
#
# Indices 1 2 3 4 5 6 
#
# 1 67.1195 19.6644 39.7579 0.0000 -9.3078 0.0000
# 2 19.6644 57.2494 17.6441 0.0000 -6.0626 0.0000
# 3 39.7579 17.6441 144.3042 0.0000 -21.2791 0.0000
# 4 0.0000 0.0000 0.0000 21.0122 0.0000 8.0375
# 5 -9.3078 -6.0626 -21.2791 0.0000 49.2418 0.0000
# 6 0.0000 0.0000 0.0000 8.0375 0.0000 27.3841
#
#
#
# Elastic Compliance Matrix: (Units=1/GPa)
#
#
# Indices 1 2 3 4 5 6 
#
# 1 0.019212 -0.005096 -0.004515 0.000000 0.001053 0.000000
# 2 -0.005096 0.019589 -0.000830 0.000000 0.001090 0.000000
# 3 -0.004515 -0.000830 0.008688 0.000000 0.002799 0.000000
# 4 0.000000 0.000000 0.000000 0.053610 0.000000 -0.015735
# 5 0.001053 0.001090 0.002799 0.000000 0.021851 0.000000
# 6 0.000000 0.000000 0.000000 -0.015735 0.000000 0.041136
#
#
# Mechanical properties :
#
#
# Convention : Reuss Voigt Hill
#
# Bulk Modulus (GPa) = 37.58476 46.97841 42.28158
# Shear Modulus (GPa) = 25.79475 32.30140 29.04808
#
# Velocity S-wave (km/s) = 3.16181 3.53818 3.35528
# Velocity P-wave (km/s) = 5.28164 5.90751 5.60332
#
# Compressibility (1/GPa) = 0.02660653
#
# Stress axis : x y z
#
# Youngs Moduli (GPa) = 52.05016 51.04851 115.10199
#
# Poissons Ratio (x) = 0.26015 0.51967
# Poissons Ratio (y) = 0.26526 0.09558
# Poissons Ratio (z) = 0.23500 0.04239
#
# Static dielectric constant tensor:
#      x y z
#    x 2.157690 0.000000 -0.012950 
#    y 0.000000 2.042370 0.000000 
#    z -0.012950 0.000000 2.085280 
# 
# From -- ./inp_files/45677.got.cif
#   From: 2010.05.17/outbox.cif.g08.bks.cpg/sg5_23_cif.got.tgz:45677.got - 2010.06.03 18:56:24.
