data_PCOD9126100
_publ_section_title
;
Structure prediction by ZEFSAII (Michael W. Deem and Ramdas Pophale) SiO2 
 PCOD9126100
Probable space group: C 2
;
_chemical_formula_sum "Si O2"
_cell_formula_units_Z 30
_cell_length_a 18.323833
_cell_length_b 8.000058
_cell_length_c 11.035522
_cell_angle_alpha 90.000000
_cell_angle_beta 116.650534
_cell_angle_gamma 90.000000
_cell_volume 1445.848392
_symmetry_space_group_name_H-M "C 2"
_symmetry_group_IT_number 5
_symmetry_cell_setting 'monoclinic'
loop_
_space_group_symop_operation_xyz
x,y,z
-x,y,-z
1/2+x,1/2+y,z
1/2-x,1/2+y,-z
loop_
_atom_site_type_symbol
_atom_site_label
_atom_site_fract_x
_atom_site_fract_y
_atom_site_fract_z
Si Si1 0.130450 0.764820 0.196214
Si Si2 0.952033 0.311367 0.584053
Si Si3 0.708275 0.602027 0.293177
Si Si4 0.960585 0.250277 0.849174
Si Si5 0.500000 0.074971 0.000000
Si Si6 0.980915 0.704378 0.662898
Si Si7 0.132997 0.806155 0.641257
Si Si8 0.793017 0.118692 0.424630
O O1 0.057127 0.768200 0.239806
O O2 0.203327 0.663854 0.312887
O O3 0.170753 0.941614 0.199350
O O4 0.083229 0.677538 0.051529
O O5 0.978712 0.204785 0.723215
O O6 0.969665 0.506342 0.624457
O O7 0.857005 0.271920 0.485489
O O8 0.000000 0.260834 0.500000
O O9 0.637326 0.739345 0.219964
O O10 0.793649 0.672844 0.312452
O O11 0.712894 0.556257 0.440138
O O12 0.988822 0.441600 0.884209
O O13 0.000000 0.167424 0.000000
O O14 0.923970 0.786404 0.518579
O O15 0.073116 0.765418 0.707687
O O16 0.171679 0.987439 0.645958
#
# Coordination Sequence:
#
# PCOD9126100 Si02
#       8
#     4   4   4   4   2   4   4   4
#     4  12  23  38  65  92 123 165 223 262 308 390
#     4  11  22  37  66  95 127 162 216 266 321 375
#     4  11  21  37  64  92 123 163 217 264 315 379
#     4   9  21  40  62  88 127 171 211 255 323 381
#     4  10  22  38  62  86 126 168 214 254 318 374
#     4  11  21  37  58  88 133 161 195 266 330 368
#     4  11  22  35  56  91 130 163 193 260 340 366
#     4  11  23  36  62  94 129 158 213 270 323 368
#
# _framework density 20.749061000000001
#
# number of rings (size 3 to 8) (size 9 to 14) (size 15 to 20)
#    0.400    0.800    5.333    1.600    4.667    0.000 
#    0.000    0.000    2.933    0.000    0.000    0.000 
#    0.000    0.000    0.000    0.000    0.000    0.000 
#
# Total GULP energy -83588.600121 kJ/mol
# GULP energy per Si atom -5572.573341 kJ/mol
# Density = 2.070184 g / cm^3
# Si number density = 20.749061 Si / 1000 Ang^3
#
#
#
# Elastic Constant Matrix: (Units=GPa)
#
#
# Indices 1 2 3 4 5 6 
#
# 1 136.4886 31.4115 39.4151 0.0000 14.0229 0.0000
# 2 31.4115 69.9235 22.3692 0.0000 14.1106 0.0000
# 3 39.4151 22.3692 89.4200 0.0000 20.9980 0.0000
# 4 0.0000 0.0000 0.0000 24.5398 0.0000 15.1183
# 5 14.0229 14.1106 20.9980 0.0000 31.2732 0.0000
# 6 0.0000 0.0000 0.0000 15.1183 0.0000 28.4783
#
#
#
# Elastic Compliance Matrix: (Units=1/GPa)
#
#
# Indices 1 2 3 4 5 6 
#
# 1 0.008947 -0.002909 -0.003066 0.000000 -0.000641 0.000000
# 2 -0.002909 0.017246 -0.001794 0.000000 -0.005273 0.000000
# 3 -0.003066 -0.001794 0.014805 0.000000 -0.007756 0.000000
# 4 0.000000 0.000000 0.000000 0.060555 0.000000 -0.032147
# 5 -0.000641 -0.005273 -0.007756 0.000000 0.039851 0.000000
# 6 0.000000 0.000000 0.000000 -0.032147 0.000000 0.052180
#
#
# Mechanical properties :
#
#
# Convention : Reuss Voigt Hill
#
# Bulk Modulus (GPa) = 39.27619 53.58044 46.42831
# Shear Modulus (GPa) = 22.97712 30.36734 26.67223
#
# Velocity S-wave (km/s) = 3.33134 3.82979 3.58923
# Velocity P-wave (km/s) = 5.81097 6.74059 6.29297
#
# Compressibility (1/GPa) = 0.02546072
#
# Stress axis : x y z
#
# Youngs Moduli (GPa) = 111.76578 57.98401 67.54688
#
# Poissons Ratio (x) = 0.16869 0.20707
# Poissons Ratio (y) = 0.32516 0.12116
# Poissons Ratio (z) = 0.34262 0.10401
#
# Static dielectric constant tensor:
#      x y z
#    x 1.742500 0.000000 -0.022540 
#    y 0.000000 1.844760 0.000000 
#    z -0.022540 0.000000 1.785280 
# 
# From -- ./inp_files/44332.got.cif
#   From: 2010.05.17/outbox.cif.g08.bks.cpg/sg5_23_cif.got.tgz:44332.got - 2010.06.03 18:56:24.
