data_PCOD9126914
_publ_section_title
;
Structure prediction by ZEFSAII (Michael W. Deem and Ramdas Pophale) SiO2 
 PCOD9126914
Probable space group: C 2
;
_chemical_formula_sum "Si O2"
_cell_formula_units_Z 22
_cell_length_a 24.417179
_cell_length_b 7.881933
_cell_length_c 8.332422
_cell_angle_alpha 90.000000
_cell_angle_beta 145.797676
_cell_angle_gamma 90.000000
_cell_volume 901.417831
_symmetry_space_group_name_H-M "C 2"
_symmetry_group_IT_number 5
_symmetry_cell_setting 'monoclinic'
loop_
_space_group_symop_operation_xyz
x,y,z
-x,y,-z
1/2+x,1/2+y,z
1/2-x,1/2+y,-z
loop_
_atom_site_type_symbol
_atom_site_label
_atom_site_fract_x
_atom_site_fract_y
_atom_site_fract_z
Si Si1 0.680587 0.883380 0.253206
Si Si2 0.711523 0.415321 0.931275
Si Si3 0.539623 0.185657 0.412272
Si Si4 0.615445 0.754732 0.774894
Si Si5 0.500000 0.954832 0.000000
Si Si6 0.658256 0.283555 0.139601
O O1 0.788601 0.852862 0.576256
O O2 0.670517 0.079138 0.173548
O O3 0.653442 0.754328 0.048060
O O4 0.597622 0.858147 0.186381
O O5 0.643786 0.276274 0.678055
O O6 0.656287 0.592519 0.781226
O O7 0.823448 0.412180 0.148301
O O8 0.709840 0.361943 0.111515
O O9 0.500000 0.138102 0.500000
O O10 0.530629 0.057415 0.238229
O O11 0.455639 0.320785 0.157495
O O12 0.500000 0.764456 0.500000
#
# Coordination Sequence:
#
# PCOD9126914 Si02
#       6
#     4   4   4   4   2   4
#     4  11  25  43  70 108 148 193 246 314 371 448
#     4  11  25  46  76 108 149 198 247 307 380 445
#     4   9  21  43  73 108 145 196 245 301 376 444
#     4  12  28  48  76 111 148 198 253 309 377 450
#     4  10  24  42  72 110 148 196 246 306 386 434
#     4  10  22  42  70 106 148 191 247 307 373 442
#
# _framework density 24.405994
#
# number of rings (size 3 to 8) (size 9 to 14) (size 15 to 20)
#    0.000    1.455    0.000    3.818   10.182    7.273 
#    0.000    0.909    0.000    0.000    0.000    0.000 
#    0.000    0.000    0.000    0.000    0.000    0.000 
#
# Total GULP energy -61484.006023 kJ/mol
# GULP energy per Si atom -5589.455093 kJ/mol
# Density = 2.435044 g / cm^3
# Si number density = 24.405994 Si / 1000 Ang^3
#
#
#
# Elastic Constant Matrix: (Units=GPa)
#
#
# Indices 1 2 3 4 5 6 
#
# 1 105.7604 11.3515 30.1464 0.0000 21.4013 0.0000
# 2 11.3515 84.3398 23.7380 0.0000 17.2567 0.0000
# 3 30.1464 23.7380 157.6172 0.0000 2.9239 0.0000
# 4 0.0000 0.0000 0.0000 29.1858 0.0000 -6.8124
# 5 21.4013 17.2567 2.9239 0.0000 50.0821 0.0000
# 6 0.0000 0.0000 0.0000 -6.8124 0.0000 28.4803
#
#
#
# Elastic Compliance Matrix: (Units=1/GPa)
#
#
# Indices 1 2 3 4 5 6 
#
# 1 0.010952 0.000028 -0.002014 0.000000 -0.004572 0.000000
# 2 0.000028 0.013314 -0.001927 0.000000 -0.004487 0.000000
# 3 -0.002014 -0.001927 0.006999 0.000000 0.001116 0.000000
# 4 0.000000 0.000000 0.000000 0.036289 0.000000 0.008680
# 5 -0.004572 -0.004487 0.001116 0.000000 0.023402 0.000000
# 6 0.000000 0.000000 0.000000 0.008680 0.000000 0.037188
#
#
# Mechanical properties :
#
#
# Convention : Reuss Voigt Hill
#
# Bulk Modulus (GPa) = 42.66512 53.13213 47.89863
# Shear Modulus (GPa) = 34.77470 40.38174 37.57822
#
# Velocity S-wave (km/s) = 3.77880 4.07207 3.92817
# Velocity P-wave (km/s) = 6.04636 6.62770 6.34369
#
# Compressibility (1/GPa) = 0.02343835
#
# Stress axis : x y z
#
# Youngs Moduli (GPa) = 91.31105 75.11164 142.87223
#
# Poissons Ratio (x) = -0.00213 0.28776
# Poissons Ratio (y) = -0.00259 0.27535
# Poissons Ratio (z) = 0.18391 0.14476
#
# Static dielectric constant tensor:
#      x y z
#    x 1.977140 0.000000 -0.001760 
#    y 0.000000 2.012570 0.000000 
#    z -0.001760 0.000000 1.937050 
# 
# From -- ./inp_files/31719.got.cif
#   From: 2010.05.17/outbox.cif.g08.bks.cpg/sg5_16_cif.got.tgz:31719.got - 2010.06.03 18:56:24.
