data_PCOD9126689
_publ_section_title
;
Structure prediction by ZEFSAII (Michael W. Deem and Ramdas Pophale) SiO2 
 PCOD9126689
Probable space group: C 2
;
_chemical_formula_sum "Si O2"
_cell_formula_units_Z 26
_cell_length_a 19.890040
_cell_length_b 8.398377
_cell_length_c 8.714039
_cell_angle_alpha 90.000000
_cell_angle_beta 133.282976
_cell_angle_gamma 90.000000
_cell_volume 1059.663271
_symmetry_space_group_name_H-M "C 2"
_symmetry_group_IT_number 5
_symmetry_cell_setting 'monoclinic'
loop_
_space_group_symop_operation_xyz
x,y,z
-x,y,-z
1/2+x,1/2+y,z
1/2-x,1/2+y,-z
loop_
_atom_site_type_symbol
_atom_site_label
_atom_site_fract_x
_atom_site_fract_y
_atom_site_fract_z
Si Si1 0.160026 0.352110 0.785077
Si Si2 0.585204 0.685181 0.973319
Si Si3 0.334667 0.969299 0.756244
Si Si4 0.000000 0.876870 0.500000
Si Si5 0.855837 0.682557 0.091427
Si Si6 0.256822 0.649675 0.598681
Si Si7 0.600667 0.620057 0.449541
O O1 0.112806 0.263762 0.855580
O O2 0.154854 0.539397 0.802616
O O3 0.107883 0.283373 0.556201
O O4 0.265604 0.292964 0.953740
O O5 0.487580 0.606117 0.798885
O O6 0.671346 0.578485 0.166427
O O7 0.590094 0.832004 0.099218
O O8 0.333716 0.054525 0.589762
O O9 0.249813 0.835774 0.629380
O O10 0.351520 0.093105 0.920031
O O11 0.947138 0.775812 0.286924
O O12 0.921045 0.986252 0.456671
O O13 0.309012 0.628892 0.515687
#
# Coordination Sequence:
#
# PCOD9126689 Si02
#       7
#     4   4   4   2   4   4   4
#     4  11  22  42  74  94 140 178 236 273 356 409
#     4   9  22  38  67  95 134 173 226 276 338 408
#     4   9  22  42  66  96 133 176 231 275 334 410
#     4  12  28  38  72 106 146 168 242 294 344 404
#     4  11  25  43  65 109 135 183 226 291 342 416
#     4  10  22  41  70  93 138 180 227 275 341 414
#     4  12  22  44  68 102 135 187 223 288 355 401
#
# _framework density 24.536096000000001
#
# number of rings (size 3 to 8) (size 9 to 14) (size 15 to 20)
#    0.923    0.615    3.077    1.385    6.462    2.462 
#    0.000    0.000    3.385    0.000    0.000    0.000 
#    0.000    0.000    0.000    0.000    0.000    0.000 
#
# Total GULP energy -72484.738315 kJ/mol
# GULP energy per Si atom -5575.749101 kJ/mol
# Density = 2.448025 g / cm^3
# Si number density = 24.536096 Si / 1000 Ang^3
#
#
#
# Elastic Constant Matrix: (Units=GPa)
#
#
# Indices 1 2 3 4 5 6 
#
# 1 53.6934 21.0178 -7.5213 0.0000 -5.0880 0.0000
# 2 21.0178 105.0447 43.7261 0.0000 -4.9185 0.0000
# 3 -7.5213 43.7261 145.5795 0.0000 1.3887 0.0000
# 4 0.0000 0.0000 0.0000 56.9087 0.0000 -7.0589
# 5 -5.0880 -4.9185 1.3887 0.0000 17.7961 0.0000
# 6 0.0000 0.0000 0.0000 -7.0589 0.0000 26.8595
#
#
#
# Elastic Compliance Matrix: (Units=1/GPa)
#
#
# Indices 1 2 3 4 5 6 
#
# 1 0.021440 -0.005169 0.002617 0.000000 0.004497 0.000000
# 2 -0.005169 0.012319 -0.003989 0.000000 0.002238 0.000000
# 3 0.002617 -0.003989 0.008212 0.000000 -0.000995 0.000000
# 4 0.000000 0.000000 0.000000 0.018164 0.000000 0.004774
# 5 0.004497 0.002238 -0.000995 0.000000 0.058174 0.000000
# 6 0.000000 0.000000 0.000000 0.004774 0.000000 0.038485
#
#
# Mechanical properties :
#
#
# Convention : Reuss Voigt Hill
#
# Bulk Modulus (GPa) = 34.61272 46.52920 40.57096
# Shear Modulus (GPa) = 27.85435 36.78585 32.32010
#
# Velocity S-wave (km/s) = 3.37299 3.87622 3.63333
# Velocity P-wave (km/s) = 5.41358 6.24805 5.84573
#
# Compressibility (1/GPa) = 0.02889112
#
# Stress axis : x y z
#
# Youngs Moduli (GPa) = 46.64109 81.17533 121.77606
#
# Poissons Ratio (x) = 0.41958 -0.31872
# Poissons Ratio (y) = 0.24108 0.48571
# Poissons Ratio (z) = -0.12207 0.32377
#
# Static dielectric constant tensor:
#      x y z
#    x 2.032600 0.000000 0.047430 
#    y 0.000000 1.998930 0.000000 
#    z 0.047430 0.000000 2.077620 
# 
# From -- ./inp_files/31682.got.cif
#   From: 2010.05.17/outbox.cif.g08.bks.cpg/sg5_16_cif.got.tgz:31682.got - 2010.06.03 18:56:24.
