data_PCOD9126568
_publ_section_title
;
Structure prediction by ZEFSAII (Michael W. Deem and Ramdas Pophale) SiO2 
 PCOD9126568
Probable space group: C 2
;
_chemical_formula_sum "Si O2"
_cell_formula_units_Z 28
_cell_length_a 18.534797
_cell_length_b 5.794594
_cell_length_c 24.691403
_cell_angle_alpha 90.000000
_cell_angle_beta 25.767038
_cell_angle_gamma 90.000000
_cell_volume 1152.814207
_symmetry_space_group_name_H-M "C 2"
_symmetry_group_IT_number 5
_symmetry_cell_setting 'monoclinic'
loop_
_space_group_symop_operation_xyz
x,y,z
-x,y,-z
1/2+x,1/2+y,z
1/2-x,1/2+y,-z
loop_
_atom_site_type_symbol
_atom_site_label
_atom_site_fract_x
_atom_site_fract_y
_atom_site_fract_z
Si Si1 0.367406 0.787870 0.994540
Si Si2 0.854915 0.613285 0.161096
Si Si3 0.581910 0.223220 0.363958
Si Si4 0.963726 0.019470 0.771276
Si Si5 0.687229 0.921117 0.191016
Si Si6 0.846824 0.011382 0.255109
Si Si7 0.833338 0.836670 0.456941
O O1 0.204545 0.928741 0.086307
O O2 0.295280 0.590041 0.081444
O O3 0.499288 0.683161 0.863313
O O4 0.483794 0.957316 0.949056
O O5 0.700326 0.442386 0.274641
O O6 0.813234 0.749817 0.135444
O O7 0.870843 0.787703 0.201156
O O8 0.397157 0.311895 0.475765
O O9 0.606780 0.034424 0.299136
O O10 0.667896 0.111324 0.358637
O O11 0.119405 0.975383 0.704943
O O12 0.005428 0.865934 0.690799
O O13 0.932647 0.274468 0.767765
O O14 0.750625 0.590829 0.495508
#
# Coordination Sequence:
#
# PCOD9126568 Si02
#       7
#     4   4   4   4   4   4   4
#     4  11  24  36  64 105 144 193 231 273 358 434
#     4  10  22  41  63 102 141 192 233 278 353 440
#     4  10  22  46  69 102 135 184 235 301 361 430
#     4  12  26  44  68 104 144 187 239 302 356 429
#     4  11  21  39  68  94 150 182 243 287 342 421
#     4  10  26  41  68  98 155 188 227 280 371 441
#     4  12  27  51  84 106 133 184 257 321 373 420
#
# _framework density 24.288388000000001
#
# number of rings (size 3 to 8) (size 9 to 14) (size 15 to 20)
#    0.000    1.143    2.857    1.714    6.000   14.857 
#    0.000    0.714    0.000    0.000    0.000    0.000 
#    0.000    0.000    0.000    0.000    0.000    0.000 
#
# Total GULP energy -78180.028267 kJ/mol
# GULP energy per Si atom -5584.287733 kJ/mol
# Density = 2.423311 g / cm^3
# Si number density = 24.288388 Si / 1000 Ang^3
#
#
#
# Elastic Constant Matrix: (Units=GPa)
#
#
# Indices 1 2 3 4 5 6 
#
# 1 132.1373 24.3900 -15.5093 0.0315 -35.4312 -0.0045
# 2 24.3900 97.5749 6.2794 0.0597 -22.9384 0.0667
# 3 -15.5093 6.2794 54.2739 -0.0037 -20.4658 0.0290
# 4 0.0315 0.0597 -0.0037 39.7062 0.0050 -16.5117
# 5 -35.4312 -22.9384 -20.4658 0.0050 40.8209 0.0371
# 6 -0.0045 0.0667 0.0290 -16.5117 0.0371 32.2869
#
#
#
# Elastic Compliance Matrix: (Units=1/GPa)
#
#
# Indices 1 2 3 4 5 6 
#
# 1 0.013119 -0.000083 0.009908 -0.000028 0.016307 -0.000040
# 2 -0.000083 0.011896 0.001348 -0.000042 0.007289 -0.000056
# 3 0.009908 0.001348 0.030370 -0.000043 0.024584 -0.000079
# 4 -0.000028 -0.000042 -0.000043 0.031988 -0.000088 0.016359
# 5 0.016307 0.007289 0.024584 -0.000088 0.055072 -0.000143
# 6 -0.000040 -0.000056 -0.000079 0.016359 -0.000143 0.039339
#
#
# Mechanical properties :
#
#
# Convention : Reuss Voigt Hill
#
# Bulk Modulus (GPa) = 12.86491 34.92291 23.89391
# Shear Modulus (GPa) = 26.97614 40.48454 33.73034
#
# Velocity S-wave (km/s) = 3.33627 4.08711 3.73063
# Velocity P-wave (km/s) = 4.48878 6.05659 5.33064
#
# Compressibility (1/GPa) = 0.07773084
#
# Stress axis : x y z
#
# Youngs Moduli (GPa) = 76.22679 84.06156 32.92675
#
# Poissons Ratio (x) = 0.00699 -0.32623
# Poissons Ratio (y) = 0.00634 -0.04440
# Poissons Ratio (z) = -0.75523 -0.11334
#
# Static dielectric constant tensor:
#      x y z
#    x 1.913880 0.000040 -0.023820 
#    y 0.000040 2.091620 -0.000020 
#    z -0.023820 -0.000020 2.014530 
# 
# From -- ./inp_files/70794.got.cif
#   From: 2010.05.17/outbox.cif.g08.bks.cpg/sg5_36_cif.got.tgz:70794.got - 2010.06.03 18:56:24.
