data_PCOD9126349
_publ_section_title
;
Structure prediction by ZEFSAII (Michael W. Deem and Ramdas Pophale) SiO2 
 PCOD9126349
Probable space group: C 2
;
_chemical_formula_sum "Si O2"
_cell_formula_units_Z 32
_cell_length_a 14.725904
_cell_length_b 5.665553
_cell_length_c 17.576980
_cell_angle_alpha 90.000000
_cell_angle_beta 114.006623
_cell_angle_gamma 90.000000
_cell_volume 1339.603699
_symmetry_space_group_name_H-M "C 2"
_symmetry_group_IT_number 5
_symmetry_cell_setting 'monoclinic'
loop_
_space_group_symop_operation_xyz
x,y,z
-x,y,-z
1/2+x,1/2+y,z
1/2-x,1/2+y,-z
loop_
_atom_site_type_symbol
_atom_site_label
_atom_site_fract_x
_atom_site_fract_y
_atom_site_fract_z
Si Si1 0.695674 0.372170 0.684764
Si Si2 0.984092 0.767891 0.664586
Si Si3 0.799156 0.798576 0.493416
Si Si4 0.446165 0.905278 0.200890
Si Si5 0.250527 0.858632 0.222041
Si Si6 0.897710 0.532370 0.014680
Si Si7 0.395114 0.526703 0.009190
Si Si8 0.451249 0.504725 0.812852
O O1 0.581675 0.406530 0.672413
O O2 0.697358 0.340270 0.595243
O O3 0.747650 0.616616 0.728282
O O4 0.728401 0.117081 0.731347
O O5 0.904293 0.767248 0.571556
O O6 0.946525 0.871976 0.731718
O O7 0.021771 0.517055 0.707365
O O8 0.745181 0.545789 0.489005
O O9 0.335458 0.820292 0.187903
O O10 0.424992 0.034779 0.113455
O O11 0.549249 0.774266 0.213166
O O12 0.134468 0.905848 0.163245
O O13 0.842563 0.777273 0.980623
O O14 0.846543 0.281361 0.978954
O O15 0.000000 0.535827 0.000000
O O16 0.440367 0.518199 0.110507
O O17 0.500000 0.535221 0.000000
#
# Coordination Sequence:
#
# PCOD9126349 Si02
#       8
#     4   4   4   4   4   4   4   4
#     4  11  24  46  59  96 124 168 206 274 316 396
#     4  11  23  40  67  89 125 167 215 259 329 387
#     4  12  27  43  64  92 126 165 214 265 326 391
#     4  10  22  40  61  98 126 169 219 266 325 394
#     4  11  25  39  66  92 132 159 219 266 325 378
#     4   9  17  32  58  85 120 162 206 249 309 376
#     4   9  18  32  56  87 119 161 211 248 306 379
#     4  11  21  38  64  93 123 172 209 267 320 390
#
# _framework density 23.88766
#
# number of rings (size 3 to 8) (size 9 to 14) (size 15 to 20)
#    0.000    1.500    2.500    2.625    5.250    0.000 
#    0.000    2.500    0.000   12.000    0.000    0.000 
#    0.000    0.000    0.000    0.000    0.000    0.000 
#
# Total GULP energy -89068.232218 kJ/mol
# GULP energy per Si atom -5566.764514 kJ/mol
# Density = 2.383329 g / cm^3
# Si number density = 23.887660 Si / 1000 Ang^3
#
#
#
# Elastic Constant Matrix: (Units=GPa)
#
#
# Indices 1 2 3 4 5 6 
#
# 1 105.8176 44.4285 45.1652 0.0000 -13.9727 0.0000
# 2 44.4285 184.2543 27.1376 0.0000 11.8484 -0.0001
# 3 45.1652 27.1376 94.9057 0.0000 -5.5843 0.0000
# 4 0.0000 0.0000 0.0000 -24.3709 0.0000 36.0097
# 5 -13.9727 11.8484 -5.5843 0.0000 40.2958 0.0000
# 6 0.0000 -0.0001 0.0000 36.0097 0.0000 -36.4375
#
#
#
# Elastic Compliance Matrix: (Units=1/GPa)
#
#
# Indices 1 2 3 4 5 6 
#
# 1 0.013538 -0.002781 -0.005367 0.000000 0.004768 0.000000
# 2 -0.002781 0.006386 -0.000676 0.000000 -0.002935 0.000000
# 3 -0.005367 -0.000676 0.013295 0.000000 0.000180 0.000000
# 4 0.000000 0.000000 0.000000 0.089157 0.000000 0.088111
# 5 0.004768 -0.002935 0.000180 0.000000 0.027358 0.000000
# 6 0.000000 0.000000 0.000000 0.088111 0.000000 0.059632
#
#
# Mechanical properties :
#
#
# Convention : Reuss Voigt Hill
#
# Bulk Modulus (GPa) = 64.21564 68.71558 66.46561
# Shear Modulus (GPa) = 21.53285 13.78058 17.65672
#
# Velocity S-wave (km/s) = 3.00563 2.40446 2.72169
# Velocity P-wave (km/s) = 6.24386 6.04460 6.14504
#
# Compressibility (1/GPa) = 0.01557253
#
# Stress axis : x y z
#
# Youngs Moduli (GPa) = 73.86593 156.59277 75.21801
#
# Poissons Ratio (x) = 0.43541 0.40370
# Poissons Ratio (y) = 0.20539 0.05081
# Poissons Ratio (z) = 0.39644 0.10578
#
# Static dielectric constant tensor:
#      x y z
#    x 2.006470 0.000000 0.045530 
#    y 0.000000 2.219350 0.000000 
#    z 0.045530 0.000000 1.974010 
# 
# From -- ./inp_files/61227.got.cif
#   From: 2010.05.17/outbox.cif.g08.bks.cpg/sg5_31_cif.got.tgz:61227.got - 2010.06.03 18:56:24.
