data_PCOD9126488
_publ_section_title
;
Structure prediction by ZEFSAII (Michael W. Deem and Ramdas Pophale) SiO2 
 PCOD9126488
Probable space group: C 2
;
_chemical_formula_sum "Si O2"
_cell_formula_units_Z 28
_cell_length_a 19.809015
_cell_length_b 8.121489
_cell_length_c 21.751934
_cell_angle_alpha 90.000000
_cell_angle_beta 159.388038
_cell_angle_gamma 90.000000
_cell_volume 1231.926544
_symmetry_space_group_name_H-M "C 2"
_symmetry_group_IT_number 5
_symmetry_cell_setting 'monoclinic'
loop_
_space_group_symop_operation_xyz
x,y,z
-x,y,-z
1/2+x,1/2+y,z
1/2-x,1/2+y,-z
loop_
_atom_site_type_symbol
_atom_site_label
_atom_site_fract_x
_atom_site_fract_y
_atom_site_fract_z
Si Si1 0.000000 0.927881 0.500000
Si Si2 0.802403 0.498221 0.860097
Si Si3 0.203762 0.868837 0.143215
Si Si4 0.962177 0.245539 0.198201
Si Si5 0.002446 0.540705 0.691280
Si Si6 0.632448 0.380997 0.840683
Si Si7 0.270675 0.161011 0.377550
Si Si8 0.000000 0.415393 0.500000
O O1 0.881742 0.817891 0.447125
O O2 0.844037 0.008350 0.322238
O O3 0.839648 0.683468 0.916850
O O4 0.722768 0.393449 0.849021
O O5 0.000000 0.431643 0.000000
O O6 0.388561 0.842627 0.346554
O O7 0.296029 0.986319 0.169850
O O8 0.000000 0.924483 0.000000
O O9 0.066874 0.380875 0.329915
O O10 0.060324 0.211423 0.216337
O O11 0.945295 0.066404 0.214761
O O12 0.773078 0.344809 0.017490
O O13 0.014770 0.710088 0.739725
O O14 0.859955 0.588552 0.515566
O O15 0.321781 0.024083 0.372024
#
# Coordination Sequence:
#
# PCOD9126488 Si02
#       8
#     2   4   4   4   4   4   4   2
#     4  11  21  44  68 102 140 174 228 290 342 412
#     4  11  23  41  69 103 136 176 229 285 345 408
#     4  10  22  40  68  98 135 178 223 283 348 399
#     4  12  26  45  69 100 138 184 228 283 341 413
#     4  11  24  45  66  97 139 179 228 282 332 412
#     4  12  25  45  68  98 139 178 230 283 336 410
#     4  10  24  42  67  98 134 179 228 276 349 400
#     4   9  21  42  62 102 130 172 232 280 334 420
#
# _framework density 22.728625999999998
#
# number of rings (size 3 to 8) (size 9 to 14) (size 15 to 20)
#    0.000    1.143    4.286    1.286    4.000    0.571 
#    0.000    0.000    0.000    0.000    0.000    0.000 
#    0.000    0.000    0.000    0.000    0.000    0.000 
#
# Total GULP energy -77973.912409 kJ/mol
# GULP energy per Si atom -5569.565172 kJ/mol
# Density = 2.267689 g / cm^3
# Si number density = 22.728626 Si / 1000 Ang^3
#
#
#
# Elastic Constant Matrix: (Units=GPa)
#
#
# Indices 1 2 3 4 5 6 
#
# 1 73.4501 35.7242 23.1311 0.0002 5.2318 0.0000
# 2 35.7242 142.6112 17.4219 0.0001 -2.8859 0.0009
# 3 23.1311 17.4219 57.4876 0.0003 -6.7853 0.0015
# 4 0.0002 0.0001 0.0003 11.4309 0.0004 1.6394
# 5 5.2318 -2.8859 -6.7853 0.0004 37.0883 0.0003
# 6 0.0000 0.0009 0.0015 1.6394 0.0003 -32.7381
#
#
#
# Elastic Compliance Matrix: (Units=1/GPa)
#
#
# Indices 1 2 3 4 5 6 
#
# 1 0.017757 -0.003737 -0.006482 0.000000 -0.003982 0.000000
# 2 -0.003737 0.008069 -0.000823 0.000000 0.001004 0.000000
# 3 -0.006482 -0.000823 0.020802 -0.000001 0.004656 0.000001
# 4 0.000000 0.000000 -0.000001 0.086858 -0.000001 0.004350
# 5 -0.003982 0.001004 0.004656 -0.000001 0.028454 0.000000
# 6 0.000000 0.000000 0.000001 0.004350 0.000000 -0.030328
#
#
# Mechanical properties :
#
#
# Convention : Reuss Voigt Hill
#
# Bulk Modulus (GPa) = 40.74362 47.34482 44.04422
# Shear Modulus (GPa) = 30.88704 16.30767 23.59735
#
# Velocity S-wave (km/s) = 3.69039 2.68151 3.22564
# Velocity P-wave (km/s) = 6.01030 5.51934 5.77004
#
# Compressibility (1/GPa) = 0.02454372
#
# Stress axis : x y z
#
# Youngs Moduli (GPa) = 56.31489 123.93019 48.07130
#
# Poissons Ratio (x) = 0.46311 0.31162
# Poissons Ratio (y) = 0.21044 0.03957
# Poissons Ratio (z) = 0.36506 0.10202
#
# Static dielectric constant tensor:
#      x y z
#    x 1.859770 0.000000 0.030120 
#    y 0.000000 1.860800 0.000000 
#    z 0.030120 0.000000 1.869350 
# 
# From -- ./inp_files/69466.got.cif
#   From: 2010.05.17/outbox.cif.g08.bks.cpg/sg5_35_cif.got.tgz:69466.got - 2010.06.03 18:56:24.
