data_PCOD9126306
_publ_section_title
;
Structure prediction by ZEFSAII (Michael W. Deem and Ramdas Pophale) SiO2 
 PCOD9126306
Probable space group: C 2
;
_chemical_formula_sum "Si O2"
_cell_formula_units_Z 30
_cell_length_a 16.882102
_cell_length_b 6.550922
_cell_length_c 12.148405
_cell_angle_alpha 90.000000
_cell_angle_beta 89.003275
_cell_angle_gamma 90.000000
_cell_volume 1343.329316
_symmetry_space_group_name_H-M "C 2"
_symmetry_group_IT_number 5
_symmetry_cell_setting 'monoclinic'
loop_
_space_group_symop_operation_xyz
x,y,z
-x,y,-z
1/2+x,1/2+y,z
1/2-x,1/2+y,-z
loop_
_atom_site_type_symbol
_atom_site_label
_atom_site_fract_x
_atom_site_fract_y
_atom_site_fract_z
Si Si1 0.000000 0.668031 0.000000
Si Si2 0.364882 0.363928 0.496959
Si Si3 0.012168 0.899598 0.347490
Si Si4 0.351963 0.160294 0.718148
Si Si5 0.772567 0.854058 0.282128
Si Si6 0.771578 0.009302 0.859531
Si Si7 0.369603 0.845477 0.987949
Si Si8 0.077954 0.017160 0.848173
O O1 0.055953 0.710156 0.288948
O O2 0.955149 0.822731 0.084126
O O3 0.439392 0.304770 0.417488
O O4 0.418880 0.504745 0.579127
O O5 0.329434 0.220410 0.591851
O O6 0.299842 0.399251 0.405850
O O7 0.977223 0.045609 0.256775
O O8 0.313972 0.313441 0.807303
O O9 0.431100 0.021836 0.950718
O O10 0.771026 0.621600 0.242431
O O11 0.834901 0.965876 0.200565
O O12 0.685800 0.943385 0.263683
O O13 0.706776 0.950103 0.952464
O O14 0.834457 0.166801 0.910968
O O15 0.416740 0.715961 0.078591
#
# Coordination Sequence:
#
# PCOD9126306 Si02
#       8
#     2   4   4   4   4   4   4   4
#     4  12  28  42  70  98 138 190 228 290 350 428
#     4   8  19  38  67  98 131 178 224 281 347 410
#     4   8  19  39  67  92 133 179 226 278 338 415
#     4  10  22  39  68  96 131 182 223 290 345 419
#     4  11  22  42  65 101 138 175 229 295 351 413
#     4  12  27  43  68 100 139 178 240 292 350 420
#     4  12  28  46  68 102 139 186 238 293 353 414
#     4  11  23  44  67  94 138 181 229 292 343 417
#
# _framework density 22.332574000000001
#
# number of rings (size 3 to 8) (size 9 to 14) (size 15 to 20)
#    0.800    0.800    2.667    1.200    7.467    0.000 
#    0.000    0.000    0.000    1.600    0.000    0.000 
#    0.000    0.000    0.000    0.000    0.000    0.000 
#
# Total GULP energy -83509.231206 kJ/mol
# GULP energy per Si atom -5567.282080 kJ/mol
# Density = 2.228174 g / cm^3
# Si number density = 22.332574 Si / 1000 Ang^3
#
#
#
# Elastic Constant Matrix: (Units=GPa)
#
#
# Indices 1 2 3 4 5 6 
#
# 1 53.6600 9.6960 22.1820 0.0000 5.0912 0.0000
# 2 9.6960 49.2985 25.5773 0.0000 -0.3796 0.0000
# 3 22.1820 25.5773 84.6066 0.0000 -0.0542 0.0000
# 4 0.0000 0.0000 0.0000 -19.8702 0.0000 11.5647
# 5 5.0912 -0.3796 -0.0542 0.0000 31.9624 0.0000
# 6 0.0000 0.0000 0.0000 11.5647 0.0000 34.2289
#
#
#
# Elastic Compliance Matrix: (Units=1/GPa)
#
#
# Indices 1 2 3 4 5 6 
#
# 1 0.021365 -0.001567 -0.005130 0.000000 -0.003430 0.000000
# 2 -0.001567 0.024175 -0.006897 0.000000 0.000525 0.000000
# 3 -0.005130 -0.006897 0.015250 0.000000 0.000761 0.000000
# 4 0.000000 0.000000 0.000000 -0.042057 0.000000 0.014209
# 5 -0.003430 0.000525 0.000761 0.000000 0.031841 0.000000
# 6 0.000000 0.000000 0.000000 0.014209 0.000000 0.024414
#
#
# Mechanical properties :
#
#
# Convention : Reuss Voigt Hill
#
# Bulk Modulus (GPa) = 29.76007 33.60840 31.68424
# Shear Modulus (GPa) = 44.10042 17.93822 31.01932
#
# Velocity S-wave (km/s) = 4.44860 2.83721 3.73093
# Velocity P-wave (km/s) = 6.30408 5.08082 5.72521
#
# Compressibility (1/GPa) = 0.03360207
#
# Stress axis : x y z
#
# Youngs Moduli (GPa) = 46.80529 41.36457 65.57396
#
# Poissons Ratio (x) = 0.06482 0.33639
# Poissons Ratio (y) = 0.07334 0.45228
# Poissons Ratio (z) = 0.24011 0.28530
#
# Static dielectric constant tensor:
#      x y z
#    x 1.850250 0.000000 0.026890 
#    y 0.000000 1.792600 0.000000 
#    z 0.026890 0.000000 1.916910 
# 
# From -- ./inp_files/30588.got.cif
#   From: 2010.05.17/outbox.cif.g08.bks.cpg/sg5_16_cif.got.tgz:30588.got - 2010.06.03 18:56:24.
