data_PCOD9126461
_publ_section_title
;
Structure prediction by ZEFSAII (Michael W. Deem and Ramdas Pophale) SiO2 
 PCOD9126461
Probable space group: C 2
;
_chemical_formula_sum "Si O2"
_cell_formula_units_Z 28
_cell_length_a 5.250402
_cell_length_b 31.715745
_cell_length_c 7.141280
_cell_angle_alpha 90.000000
_cell_angle_beta 110.316897
_cell_angle_gamma 90.000000
_cell_volume 1115.186617
_symmetry_space_group_name_H-M "C 2"
_symmetry_group_IT_number 5
_symmetry_cell_setting 'monoclinic'
loop_
_space_group_symop_operation_xyz
x,y,z
-x,y,-z
1/2+x,1/2+y,z
1/2-x,1/2+y,-z
loop_
_atom_site_type_symbol
_atom_site_label
_atom_site_fract_x
_atom_site_fract_y
_atom_site_fract_z
Si Si1 0.654365 0.369460 0.392416
Si Si2 0.502002 0.665613 0.772574
Si Si3 0.506510 0.838651 0.216973
Si Si4 0.089209 0.073445 0.239729
Si Si5 0.091607 0.520348 0.238065
Si Si6 0.235332 0.750553 0.700351
Si Si7 0.000000 0.708698 0.000000
Si Si8 0.500000 0.453059 0.500000
O O1 0.320291 0.357425 0.360436
O O2 0.614553 0.420278 0.374922
O O3 0.000000 0.362637 0.500000
O O4 0.698074 0.346465 0.208302
O O5 0.375907 0.621267 0.681711
O O6 0.348885 0.706126 0.657360
O O7 0.818033 0.676958 0.826610
O O8 0.500000 0.666924 0.000000
O O9 0.556235 0.788745 0.250632
O O10 0.500000 0.852404 0.000000
O O11 0.340896 0.041007 0.288072
O O12 0.831100 0.054688 0.280724
O O13 0.000000 0.077492 0.000000
O O14 0.248320 0.480623 0.364510
O O15 0.000000 0.511223 0.000000
O O16 0.000000 0.764210 0.500000
O O17 0.144020 0.739083 0.887032
#
# Coordination Sequence:
#
# PCOD9126461 Si02
#       8
#     4   4   4   4   4   4   2   2
#     4   9  24  46  67 100 140 186 233 319 380 444
#     4   9  20  38  63  97 141 198 242 301 355 434
#     4  11  23  42  72 102 138 189 255 301 375 452
#     4   9  20  37  68 104 149 188 249 297 370 440
#     4  10  22  42  73 109 141 199 242 312 378 472
#     4  11  25  42  65  99 147 192 243 305 360 440
#     4  10  22  40  68 100 136 210 246 300 370 424
#     4  10  24  50  72 102 146 188 242 318 402 466
#
# _framework density 25.107906
#
# number of rings (size 3 to 8) (size 9 to 14) (size 15 to 20)
#    0.429    1.714    0.000    1.714    7.000   11.429 
#    2.571    2.857    0.000    0.000    0.000    0.000 
#    0.000    0.000    0.000    0.000    0.000    0.000 
#
# Total GULP energy -78073.300154 kJ/mol
# GULP energy per Si atom -5576.664297 kJ/mol
# Density = 2.505076 g / cm^3
# Si number density = 25.107906 Si / 1000 Ang^3
#
#
#
# Elastic Constant Matrix: (Units=GPa)
#
#
# Indices 1 2 3 4 5 6 
#
# 1 194.2350 61.0689 42.8674 0.0000 -5.3718 0.0000
# 2 61.0689 184.7435 35.9407 0.0000 12.7690 0.0000
# 3 42.8674 35.9407 119.6478 0.0000 25.4118 0.0000
# 4 0.0000 0.0000 0.0000 31.5560 0.0000 9.1070
# 5 -5.3718 12.7690 25.4118 0.0000 33.7884 0.0000
# 6 0.0000 0.0000 0.0000 9.1070 0.0000 25.5967
#
#
#
# Elastic Compliance Matrix: (Units=1/GPa)
#
#
# Indices 1 2 3 4 5 6 
#
# 1 0.006387 -0.001876 -0.002489 0.000000 0.003596 0.000000
# 2 -0.001876 0.006331 -0.000783 0.000000 -0.002101 0.000000
# 3 -0.002489 -0.000783 0.011313 0.000000 -0.008608 0.000000
# 4 0.000000 0.000000 0.000000 0.035316 0.000000 -0.012565
# 5 0.003596 -0.002101 -0.008608 0.000000 0.037436 0.000000
# 6 0.000000 0.000000 0.000000 -0.012565 0.000000 0.043538
#
#
# Mechanical properties :
#
#
# Convention : Reuss Voigt Hill
#
# Bulk Modulus (GPa) = 72.80465 86.48671 79.64568
# Shear Modulus (GPa) = 32.21786 42.10484 37.16135
#
# Velocity S-wave (km/s) = 3.58603 4.09951 3.85134
# Velocity P-wave (km/s) = 6.79749 7.54511 7.18104
#
# Compressibility (1/GPa) = 0.01373539
#
# Stress axis : x y z
#
# Youngs Moduli (GPa) = 156.57347 157.96422 88.39397
#
# Poissons Ratio (x) = 0.29628 0.21997
# Poissons Ratio (y) = 0.29367 0.06924
# Poissons Ratio (z) = 0.38964 0.12373
#
# Static dielectric constant tensor:
#      x y z
#    x 2.034810 0.000000 0.126290 
#    y 0.000000 1.913100 0.000000 
#    z 0.126290 0.000000 1.795590 
# 
# From -- ./inp_files/13402.got.cif
#   From: 2010.05.17/outbox.cif.g08.bks.cpg/sg5_7_cif.got.tgz:13402.got - 2010.06.03 18:56:24.
