data_PCOD9126265
_publ_section_title
;
Structure prediction by ZEFSAII (Michael W. Deem and Ramdas Pophale) SiO2 
 PCOD9126265
Probable space group: C 2
;
_chemical_formula_sum "Si O2"
_cell_formula_units_Z 26
_cell_length_a 21.878091
_cell_length_b 9.503826
_cell_length_c 10.343960
_cell_angle_alpha 90.000000
_cell_angle_beta 148.363852
_cell_angle_gamma 90.000000
_cell_volume 1128.130654
_symmetry_space_group_name_H-M "C 2"
_symmetry_group_IT_number 5
_symmetry_cell_setting 'monoclinic'
loop_
_space_group_symop_operation_xyz
x,y,z
-x,y,-z
1/2+x,1/2+y,z
1/2-x,1/2+y,-z
loop_
_atom_site_type_symbol
_atom_site_label
_atom_site_fract_x
_atom_site_fract_y
_atom_site_fract_z
Si Si1 0.685438 0.436640 0.699731
Si Si2 0.500000 0.808886 0.500000
Si Si3 0.176994 0.507606 0.527331
Si Si4 0.359501 0.734715 0.878074
Si Si5 0.500000 0.290300 0.500000
Si Si6 0.500000 0.976619 0.000000
Si Si7 0.110876 0.195829 0.448001
Si Si8 0.334713 0.043214 0.182959
O O1 0.768915 0.306304 0.815325
O O2 0.555485 0.379714 0.485794
O O3 0.686491 0.555609 0.591776
O O4 0.719306 0.508926 0.897417
O O5 0.572124 0.724821 0.526200
O O6 0.417387 0.919091 0.278493
O O7 0.286766 0.605285 0.685929
O O8 0.177797 0.336392 0.522266
O O9 0.167182 0.530273 0.665451
O O10 0.064199 0.551180 0.237110
O O11 0.400467 0.871720 0.873362
O O12 0.485241 0.679656 0.153299
O O13 0.396545 0.189773 0.263026
#
# Coordination Sequence:
#
# PCOD9126265 Si02
#       8
#     4   2   4   4   2   2   4   4
#     4  12  25  37  67 105 141 172 209 259 331 403
#     4   9  17  36  56  86 134 176 202 238 306 390
#     4  10  23  45  71  90 128 177 217 278 332 377
#     4  11  24  47  68  96 131 171 223 277 326 388
#     4  11  25  36  58 106 148 168 212 256 312 416
#     4  10  26  48  68  92 122 170 240 286 320 374
#     4  10  23  38  62  98 134 172 212 253 320 401
#     4  10  22  39  63  97 140 174 205 259 331 394
#
# _framework density 23.046975
#
# number of rings (size 3 to 8) (size 9 to 14) (size 15 to 20)
#    0.000    1.538    3.077    0.462   10.769    2.462 
#    0.000    3.077    0.000    0.923    0.000    0.000 
#    0.000    0.000    0.000    0.000    0.000    0.000 
#
# Total GULP energy -72444.340569 kJ/mol
# GULP energy per Si atom -5572.641582 kJ/mol
# Density = 2.299452 g / cm^3
# Si number density = 23.046975 Si / 1000 Ang^3
#
#
#
# Elastic Constant Matrix: (Units=GPa)
#
#
# Indices 1 2 3 4 5 6 
#
# 1 42.6872 3.5300 24.3301 0.0000 1.2632 0.0000
# 2 3.5300 101.4979 72.0878 0.0000 -0.3067 0.0000
# 3 24.3301 72.0878 116.7110 0.0000 -12.2670 0.0000
# 4 0.0000 0.0000 0.0000 -26.5351 0.0000 -3.2311
# 5 1.2632 -0.3067 -12.2670 0.0000 31.1879 0.0000
# 6 0.0000 0.0000 0.0000 -3.2311 0.0000 10.6304
#
#
#
# Elastic Compliance Matrix: (Units=1/GPa)
#
#
# Indices 1 2 3 4 5 6 
#
# 1 0.029129 0.006557 -0.010681 0.000000 -0.005317 0.000000
# 2 0.006557 0.019591 -0.014056 0.000000 -0.005602 0.000000
# 3 -0.010681 -0.014056 0.020349 0.000000 0.008298 0.000000
# 4 0.000000 0.000000 0.000000 -0.036341 0.000000 -0.011046
# 5 -0.005317 -0.005602 0.008298 0.000000 0.035488 0.000000
# 6 0.000000 0.000000 0.000000 -0.011046 0.000000 0.090712
#
#
# Mechanical properties :
#
#
# Convention : Reuss Voigt Hill
#
# Bulk Modulus (GPa) = 30.57323 51.19910 40.88617
# Shear Modulus (GPa) = 24.24935 13.78652 19.01793
#
# Velocity S-wave (km/s) = 3.24724 2.44845 2.87571
# Velocity P-wave (km/s) = 5.23009 5.50059 5.36705
#
# Compressibility (1/GPa) = 0.03270835
#
# Stress axis : x y z
#
# Youngs Moduli (GPa) = 34.32974 51.04496 49.14280
#
# Poissons Ratio (x) = -0.33471 0.52491
# Poissons Ratio (y) = -0.22510 0.69075
# Poissons Ratio (z) = 0.36669 0.71749
#
# Static dielectric constant tensor:
#      x y z
#    x 1.963460 0.000000 -0.061560 
#    y 0.000000 1.896420 0.000000 
#    z -0.061560 0.000000 1.925370 
# 
# From -- ./inp_files/47385.got.cif
#   From: 2010.05.17/outbox.cif.g08.bks.cpg/sg5_24_cif.got.tgz:47385.got - 2010.06.03 18:56:24.
