data_PCOD9126876
_publ_section_title
;
Structure prediction by ZEFSAII (Michael W. Deem and Ramdas Pophale) SiO2 
 PCOD9126876
Probable space group: C 2
;
_chemical_formula_sum "Si O2"
_cell_formula_units_Z 24
_cell_length_a 16.893220
_cell_length_b 7.018411
_cell_length_c 9.427825
_cell_angle_alpha 90.000000
_cell_angle_beta 109.976332
_cell_angle_gamma 90.000000
_cell_volume 1050.542964
_symmetry_space_group_name_H-M "C 2"
_symmetry_group_IT_number 5
_symmetry_cell_setting 'monoclinic'
loop_
_space_group_symop_operation_xyz
x,y,z
-x,y,-z
1/2+x,1/2+y,z
1/2-x,1/2+y,-z
loop_
_atom_site_type_symbol
_atom_site_label
_atom_site_fract_x
_atom_site_fract_y
_atom_site_fract_z
Si Si1 0.307751 0.379130 0.223853
Si Si2 0.659877 0.745521 0.939489
Si Si3 0.762238 0.362519 0.527279
Si Si4 0.367248 0.991971 0.326799
Si Si5 0.500000 0.693365 0.500000
Si Si6 0.500000 0.642871 0.000000
Si Si7 0.888750 0.018322 0.673982
O O1 0.339609 0.543659 0.140933
O O2 0.271365 0.462506 0.349053
O O3 0.375984 0.215925 0.302908
O O4 0.230803 0.271918 0.100826
O O5 0.682166 0.902818 0.835665
O O6 0.568557 0.765698 0.955819
O O7 0.821378 0.464297 0.448619
O O8 0.820579 0.191973 0.622073
O O9 0.673009 0.338652 0.388292
O O10 0.443955 0.844337 0.378978
O O11 0.449559 0.562713 0.578880
O O12 0.556479 0.526041 0.149090
#
# Coordination Sequence:
#
# PCOD9126876 Si02
#       7
#     4   4   4   4   2   2   4
#     4  12  24  44  72 106 139 192 239 293 349 444
#     4  12  25  44  73  98 146 186 238 292 366 418
#     4  11  22  43  68 103 135 187 243 284 345 436
#     4  11  23  45  68 102 139 183 238 295 353 424
#     4  10  22  42  68  96 136 182 232 292 362 406
#     4  12  24  48  66 104 144 192 234 304 364 418
#     4  11  23  42  72  98 139 187 233 295 353 421
#
# _framework density 22.845331000000002
#
# number of rings (size 3 to 8) (size 9 to 14) (size 15 to 20)
#    0.000    0.667    6.667    2.000    0.000    0.000 
#    3.000    0.833    0.000    0.000    0.000    0.000 
#    0.000    0.000    0.000    0.000    0.000    0.000 
#
# Total GULP energy -66944.973413 kJ/mol
# GULP energy per Si atom -5578.747784 kJ/mol
# Density = 2.279333 g / cm^3
# Si number density = 22.845331 Si / 1000 Ang^3
#
#
#
# Elastic Constant Matrix: (Units=GPa)
#
#
# Indices 1 2 3 4 5 6 
#
# 1 86.8237 42.3106 28.5157 0.0000 0.6042 0.0000
# 2 42.3106 91.8859 39.0477 0.0000 -6.6946 0.0000
# 3 28.5157 39.0477 141.8042 0.0000 7.8932 0.0000
# 4 0.0000 0.0000 0.0000 39.0350 0.0000 9.2820
# 5 0.6042 -6.6946 7.8932 0.0000 46.9142 0.0000
# 6 0.0000 0.0000 0.0000 9.2820 0.0000 23.2266
#
#
#
# Elastic Compliance Matrix: (Units=1/GPa)
#
#
# Indices 1 2 3 4 5 6 
#
# 1 0.015087 -0.006508 -0.001190 0.000000 -0.000923 0.000000
# 2 -0.006508 0.015396 -0.003086 0.000000 0.002800 0.000000
# 3 -0.001190 -0.003086 0.008242 0.000000 -0.001812 0.000000
# 4 0.000000 0.000000 0.000000 0.028308 0.000000 -0.011313
# 5 -0.000923 0.002800 -0.001812 0.000000 0.022032 0.000000
# 6 0.000000 0.000000 0.000000 -0.011313 0.000000 0.047575
#
#
# Mechanical properties :
#
#
# Convention : Reuss Voigt Hill
#
# Bulk Modulus (GPa) = 58.29506 60.02907 59.16206
# Shear Modulus (GPa) = 30.50136 35.87780 33.18958
#
# Velocity S-wave (km/s) = 3.65790 3.96721 3.81569
# Velocity P-wave (km/s) = 6.58885 6.87883 6.73540
#
# Compressibility (1/GPa) = 0.01715411
#
# Stress axis : x y z
#
# Youngs Moduli (GPa) = 66.28426 64.95384 121.32852
#
# Poissons Ratio (x) = 0.42274 0.14442
# Poissons Ratio (y) = 0.43140 0.37448
# Poissons Ratio (z) = 0.07890 0.20048
#
# Static dielectric constant tensor:
#      x y z
#    x 1.848420 0.000000 0.051870 
#    y 0.000000 1.939330 0.000000 
#    z 0.051870 0.000000 1.971020 
# 
# From -- ./inp_files/26579.got.cif
#   From: 2010.05.17/outbox.cif.g08.bks.cpg/sg5_14_cif.got.tgz:26579.got - 2010.06.03 18:56:24.
