data_PCOD9126960
_publ_section_title
;
Structure prediction by ZEFSAII (Michael W. Deem and Ramdas Pophale) SiO2 
 PCOD9126960
Probable space group: C 2
;
_chemical_formula_sum "Si O2"
_cell_formula_units_Z 14
_cell_length_a 7.968330
_cell_length_b 13.821815
_cell_length_c 8.037511
_cell_angle_alpha 90.000000
_cell_angle_beta 142.470151
_cell_angle_gamma 90.000000
_cell_volume 539.257002
_symmetry_space_group_name_H-M "C 2"
_symmetry_group_IT_number 5
_symmetry_cell_setting 'monoclinic'
loop_
_space_group_symop_operation_xyz
x,y,z
-x,y,-z
1/2+x,1/2+y,z
1/2-x,1/2+y,-z
loop_
_atom_site_type_symbol
_atom_site_label
_atom_site_fract_x
_atom_site_fract_y
_atom_site_fract_z
Si Si1 0.758207 0.600840 0.105763
Si Si2 0.500000 0.170466 0.000000
Si Si3 0.467597 0.910202 0.668945
Si Si4 0.943386 0.801572 0.246345
O O1 0.800833 0.707623 0.217569
O O2 0.010411 0.526446 0.313147
O O3 0.500000 0.556475 0.000000
O O4 0.752469 0.616317 0.901222
O O5 0.399877 0.239444 0.774357
O O6 0.500000 0.887062 0.500000
O O7 0.182278 0.866826 0.510378
O O8 0.712915 0.866621 0.974491
#
# Coordination Sequence:
#
# PCOD9126960 Si02
#       4
#     4   2   4   4
#     4  10  22  42  73 100 136 174 235 277 338 399
#     4   8  20  48  64  96 138 182 216 288 330 406
#     4  12  20  41  70  98 129 185 220 271 342 404
#     4  10  23  42  68  94 140 177 221 275 342 398
#
# _framework density 25.961646999999999
#
# number of rings (size 3 to 8) (size 9 to 14) (size 15 to 20)
#    1.714    0.000    2.857    1.714    0.000    4.571 
#    2.571    0.000   12.571    0.000    0.000    0.000 
#    0.000    0.000    0.000    0.000    0.000    0.000 
#
# Total GULP energy -38995.894919 kJ/mol
# GULP energy per Si atom -5570.842131 kJ/mol
# Density = 2.590256 g / cm^3
# Si number density = 25.961647 Si / 1000 Ang^3
#
#
#
# Elastic Constant Matrix: (Units=GPa)
#
#
# Indices 1 2 3 4 5 6 
#
# 1 101.2343 -4.0706 25.2660 0.0003 32.1699 0.0000
# 2 -4.0706 147.4115 67.3495 -0.0001 20.7677 0.0000
# 3 25.2660 67.3495 142.6444 0.0013 14.3965 0.0007
# 4 0.0003 -0.0001 0.0013 26.2271 0.0006 5.5087
# 5 32.1699 20.7677 14.3965 0.0006 34.8603 0.0002
# 6 0.0000 0.0000 0.0007 5.5087 0.0002 17.3657
#
#
#
# Elastic Compliance Matrix: (Units=1/GPa)
#
#
# Indices 1 2 3 4 5 6 
#
# 1 0.015834 0.004095 -0.003148 0.000000 -0.015751 0.000000
# 2 0.004095 0.010169 -0.004731 0.000000 -0.007883 0.000000
# 3 -0.003148 -0.004731 0.009625 0.000000 0.001749 0.000000
# 4 0.000000 0.000000 0.000000 0.040850 -0.000001 -0.012958
# 5 -0.015751 -0.007883 0.001749 -0.000001 0.047195 0.000000
# 6 0.000000 0.000000 0.000000 -0.012958 0.000000 0.061695
#
#
# Mechanical properties :
#
#
# Convention : Reuss Voigt Hill
#
# Bulk Modulus (GPa) = 35.63930 63.15332 49.39631
# Shear Modulus (GPa) = 24.71696 35.87365 30.29531
#
# Velocity S-wave (km/s) = 3.08889 3.72128 3.41973
# Velocity P-wave (km/s) = 5.14579 6.54541 5.88734
#
# Compressibility (1/GPa) = 0.02805891
#
# Stress axis : x y z
#
# Youngs Moduli (GPa) = 63.15642 98.34014 103.89333
#
# Poissons Ratio (x) = -0.40266 0.32707
# Poissons Ratio (y) = -0.25860 0.49151
# Poissons Ratio (z) = 0.19882 0.46523
#
# Static dielectric constant tensor:
#      x y z
#    x 2.275050 0.000000 0.031470 
#    y 0.000000 2.094510 0.000000 
#    z 0.031470 0.000000 2.142380 
# 
# From -- ./inp_files/35751.got.cif
#   From: 2010.05.17/outbox.cif.g08.bks.cpg/sg5_18_cif.got.tgz:35751.got - 2010.06.03 18:56:24.
