data_PCOD9126446
_publ_section_title
;
Structure prediction by ZEFSAII (Michael W. Deem and Ramdas Pophale) SiO2 
 PCOD9126446
Probable space group: C 2
;
_chemical_formula_sum "Si O2"
_cell_formula_units_Z 24
_cell_length_a 8.707634
_cell_length_b 10.490245
_cell_length_c 20.870281
_cell_angle_alpha 90.000000
_cell_angle_beta 34.648943
_cell_angle_gamma 90.000000
_cell_volume 1083.877542
_symmetry_space_group_name_H-M "C 2"
_symmetry_group_IT_number 5
_symmetry_cell_setting 'monoclinic'
loop_
_space_group_symop_operation_xyz
x,y,z
-x,y,-z
1/2+x,1/2+y,z
1/2-x,1/2+y,-z
loop_
_atom_site_type_symbol
_atom_site_label
_atom_site_fract_x
_atom_site_fract_y
_atom_site_fract_z
Si Si1 0.701492 0.635850 0.621679
Si Si2 0.136479 0.119657 0.023059
Si Si3 0.953624 0.970130 0.207498
Si Si4 0.627109 0.476749 0.355616
Si Si5 0.132332 0.407480 0.609806
Si Si6 0.062493 0.395410 0.874479
O O1 0.599628 0.577936 0.721887
O O2 0.484891 0.600323 0.642397
O O3 0.714199 0.785395 0.622524
O O4 0.000000 0.588579 0.500000
O O5 0.981116 0.036410 0.129674
O O6 0.123869 0.268519 0.051277
O O7 0.000000 0.114324 0.000000
O O8 0.410258 0.033464 0.926893
O O9 0.675071 0.894201 0.303706
O O10 0.217107 0.897385 0.143390
O O11 0.343467 0.420076 0.480006
O O12 0.807201 0.512415 0.355973
O O13 0.778640 0.396211 0.248111
#
# Coordination Sequence:
#
# PCOD9126446 Si02
#       6
#     4   4   4   4   4   4
#     4  11  21  39  64  96 138 177 216 270 332 403
#     4  12  26  46  72  98 138 177 239 288 341 400
#     4  11  25  43  71 101 135 179 225 279 343 408
#     4  10  22  40  67 100 135 176 224 269 337 406
#     4  11  22  40  67 100 141 174 216 276 339 410
#     4  11  27  47  71 101 137 181 236 285 344 404
#
# _framework density 22.142721000000002
#
# number of rings (size 3 to 8) (size 9 to 14) (size 15 to 20)
#    0.000    1.000    3.333    3.500    0.000    8.000 
#    0.000    6.667    0.000    0.000    0.000    0.000 
#    0.000    0.000    0.000    0.000    0.000    0.000 
#
# Total GULP energy -66884.022802 kJ/mol
# GULP energy per Si atom -5573.668567 kJ/mol
# Density = 2.209232 g / cm^3
# Si number density = 22.142721 Si / 1000 Ang^3
#
#
#
# Elastic Constant Matrix: (Units=GPa)
#
#
# Indices 1 2 3 4 5 6 
#
# 1 100.6652 35.2306 52.1777 0.0002 -14.1200 -0.0015
# 2 35.2306 74.5849 44.4047 -0.0165 -3.9447 0.0060
# 3 52.1777 44.4047 134.6742 -0.0514 9.7842 0.0169
# 4 0.0002 -0.0165 -0.0514 245.5939 0.0156 -91.1178
# 5 -14.1200 -3.9447 9.7842 0.0156 42.9841 -0.0043
# 6 -0.0015 0.0060 0.0169 -91.1178 -0.0043 57.4250
#
#
#
# Elastic Compliance Matrix: (Units=1/GPa)
#
#
# Indices 1 2 3 4 5 6 
#
# 1 0.014485 -0.003697 -0.004793 -0.000002 0.005510 0.000000
# 2 -0.003697 0.017971 -0.004601 0.000000 0.001482 -0.000001
# 3 -0.004793 -0.004601 0.011129 0.000003 -0.004530 0.000001
# 4 -0.000002 0.000000 0.000003 0.009900 -0.000003 0.015708
# 5 0.005510 0.001482 -0.004530 -0.000003 0.026242 -0.000002
# 6 0.000000 -0.000001 0.000001 0.015708 -0.000002 0.042338
#
#
# Mechanical properties :
#
#
# Convention : Reuss Voigt Hill
#
# Bulk Modulus (GPa) = 57.46246 63.72782 60.59514
# Shear Modulus (GPa) = 32.45745 81.07469 56.76607
#
# Velocity S-wave (km/s) = 3.83277 6.05756 5.06874
# Velocity P-wave (km/s) = 6.75234 8.81864 7.85374
#
# Compressibility (1/GPa) = 0.01740267
#
# Stress axis : x y z
#
# Youngs Moduli (GPa) = 69.03570 55.64411 89.85860
#
# Poissons Ratio (x) = 0.20571 0.43074
# Poissons Ratio (y) = 0.25522 0.41343
# Poissons Ratio (z) = 0.33092 0.25601
#
# Static dielectric constant tensor:
#      x y z
#    x 1.758030 0.000000 0.081580 
#    y 0.000000 1.787840 0.000000 
#    z 0.081580 0.000000 1.672570 
# 
# From -- ./inp_files/64443.got.cif
#   From: 2010.05.17/outbox.cif.g08.bks.cpg/sg5_33_cif.got.tgz:64443.got - 2010.06.03 18:56:24.
