data_PCOD9126077
_publ_section_title
;
Structure prediction by ZEFSAII (Michael W. Deem and Ramdas Pophale) SiO2 
 PCOD9126077
Probable space group: C 2
;
_chemical_formula_sum "Si O2"
_cell_formula_units_Z 30
_cell_length_a 8.244204
_cell_length_b 9.432200
_cell_length_c 18.865281
_cell_angle_alpha 90.000000
_cell_angle_beta 58.600250
_cell_angle_gamma 90.000000
_cell_volume 1252.147637
_symmetry_space_group_name_H-M "C 2"
_symmetry_group_IT_number 5
_symmetry_cell_setting 'monoclinic'
loop_
_space_group_symop_operation_xyz
x,y,z
-x,y,-z
1/2+x,1/2+y,z
1/2-x,1/2+y,-z
loop_
_atom_site_type_symbol
_atom_site_label
_atom_site_fract_x
_atom_site_fract_y
_atom_site_fract_z
Si Si1 0.258692 0.797540 0.580217
Si Si2 0.912864 0.001473 0.276682
Si Si3 0.970635 0.739151 0.176685
Si Si4 0.781402 0.053390 0.669088
Si Si5 0.282514 0.559805 0.026384
Si Si6 0.000000 0.526425 0.500000
Si Si7 0.783195 0.759533 0.075558
Si Si8 0.677870 0.239770 0.359477
O O1 0.345623 0.652124 0.589337
O O2 0.041658 0.761709 0.611730
O O3 0.248398 0.899171 0.651949
O O4 0.358412 0.902320 0.500813
O O5 0.805842 0.144177 0.277683
O O6 0.059836 0.039976 0.305646
O O7 0.005942 0.895301 0.199614
O O8 0.895709 0.632207 0.253876
O O9 0.804392 0.753743 0.155050
O O10 0.155433 0.671555 0.098764
O O11 0.736906 0.895068 0.653742
O O12 0.196509 0.404317 0.063414
O O13 0.500000 0.561438 0.000000
O O14 0.286757 0.616205 0.944962
O O15 0.849318 0.638811 0.566525
O O16 0.000000 0.767308 0.000000
#
# Coordination Sequence:
#
# PCOD9126077 Si02
#       8
#     4   4   4   4   4   2   4   4
#     4   9  21  39  58  85 121 157 198 249 301 360
#     4   9  21  40  58  86 123 156 199 249 298 360
#     4  10  22  40  61  88 123 163 200 250 315 363
#     4  10  22  38  60  89 122 161 208 253 303 367
#     4  10  22  40  61  88 121 157 203 255 303 365
#     4  10  22  38  62  90 126 162 198 254 312 358
#     4   9  21  39  58  84 119 154 196 250 303 361
#     4  10  22  40  62  91 122 158 206 254 299 361
#
# _framework density 23.958836000000002
#
# number of rings (size 3 to 8) (size 9 to 14) (size 15 to 20)
#    0.000    2.400    0.000    0.000    0.000   18.133 
#    0.000    0.000    0.000    0.000    0.000    0.000 
#    0.000    0.000    0.000    0.000    0.000    0.000 
#
# Total GULP energy -83552.646663 kJ/mol
# GULP energy per Si atom -5570.176444 kJ/mol
# Density = 2.390430 g / cm^3
# Si number density = 23.958836 Si / 1000 Ang^3
#
#
#
# Elastic Constant Matrix: (Units=GPa)
#
#
# Indices 1 2 3 4 5 6 
#
# 1 51.8890 32.2324 7.4202 0.0000 -0.3369 0.0000
# 2 32.2324 208.8558 55.1224 0.0000 0.2278 0.0000
# 3 7.4202 55.1224 72.9512 0.0000 -6.9273 0.0000
# 4 0.0000 0.0000 0.0000 50.0475 0.0000 -10.8099
# 5 -0.3369 0.2278 -6.9273 0.0000 23.2648 0.0000
# 6 0.0000 0.0000 0.0000 -10.8099 0.0000 27.3696
#
#
#
# Elastic Compliance Matrix: (Units=1/GPa)
#
#
# Indices 1 2 3 4 5 6 
#
# 1 0.021330 -0.003412 0.000454 0.000000 0.000478 0.000000
# 2 -0.003412 0.006574 -0.004766 0.000000 -0.001533 0.000000
# 3 0.000454 -0.004766 0.017770 0.000000 0.005344 0.000000
# 4 0.000000 0.000000 0.000000 0.021845 0.000000 0.008628
# 5 0.000478 -0.001533 0.005344 0.000000 0.044597 0.000000
# 6 0.000000 0.000000 0.000000 0.008628 0.000000 0.039945
#
#
# Mechanical properties :
#
#
# Convention : Reuss Voigt Hill
#
# Bulk Modulus (GPa) = 33.08414 58.13846 45.61130
# Shear Modulus (GPa) = 28.15583 36.06444 32.11013
#
# Velocity S-wave (km/s) = 3.43180 3.88399 3.66487
# Velocity P-wave (km/s) = 5.43523 6.66577 6.08170
#
# Compressibility (1/GPa) = 0.03022596
#
# Stress axis : x y z
#
# Youngs Moduli (GPa) = 46.88318 152.11191 56.27375
#
# Poissons Ratio (x) = 0.51903 -0.02555
# Poissons Ratio (y) = 0.15997 0.26820
# Poissons Ratio (z) = -0.02129 0.72496
#
# Static dielectric constant tensor:
#      x y z
#    x 1.957010 0.000000 0.028570 
#    y 0.000000 1.984560 0.000000 
#    z 0.028570 0.000000 2.130270 
# 
# From -- ./inp_files/67896.got.cif
#   From: 2010.05.17/outbox.cif.g08.bks.cpg/sg5_34_cif.got.tgz:67896.got - 2010.06.03 18:56:24.
