data_PCOD9126001
_publ_section_title
;
Structure prediction by ZEFSAII (Michael W. Deem and Ramdas Pophale) SiO2 
 PCOD9126001
Probable space group: C 2
;
_chemical_formula_sum "Si O2"
_cell_formula_units_Z 24
_cell_length_a 19.055683
_cell_length_b 7.663487
_cell_length_c 22.839875
_cell_angle_alpha 90.000000
_cell_angle_beta 21.362479
_cell_angle_gamma 90.000000
_cell_volume 1214.967007
_symmetry_space_group_name_H-M "C 2"
_symmetry_group_IT_number 5
_symmetry_cell_setting 'monoclinic'
loop_
_space_group_symop_operation_xyz
x,y,z
-x,y,-z
1/2+x,1/2+y,z
1/2-x,1/2+y,-z
loop_
_atom_site_type_symbol
_atom_site_label
_atom_site_fract_x
_atom_site_fract_y
_atom_site_fract_z
Si Si1 0.486414 0.355890 0.286036
Si Si2 0.358595 0.498471 0.275851
Si Si3 0.500000 0.192063 0.500000
Si Si4 0.173217 0.619662 0.677544
Si Si5 0.078515 0.976458 0.344038
Si Si6 0.927286 0.322135 0.930006
Si Si7 0.500000 0.971646 0.000000
O O1 0.368196 0.495916 0.339289
O O2 0.394570 0.173545 0.335338
O O3 0.504963 0.397323 0.339440
O O4 0.704228 0.360466 0.092065
O O5 0.382082 0.293742 0.243160
O O6 0.522415 0.624645 0.124608
O O7 0.161567 0.575399 0.404675
O O8 0.592718 0.319444 0.379454
O O9 0.402537 0.596417 0.501567
O O10 0.065232 0.450959 0.785869
O O11 0.290486 0.061542 0.172209
O O12 0.964531 0.359333 0.969325
#
# Coordination Sequence:
#
# PCOD9126001 Si02
#       7
#     4   4   2   4   4   4   2
#     4   9  24  38  66  99 130 167 224 268 324 390
#     4  10  23  38  65  97 121 171 222 265 317 390
#     4  12  22  40  68  86 136 172 212 266 334 378
#     4  10  23  38  68  92 126 176 222 262 322 393
#     4  11  21  41  65  96 129 178 211 272 332 389
#     4  11  19  44  64  92 138 168 215 271 335 378
#     4  10  22  36  70  90 124 182 210 260 342 388
#
# _framework density 19.753623999999999
#
# number of rings (size 3 to 8) (size 9 to 14) (size 15 to 20)
#    1.000    0.667    3.333    1.000    2.333    2.000 
#    0.000    0.833   11.000    0.000    0.000    0.000 
#    0.000    0.000    0.000    0.000    0.000    0.000 
#
# Total GULP energy -66836.800782 kJ/mol
# GULP energy per Si atom -5569.733399 kJ/mol
# Density = 1.970866 g / cm^3
# Si number density = 19.753624 Si / 1000 Ang^3
#
#
#
# Elastic Constant Matrix: (Units=GPa)
#
#
# Indices 1 2 3 4 5 6 
#
# 1 121.9727 17.0123 32.8543 -0.0009 -15.8823 0.0000
# 2 17.0123 70.4312 31.5194 -0.0044 -6.9867 0.0005
# 3 32.8543 31.5194 75.8074 -0.0147 -12.8068 0.0031
# 4 -0.0009 -0.0044 -0.0147 15.4222 0.0041 -10.0129
# 5 -15.8823 -6.9867 -12.8068 0.0041 29.2944 0.0000
# 6 0.0000 0.0005 0.0031 -10.0129 0.0000 22.4117
#
#
#
# Elastic Compliance Matrix: (Units=1/GPa)
#
#
# Indices 1 2 3 4 5 6 
#
# 1 0.009646 -0.000458 -0.003374 -0.000005 0.003645 -0.000002
# 2 -0.000458 0.017497 -0.006925 -0.000002 0.000897 0.000000
# 3 -0.003374 -0.006925 0.018296 0.000018 0.004518 0.000006
# 4 -0.000005 -0.000002 0.000018 0.091335 -0.000008 0.040806
# 5 0.003645 0.000897 0.004518 -0.000008 0.038302 -0.000004
# 6 -0.000002 0.000000 0.000006 0.040806 -0.000004 0.062850
#
#
# Mechanical properties :
#
#
# Convention : Reuss Voigt Hill
#
# Bulk Modulus (GPa) = 41.79787 47.88702 44.84244
# Shear Modulus (GPa) = 18.69753 25.88069 22.28911
#
# Velocity S-wave (km/s) = 3.07992 3.62356 3.36274
# Velocity P-wave (km/s) = 5.81837 6.46542 6.15041
#
# Compressibility (1/GPa) = 0.02392466
#
# Stress axis : x y z
#
# Youngs Moduli (GPa) = 103.67008 57.15296 54.65673
#
# Poissons Ratio (x) = 0.02620 0.18442
# Poissons Ratio (y) = 0.04752 0.37848
# Poissons Ratio (z) = 0.34979 0.39577
#
# Static dielectric constant tensor:
#      x y z
#    x 1.721680 0.000000 -0.004140 
#    y 0.000000 1.666880 0.000000 
#    z -0.004140 0.000000 1.733750 
# 
# From -- ./inp_files/69397.got.cif
#   From: 2010.05.17/outbox.cif.g08.bks.cpg/sg5_35_cif.got.tgz:69397.got - 2010.06.03 18:56:24.
