data_PCOD9126363
_publ_section_title
;
Structure prediction by ZEFSAII (Michael W. Deem and Ramdas Pophale) SiO2 
 PCOD9126363
Probable space group: C 2
;
_chemical_formula_sum "Si O2"
_cell_formula_units_Z 24
_cell_length_a 18.732970
_cell_length_b 8.932584
_cell_length_c 14.677452
_cell_angle_alpha 90.000000
_cell_angle_beta 28.276213
_cell_angle_gamma 90.000000
_cell_volume 1163.478990
_symmetry_space_group_name_H-M "C 2"
_symmetry_group_IT_number 5
_symmetry_cell_setting 'monoclinic'
loop_
_space_group_symop_operation_xyz
x,y,z
-x,y,-z
1/2+x,1/2+y,z
1/2-x,1/2+y,-z
loop_
_atom_site_type_symbol
_atom_site_label
_atom_site_fract_x
_atom_site_fract_y
_atom_site_fract_z
Si Si1 0.000000 0.205251 0.500000
Si Si2 0.500000 0.221519 0.000000
Si Si3 0.108417 0.248049 0.061691
Si Si4 0.902398 0.412680 0.441757
Si Si5 0.576689 0.189988 0.192951
Si Si6 0.295116 0.034094 0.132555
Si Si7 0.945224 0.935196 0.224231
O O1 0.926141 0.314051 0.506345
O O2 0.874292 0.094842 0.683842
O O3 0.359390 0.110023 0.151888
O O4 0.511044 0.331337 0.071370
O O5 0.991513 0.325353 0.262281
O O6 0.264357 0.223041 0.939726
O O7 0.159960 0.360542 0.923350
O O8 0.029569 0.092749 0.124914
O O9 0.731887 0.438682 0.599449
O O10 0.980532 0.575068 0.361374
O O11 0.487515 0.341907 0.267810
O O12 0.618014 0.102588 0.052847
#
# Coordination Sequence:
#
# PCOD9126363 Si02
#       7
#     2   2   4   4   4   4   4
#     4  12  22  42  70  96 138 170 226 288 330 386
#     4  10  22  40  62  92 128 170 218 282 340 380
#     4  11  23  41  67  96 133 183 224 267 336 415
#     4  11  23  40  67 100 130 177 228 274 335 394
#     4  10  22  40  65  96 130 176 225 268 333 406
#     4  10  22  41  63  93 129 178 215 275 336 392
#     4  11  22  40  67  93 136 173 224 279 330 393
#
# _framework density 20.627789
#
# number of rings (size 3 to 8) (size 9 to 14) (size 15 to 20)
#    0.000    1.333    3.333    3.000    2.333    0.667 
#    0.000    4.167    0.000    0.000    0.000    0.000 
#    0.000    0.000    0.000    0.000    0.000    0.000 
#
# Total GULP energy -66912.480497 kJ/mol
# GULP energy per Si atom -5576.040041 kJ/mol
# Density = 2.058084 g / cm^3
# Si number density = 20.627789 Si / 1000 Ang^3
#
#
#
# Elastic Constant Matrix: (Units=GPa)
#
#
# Indices 1 2 3 4 5 6 
#
# 1 73.4397 62.4775 29.8615 0.0000 -24.0027 0.0000
# 2 62.4775 166.4977 58.4762 0.0000 -14.7059 0.0000
# 3 29.8615 58.4762 69.9426 0.0000 -25.9841 0.0000
# 4 0.0000 0.0000 0.0000 31.4309 0.0000 -14.0985
# 5 -24.0027 -14.7059 -25.9841 0.0000 37.0225 0.0000
# 6 0.0000 0.0000 0.0000 -14.0985 0.0000 16.1367
#
#
#
# Elastic Compliance Matrix: (Units=1/GPa)
#
#
# Indices 1 2 3 4 5 6 
#
# 1 0.024868 -0.008766 0.001904 0.000000 0.013977 0.000000
# 2 -0.008766 0.011725 -0.008713 0.000000 -0.007141 0.000000
# 3 0.001904 -0.008713 0.026976 0.000000 0.016706 0.000000
# 4 0.000000 0.000000 0.000000 0.052320 0.000000 0.045712
# 5 0.013977 -0.007141 0.016706 0.000000 0.044961 0.000000
# 6 0.000000 0.000000 0.000000 0.045712 0.000000 0.101909
#
#
# Mechanical properties :
#
#
# Convention : Reuss Voigt Hill
#
# Bulk Modulus (GPa) = 30.84626 67.94559 49.39592
# Shear Modulus (GPa) = 16.40881 27.52234 21.96557
#
# Velocity S-wave (km/s) = 2.82347 3.65668 3.26675
# Velocity P-wave (km/s) = 5.06118 7.13013 6.18281
#
# Compressibility (1/GPa) = 0.03241884
#
# Stress axis : x y z
#
# Youngs Moduli (GPa) = 40.21241 85.28886 37.07038
#
# Poissons Ratio (x) = 0.74763 -0.07059
# Poissons Ratio (y) = 0.35249 0.32300
# Poissons Ratio (z) = -0.07657 0.74314
#
# Static dielectric constant tensor:
#      x y z
#    x 1.802470 0.000000 0.001290 
#    y 0.000000 1.781180 0.000000 
#    z 0.001290 0.000000 1.746720 
# 
# From -- ./inp_files/22915.got.cif
#   From: 2010.05.17/outbox.cif.g08.bks.cpg/sg5_12_cif.got.tgz:22915.got - 2010.06.03 18:56:24.
