data_PCOD9126382
_publ_section_title
;
Structure prediction by ZEFSAII (Michael W. Deem and Ramdas Pophale) SiO2 
 PCOD9126382
Probable space group: C 2
;
_chemical_formula_sum "Si O2"
_cell_formula_units_Z 30
_cell_length_a 28.863797
_cell_length_b 5.488073
_cell_length_c 26.576678
_cell_angle_alpha 90.000000
_cell_angle_beta 158.788297
_cell_angle_gamma 90.000000
_cell_volume 1523.212859
_symmetry_space_group_name_H-M "C 2"
_symmetry_group_IT_number 5
_symmetry_cell_setting 'monoclinic'
loop_
_space_group_symop_operation_xyz
x,y,z
-x,y,-z
1/2+x,1/2+y,z
1/2-x,1/2+y,-z
loop_
_atom_site_type_symbol
_atom_site_label
_atom_site_fract_x
_atom_site_fract_y
_atom_site_fract_z
Si Si1 0.844673 0.581590 0.983827
Si Si2 0.189683 0.756446 0.753892
Si Si3 0.000000 0.102528 0.500000
Si Si4 0.169400 0.127701 0.203794
Si Si5 0.171566 0.594852 0.921225
Si Si6 0.347335 0.819656 0.438275
Si Si7 0.585046 0.134513 0.158558
Si Si8 0.090781 0.415524 0.734922
O O1 0.786871 0.354406 0.894767
O O2 0.718722 0.751990 0.861157
O O3 0.891999 0.547414 0.088845
O O4 0.962646 0.667546 0.069684
O O5 0.270577 0.644374 0.790534
O O6 0.099470 0.579426 0.693851
O O7 0.098640 0.951885 0.634581
O O8 0.089909 0.241926 0.551511
O O9 0.091663 0.371852 0.138341
O O10 0.284393 0.083218 0.361129
O O11 0.094678 0.873745 0.133582
O O12 0.095211 0.554739 0.792315
O O13 0.275917 0.372609 0.025952
O O14 0.223197 0.657999 0.325522
O O15 0.454798 0.789733 0.589148
#
# Coordination Sequence:
#
# PCOD9126382 Si02
#       8
#     4   4   2   4   4   4   4   4
#     4  11  25  43  67  94 133 169 226 271 337 385
#     4  12  22  37  64  96 129 174 215 269 323 391
#     4  12  20  40  60 100 132 176 216 272 318 388
#     4  10  23  42  60  87 140 169 214 247 320 391
#     4  10  22  44  66  99 130 162 218 290 331 380
#     4  10  22  40  63  93 134 170 212 267 319 391
#     4  10  25  44  61  91 137 179 199 268 318 396
#     4  11  23  39  70  97 122 171 223 277 332 379
#
# _framework density 19.695212999999999
#
# number of rings (size 3 to 8) (size 9 to 14) (size 15 to 20)
#    0.800    0.533    4.000    1.600    3.733    0.533 
#    0.000    0.000    2.933    0.000    0.000    0.000 
#    0.000    0.000    0.000    0.000    0.000    0.000 
#
# Total GULP energy -83553.447275 kJ/mol
# GULP energy per Si atom -5570.229818 kJ/mol
# Density = 1.965039 g / cm^3
# Si number density = 19.695213 Si / 1000 Ang^3
#
#
#
# Elastic Constant Matrix: (Units=GPa)
#
#
# Indices 1 2 3 4 5 6 
#
# 1 75.3463 22.6226 28.2729 0.0010 -2.6345 0.0002
# 2 22.6226 75.5896 5.6998 -0.0039 5.2451 -0.0043
# 3 28.2729 5.6998 87.2800 0.0000 11.9921 0.0001
# 4 0.0010 -0.0039 0.0000 73.1042 0.0003 23.5762
# 5 -2.6345 5.2451 11.9921 0.0003 26.7139 0.0002
# 6 0.0002 -0.0043 0.0001 23.5762 0.0002 17.4748
#
#
#
# Elastic Compliance Matrix: (Units=1/GPa)
#
#
# Indices 1 2 3 4 5 6 
#
# 1 0.017234 -0.005080 -0.005991 0.000000 0.005386 -0.000001
# 2 -0.005080 0.014934 0.001217 -0.000001 -0.003979 0.000005
# 3 -0.005991 0.001217 0.014316 0.000000 -0.007256 0.000000
# 4 0.000000 -0.000001 0.000000 0.024215 0.000000 -0.032670
# 5 0.005386 -0.003979 -0.007256 0.000000 0.042004 -0.000002
# 6 -0.000001 0.000005 0.000000 -0.032670 -0.000002 0.101302
#
#
# Mechanical properties :
#
#
# Convention : Reuss Voigt Hill
#
# Bulk Modulus (GPa) = 37.34702 39.04519 38.19610
# Shear Modulus (GPa) = 20.60697 35.56663 28.08680
#
# Velocity S-wave (km/s) = 3.23815 4.25414 3.78043
# Velocity P-wave (km/s) = 5.74321 6.63310 6.20413
#
# Compressibility (1/GPa) = 0.02677590
#
# Stress axis : x y z
#
# Youngs Moduli (GPa) = 58.02634 66.96152 69.85424
#
# Poissons Ratio (x) = 0.34014 0.41849
# Poissons Ratio (y) = 0.29476 -0.08501
# Poissons Ratio (z) = 0.34763 -0.08149
#
# Static dielectric constant tensor:
#      x y z
#    x 1.676470 0.000000 -0.019660 
#    y 0.000000 1.774020 0.000000 
#    z -0.019660 0.000000 1.808790 
# 
# From -- ./inp_files/71451.got.cif
#   From: 2010.05.17/outbox.cif.g08.bks.cpg/sg5_36_cif.got.tgz:71451.got - 2010.06.03 18:56:24.
