data_PCOD9126104
_publ_section_title
;
Structure prediction by ZEFSAII (Michael W. Deem and Ramdas Pophale) SiO2 
 PCOD9126104
Probable space group: C 2
;
_chemical_formula_sum "Si O2"
_cell_formula_units_Z 30
_cell_length_a 9.591318
_cell_length_b 8.159981
_cell_length_c 29.704072
_cell_angle_alpha 90.000000
_cell_angle_beta 145.450811
_cell_angle_gamma 90.000000
_cell_volume 1318.418990
_symmetry_space_group_name_H-M "C 2"
_symmetry_group_IT_number 5
_symmetry_cell_setting 'monoclinic'
loop_
_space_group_symop_operation_xyz
x,y,z
-x,y,-z
1/2+x,1/2+y,z
1/2-x,1/2+y,-z
loop_
_atom_site_type_symbol
_atom_site_label
_atom_site_fract_x
_atom_site_fract_y
_atom_site_fract_z
Si Si1 0.431694 0.873930 0.932771
Si Si2 0.381971 0.499961 0.014464
Si Si3 0.890076 0.311338 0.695662
Si Si4 0.264247 0.259293 0.248876
Si Si5 0.874012 0.501258 0.608883
Si Si6 0.771786 0.931415 0.651579
Si Si7 0.000000 0.249856 0.500000
Si Si8 0.937044 0.940630 0.840165
O O1 0.533863 0.688851 0.959868
O O2 0.138577 0.876747 0.858305
O O3 0.500000 0.949482 0.000000
O O4 0.587255 0.974098 0.937472
O O5 0.480928 0.416339 0.086330
O O6 0.500000 0.433301 0.000000
O O7 0.840580 0.353100 0.735238
O O8 0.753634 0.413083 0.619970
O O9 0.178480 0.349144 0.765560
O O10 0.813877 0.125150 0.666103
O O11 0.443482 0.128126 0.319370
O O12 0.454141 0.360739 0.269487
O O13 0.084410 0.137840 0.174277
O O14 0.695849 0.617189 0.532334
O O15 0.055383 0.385739 0.629052
O O16 0.656108 0.863834 0.574601
#
# Coordination Sequence:
#
# PCOD9126104 Si02
#       8
#     4   4   4   4   4   4   2   4
#     4   9  21  40  58  84 119 153 196 248 301 362
#     4  10  22  39  61  89 121 158 204 255 304 366
#     4  10  22  39  60  88 122 162 207 254 301 362
#     4   9  21  39  58  87 122 158 200 247 300 362
#     4   9  21  39  58  84 122 157 198 252 300 357
#     4  10  22  40  62  91 122 157 207 252 299 365
#     4  10  22  38  62  92 124 162 200 250 314 360
#     4  10  22  40  61  87 124 163 199 252 314 362
#
# _framework density 22.754525999999998
#
# number of rings (size 3 to 8) (size 9 to 14) (size 15 to 20)
#    0.000    2.400    0.000    0.000    0.000   18.133 
#    0.000    0.000    0.000    0.000    0.000    0.000 
#    0.000    0.000    0.000    0.000    0.000    0.000 
#
# Total GULP energy -83525.629297 kJ/mol
# GULP energy per Si atom -5568.375286 kJ/mol
# Density = 2.270274 g / cm^3
# Si number density = 22.754526 Si / 1000 Ang^3
#
#
#
# Elastic Constant Matrix: (Units=GPa)
#
#
# Indices 1 2 3 4 5 6 
#
# 1 153.6738 39.2702 42.6994 0.0000 1.1788 0.0000
# 2 39.2702 44.3215 24.2063 0.0000 1.2412 0.0000
# 3 42.6994 24.2063 70.1301 0.0000 -2.8834 0.0000
# 4 0.0000 0.0000 0.0000 34.7001 0.0000 6.4677
# 5 1.1788 1.2412 -2.8834 0.0000 29.0938 0.0000
# 6 0.0000 0.0000 0.0000 6.4677 0.0000 28.0614
#
#
#
# Elastic Compliance Matrix: (Units=1/GPa)
#
#
# Indices 1 2 3 4 5 6 
#
# 1 0.009019 -0.006124 -0.003396 0.000000 -0.000441 0.000000
# 2 -0.006124 0.032097 -0.007426 0.000000 -0.001857 0.000000
# 3 -0.003396 -0.007426 0.018986 0.000000 0.002336 0.000000
# 4 0.000000 0.000000 0.000000 0.030112 0.000000 -0.006940
# 5 -0.000441 -0.001857 0.002336 0.000000 0.034700 0.000000
# 6 0.000000 0.000000 0.000000 -0.006940 0.000000 0.037236
#
#
# Mechanical properties :
#
#
# Convention : Reuss Voigt Hill
#
# Bulk Modulus (GPa) = 38.15396 53.38635 45.77015
# Shear Modulus (GPa) = 24.41665 29.16770 26.79217
#
# Velocity S-wave (km/s) = 3.27929 3.58417 3.43511
# Velocity P-wave (km/s) = 5.58054 6.37504 5.99097
#
# Compressibility (1/GPa) = 0.02620960
#
# Stress axis : x y z
#
# Youngs Moduli (GPa) = 110.87429 31.15593 52.67063
#
# Poissons Ratio (x) = 0.19081 0.17885
# Poissons Ratio (y) = 0.67904 0.39113
# Poissons Ratio (z) = 0.37649 0.23136
#
# Static dielectric constant tensor:
#      x y z
#    x 2.001940 0.000000 0.002430 
#    y 0.000000 1.859250 0.000000 
#    z 0.002430 0.000000 1.984590 
# 
# From -- ./inp_files/64322.got.cif
#   From: 2010.05.17/outbox.cif.g08.bks.cpg/sg5_33_cif.got.tgz:64322.got - 2010.06.03 18:56:24.
