data_PCOD9126731
_publ_section_title
;
Structure prediction by ZEFSAII (Michael W. Deem and Ramdas Pophale) SiO2 
 PCOD9126731
Probable space group: C 2
;
_chemical_formula_sum "Si O2"
_cell_formula_units_Z 24
_cell_length_a 10.450463
_cell_length_b 21.840561
_cell_length_c 5.789495
_cell_angle_alpha 90.000000
_cell_angle_beta 124.189160
_cell_angle_gamma 90.000000
_cell_volume 1093.059124
_symmetry_space_group_name_H-M "C 2"
_symmetry_group_IT_number 5
_symmetry_cell_setting 'monoclinic'
loop_
_space_group_symop_operation_xyz
x,y,z
-x,y,-z
1/2+x,1/2+y,z
1/2-x,1/2+y,-z
loop_
_atom_site_type_symbol
_atom_site_label
_atom_site_fract_x
_atom_site_fract_y
_atom_site_fract_z
Si Si1 0.839378 0.285780 0.089540
Si Si2 0.000000 0.521614 0.500000
Si Si3 0.808872 0.242217 0.561357
Si Si4 0.288874 0.924518 0.020409
Si Si5 0.668043 0.511011 0.563861
Si Si6 0.646636 0.118059 0.294278
Si Si7 0.000000 0.960593 0.000000
O O1 0.762038 0.269545 0.259851
O O2 0.865368 0.358565 0.111190
O O3 0.004628 0.250790 0.252817
O O4 0.759131 0.270361 0.760595
O O5 0.890242 0.475843 0.248325
O O6 0.914295 0.568030 0.585434
O O7 0.744467 0.173430 0.494059
O O8 0.116288 0.921116 0.958793
O O9 0.266160 0.952120 0.741058
O O10 0.500000 0.505556 0.500000
O O11 0.740835 0.573202 0.733621
O O12 0.620883 0.504537 0.252008
O O13 0.500000 0.140344 0.000000
#
# Coordination Sequence:
#
# PCOD9126731 Si02
#       7
#     4   2   4   4   4   4   2
#     4  10  24  47  75 101 136 193 250 298 350 441
#     4  12  24  42  72 110 140 192 226 318 372 430
#     4  10  25  46  69 103 135 196 246 292 353 422
#     4  11  23  43  74 105 143 177 248 295 377 433
#     4  10  23  41  68 104 139 186 229 301 372 433
#     4  12  26  44  68 103 151 184 248 297 361 442
#     4  10  22  42  62 106 140 178 222 296 374 424
#
# _framework density 21.956727999999998
#
# number of rings (size 3 to 8) (size 9 to 14) (size 15 to 20)
#    0.000    1.333    3.333    1.000    7.000    4.000 
#    1.500    0.000    0.000    0.000    0.000    0.000 
#    0.000    0.000    0.000    0.000    0.000    0.000 
#
# Total GULP energy -66840.556865 kJ/mol
# GULP energy per Si atom -5570.046405 kJ/mol
# Density = 2.190675 g / cm^3
# Si number density = 21.956728 Si / 1000 Ang^3
#
#
#
# Elastic Constant Matrix: (Units=GPa)
#
#
# Indices 1 2 3 4 5 6 
#
# 1 45.0019 40.0325 37.2001 0.0000 7.0648 0.0000
# 2 40.0325 164.4361 55.7712 0.0000 8.4535 0.0000
# 3 37.2001 55.7712 121.6628 0.0000 -12.8107 0.0000
# 4 0.0000 0.0000 0.0000 27.7767 0.0000 -6.9448
# 5 7.0648 8.4535 -12.8107 0.0000 35.4498 0.0000
# 6 0.0000 0.0000 0.0000 -6.9448 0.0000 7.5509
#
#
#
# Elastic Compliance Matrix: (Units=1/GPa)
#
#
# Indices 1 2 3 4 5 6 
#
# 1 0.036295 -0.005018 -0.009806 0.000000 -0.009581 0.000000
# 2 -0.005018 0.008221 -0.002428 0.000000 -0.001838 0.000000
# 3 -0.009806 -0.002428 0.013096 0.000000 0.007266 0.000000
# 4 0.000000 0.000000 0.000000 0.046752 0.000000 0.043000
# 5 -0.009581 -0.001838 0.007266 0.000000 0.033182 0.000000
# 6 0.000000 0.000000 0.000000 0.043000 0.000000 0.171983
#
#
# Mechanical properties :
#
#
# Convention : Reuss Voigt Hill
#
# Bulk Modulus (GPa) = 43.27470 66.34538 54.81004
# Shear Modulus (GPa) = 14.21521 27.36195 20.78858
#
# Velocity S-wave (km/s) = 2.54720 3.53395 3.08035
# Velocity P-wave (km/s) = 5.32943 6.85082 6.13745
#
# Compressibility (1/GPa) = 0.02310819
#
# Stress axis : x y z
#
# Youngs Moduli (GPa) = 27.55182 121.64177 76.35992
#
# Poissons Ratio (x) = 0.61036 0.74882
# Poissons Ratio (y) = 0.13825 0.18539
# Poissons Ratio (z) = 0.27019 0.29532
#
# Static dielectric constant tensor:
#      x y z
#    x 1.932630 0.000000 -0.171880 
#    y 0.000000 1.741900 0.000000 
#    z -0.171880 0.000000 1.895480 
# 
# From -- ./inp_files/5550.got.cif
#   From: 2010.05.17/outbox.cif.g08.bks.cpg/sg5_3_cif.got.tgz:5550.got - 2010.06.03 18:56:24.
