data_PCOD9126125
_publ_section_title
;
Structure prediction by ZEFSAII (Michael W. Deem and Ramdas Pophale) SiO2 
 PCOD9126125
Probable space group: C 2
;
_chemical_formula_sum "Si O2"
_cell_formula_units_Z 28
_cell_length_a 13.189753
_cell_length_b 14.042607
_cell_length_c 6.129908
_cell_angle_alpha 90.000000
_cell_angle_beta 77.321784
_cell_angle_gamma 90.000000
_cell_volume 1107.689890
_symmetry_space_group_name_H-M "C 2"
_symmetry_group_IT_number 5
_symmetry_cell_setting 'monoclinic'
loop_
_space_group_symop_operation_xyz
x,y,z
-x,y,-z
1/2+x,1/2+y,z
1/2-x,1/2+y,-z
loop_
_atom_site_type_symbol
_atom_site_label
_atom_site_fract_x
_atom_site_fract_y
_atom_site_fract_z
Si Si1 0.226669 0.764410 0.969146
Si Si2 0.579348 0.582873 0.771031
Si Si3 0.000000 0.758776 0.000000
Si Si4 0.147566 0.399007 0.366732
Si Si5 0.725696 0.048396 0.028598
Si Si6 0.411023 0.797039 0.212819
Si Si7 0.500000 0.268230 0.500000
Si Si8 0.160460 0.937945 0.414416
O O1 0.113343 0.811497 0.968828
O O2 0.313135 0.800162 0.758421
O O3 0.195679 0.652933 0.954720
O O4 0.295389 0.788309 0.156288
O O5 0.690714 0.580161 0.833311
O O6 0.560427 0.691840 0.718076
O O7 0.586825 0.514093 0.566283
O O8 0.500000 0.554216 0.000000
O O9 0.006871 0.718480 0.739641
O O10 0.140127 0.481348 0.186693
O O11 0.076250 0.374053 0.604702
O O12 0.248557 0.428438 0.455726
O O13 0.787315 0.984621 0.823876
O O14 0.500000 0.820738 0.000000
O O15 0.597782 0.339403 0.431237
#
# Coordination Sequence:
#
# PCOD9126125 Si02
#       8
#     4   4   2   4   4   4   2   4
#     4  11  24  44  72 100 145 187 243 298 366 438
#     4   9  19  34  57  96 134 172 224 295 370 432
#     4  12  26  46  70 108 144 200 244 298 368 446
#     4  11  21  40  66  96 137 184 234 299 360 425
#     4  10  22  38  63  98 132 184 236 293 355 433
#     4  10  22  41  68 101 137 185 241 299 369 438
#     4  12  24  38  70 104 144 188 246 302 382 436
#     4  11  21  35  61  96 138 177 234 299 363 434
#
# _framework density 25.277833999999999
#
# number of rings (size 3 to 8) (size 9 to 14) (size 15 to 20)
#    0.000    1.429    1.429    4.286    3.000    0.571 
#    0.000    4.286    9.429    0.000    0.000    0.000 
#    0.000    0.000    0.000    0.000    0.000    0.000 
#
# Total GULP energy -77977.540985 kJ/mol
# GULP energy per Si atom -5569.824356 kJ/mol
# Density = 2.522030 g / cm^3
# Si number density = 25.277834 Si / 1000 Ang^3
#
#
#
# Elastic Constant Matrix: (Units=GPa)
#
#
# Indices 1 2 3 4 5 6 
#
# 1 89.5722 1.9494 0.7536 0.0000 14.2404 0.0000
# 2 1.9494 115.7087 52.9709 0.0000 -9.9245 0.0000
# 3 0.7536 52.9709 124.6427 0.0000 -4.8251 0.0000
# 4 0.0000 0.0000 0.0000 -15.9071 0.0000 -20.9391
# 5 14.2404 -9.9245 -4.8251 0.0000 44.1178 0.0000
# 6 0.0000 0.0000 0.0000 -20.9391 0.0000 12.7454
#
#
#
# Elastic Compliance Matrix: (Units=1/GPa)
#
#
# Indices 1 2 3 4 5 6 
#
# 1 0.011801 -0.000538 0.000005 0.000000 -0.003930 0.000000
# 2 -0.000538 0.010919 -0.004555 0.000000 0.002132 0.000000
# 3 0.000005 -0.004555 0.009961 0.000000 0.000063 0.000000
# 4 0.000000 0.000000 0.000000 -0.019878 0.000000 -0.032657
# 5 -0.003930 0.002132 0.000063 0.000000 0.024421 0.000000
# 6 0.000000 0.000000 0.000000 -0.032657 0.000000 0.024809
#
#
# Mechanical properties :
#
#
# Convention : Reuss Voigt Hill
#
# Bulk Modulus (GPa) = 44.43347 49.03014 46.73180
# Shear Modulus (GPa) = 62.72661 26.47453 44.60057
#
# Velocity S-wave (km/s) = 4.98686 3.23978 4.20505
# Velocity P-wave (km/s) = 7.12562 5.78217 6.48876
#
# Compressibility (1/GPa) = 0.02250556
#
# Stress axis : x y z
#
# Youngs Moduli (GPa) = 84.74166 91.57939 100.39104
#
# Poissons Ratio (x) = 0.04929 -0.00053
# Poissons Ratio (y) = 0.04561 0.45726
# Poissons Ratio (z) = -0.00045 0.41713
#
# Static dielectric constant tensor:
#      x y z
#    x 2.163910 0.000000 -0.099010 
#    y 0.000000 2.071370 0.000000 
#    z -0.099010 0.000000 2.152100 
# 
# From -- ./inp_files/7202.got.cif
#   From: 2010.05.17/outbox.cif.g08.bks.cpg/sg5_4_cif.got.tgz:7202.got - 2010.06.03 18:56:24.
