data_PCOD9126162
_publ_section_title
;
Structure prediction by ZEFSAII (Michael W. Deem and Ramdas Pophale) SiO2 
 PCOD9126162
Probable space group: C 2
;
_chemical_formula_sum "Si O2"
_cell_formula_units_Z 24
_cell_length_a 13.744417
_cell_length_b 7.938968
_cell_length_c 16.630248
_cell_angle_alpha 90.000000
_cell_angle_beta 33.353352
_cell_angle_gamma 90.000000
_cell_volume 997.687458
_symmetry_space_group_name_H-M "C 2"
_symmetry_group_IT_number 5
_symmetry_cell_setting 'monoclinic'
loop_
_space_group_symop_operation_xyz
x,y,z
-x,y,-z
1/2+x,1/2+y,z
1/2-x,1/2+y,-z
loop_
_atom_site_type_symbol
_atom_site_label
_atom_site_fract_x
_atom_site_fract_y
_atom_site_fract_z
Si Si1 0.187090 0.836690 0.324459
Si Si2 0.658626 0.593134 0.647587
Si Si3 0.842905 0.893599 0.930872
Si Si4 0.294443 0.587501 0.124548
Si Si5 0.029001 0.407517 0.648191
Si Si6 0.498899 0.038417 0.151604
O O1 0.294672 0.704061 0.306569
O O2 0.187548 0.744380 0.237470
O O3 0.000000 0.863727 0.500000
O O4 0.314917 0.998836 0.234145
O O5 0.501044 0.463990 0.769397
O O6 0.835218 0.495484 0.504023
O O7 0.592362 0.721108 0.624816
O O8 0.915800 0.722188 0.919645
O O9 0.804749 0.034774 0.024550
O O10 0.648887 0.899474 0.024234
O O11 0.172547 0.432084 0.241361
O O12 0.500000 0.600146 0.000000
O O13 0.043034 0.506984 0.724436
#
# Coordination Sequence:
#
# PCOD9126162 Si02
#       6
#     4   4   4   4   4   4
#     4  11  22  43  68  96 135 180 217 278 338 394
#     4  11  21  41  69  96 132 179 222 275 329 395
#     4  11  22  42  70  98 134 174 224 281 324 407
#     4  11  22  39  67  94 132 175 221 265 348 392
#     4  10  22  38  66  98 127 177 229 267 328 399
#     4  10  23  41  68 101 128 172 232 273 331 392
#
# _framework density 24.055630000000001
#
# number of rings (size 3 to 8) (size 9 to 14) (size 15 to 20)
#    0.000    1.333    3.333    4.000    2.333    0.000 
#    0.000    6.667    0.000    0.000    0.000    0.000 
#    0.000    0.000    0.000    0.000    0.000    0.000 
#
# Total GULP energy -66955.082241 kJ/mol
# GULP energy per Si atom -5579.590187 kJ/mol
# Density = 2.400088 g / cm^3
# Si number density = 24.055630 Si / 1000 Ang^3
#
#
#
# Elastic Constant Matrix: (Units=GPa)
#
#
# Indices 1 2 3 4 5 6 
#
# 1 34.7368 24.9142 21.8987 0.0000 -12.7836 0.0000
# 2 24.9142 122.6317 46.4629 0.0000 -11.8371 0.0000
# 3 21.8987 46.4629 176.2226 0.0000 -32.8609 0.0000
# 4 0.0000 0.0000 0.0000 35.6207 0.0000 -3.5921
# 5 -12.7836 -11.8371 -32.8609 0.0000 41.0581 0.0000
# 6 0.0000 0.0000 0.0000 -3.5921 0.0000 26.1579
#
#
#
# Elastic Compliance Matrix: (Units=1/GPa)
#
#
# Indices 1 2 3 4 5 6 
#
# 1 0.037327 -0.006222 -0.001370 0.000000 0.008732 0.000000
# 2 -0.006222 0.010120 -0.002013 0.000000 -0.000630 0.000000
# 3 -0.001370 -0.002013 0.007273 0.000000 0.004814 0.000000
# 4 0.000000 0.000000 0.000000 0.028468 0.000000 0.003909
# 5 0.008732 -0.000630 0.004814 0.000000 0.030746 0.000000
# 6 0.000000 0.000000 0.000000 0.003909 0.000000 0.038766
#
#
# Mechanical properties :
#
#
# Convention : Reuss Voigt Hill
#
# Bulk Modulus (GPa) = 28.15920 57.79363 42.97641
# Shear Modulus (GPa) = 27.21138 36.58836 31.89987
#
# Velocity S-wave (km/s) = 3.36696 3.90422 3.64550
# Velocity P-wave (km/s) = 5.18136 6.66341 5.96856
#
# Compressibility (1/GPa) = 0.03551238
#
# Stress axis : x y z
#
# Youngs Moduli (GPa) = 26.79005 98.81183 137.48917
#
# Poissons Ratio (x) = 0.61477 0.18834
# Poissons Ratio (y) = 0.16668 0.27672
# Poissons Ratio (z) = 0.03670 0.19888
#
# Static dielectric constant tensor:
#      x y z
#    x 2.167100 0.000000 -0.040470 
#    y 0.000000 1.943400 0.000000 
#    z -0.040470 0.000000 1.891190 
# 
# From -- ./inp_files/61405.got.cif
#   From: 2010.05.17/outbox.cif.g08.bks.cpg/sg5_31_cif.got.tgz:61405.got - 2010.06.03 18:56:24.
