data_PCOD9126117
_publ_section_title
;
Structure prediction by ZEFSAII (Michael W. Deem and Ramdas Pophale) SiO2 
 PCOD9126117
Probable space group: C 2
;
_chemical_formula_sum "Si O2"
_cell_formula_units_Z 26
_cell_length_a 14.673800
_cell_length_b 4.907359
_cell_length_c 14.501213
_cell_angle_alpha 90.000000
_cell_angle_beta 71.488678
_cell_angle_gamma 90.000000
_cell_volume 990.199305
_symmetry_space_group_name_H-M "C 2"
_symmetry_group_IT_number 5
_symmetry_cell_setting 'monoclinic'
loop_
_space_group_symop_operation_xyz
x,y,z
-x,y,-z
1/2+x,1/2+y,z
1/2-x,1/2+y,-z
loop_
_atom_site_type_symbol
_atom_site_label
_atom_site_fract_x
_atom_site_fract_y
_atom_site_fract_z
Si Si1 0.333307 0.339640 0.706569
Si Si2 0.366418 0.248893 0.953133
Si Si3 0.386148 0.637797 0.203458
Si Si4 0.185787 0.788908 0.499832
Si Si5 0.000000 0.360008 0.000000
Si Si6 0.697134 0.752090 0.133653
Si Si7 0.541397 0.136764 0.704319
O O1 0.228032 0.200284 0.755164
O O2 0.266672 0.554732 0.470225
O O3 0.345743 0.361863 0.593066
O O4 0.323473 0.633520 0.760051
O O5 0.314830 0.061779 0.893062
O O6 0.460102 0.078288 0.939666
O O7 0.365179 0.553227 0.914790
O O8 0.305376 0.199785 0.065324
O O9 0.439850 0.843574 0.257004
O O10 0.427842 0.681821 0.086328
O O11 0.069173 0.704029 0.284561
O O12 0.101730 0.675916 0.591350
O O13 0.412783 0.346961 0.237026
#
# Coordination Sequence:
#
# PCOD9126117 Si02
#       7
#     4   4   4   4   2   4   4
#     4  12  25  48  76 104 146 198 230 308 366 426
#     4  10  22  38  63  87 136 166 234 274 335 408
#     4  12  28  47  74 109 153 186 255 294 358 440
#     4  12  25  48  76 107 145 184 244 303 366 441
#     4  12  24  46  66 108 136 200 224 306 348 418
#     4  10  22  41  59  96 122 181 223 278 333 417
#     4  12  27  50  73 111 144 194 242 305 363 441
#
# _framework density 26.257337
#
# number of rings (size 3 to 8) (size 9 to 14) (size 15 to 20)
#    0.000    0.615    4.615    2.308    0.000    7.385 
#    0.000    3.077    0.000    0.000    0.000    0.000 
#    0.000    0.000    0.000    0.000    0.000    0.000 
#
# Total GULP energy -72890.858874 kJ/mol
# GULP energy per Si atom -5606.989144 kJ/mol
# Density = 2.619757 g / cm^3
# Si number density = 26.257337 Si / 1000 Ang^3
#
#
#
# Elastic Constant Matrix: (Units=GPa)
#
#
# Indices 1 2 3 4 5 6 
#
# 1 130.5111 7.8948 31.9433 0.0000 -2.8700 -0.0001
# 2 7.8948 101.1645 7.0391 0.0001 2.5294 0.0005
# 3 31.9433 7.0391 191.2699 0.0000 -22.1980 0.0000
# 4 0.0000 0.0001 0.0000 36.6245 -0.0001 2.5189
# 5 -2.8700 2.5294 -22.1980 -0.0001 46.2130 0.0001
# 6 -0.0001 0.0005 0.0000 2.5189 0.0001 43.9010
#
#
#
# Elastic Compliance Matrix: (Units=1/GPa)
#
#
# Indices 1 2 3 4 5 6 
#
# 1 0.008018 -0.000530 -0.001333 0.000000 -0.000113 0.000000
# 2 -0.000530 0.009971 -0.000366 0.000000 -0.000754 0.000000
# 3 -0.001333 -0.000366 0.005779 0.000000 0.002713 0.000000
# 4 0.000000 0.000000 0.000000 0.027412 0.000000 -0.001573
# 5 -0.000113 -0.000754 0.002713 0.000000 0.022976 0.000000
# 6 0.000000 0.000000 0.000000 -0.001573 0.000000 0.022869
#
#
# Mechanical properties :
#
#
# Convention : Reuss Voigt Hill
#
# Bulk Modulus (GPa) = 51.78638 57.41111 54.59875
# Shear Modulus (GPa) = 46.33085 50.41893 48.37489
#
# Velocity S-wave (km/s) = 4.20514 4.38674 4.29690
# Velocity P-wave (km/s) = 6.58355 6.89712 6.74216
#
# Compressibility (1/GPa) = 0.01931010
#
# Stress axis : x y z
#
# Youngs Moduli (GPa) = 124.72022 100.29500 173.03634
#
# Poissons Ratio (x) = 0.05317 0.23060
# Poissons Ratio (y) = 0.06612 0.06332
# Poissons Ratio (z) = 0.16621 0.03670
#
# Static dielectric constant tensor:
#      x y z
#    x 2.110140 0.000000 -0.004740 
#    y 0.000000 2.036470 0.000000 
#    z -0.004740 0.000000 2.088080 
# 
# From -- ./inp_files/41488.got.cif
#   From: 2010.05.17/outbox.cif.g08.bks.cpg/sg5_21_cif.got.tgz:41488.got - 2010.06.03 18:56:24.
