data_PCOD9126178
_publ_section_title
;
Structure prediction by ZEFSAII (Michael W. Deem and Ramdas Pophale) SiO2 
 PCOD9126178
Probable space group: C 2
;
_chemical_formula_sum "Si O2"
_cell_formula_units_Z 26
_cell_length_a 7.516132
_cell_length_b 12.029467
_cell_length_c 11.486727
_cell_angle_alpha 90.000000
_cell_angle_beta 72.689008
_cell_angle_gamma 90.000000
_cell_volume 991.529645
_symmetry_space_group_name_H-M "C 2"
_symmetry_group_IT_number 5
_symmetry_cell_setting 'monoclinic'
loop_
_space_group_symop_operation_xyz
x,y,z
-x,y,-z
1/2+x,1/2+y,z
1/2-x,1/2+y,-z
loop_
_atom_site_type_symbol
_atom_site_label
_atom_site_fract_x
_atom_site_fract_y
_atom_site_fract_z
Si Si1 0.871602 0.164170 0.335095
Si Si2 0.500000 0.807170 0.500000
Si Si3 0.417377 0.055086 0.181268
Si Si4 0.318729 0.524491 0.116797
Si Si5 0.658899 0.371898 0.265180
Si Si6 0.235298 0.499236 0.553071
Si Si7 0.867997 0.788820 0.138043
O O1 0.027406 0.229618 0.381874
O O2 0.886227 0.079031 0.224781
O O3 0.758358 0.266350 0.301732
O O4 0.769574 0.097525 0.458068
O O5 0.667249 0.891207 0.496580
O O6 0.630234 0.080064 0.105317
O O7 0.301752 0.163981 0.169019
O O8 0.307841 0.944929 0.161664
O O9 0.419582 0.038716 0.321708
O O10 0.243127 0.397539 0.145396
O O11 0.500000 0.528737 0.000000
O O12 0.612869 0.457568 0.379819
O O13 0.492169 0.326536 0.223095
O O14 0.000000 0.787946 0.000000
#
# Coordination Sequence:
#
# PCOD9126178 Si02
#       7
#     4   2   4   4   4   4   4
#     4  11  22  43  74 107 144 185 242 290 365 424
#     4  10  22  38  68 112 138 196 224 294 366 430
#     4  10  23  50  71 101 145 191 231 299 367 422
#     4  11  26  48  70 105 147 190 248 299 346 434
#     4   9  23  46  72 108 143 191 239 294 370 426
#     4   9  22  41  72 103 145 178 234 291 362 431
#     4  11  25  47  70 106 140 195 252 295 358 425
#
# _framework density 26.222113
#
# number of rings (size 3 to 8) (size 9 to 14) (size 15 to 20)
#    0.923    0.923    1.538    0.923    2.154    6.154 
#    8.308    2.308    0.000    0.000    0.000    0.000 
#    0.000    0.000    0.000    0.000    0.000    0.000 
#
# Total GULP energy -72649.099853 kJ/mol
# GULP energy per Si atom -5588.392296 kJ/mol
# Density = 2.616243 g / cm^3
# Si number density = 26.222113 Si / 1000 Ang^3
#
#
#
# Elastic Constant Matrix: (Units=GPa)
#
#
# Indices 1 2 3 4 5 6 
#
# 1 43.3801 1.8065 0.6757 0.0000 2.0175 0.0000
# 2 1.8065 162.8437 38.8776 0.0000 -0.9591 0.0000
# 3 0.6757 38.8776 95.1926 0.0000 -6.2890 0.0000
# 4 0.0000 0.0000 0.0000 37.8642 0.0000 2.0721
# 5 2.0175 -0.9591 -6.2890 0.0000 37.0542 0.0000
# 6 0.0000 0.0000 0.0000 2.0721 0.0000 17.8118
#
#
#
# Elastic Compliance Matrix: (Units=1/GPa)
#
#
# Indices 1 2 3 4 5 6 
#
# 1 0.023124 -0.000227 -0.000157 0.000000 -0.001292 0.000000
# 2 -0.000227 0.006810 -0.002799 0.000000 -0.000286 0.000000
# 3 -0.000157 -0.002799 0.011777 0.000000 0.001935 0.000000
# 4 0.000000 0.000000 0.000000 0.026579 0.000000 -0.003092
# 5 -0.001292 -0.000286 0.001935 0.000000 0.027379 0.000000
# 6 0.000000 0.000000 0.000000 -0.003092 0.000000 0.056502
#
#
# Mechanical properties :
#
#
# Convention : Reuss Voigt Hill
#
# Bulk Modulus (GPa) = 28.29132 42.68178 35.48655
# Shear Modulus (GPa) = 29.35697 35.88316 32.62006
#
# Velocity S-wave (km/s) = 3.34960 3.70324 3.53085
# Velocity P-wave (km/s) = 5.07664 5.88198 5.49409
#
# Compressibility (1/GPa) = 0.03534654
#
# Stress axis : x y z
#
# Youngs Moduli (GPa) = 43.24517 146.84703 84.91198
#
# Poissons Ratio (x) = 0.03329 0.01332
# Poissons Ratio (y) = 0.00980 0.23763
# Poissons Ratio (z) = 0.00678 0.41095
#
# Static dielectric constant tensor:
#      x y z
#    x 2.086190 0.000000 -0.061940 
#    y 0.000000 2.071550 0.000000 
#    z -0.061940 0.000000 2.089780 
# 
# From -- ./inp_files/35816.got.cif
#   From: 2010.05.17/outbox.cif.g08.bks.cpg/sg5_18_cif.got.tgz:35816.got - 2010.06.03 18:56:24.
