data_PCOD9126204
_publ_section_title
;
Structure prediction by ZEFSAII (Michael W. Deem and Ramdas Pophale) SiO2 
 PCOD9126204
Probable space group: C 2
;
_chemical_formula_sum "Si O2"
_cell_formula_units_Z 22
_cell_length_a 19.158571
_cell_length_b 5.129991
_cell_length_c 9.058560
_cell_angle_alpha 90.000000
_cell_angle_beta 82.408472
_cell_angle_gamma 90.000000
_cell_volume 882.501693
_symmetry_space_group_name_H-M "C 2"
_symmetry_group_IT_number 5
_symmetry_cell_setting 'monoclinic'
loop_
_space_group_symop_operation_xyz
x,y,z
-x,y,-z
1/2+x,1/2+y,z
1/2-x,1/2+y,-z
loop_
_atom_site_type_symbol
_atom_site_label
_atom_site_fract_x
_atom_site_fract_y
_atom_site_fract_z
Si Si1 0.000000 0.057200 0.000000
Si Si2 0.138756 0.094815 0.552031
Si Si3 0.510018 0.283534 0.694389
Si Si4 0.640225 0.113401 0.369975
Si Si5 0.614786 0.902595 0.817273
Si Si6 0.794387 0.598854 0.969646
O O1 0.066245 0.235496 0.939717
O O2 0.984226 0.887988 0.860453
O O3 0.146900 0.322533 0.430335
O O4 0.162779 0.213736 0.702627
O O5 0.057506 0.013224 0.611364
O O6 0.170414 0.829229 0.476016
O O7 0.442597 0.180946 0.627052
O O8 0.564553 0.054466 0.717460
O O9 0.672325 0.142632 0.199059
O O10 0.653290 0.115372 0.905961
O O11 0.733095 0.804306 0.013023
#
# Coordination Sequence:
#
# PCOD9126204 Si02
#       6
#     2   4   4   4   4   4
#     4  10  22  38  72 112 144 192 224 302 364 450
#     4  11  26  42  74 111 155 186 224 298 374 456
#     4  11  24  40  75 112 154 184 226 292 377 461
#     4  12  26  46  73 114 148 190 240 294 372 430
#     4  11  25  47  70 109 149 192 242 296 376 428
#     4  12  30  52  78 100 139 198 265 311 344 418
#
# _framework density 24.929131999999999
#
# number of rings (size 3 to 8) (size 9 to 14) (size 15 to 20)
#    0.000    0.727    1.818    4.364   17.818    0.000 
#    0.000    3.636    0.000    0.000    0.000    0.000 
#    0.000    0.000    0.000    0.000    0.000    0.000 
#
# Total GULP energy -61635.313746 kJ/mol
# GULP energy per Si atom -5603.210341 kJ/mol
# Density = 2.487239 g / cm^3
# Si number density = 24.929132 Si / 1000 Ang^3
#
#
#
# Elastic Constant Matrix: (Units=GPa)
#
#
# Indices 1 2 3 4 5 6 
#
# 1 43.1181 1.2276 17.5690 0.0000 -0.6150 0.0000
# 2 1.2276 114.4459 33.8558 0.0000 3.3467 0.0000
# 3 17.5690 33.8558 134.1486 0.0000 -18.3797 0.0000
# 4 0.0000 0.0000 0.0000 60.0927 0.0000 -1.1569
# 5 -0.6150 3.3467 -18.3797 0.0000 24.6320 0.0000
# 6 0.0000 0.0000 0.0000 -1.1569 0.0000 27.2087
#
#
#
# Elastic Compliance Matrix: (Units=1/GPa)
#
#
# Indices 1 2 3 4 5 6 
#
# 1 0.024674 0.000923 -0.003784 0.000000 -0.002333 0.000000
# 2 0.000923 0.009742 -0.003072 0.000000 -0.003592 0.000000
# 3 -0.003784 -0.003072 0.009768 0.000000 0.007611 0.000000
# 4 0.000000 0.000000 0.000000 0.016655 0.000000 0.000708
# 5 -0.002333 -0.003592 0.007611 0.000000 0.046707 0.000000
# 6 0.000000 0.000000 0.000000 0.000708 0.000000 0.036783
#
#
# Mechanical properties :
#
#
# Convention : Reuss Voigt Hill
#
# Bulk Modulus (GPa) = 30.94197 44.11306 37.52752
# Shear Modulus (GPa) = 29.94606 38.32405 34.13506
#
# Velocity S-wave (km/s) = 3.46966 3.92512 3.70440
# Velocity P-wave (km/s) = 5.33763 6.18675 5.77781
#
# Compressibility (1/GPa) = 0.03231856
#
# Stress axis : x y z
#
# Youngs Moduli (GPa) = 40.52780 102.65297 102.37450
#
# Poissons Ratio (x) = -0.09475 0.38740
# Poissons Ratio (y) = -0.03741 0.31445
# Poissons Ratio (z) = 0.15336 0.31531
#
# Static dielectric constant tensor:
#      x y z
#    x 2.002720 0.000000 0.025650 
#    y 0.000000 1.960110 0.000000 
#    z 0.025650 0.000000 2.004440 
# 
# From -- ./inp_files/28335.got.cif
#   From: 2010.05.17/outbox.cif.g08.bks.cpg/sg5_15_cif.got.tgz:28335.got - 2010.06.03 18:56:24.
