data_PCOD9126643
_publ_section_title
;
Structure prediction by ZEFSAII (Michael W. Deem and Ramdas Pophale) SiO2 
 PCOD9126643
Probable space group: C 2
;
_chemical_formula_sum "Si O2"
_cell_formula_units_Z 28
_cell_length_a 14.975583
_cell_length_b 12.505243
_cell_length_c 7.426835
_cell_angle_alpha 90.000000
_cell_angle_beta 127.111070
_cell_angle_gamma 90.000000
_cell_volume 1109.155842
_symmetry_space_group_name_H-M "C 2"
_symmetry_group_IT_number 5
_symmetry_cell_setting 'monoclinic'
loop_
_space_group_symop_operation_xyz
x,y,z
-x,y,-z
1/2+x,1/2+y,z
1/2-x,1/2+y,-z
loop_
_atom_site_type_symbol
_atom_site_label
_atom_site_fract_x
_atom_site_fract_y
_atom_site_fract_z
Si Si1 0.522938 0.846370 0.245094
Si Si2 0.517527 0.529926 0.823993
Si Si3 0.271491 0.573747 0.362338
Si Si4 0.546593 0.083995 0.259953
Si Si5 0.257480 0.827660 0.661381
Si Si6 0.490178 0.310619 0.692058
Si Si7 0.320038 0.702657 0.092193
O O1 0.649073 0.803871 0.376717
O O2 0.430002 0.779114 0.236325
O O3 0.521611 0.968076 0.308625
O O4 0.500000 0.845610 0.000000
O O5 0.401963 0.557433 0.578061
O O6 0.547630 0.404333 0.871438
O O7 0.624609 0.588488 0.879876
O O8 0.500000 0.575558 0.000000
O O9 0.181761 0.595424 0.412717
O O10 0.232413 0.452113 0.259751
O O11 0.257705 0.668552 0.198785
O O12 0.485863 0.185956 0.270523
O O13 0.500000 0.083243 0.000000
O O14 0.139743 0.820784 0.420043
O O15 0.259428 0.753583 0.843292
O O16 0.500000 0.348582 0.500000
#
# Coordination Sequence:
#
# PCOD9126643 Si02
#       7
#     4   4   4   4   4   4   4
#     4   8  17  37  65  93 126 178 218 269 334 402
#     4  11  23  42  69  99 133 176 228 281 341 405
#     4  10  23  42  68 104 135 178 229 281 344 406
#     4  10  22  41  67  92 137 184 224 274 345 411
#     4   9  20  40  65  97 133 181 220 278 344 406
#     4  11  24  41  64  93 138 177 226 280 340 406
#     4  11  21  39  74  96 134 174 226 281 341 405
#
# _framework density 25.244425
#
# number of rings (size 3 to 8) (size 9 to 14) (size 15 to 20)
#    0.000    2.000    0.000    4.714    6.000    0.000 
#    2.571    1.429    0.000    0.000    0.000    0.000 
#    0.000    0.000    0.000    0.000    0.000    0.000 
#
# Total GULP energy -78148.356342 kJ/mol
# GULP energy per Si atom -5582.025453 kJ/mol
# Density = 2.518697 g / cm^3
# Si number density = 25.244425 Si / 1000 Ang^3
#
#
#
# Elastic Constant Matrix: (Units=GPa)
#
#
# Indices 1 2 3 4 5 6 
#
# 1 60.6387 27.7202 -1.5094 0.0000 -0.7787 0.0000
# 2 27.7202 173.7747 11.1315 0.0000 -10.2875 0.0000
# 3 -1.5094 11.1315 51.0290 0.0000 -11.2445 0.0000
# 4 0.0000 0.0000 0.0000 28.3649 0.0000 1.8382
# 5 -0.7787 -10.2875 -11.2445 0.0000 22.7883 0.0000
# 6 0.0000 0.0000 0.0000 1.8382 0.0000 28.7695
#
#
#
# Elastic Compliance Matrix: (Units=1/GPa)
#
#
# Indices 1 2 3 4 5 6 
#
# 1 0.017857 -0.002930 0.001134 0.000000 -0.000153 0.000000
# 2 -0.002930 0.006422 -0.000977 0.000000 0.002317 0.000000
# 3 0.001134 -0.000977 0.022165 0.000000 0.010534 0.000000
# 4 0.000000 0.000000 0.000000 0.035401 0.000000 -0.002262
# 5 -0.000153 0.002317 0.010534 0.000000 0.050121 0.000000
# 6 0.000000 0.000000 0.000000 -0.002262 0.000000 0.034904
#
#
# Mechanical properties :
#
#
# Convention : Reuss Voigt Hill
#
# Bulk Modulus (GPa) = 24.45218 40.01409 32.23314
# Shear Modulus (GPa) = 26.87473 32.52454 29.69964
#
# Velocity S-wave (km/s) = 3.26633 3.59330 3.43371
# Velocity P-wave (km/s) = 4.89208 5.75333 5.34010
#
# Compressibility (1/GPa) = 0.04089615
#
# Stress axis : x y z
#
# Youngs Moduli (GPa) = 56.00083 155.72119 45.11688
#
# Poissons Ratio (x) = 0.45629 -0.05115
# Poissons Ratio (y) = 0.16409 0.04408
# Poissons Ratio (z) = -0.06348 0.15214
#
# Static dielectric constant tensor:
#      x y z
#    x 2.132530 0.000000 0.042240 
#    y 0.000000 2.055970 0.000000 
#    z 0.042240 0.000000 2.075960 
# 
# From -- ./inp_files/23938.got.cif
#   From: 2010.05.17/outbox.cif.g08.bks.cpg/sg5_12_cif.got.tgz:23938.got - 2010.06.03 18:56:24.
