data_PCOD9126036
_publ_section_title
;
Structure prediction by ZEFSAII (Michael W. Deem and Ramdas Pophale) SiO2 
 PCOD9126036
Probable space group: C 2
;
_chemical_formula_sum "Si O2"
_cell_formula_units_Z 28
_cell_length_a 25.154011
_cell_length_b 8.791551
_cell_length_c 5.528716
_cell_angle_alpha 90.000000
_cell_angle_beta 64.993169
_cell_angle_gamma 90.000000
_cell_volume 1108.022530
_symmetry_space_group_name_H-M "C 2"
_symmetry_group_IT_number 5
_symmetry_cell_setting 'monoclinic'
loop_
_space_group_symop_operation_xyz
x,y,z
-x,y,-z
1/2+x,1/2+y,z
1/2-x,1/2+y,-z
loop_
_atom_site_type_symbol
_atom_site_label
_atom_site_fract_x
_atom_site_fract_y
_atom_site_fract_z
Si Si1 0.385589 0.569430 0.001283
Si Si2 0.926103 0.803666 0.184347
Si Si3 0.214172 0.145670 0.431439
Si Si4 0.030609 0.510847 0.697541
Si Si5 0.167313 0.617264 0.907809
Si Si6 0.321561 0.359131 0.752119
Si Si7 0.366238 0.840847 0.732322
O O1 0.435663 0.463236 0.025240
O O2 0.339947 0.639776 0.280889
O O3 0.343529 0.452654 0.942483
O O4 0.402287 0.699015 0.777200
O O5 0.968119 0.694000 0.259049
O O6 0.893993 0.689052 0.059869
O O7 0.877149 0.848351 0.472073
O O8 0.281632 0.165858 0.380131
O O9 0.190923 0.270075 0.285697
O O10 0.220416 0.977085 0.300977
O O11 0.094918 0.439087 0.529278
O O12 0.000000 0.481352 0.500000
O O13 0.000000 0.446959 0.000000
O O14 0.190660 0.695629 0.111050
O O15 0.152335 0.447431 0.010568
#
# Coordination Sequence:
#
# PCOD9126036 Si02
#       7
#     4   4   4   4   4   4   4
#     4   9  22  40  69  94 151 185 236 296 383 433
#     4  10  22  44  69  99 136 188 243 314 362 456
#     4  10  22  37  63 100 151 197 235 287 372 458
#     4  12  28  49  83 109 141 197 266 329 391 439
#     4  11  21  36  67 102 146 193 246 287 371 449
#     4   9  19  39  58  88 134 187 236 289 354 433
#     4  11  24  43  71 108 153 190 248 320 371 444
#
# _framework density 25.270243000000001
#
# number of rings (size 3 to 8) (size 9 to 14) (size 15 to 20)
#    0.000    1.714    1.429    1.714    6.000    5.714 
#    0.000    0.000    9.429    0.000    0.000    0.000 
#    0.000    0.000    0.000    0.000    0.000    0.000 
#
# Total GULP energy -78127.052965 kJ/mol
# GULP energy per Si atom -5580.503783 kJ/mol
# Density = 2.521273 g / cm^3
# Si number density = 25.270243 Si / 1000 Ang^3
#
#
#
# Elastic Constant Matrix: (Units=GPa)
#
#
# Indices 1 2 3 4 5 6 
#
# 1 84.5659 11.4675 24.8679 0.0000 -7.2175 0.0000
# 2 11.4675 112.3596 16.9162 0.0000 0.4586 0.0000
# 3 24.8679 16.9162 67.2201 0.0000 6.8812 0.0000
# 4 0.0000 0.0000 0.0000 40.4569 0.0000 12.5728
# 5 -7.2175 0.4586 6.8812 0.0000 28.2122 0.0000
# 6 0.0000 0.0000 0.0000 12.5728 0.0000 22.1990
#
#
#
# Elastic Compliance Matrix: (Units=1/GPa)
#
#
# Indices 1 2 3 4 5 6 
#
# 1 0.013949 -0.000614 -0.005510 0.000000 0.004922 0.000000
# 2 -0.000614 0.009283 -0.002130 0.000000 0.000212 0.000000
# 3 -0.005510 -0.002130 0.018042 0.000000 -0.005776 0.000000
# 4 0.000000 0.000000 0.000000 0.029998 0.000000 -0.016990
# 5 0.004922 0.000212 -0.005776 0.000000 0.038110 0.000000
# 6 0.000000 0.000000 0.000000 -0.016990 0.000000 0.054670
#
#
# Mechanical properties :
#
#
# Convention : Reuss Voigt Hill
#
# Bulk Modulus (GPa) = 40.37973 41.18319 40.78146
# Shear Modulus (GPa) = 26.48105 32.23320 29.35713
#
# Velocity S-wave (km/s) = 3.24066 3.57534 3.41211
# Velocity P-wave (km/s) = 5.47872 5.77725 5.62996
#
# Compressibility (1/GPa) = 0.02476490
#
# Stress axis : x y z
#
# Youngs Moduli (GPa) = 71.69139 107.72885 55.42580
#
# Poissons Ratio (x) = 0.06617 0.30537
# Poissons Ratio (y) = 0.04403 0.11808
# Poissons Ratio (z) = 0.39499 0.22951
#
# Static dielectric constant tensor:
#      x y z
#    x 2.134150 0.000000 -0.013360 
#    y 0.000000 2.052150 0.000000 
#    z -0.013360 0.000000 2.027950 
# 
# From -- ./inp_files/11188.got.cif
#   From: 2010.05.17/outbox.cif.g08.bks.cpg/sg5_6_cif.got.tgz:11188.got - 2010.06.03 18:56:24.
