data_PCOD9126880
_publ_section_title
;
Structure prediction by ZEFSAII (Michael W. Deem and Ramdas Pophale) SiO2 
 PCOD9126880
Probable space group: C 2
;
_chemical_formula_sum "Si O2"
_cell_formula_units_Z 30
_cell_length_a 32.977355
_cell_length_b 7.773614
_cell_length_c 19.721026
_cell_angle_alpha 90.000000
_cell_angle_beta 163.762849
_cell_angle_gamma 90.000000
_cell_volume 1413.600718
_symmetry_space_group_name_H-M "C 2"
_symmetry_group_IT_number 5
_symmetry_cell_setting 'monoclinic'
loop_
_space_group_symop_operation_xyz
x,y,z
-x,y,-z
1/2+x,1/2+y,z
1/2-x,1/2+y,-z
loop_
_atom_site_type_symbol
_atom_site_label
_atom_site_fract_x
_atom_site_fract_y
_atom_site_fract_z
Si Si1 0.500000 0.887300 0.500000
Si Si2 0.350517 0.420995 0.599867
Si Si3 0.136996 0.761725 0.039457
Si Si4 0.551487 0.748079 0.157653
Si Si5 0.337110 0.315761 0.210790
Si Si6 0.794175 0.682624 0.995152
Si Si7 0.318037 0.096673 0.301929
Si Si8 0.250332 0.918473 0.715439
O O1 0.639196 0.772263 0.734385
O O2 0.462370 0.000010 0.506231
O O3 0.479194 0.283158 0.819130
O O4 0.404952 0.593472 0.723183
O O5 0.195636 0.361632 0.379563
O O6 0.326974 0.441022 0.481190
O O7 0.112760 0.725568 0.921103
O O8 0.233061 0.603833 0.221628
O O9 0.219571 0.945960 0.175512
O O10 0.500000 0.685983 0.000000
O O11 0.415151 0.853414 0.967388
O O12 0.500000 0.350221 0.500000
O O13 0.238124 0.482135 0.055078
O O14 0.265891 0.171263 0.145131
O O15 0.347869 0.259757 0.151011
O O16 0.320656 0.264595 0.353890
#
# Coordination Sequence:
#
# PCOD9126880 Si02
#       8
#     2   4   4   4   4   4   4   4
#     4  10  22  42  68  98 130 192 234 272 352 394
#     4  11  24  43  74 102 133 180 216 266 350 405
#     4  11  24  43  67 103 136 175 228 279 338 396
#     4  10  23  46  70 101 138 169 220 272 333 414
#     4  12  25  44  68  94 135 188 232 285 340 392
#     4  11  24  42  66  99 136 181 240 284 334 407
#     4  11  23  45  65  96 142 176 228 285 328 391
#     4  11  24  46  69 101 138 172 223 284 329 405
#
# _framework density 21.222401000000001
#
# number of rings (size 3 to 8) (size 9 to 14) (size 15 to 20)
#    0.000    1.067    4.000    2.400    1.867    1.067 
#    7.200    0.000    0.000    0.000    0.000    0.000 
#    0.000    0.000    0.000    0.000    0.000    0.000 
#
# Total GULP energy -83789.769213 kJ/mol
# GULP energy per Si atom -5585.984614 kJ/mol
# Density = 2.117410 g / cm^3
# Si number density = 21.222401 Si / 1000 Ang^3
#
#
#
# Elastic Constant Matrix: (Units=GPa)
#
#
# Indices 1 2 3 4 5 6 
#
# 1 79.8405 41.1890 20.9119 0.0000 -0.3065 0.0000
# 2 41.1890 132.8363 31.7241 0.0000 -10.1190 0.0000
# 3 20.9119 31.7241 82.5074 0.0000 4.3715 0.0000
# 4 0.0000 0.0000 0.0000 7.9383 0.0000 -12.2982
# 5 -0.3065 -10.1190 4.3715 0.0000 39.6701 0.0000
# 6 0.0000 0.0000 0.0000 -12.2982 0.0000 27.0546
#
#
#
# Elastic Compliance Matrix: (Units=1/GPa)
#
#
# Indices 1 2 3 4 5 6 
#
# 1 0.015303 -0.004276 -0.002196 0.000000 -0.000731 0.000000
# 2 -0.004276 0.009734 -0.002805 0.000000 0.002759 0.000000
# 3 -0.002196 -0.002805 0.013875 0.000000 -0.002261 0.000000
# 4 0.000000 0.000000 0.000000 0.425904 0.000000 0.193603
# 5 -0.000731 0.002759 -0.002261 0.000000 0.026155 0.000000
# 6 0.000000 0.000000 0.000000 0.193603 0.000000 0.124968
#
#
# Mechanical properties :
#
#
# Convention : Reuss Voigt Hill
#
# Bulk Modulus (GPa) = 49.12046 53.64822 51.38434
# Shear Modulus (GPa) = 7.79690 28.35655 18.07673
#
# Velocity S-wave (km/s) = 1.91882 3.65932 2.92169
# Velocity P-wave (km/s) = 5.30141 6.57176 5.97047
#
# Compressibility (1/GPa) = 0.02035811
#
# Stress axis : x y z
#
# Youngs Moduli (GPa) = 65.34470 102.73091 72.07199
#
# Poissons Ratio (x) = 0.43933 0.15825
# Poissons Ratio (y) = 0.27944 0.20217
# Poissons Ratio (z) = 0.14348 0.28817
#
# Static dielectric constant tensor:
#      x y z
#    x 1.770860 0.000000 0.007560 
#    y 0.000000 1.782050 0.000000 
#    z 0.007560 0.000000 2.126810 
# 
# From -- ./inp_files/63816.got.cif
#   From: 2010.05.17/outbox.cif.g08.bks.cpg/sg5_32_cif.got.tgz:63816.got - 2010.06.03 18:56:24.
