data_PCOD9126380
_publ_section_title
;
Structure prediction by ZEFSAII (Michael W. Deem and Ramdas Pophale) SiO2 
 PCOD9126380
Probable space group: C 2
;
_chemical_formula_sum "Si O2"
_cell_formula_units_Z 24
_cell_length_a 28.253203
_cell_length_b 6.829002
_cell_length_c 14.937815
_cell_angle_alpha 90.000000
_cell_angle_beta 25.152059
_cell_angle_gamma 90.000000
_cell_volume 1224.964397
_symmetry_space_group_name_H-M "C 2"
_symmetry_group_IT_number 5
_symmetry_cell_setting 'monoclinic'
loop_
_space_group_symop_operation_xyz
x,y,z
-x,y,-z
1/2+x,1/2+y,z
1/2-x,1/2+y,-z
loop_
_atom_site_type_symbol
_atom_site_label
_atom_site_fract_x
_atom_site_fract_y
_atom_site_fract_z
Si Si1 0.731091 0.537330 0.244285
Si Si2 0.423671 0.735517 0.943800
Si Si3 0.673484 0.690224 0.526300
Si Si4 0.694718 0.431566 0.974445
Si Si5 0.625964 0.488879 0.796227
Si Si6 0.373624 0.259264 0.718140
O O1 0.684534 0.542657 0.424334
O O2 0.756953 0.756727 0.168318
O O3 0.649614 0.430830 0.314009
O O4 0.845007 0.413549 0.050802
O O5 0.553082 0.792540 0.721744
O O6 0.397755 0.556152 0.920565
O O7 0.388269 0.651926 0.101839
O O8 0.665330 0.583772 0.635678
O O9 0.780291 0.831194 0.339693
O O10 0.791533 0.583983 0.833403
O O11 0.652080 0.339340 0.139371
O O12 0.500000 0.405318 0.000000
O O13 0.500000 0.191946 0.500000
#
# Coordination Sequence:
#
# PCOD9126380 Si02
#       6
#     4   4   4   4   4   4
#     4  11  23  41  65  91 124 164 204 254 306 359
#     4  10  23  42  62  91 128 158 206 254 298 366
#     4  11  22  41  64  93 123 164 203 249 310 364
#     4  11  22  43  62  92 127 159 207 257 298 364
#     4  10  22  40  63  92 127 158 204 254 300 367
#     4  11  24  41  64  91 125 165 204 252 308 360
#
# _framework density 19.592407000000001
#
# number of rings (size 3 to 8) (size 9 to 14) (size 15 to 20)
#    0.000    1.333    3.333    2.000    0.000    3.333 
#    3.000    0.000    0.000    0.000    0.000    0.000 
#    0.000    0.000    0.000    0.000    0.000    0.000 
#
# Total GULP energy -67046.341010 kJ/mol
# GULP energy per Si atom -5587.195084 kJ/mol
# Density = 1.954781 g / cm^3
# Si number density = 19.592407 Si / 1000 Ang^3
#
#
#
# Elastic Constant Matrix: (Units=GPa)
#
#
# Indices 1 2 3 4 5 6 
#
# 1 103.7690 18.8448 35.2715 0.0000 17.6391 0.0000
# 2 18.8448 37.6404 30.2946 0.0000 36.9794 0.0000
# 3 35.2715 30.2946 91.9713 0.0000 -16.5728 0.0000
# 4 0.0000 0.0000 0.0000 14.4982 0.0000 0.6887
# 5 17.6391 36.9794 -16.5728 0.0000 -5.0537 0.0000
# 6 0.0000 0.0000 0.0000 0.6887 0.0000 22.6852
#
#
#
# Elastic Compliance Matrix: (Units=1/GPa)
#
#
# Indices 1 2 3 4 5 6 
#
# 1 0.011034 -0.005870 -0.001947 0.000000 0.001947 0.000000
# 2 -0.005870 0.007096 0.003506 0.000000 0.019938 0.000000
# 3 -0.001947 0.003506 0.008714 0.000000 -0.009716 0.000000
# 4 0.000000 0.000000 0.000000 0.069074 0.000000 -0.002097
# 5 0.001947 0.019938 -0.009716 0.000000 -0.013327 0.000000
# 6 0.000000 0.000000 0.000000 -0.002097 0.000000 0.044145
#
#
# Mechanical properties :
#
#
# Convention : Reuss Voigt Hill
#
# Bulk Modulus (GPa) = 54.87645 44.68918 49.78282
# Shear Modulus (GPa) = 35.35306 16.35727 25.85516
#
# Velocity S-wave (km/s) = 4.25246 2.89256 3.63664
# Velocity P-wave (km/s) = 7.22365 5.83222 6.56490
#
# Compressibility (1/GPa) = 0.01822275
#
# Stress axis : x y z
#
# Youngs Moduli (GPa) = 90.63183 140.92515 114.75706
#
# Poissons Ratio (x) = 0.82718 0.22346
# Poissons Ratio (y) = 0.53197 -0.40238
# Poissons Ratio (z) = 0.17648 -0.49414
#
# Static dielectric constant tensor:
#      x y z
#    x 1.704190 0.000000 -0.000370 
#    y 0.000000 1.661740 0.000000 
#    z -0.000370 0.000000 1.666260 
# 
# From -- ./inp_files/57958.got.cif
#   From: 2010.05.17/outbox.cif.g08.bks.cpg/sg5_29_cif.got.tgz:57958.got - 2010.06.03 18:56:24.
