data_PCOD9126454
_publ_section_title
;
Structure prediction by ZEFSAII (Michael W. Deem and Ramdas Pophale) SiO2 
 PCOD9126454
Probable space group: C 2
;
_chemical_formula_sum "Si O2"
_cell_formula_units_Z 18
_cell_length_a 7.658162
_cell_length_b 17.917958
_cell_length_c 8.857382
_cell_angle_alpha 90.000000
_cell_angle_beta 37.129071
_cell_angle_gamma 90.000000
_cell_volume 733.629404
_symmetry_space_group_name_H-M "C 2"
_symmetry_group_IT_number 5
_symmetry_cell_setting 'monoclinic'
loop_
_space_group_symop_operation_xyz
x,y,z
-x,y,-z
1/2+x,1/2+y,z
1/2-x,1/2+y,-z
loop_
_atom_site_type_symbol
_atom_site_label
_atom_site_fract_x
_atom_site_fract_y
_atom_site_fract_z
Si Si1 0.038611 0.297660 0.295913
Si Si2 0.000000 0.812519 0.500000
Si Si3 0.804913 0.572075 0.485371
Si Si4 0.893902 0.436589 0.220869
Si Si5 0.696092 0.663100 0.015099
O O1 0.722433 0.270737 0.449634
O O2 0.079722 0.381374 0.201794
O O3 0.000000 0.297784 0.500000
O O4 0.245692 0.239289 0.071858
O O5 0.803607 0.872356 0.723064
O O6 0.756778 0.495536 0.428976
O O7 0.507284 0.609887 0.742481
O O8 0.000000 0.557753 0.500000
O O9 0.010792 0.623477 0.239166
O O10 0.000000 0.479007 0.000000
O O11 0.500000 0.679057 0.000000
#
# Coordination Sequence:
#
# PCOD9126454 Si02
#       5
#     4   2   4   4   4
#     4  10  22  42  70 101 134 181 234 282 344 419
#     4   8  24  40  68  94 140 174 222 296 336 400
#     4  10  23  41  66  98 136 183 226 281 346 411
#     4  10  22  40  67  95 134 179 226 283 342 405
#     4  10  23  40  67  95 141 181 222 286 348 401
#
# _framework density 24.535547999999999
#
# number of rings (size 3 to 8) (size 9 to 14) (size 15 to 20)
#    1.333    0.889    0.000    1.333    7.778    1.778 
#    0.000    3.333    0.000    0.000    0.000    0.000 
#    0.000    0.000    0.000    0.000    0.000    0.000 
#
# Total GULP energy -50209.042000 kJ/mol
# GULP energy per Si atom -5578.782444 kJ/mol
# Density = 2.447970 g / cm^3
# Si number density = 24.535548 Si / 1000 Ang^3
#
#
#
# Elastic Constant Matrix: (Units=GPa)
#
#
# Indices 1 2 3 4 5 6 
#
# 1 81.6958 31.9951 44.4677 0.0000 8.8193 0.0000
# 2 31.9951 133.2857 68.6964 0.0000 30.9467 0.0000
# 3 44.4677 68.6964 159.0502 0.0000 35.3743 0.0000
# 4 0.0000 0.0000 0.0000 46.3549 0.0000 10.3907
# 5 8.8193 30.9467 35.3743 0.0000 38.0652 0.0000
# 6 0.0000 0.0000 0.0000 10.3907 0.0000 15.3462
#
#
#
# Elastic Compliance Matrix: (Units=1/GPa)
#
#
# Indices 1 2 3 4 5 6 
#
# 1 0.014845 -0.002075 -0.003611 0.000000 0.001603 0.000000
# 2 -0.002075 0.010763 -0.002810 0.000000 -0.005658 0.000000
# 3 -0.003611 -0.002810 0.009853 0.000000 -0.006035 0.000000
# 4 0.000000 0.000000 0.000000 0.025433 0.000000 -0.017220
# 5 0.001603 -0.005658 -0.006035 0.000000 0.036108 0.000000
# 6 0.000000 0.000000 0.000000 -0.017220 0.000000 0.076822
#
#
# Mechanical properties :
#
#
# Convention : Reuss Voigt Hill
#
# Bulk Modulus (GPa) = 54.14340 73.81669 63.98004
# Shear Modulus (GPa) = 25.38437 35.21143 30.29790
#
# Velocity S-wave (km/s) = 3.22000 3.79241 3.51787
# Velocity P-wave (km/s) = 5.99498 7.02335 6.52944
#
# Compressibility (1/GPa) = 0.01846947
#
# Stress axis : x y z
#
# Youngs Moduli (GPa) = 67.36054 92.91292 101.49271
#
# Poissons Ratio (x) = 0.19277 0.36648
# Poissons Ratio (y) = 0.13975 0.28522
# Poissons Ratio (z) = 0.24323 0.26110
#
# Static dielectric constant tensor:
#      x y z
#    x 2.040080 0.000000 -0.166500 
#    y 0.000000 1.907970 0.000000 
#    z -0.166500 0.000000 2.126770 
# 
# From -- ./inp_files/3128.got.cif
#   From: 2010.05.17/outbox.cif.g08.bks.cpg/sg5_2_cif.got.tgz:3128.got - 2010.06.03 18:56:24.
