data_PCOD9126436
_publ_section_title
;
Structure prediction by ZEFSAII (Michael W. Deem and Ramdas Pophale) SiO2 
 PCOD9126436
Probable space group: C 2
;
_chemical_formula_sum "Si O2"
_cell_formula_units_Z 30
_cell_length_a 22.614651
_cell_length_b 11.621571
_cell_length_c 5.369869
_cell_angle_alpha 90.000000
_cell_angle_beta 69.606908
_cell_angle_gamma 90.000000
_cell_volume 1322.842569
_symmetry_space_group_name_H-M "C 2"
_symmetry_group_IT_number 5
_symmetry_cell_setting 'monoclinic'
loop_
_space_group_symop_operation_xyz
x,y,z
-x,y,-z
1/2+x,1/2+y,z
1/2-x,1/2+y,-z
loop_
_atom_site_type_symbol
_atom_site_label
_atom_site_fract_x
_atom_site_fract_y
_atom_site_fract_z
Si Si1 0.964480 0.206170 0.789996
Si Si2 0.117599 0.631377 0.564225
Si Si3 0.658188 0.573589 0.036018
Si Si4 0.399147 0.935110 0.826233
Si Si5 0.707078 0.794150 0.173534
Si Si6 0.500000 0.066129 0.000000
Si Si7 0.673975 0.356819 0.267126
Si Si8 0.266047 0.988485 0.499806
O O1 0.903687 0.135242 0.976324
O O2 0.937917 0.321521 0.691066
O O3 0.000000 0.147759 0.500000
O O4 0.000000 0.231448 0.000000
O O5 0.112918 0.539315 0.345312
O O6 0.138499 0.759074 0.466239
O O7 0.175373 0.574495 0.642143
O O8 0.045434 0.639519 0.760093
O O9 0.680369 0.666422 0.212167
O O10 0.636110 0.449676 0.164964
O O11 0.719365 0.551344 0.770807
O O12 0.332141 0.872862 0.967779
O O13 0.445862 0.987237 0.959873
O O14 0.704243 0.872707 0.420651
O O15 0.778972 0.790129 0.985850
O O16 0.717696 0.439692 0.369745
#
# Coordination Sequence:
#
# PCOD9126436 Si02
#       8
#     4   4   4   4   4   2   4   4
#     4  11  24  44  74 105 138 183 236 299 356 418
#     4  11  24  41  63  97 135 174 230 284 355 415
#     4  10  23  41  67  96 134 171 228 287 348 419
#     4  10  22  42  67  97 129 170 227 292 350 407
#     4   9  20  40  64  96 128 163 216 283 348 411
#     4  12  22  38  66  94 130 178 222 286 342 424
#     4  11  23  40  64  95 133 173 220 282 343 429
#     4  10  22  40  66  96 127 175 222 283 349 414
#
# _framework density 22.678433999999999
#
# number of rings (size 3 to 8) (size 9 to 14) (size 15 to 20)
#    0.000    1.600    2.000    2.000    3.733    2.133 
#    4.800    2.667    1.467    0.000    0.000    0.000 
#    0.000    0.000    0.000    0.000    0.000    0.000 
#
# Total GULP energy -83533.534509 kJ/mol
# GULP energy per Si atom -5568.902301 kJ/mol
# Density = 2.262682 g / cm^3
# Si number density = 22.678434 Si / 1000 Ang^3
#
#
#
# Elastic Constant Matrix: (Units=GPa)
#
#
# Indices 1 2 3 4 5 6 
#
# 1 76.3493 42.0533 15.5148 0.0000 -5.4863 0.0000
# 2 42.0533 119.7865 18.8941 0.0000 -14.5273 0.0000
# 3 15.5148 18.8941 50.2458 0.0000 -17.2403 0.0000
# 4 0.0000 0.0000 0.0000 7.9640 0.0000 6.5098
# 5 -5.4863 -14.5273 -17.2403 0.0000 37.7472 0.0000
# 6 0.0000 0.0000 0.0000 6.5098 0.0000 3.3112
#
#
#
# Elastic Compliance Matrix: (Units=1/GPa)
#
#
# Indices 1 2 3 4 5 6 
#
# 1 0.016742 -0.005474 -0.003556 0.000000 -0.001298 0.000000
# 2 -0.005474 0.010827 -0.001452 0.000000 0.002708 0.000000
# 3 -0.003556 -0.001452 0.025113 0.000000 0.010394 0.000000
# 4 0.000000 0.000000 0.000000 -0.206862 0.000000 0.406685
# 5 -0.001298 0.002708 0.010394 0.000000 0.032093 0.000000
# 6 0.000000 0.000000 0.000000 0.406685 0.000000 -0.497532
#
#
# Mechanical properties :
#
#
# Convention : Reuss Voigt Hill
#
# Bulk Modulus (GPa) = 31.52847 44.36734 37.94791
# Shear Modulus (GPa) = -8.50223 21.13245 6.31511
#
# Velocity S-wave (km/s) = -1.93834 3.05590 1.67053
# Velocity P-wave (km/s) = 2.98714 5.66194 4.52662
#
# Compressibility (1/GPa) = 0.03171737
#
# Stress axis : x y z
#
# Youngs Moduli (GPa) = 59.72889 92.35791 39.82051
#
# Poissons Ratio (x) = 0.50558 0.14162
# Poissons Ratio (y) = 0.32696 0.05782
# Poissons Ratio (z) = 0.21242 0.13410
#
# Static dielectric constant tensor:
#      x y z
#    x 1.895890 0.000000 0.023990 
#    y 0.000000 1.839130 0.000000 
#    z 0.023990 0.000000 2.003090 
# 
# From -- ./inp_files/10327.got.cif
#   From: 2010.05.17/outbox.cif.g08.bks.cpg/sg5_6_cif.got.tgz:10327.got - 2010.06.03 18:56:24.
