data_PCOD9126188
_publ_section_title
;
Structure prediction by ZEFSAII (Michael W. Deem and Ramdas Pophale) SiO2 
 PCOD9126188
Probable space group: C 2
;
_chemical_formula_sum "Si O2"
_cell_formula_units_Z 26
_cell_length_a 8.637454
_cell_length_b 26.192564
_cell_length_c 4.742432
_cell_angle_alpha 90.000000
_cell_angle_beta 99.608054
_cell_angle_gamma 90.000000
_cell_volume 1057.863696
_symmetry_space_group_name_H-M "C 2"
_symmetry_group_IT_number 5
_symmetry_cell_setting 'monoclinic'
loop_
_space_group_symop_operation_xyz
x,y,z
-x,y,-z
1/2+x,1/2+y,z
1/2-x,1/2+y,-z
loop_
_atom_site_type_symbol
_atom_site_label
_atom_site_fract_x
_atom_site_fract_y
_atom_site_fract_z
Si Si1 0.386438 0.306040 0.206700
Si Si2 0.290982 0.003727 0.292559
Si Si3 0.000000 0.436992 0.500000
Si Si4 0.500000 0.475209 0.500000
Si Si5 0.682631 0.711715 0.100561
Si Si6 0.653067 0.166087 0.389878
Si Si7 0.270417 0.909925 0.882835
Si Si8 0.500000 0.076546 0.000000
O O1 0.500000 0.320771 0.500000
O O2 0.259475 0.263305 0.245687
O O3 0.298938 0.355543 0.052711
O O4 0.500000 0.285218 0.000000
O O5 0.387641 0.988144 0.599183
O O6 0.111471 0.006922 0.324574
O O7 0.329175 0.945738 0.166857
O O8 0.363875 0.046529 0.125965
O O9 0.902988 0.399598 0.688688
O O10 0.619235 0.440247 0.713943
O O11 0.716973 0.665779 0.328610
O O12 0.500000 0.718228 0.000000
O O13 0.773842 0.697291 0.843907
O O14 0.500000 0.189367 0.500000
O O15 0.591402 0.113084 0.246899
#
# Coordination Sequence:
#
# PCOD9126188 Si02
#       8
#     4   4   2   2   4   4   4   2
#     4  12  26  45  77 111 150 205 253 296 387 465
#     4  11  23  43  68 106 143 196 246 308 362 442
#     4  10  22  38  68  96 152 190 244 302 364 422
#     4  10  22  40  68  98 150 194 236 300 362 422
#     4  12  27  51  80 114 152 190 248 336 386 445
#     4  12  25  50  82 110 149 195 257 307 388 468
#     4  11  22  43  66 104 152 198 241 300 365 444
#     4  12  26  44  80 108 142 212 258 306 382 460
#
# _framework density 24.577832999999998
#
# number of rings (size 3 to 8) (size 9 to 14) (size 15 to 20)
#    0.000    0.615    3.846    4.154    3.231    1.231 
#    2.769    3.077    0.000    0.000    0.000    0.000 
#    0.000    0.000    0.000    0.000    0.000    0.000 
#
# Total GULP energy -72571.263941 kJ/mol
# GULP energy per Si atom -5582.404919 kJ/mol
# Density = 2.452189 g / cm^3
# Si number density = 24.577833 Si / 1000 Ang^3
#
#
#
# Elastic Constant Matrix: (Units=GPa)
#
#
# Indices 1 2 3 4 5 6 
#
# 1 181.7515 83.7073 41.4747 0.0000 -8.1156 0.0000
# 2 83.7073 106.9731 38.9461 0.0000 -4.6814 0.0000
# 3 41.4747 38.9461 115.3373 0.0000 -2.8092 0.0000
# 4 0.0000 0.0000 0.0000 29.6783 0.0000 -8.0015
# 5 -8.1156 -4.6814 -2.8092 0.0000 45.0226 0.0000
# 6 0.0000 0.0000 0.0000 -8.0015 0.0000 22.2796
#
#
#
# Elastic Compliance Matrix: (Units=1/GPa)
#
#
# Indices 1 2 3 4 5 6 
#
# 1 0.008723 -0.006447 -0.000939 0.000000 0.000843 0.000000
# 2 -0.006447 0.015459 -0.002895 0.000000 0.000265 0.000000
# 3 -0.000939 -0.002895 0.009989 0.000000 0.000153 0.000000
# 4 0.000000 0.000000 0.000000 0.037307 0.000000 0.013398
# 5 0.000843 0.000265 0.000153 0.000000 0.022400 0.000000
# 6 0.000000 0.000000 0.000000 0.013398 0.000000 0.049696
#
#
# Mechanical properties :
#
#
# Convention : Reuss Voigt Hill
#
# Bulk Modulus (GPa) = 73.48549 81.36867 77.42708
# Shear Modulus (GPa) = 29.64298 35.39167 32.51732
#
# Velocity S-wave (km/s) = 3.47664 3.79883 3.64130
# Velocity P-wave (km/s) = 6.78823 7.24016 7.01783
#
# Compressibility (1/GPa) = 0.01360813
#
# Stress axis : x y z
#
# Youngs Moduli (GPa) = 114.63508 64.68820 100.10690
#
# Poissons Ratio (x) = 0.41706 0.09403
# Poissons Ratio (y) = 0.73908 0.28983
# Poissons Ratio (z) = 0.10767 0.18728
#
# Static dielectric constant tensor:
#      x y z
#    x 2.437850 0.000000 0.576620 
#    y 0.000000 1.997360 0.000000 
#    z 0.576620 0.000000 3.048760 
# 
# From -- ./inp_files/3660.got.cif
#   From: 2010.05.17/outbox.cif.g08.bks.cpg/sg5_2_cif.got.tgz:3660.got - 2010.06.03 18:56:24.
