data_PCOD9126431
_publ_section_title
;
Structure prediction by ZEFSAII (Michael W. Deem and Ramdas Pophale) SiO2 
 PCOD9126431
Probable space group: C 2
;
_chemical_formula_sum "Si O2"
_cell_formula_units_Z 20
_cell_length_a 14.989825
_cell_length_b 11.277730
_cell_length_c 8.697121
_cell_angle_alpha 90.000000
_cell_angle_beta 146.608670
_cell_angle_gamma 90.000000
_cell_volume 809.163370
_symmetry_space_group_name_H-M "C 2"
_symmetry_group_IT_number 5
_symmetry_cell_setting 'monoclinic'
loop_
_space_group_symop_operation_xyz
x,y,z
-x,y,-z
1/2+x,1/2+y,z
1/2-x,1/2+y,-z
loop_
_atom_site_type_symbol
_atom_site_label
_atom_site_fract_x
_atom_site_fract_y
_atom_site_fract_z
Si Si1 0.689119 0.922770 0.401332
Si Si2 0.000000 0.590441 0.500000
Si Si3 0.500000 0.141268 0.000000
Si Si4 0.626944 0.781382 0.002708
Si Si5 0.397409 0.279279 0.132251
Si Si6 0.847897 0.008546 0.928124
O O1 0.706379 0.847478 0.266859
O O2 0.622167 0.051331 0.258226
O O3 0.821447 0.952449 0.721167
O O4 0.539048 0.852399 0.264128
O O5 0.012843 0.683832 0.379475
O O6 0.834962 0.518007 0.263200
O O7 0.391259 0.221533 0.955276
O O8 0.741891 0.780656 0.019358
O O9 0.592635 0.643184 0.987219
O O10 0.441973 0.416167 0.171872
#
# Coordination Sequence:
#
# PCOD9126431 Si02
#       6
#     4   2   2   4   4   4
#     4  10  22  44  64  91 135 168 214 264 316 389
#     4  10  22  44  60 100 132 168 212 272 308 396
#     4  10  22  40  66  94 126 176 216 258 320 386
#     4   9  23  40  63  99 128 167 215 264 317 385
#     4  11  23  38  68  98 126 171 220 257 329 373
#     4  11  22  39  69  88 131 174 209 264 323 373
#
# _framework density 24.716887
#
# number of rings (size 3 to 8) (size 9 to 14) (size 15 to 20)
#    0.000    2.000    2.000    1.200   11.200    1.600 
#    0.000    4.000    0.000    0.000    0.000    0.000 
#    0.000    0.000    0.000    0.000    0.000    0.000 
#
# Total GULP energy -55852.480438 kJ/mol
# GULP energy per Si atom -5585.248044 kJ/mol
# Density = 2.466063 g / cm^3
# Si number density = 24.716887 Si / 1000 Ang^3
#
#
#
# Elastic Constant Matrix: (Units=GPa)
#
#
# Indices 1 2 3 4 5 6 
#
# 1 177.7975 58.3916 -4.3691 0.0000 -10.7090 0.0000
# 2 58.3916 181.1770 34.3021 0.0000 -33.0676 0.0000
# 3 -4.3691 34.3021 61.8261 0.0000 -14.2169 0.0000
# 4 0.0000 0.0000 0.0000 15.7429 0.0000 1.2389
# 5 -10.7090 -33.0676 -14.2169 0.0000 24.8591 0.0000
# 6 0.0000 0.0000 0.0000 1.2389 0.0000 54.9018
#
#
#
# Elastic Compliance Matrix: (Units=1/GPa)
#
#
# Indices 1 2 3 4 5 6 
#
# 1 0.006477 -0.002300 0.001925 0.000000 0.000831 0.000000
# 2 -0.002300 0.008348 -0.002842 0.000000 0.008488 0.000000
# 3 0.001925 -0.002842 0.019815 0.000000 0.008380 0.000000
# 4 0.000000 0.000000 0.000000 0.063634 0.000000 -0.001436
# 5 0.000831 0.008488 0.008380 0.000000 0.056669 0.000000
# 6 0.000000 0.000000 0.000000 -0.001436 0.000000 0.018247
#
#
# Mechanical properties :
#
#
# Convention : Reuss Voigt Hill
#
# Bulk Modulus (GPa) = 35.45480 66.38333 50.91906
# Shear Modulus (GPa) = 26.45139 41.26581 33.85860
#
# Velocity S-wave (km/s) = 3.27490 4.09043 3.70517
# Velocity P-wave (km/s) = 5.35495 7.01603 6.24100
#
# Compressibility (1/GPa) = 0.02820493
#
# Stress axis : x y z
#
# Youngs Moduli (GPa) = 154.38738 119.78615 50.46805
#
# Poissons Ratio (x) = 0.27554 -0.09716
# Poissons Ratio (y) = 0.35513 0.14345
# Poissons Ratio (z) = -0.29722 0.34048
#
# Static dielectric constant tensor:
#      x y z
#    x 2.102190 0.000000 0.013910 
#    y 0.000000 1.893570 0.000000 
#    z 0.013910 0.000000 2.103910 
# 
# From -- ./inp_files/23014.got.cif
#   From: 2010.05.17/outbox.cif.g08.bks.cpg/sg5_12_cif.got.tgz:23014.got - 2010.06.03 18:56:24.
