data_PCOD9126254
_publ_section_title
;
Structure prediction by ZEFSAII (Michael W. Deem and Ramdas Pophale) SiO2 
 PCOD9126254
Probable space group: C 2
;
_chemical_formula_sum "Si O2"
_cell_formula_units_Z 24
_cell_length_a 25.024527
_cell_length_b 11.028301
_cell_length_c 9.540258
_cell_angle_alpha 90.000000
_cell_angle_beta 23.726870
_cell_angle_gamma 90.000000
_cell_volume 1059.419394
_symmetry_space_group_name_H-M "C 2"
_symmetry_group_IT_number 5
_symmetry_cell_setting 'monoclinic'
loop_
_space_group_symop_operation_xyz
x,y,z
-x,y,-z
1/2+x,1/2+y,z
1/2-x,1/2+y,-z
loop_
_atom_site_type_symbol
_atom_site_label
_atom_site_fract_x
_atom_site_fract_y
_atom_site_fract_z
Si Si1 0.366719 0.363050 0.570545
Si Si2 0.845291 0.023502 0.360242
Si Si3 0.905808 0.345783 0.601694
Si Si4 0.635556 0.470147 0.004273
Si Si5 0.650475 0.098879 0.325264
Si Si6 0.256341 0.204819 0.187978
O O1 0.335350 0.409485 0.490300
O O2 0.476166 0.453486 0.374802
O O3 0.409824 0.222058 0.466715
O O4 0.236324 0.362979 0.979566
O O5 0.756922 0.126864 0.642131
O O6 0.000000 0.060492 0.000000
O O7 0.816029 0.995909 0.270049
O O8 0.937079 0.476995 0.460925
O O9 0.887457 0.243323 0.529761
O O10 0.000000 0.309715 0.500000
O O11 0.712814 0.563102 0.921024
O O12 0.677977 0.334258 0.944107
O O13 0.675151 0.131102 0.102537
#
# Coordination Sequence:
#
# PCOD9126254 Si02
#       6
#     4   4   4   4   4   4
#     4  10  22  41  65  97 130 173 221 270 329 401
#     4  10  22  42  63  92 131 173 220 262 334 401
#     4  10  22  39  62  99 127 166 219 277 335 383
#     4  10  24  42  68  96 133 177 221 270 335 399
#     4  10  22  39  66  96 127 167 224 274 329 378
#     4  10  22  42  62  96 127 171 223 270 330 391
#
# _framework density 22.653915999999999
#
# number of rings (size 3 to 8) (size 9 to 14) (size 15 to 20)
#    0.000    2.000    1.667    0.000    4.667   10.667 
#    0.000    0.000    0.000    0.000    0.000    0.000 
#    0.000    0.000    0.000    0.000    0.000    0.000 
#
# Total GULP energy -67022.784214 kJ/mol
# GULP energy per Si atom -5585.232018 kJ/mol
# Density = 2.260236 g / cm^3
# Si number density = 22.653916 Si / 1000 Ang^3
#
#
#
# Elastic Constant Matrix: (Units=GPa)
#
#
# Indices 1 2 3 4 5 6 
#
# 1 125.3662 10.5548 37.6722 0.0000 7.7257 0.0000
# 2 10.5548 82.2172 13.8849 0.0000 4.1547 0.0000
# 3 37.6722 13.8849 53.1185 0.0000 16.4038 0.0000
# 4 0.0000 0.0000 0.0000 20.4322 0.0000 4.1437
# 5 7.7257 4.1547 16.4038 0.0000 29.4493 0.0000
# 6 0.0000 0.0000 0.0000 4.1437 0.0000 40.9628
#
#
#
# Elastic Compliance Matrix: (Units=1/GPa)
#
#
# Indices 1 2 3 4 5 6 
#
# 1 0.010202 -0.000089 -0.007717 0.000000 0.001635 0.000000
# 2 -0.000089 0.012726 -0.003280 0.000000 0.000055 0.000000
# 3 -0.007717 -0.003280 0.029455 0.000000 -0.013920 0.000000
# 4 0.000000 0.000000 0.000000 0.049967 0.000000 -0.005055
# 5 0.001635 0.000055 -0.013920 0.000000 0.041273 0.000000
# 6 0.000000 0.000000 0.000000 -0.005055 0.000000 0.024924
#
#
# Mechanical properties :
#
#
# Convention : Reuss Voigt Hill
#
# Bulk Modulus (GPa) = 33.10178 42.76951 37.93565
# Shear Modulus (GPa) = 24.90159 31.40819 28.15489
#
# Velocity S-wave (km/s) = 3.31904 3.72753 3.52920
# Velocity P-wave (km/s) = 5.41588 6.11935 5.77833
#
# Compressibility (1/GPa) = 0.03020985
#
# Stress axis : x y z
#
# Youngs Moduli (GPa) = 98.01634 78.58222 33.95022
#
# Poissons Ratio (x) = 0.00700 0.26200
# Poissons Ratio (y) = 0.00873 0.11136
# Poissons Ratio (z) = 0.75641 0.25777
#
# Static dielectric constant tensor:
#      x y z
#    x 1.888520 0.000000 -0.060320 
#    y 0.000000 1.890660 0.000000 
#    z -0.060320 0.000000 1.872220 
# 
# From -- ./inp_files/30905.got.cif
#   From: 2010.05.17/outbox.cif.g08.bks.cpg/sg5_16_cif.got.tgz:30905.got - 2010.06.03 18:56:24.
