data_PCOD9126415
_publ_section_title
;
Structure prediction by ZEFSAII (Michael W. Deem and Ramdas Pophale) SiO2 
 PCOD9126415
Probable space group: C 2
;
_chemical_formula_sum "Si O2"
_cell_formula_units_Z 30
_cell_length_a 7.991506
_cell_length_b 18.381216
_cell_length_c 11.729191
_cell_angle_alpha 90.000000
_cell_angle_beta 53.353121
_cell_angle_gamma 90.000000
_cell_volume 1382.367842
_symmetry_space_group_name_H-M "C 2"
_symmetry_group_IT_number 5
_symmetry_cell_setting 'monoclinic'
loop_
_space_group_symop_operation_xyz
x,y,z
-x,y,-z
1/2+x,1/2+y,z
1/2-x,1/2+y,-z
loop_
_atom_site_type_symbol
_atom_site_label
_atom_site_fract_x
_atom_site_fract_y
_atom_site_fract_z
Si Si1 0.937948 0.889330 0.732906
Si Si2 0.214791 0.495285 0.478475
Si Si3 0.333913 0.643769 0.349515
Si Si4 0.000000 0.773428 0.500000
Si Si5 0.241184 0.680320 0.920035
Si Si6 0.220116 0.082762 0.883078
Si Si7 0.941958 0.462990 0.216560
Si Si8 0.180506 0.332012 0.023270
O O1 0.738658 0.944088 0.800061
O O2 0.889851 0.848076 0.868535
O O3 0.130010 0.943456 0.652520
O O4 0.961347 0.828068 0.623442
O O5 0.286908 0.578822 0.456056
O O6 0.000000 0.495855 0.500000
O O7 0.181143 0.460961 0.615184
O O8 0.198983 0.717186 0.426999
O O9 0.268229 0.611275 0.251237
O O10 0.583704 0.651739 0.237943
O O11 0.290154 0.649310 0.025335
O O12 0.284213 0.765009 0.909928
O O13 0.000000 0.663352 0.000000
O O14 0.420632 0.035421 0.835420
O O15 0.000000 0.042389 0.000000
O O16 0.104279 0.398946 0.129135
O O17 0.000000 0.317234 0.000000
#
# Coordination Sequence:
#
# PCOD9126415 Si02
#       8
#     4   4   4   2   4   4   4   4
#     4  11  25  41  69  99 135 175 231 282 339 411
#     4  12  24  42  63 103 133 178 221 288 342 411
#     4  11  23  42  70  92 140 183 230 272 356 420
#     4  12  20  44  72  92 130 190 224 272 346 424
#     4  11  25  41  65 100 133 174 233 291 337 401
#     4  10  22  40  65  96 130 178 224 279 336 417
#     4  11  22  42  67  96 132 178 221 276 339 408
#     4  10  23  43  68  94 133 181 225 275 341 411
#
# _framework density 21.701896000000001
#
# number of rings (size 3 to 8) (size 9 to 14) (size 15 to 20)
#    0.000    1.067    3.333    3.600    5.600    2.133 
#    0.000    0.000    0.000    0.000    0.000    0.000 
#    0.000    0.000    0.000    0.000    0.000    0.000 
#
# Total GULP energy -83768.521027 kJ/mol
# GULP energy per Si atom -5584.568068 kJ/mol
# Density = 2.165250 g / cm^3
# Si number density = 21.701896 Si / 1000 Ang^3
#
#
#
# Elastic Constant Matrix: (Units=GPa)
#
#
# Indices 1 2 3 4 5 6 
#
# 1 29.9387 21.7193 17.2611 0.0000 -15.4696 0.0000
# 2 21.7193 93.9011 43.0749 0.0000 -20.1120 0.0000
# 3 17.2611 43.0749 101.9191 0.0000 -26.6158 0.0000
# 4 0.0000 0.0000 0.0000 -32.8444 0.0000 29.8070
# 5 -15.4696 -20.1120 -26.6158 0.0000 31.9696 0.0000
# 6 0.0000 0.0000 0.0000 29.8070 0.0000 2.5338
#
#
#
# Elastic Compliance Matrix: (Units=1/GPa)
#
#
# Indices 1 2 3 4 5 6 
#
# 1 0.048353 -0.007025 -0.000338 0.000000 0.018697 0.000000
# 2 -0.007025 0.014803 -0.004501 0.000000 0.002166 0.000000
# 3 -0.000338 -0.004501 0.014042 0.000000 0.008696 0.000000
# 4 0.000000 0.000000 0.000000 -0.002608 0.000000 0.030676
# 5 0.018697 0.002166 0.008696 0.000000 0.048929 0.000000
# 6 0.000000 0.000000 0.000000 0.030676 0.000000 0.033802
#
#
# Mechanical properties :
#
#
# Convention : Reuss Voigt Hill
#
# Bulk Modulus (GPa) = 18.70135 43.31884 31.01009
# Shear Modulus (GPa) = 25.14185 9.91204 17.52695
#
# Velocity S-wave (km/s) = 3.40738 2.13946 2.84495
# Velocity P-wave (km/s) = 4.91085 5.10952 5.01117
#
# Compressibility (1/GPa) = 0.05347207
#
# Stress axis : x y z
#
# Youngs Moduli (GPa) = 20.68108 67.55417 71.21531
#
# Poissons Ratio (x) = 0.47454 0.02404
# Poissons Ratio (y) = 0.14528 0.32053
# Poissons Ratio (z) = 0.00698 0.30405
#
# Static dielectric constant tensor:
#      x y z
#    x 1.977530 0.000000 0.138360 
#    y 0.000000 1.770130 0.000000 
#    z 0.138360 0.000000 2.023520 
# 
# From -- ./inp_files/51379.got.cif
#   From: 2010.05.17/outbox.cif.g08.bks.cpg/sg5_26_cif.got.tgz:51379.got - 2010.06.03 18:56:24.
