data_PCOD9126544
_publ_section_title
;
Structure prediction by ZEFSAII (Michael W. Deem and Ramdas Pophale) SiO2 
 PCOD9126544
Probable space group: C 2
;
_chemical_formula_sum "Si O2"
_cell_formula_units_Z 24
_cell_length_a 7.112494
_cell_length_b 12.690304
_cell_length_c 9.669486
_cell_angle_alpha 90.000000
_cell_angle_beta 91.681816
_cell_angle_gamma 90.000000
_cell_volume 872.389047
_symmetry_space_group_name_H-M "C 2"
_symmetry_group_IT_number 5
_symmetry_cell_setting 'monoclinic'
loop_
_space_group_symop_operation_xyz
x,y,z
-x,y,-z
1/2+x,1/2+y,z
1/2-x,1/2+y,-z
loop_
_atom_site_type_symbol
_atom_site_label
_atom_site_fract_x
_atom_site_fract_y
_atom_site_fract_z
Si Si1 0.334596 0.002740 0.667752
Si Si2 0.719741 0.915141 0.033773
Si Si3 0.987984 0.713553 0.698847
Si Si4 0.927077 0.210871 0.647368
Si Si5 0.500000 0.229733 0.000000
Si Si6 0.500000 0.505278 0.500000
Si Si7 0.303458 0.881817 0.257351
O O1 0.365326 0.123875 0.622332
O O2 0.189548 0.952641 0.556520
O O3 0.544902 0.956944 0.669694
O O4 0.260068 0.975852 0.821765
O O5 0.776279 0.947304 0.878019
O O6 0.500000 0.904400 0.000000
O O7 0.828529 0.804989 0.039950
O O8 0.794252 0.723998 0.332236
O O9 0.880317 0.824411 0.687025
O O10 0.965904 0.671394 0.857359
O O11 0.057724 0.276358 0.757295
O O12 0.000000 0.252962 0.500000
O O13 0.958561 0.085637 0.627780
#
# Coordination Sequence:
#
# PCOD9126544 Si02
#       7
#     4   4   4   4   2   2   4
#     4  11  23  45  74 111 163 205 266 334 390 491
#     4   9  20  41  67 103 149 188 252 319 391 469
#     4  11  22  44  76 110 158 201 267 332 400 480
#     4  10  23  48  74 107 157 213 262 325 401 483
#     4  10  22  40  76 110 144 200 252 332 410 470
#     4  10  24  48  72 110 156 226 272 312 404 484
#     4  10  22  45  74 108 150 206 259 330 399 467
#
# _framework density 27.510663000000001
#
# number of rings (size 3 to 8) (size 9 to 14) (size 15 to 20)
#    0.500    1.333    1.667    2.000    3.500    2.667 
#   15.000    3.333    5.500    0.000    0.000    0.000 
#    0.000    0.000    0.000    0.000    0.000    0.000 
#
# Total GULP energy -66974.813544 kJ/mol
# GULP energy per Si atom -5581.234462 kJ/mol
# Density = 2.744805 g / cm^3
# Si number density = 27.510663 Si / 1000 Ang^3
#
#
#
# Elastic Constant Matrix: (Units=GPa)
#
#
# Indices 1 2 3 4 5 6 
#
# 1 192.2585 22.9946 49.5798 0.0000 -10.3119 0.0000
# 2 22.9946 55.4405 28.4799 0.0000 -13.7601 0.0000
# 3 49.5798 28.4799 175.2897 0.0000 3.5216 0.0000
# 4 0.0000 0.0000 0.0000 38.5222 0.0000 11.0952
# 5 -10.3119 -13.7601 3.5216 0.0000 46.3775 0.0000
# 6 0.0000 0.0000 0.0000 11.0952 0.0000 45.8441
#
#
#
# Elastic Compliance Matrix: (Units=1/GPa)
#
#
# Indices 1 2 3 4 5 6 
#
# 1 0.005792 -0.001429 -0.001426 0.000000 0.000972 0.000000
# 2 -0.001429 0.021915 -0.003286 0.000000 0.006434 0.000000
# 3 -0.001426 -0.003286 0.006678 0.000000 -0.001799 0.000000
# 4 0.000000 0.000000 0.000000 0.027904 0.000000 -0.006753
# 5 0.000972 0.006434 -0.001799 0.000000 0.023824 0.000000
# 6 0.000000 0.000000 0.000000 -0.006753 0.000000 0.023447
#
#
# Mechanical properties :
#
#
# Convention : Reuss Voigt Hill
#
# Bulk Modulus (GPa) = 45.23929 69.45523 57.34726
# Shear Modulus (GPa) = 38.69717 47.61106 43.15412
#
# Velocity S-wave (km/s) = 3.75457 4.16461 3.96489
# Velocity P-wave (km/s) = 5.93933 6.95893 6.46925
#
# Compressibility (1/GPa) = 0.02210468
#
# Stress axis : x y z
#
# Youngs Moduli (GPa) = 172.65214 45.63163 149.74401
#
# Poissons Ratio (x) = 0.06519 0.21348
# Poissons Ratio (y) = 0.24666 0.49202
# Poissons Ratio (z) = 0.24614 0.14993
#
# Static dielectric constant tensor:
#      x y z
#    x 2.167860 0.000000 -0.087440 
#    y 0.000000 2.151770 0.000000 
#    z -0.087440 0.000000 2.431640 
# 
# From -- ./inp_files/35973.got.cif
#   From: 2010.05.17/outbox.cif.g08.bks.cpg/sg5_18_cif.got.tgz:35973.got - 2010.06.03 18:56:24.
