data_PCOD9126497
_publ_section_title
;
Structure prediction by ZEFSAII (Michael W. Deem and Ramdas Pophale) SiO2 
 PCOD9126497
Probable space group: C 2
;
_chemical_formula_sum "Si O2"
_cell_formula_units_Z 20
_cell_length_a 5.231316
_cell_length_b 19.062599
_cell_length_c 8.429049
_cell_angle_alpha 90.000000
_cell_angle_beta 85.225361
_cell_angle_gamma 90.000000
_cell_volume 837.648732
_symmetry_space_group_name_H-M "C 2"
_symmetry_group_IT_number 5
_symmetry_cell_setting 'monoclinic'
loop_
_space_group_symop_operation_xyz
x,y,z
-x,y,-z
1/2+x,1/2+y,z
1/2-x,1/2+y,-z
loop_
_atom_site_type_symbol
_atom_site_label
_atom_site_fract_x
_atom_site_fract_y
_atom_site_fract_z
Si Si1 0.132056 0.998690 0.159860
Si Si2 0.563221 0.764426 0.310705
Si Si3 0.882423 0.644757 0.174291
Si Si4 0.922032 0.835371 0.826730
Si Si5 0.500000 0.134989 0.500000
Si Si6 0.000000 0.042457 0.500000
O O1 0.176502 0.915910 0.148323
O O2 0.342552 0.060213 0.170201
O O3 0.980059 0.002544 0.334563
O O4 0.000000 0.018463 0.000000
O O5 0.500000 0.752229 0.500000
O O6 0.630040 0.691356 0.217949
O O7 0.321808 0.798806 0.238086
O O8 0.815351 0.815851 0.282834
O O9 0.036985 0.668092 0.324766
O O10 0.000000 0.662827 0.000000
O O11 0.000000 0.813361 0.000000
O O12 0.750608 0.089762 0.514805
#
# Coordination Sequence:
#
# PCOD9126497 Si02
#       6
#     4   4   4   4   2   2
#     4  10  24  45  77 111 150 192 256 307 382 449
#     4  12  29  49  77 112 156 205 261 312 382 460
#     4  11  26  48  80 111 156 197 257 313 391 443
#     4  11  27  52  77 111 153 204 256 318 383 460
#     4  10  24  42  69 108 149 188 242 306 370 448
#     4  10  22  40  69 106 149 188 236 304 376 436
#
# _framework density 23.876358
#
# number of rings (size 3 to 8) (size 9 to 14) (size 15 to 20)
#    0.000    1.200    0.000    3.000   11.200    9.600 
#    1.800    0.000    0.000    0.000    0.000    0.000 
#    0.000    0.000    0.000    0.000    0.000    0.000 
#
# Total GULP energy -55796.479886 kJ/mol
# GULP energy per Si atom -5579.647989 kJ/mol
# Density = 2.382201 g / cm^3
# Si number density = 23.876358 Si / 1000 Ang^3
#
#
#
# Elastic Constant Matrix: (Units=GPa)
#
#
# Indices 1 2 3 4 5 6 
#
# 1 136.6792 45.6322 62.5601 0.0000 12.0094 0.0000
# 2 45.6322 141.0349 39.5657 0.0000 6.3786 0.0000
# 3 62.5601 39.5657 255.5296 0.0000 -10.2354 0.0000
# 4 0.0000 0.0000 0.0000 6.0506 0.0000 10.1758
# 5 12.0094 6.3786 -10.2354 0.0000 47.5423 0.0000
# 6 0.0000 0.0000 0.0000 10.1758 0.0000 27.8351
#
#
#
# Elastic Compliance Matrix: (Units=1/GPa)
#
#
# Indices 1 2 3 4 5 6 
#
# 1 0.009217 -0.002311 -0.001997 0.000000 -0.002448 0.000000
# 2 -0.002311 0.008067 -0.000709 0.000000 -0.000651 0.000000
# 3 -0.001997 -0.000709 0.004576 0.000000 0.001585 0.000000
# 4 0.000000 0.000000 0.000000 0.429086 0.000000 -0.156863
# 5 -0.002448 -0.000651 0.001585 0.000000 0.022081 0.000000
# 6 0.000000 0.000000 0.000000 -0.156863 0.000000 0.093271
#
#
# Mechanical properties :
#
#
# Convention : Reuss Voigt Hill
#
# Bulk Modulus (GPa) = 84.56846 92.08441 88.32644
# Shear Modulus (GPa) = 8.61663 41.98464 25.30064
#
# Velocity S-wave (km/s) = 1.90176 4.19790 3.25876
# Velocity P-wave (km/s) = 6.34968 7.88336 7.15772
#
# Compressibility (1/GPa) = 0.01182474
#
# Stress axis : x y z
#
# Youngs Moduli (GPa) = 108.49376 123.96646 218.55111
#
# Poissons Ratio (x) = 0.28653 0.43639
# Poissons Ratio (y) = 0.25077 0.15501
# Poissons Ratio (z) = 0.21664 0.08792
#
# Static dielectric constant tensor:
#      x y z
#    x 2.005620 0.000000 -0.254690 
#    y 0.000000 1.957500 0.000000 
#    z -0.254690 0.000000 2.626560 
# 
# From -- ./inp_files/12321.got.cif
#   From: 2010.05.17/outbox.cif.g08.bks.cpg/sg5_7_cif.got.tgz:12321.got - 2010.06.03 18:56:24.
