data_PCOD9126555
_publ_section_title
;
Structure prediction by ZEFSAII (Michael W. Deem and Ramdas Pophale) SiO2 
 PCOD9126555
Probable space group: C 2
;
_chemical_formula_sum "Si O2"
_cell_formula_units_Z 30
_cell_length_a 23.814728
_cell_length_b 9.263969
_cell_length_c 14.640759
_cell_angle_alpha 90.000000
_cell_angle_beta 152.840420
_cell_angle_gamma 90.000000
_cell_volume 1474.412136
_symmetry_space_group_name_H-M "C 2"
_symmetry_group_IT_number 5
_symmetry_cell_setting 'monoclinic'
loop_
_space_group_symop_operation_xyz
x,y,z
-x,y,-z
1/2+x,1/2+y,z
1/2-x,1/2+y,-z
loop_
_atom_site_type_symbol
_atom_site_label
_atom_site_fract_x
_atom_site_fract_y
_atom_site_fract_z
Si Si1 0.249721 0.879140 0.616018
Si Si2 0.069886 0.541460 0.696465
Si Si3 0.500000 0.521645 0.500000
Si Si4 0.431746 0.688113 0.986117
Si Si5 0.683934 0.696513 0.458268
Si Si6 0.608400 0.783821 0.543953
Si Si7 0.705831 0.485568 0.083761
Si Si8 0.487569 0.336613 0.314551
O O1 0.367963 0.828084 0.846775
O O2 0.244610 0.774089 0.520485
O O3 0.131886 0.859295 0.509712
O O4 0.240547 0.039534 0.561438
O O5 0.214294 0.548711 0.883882
O O6 0.037882 0.666963 0.720025
O O7 0.000000 0.578566 0.500000
O O8 0.013180 0.385573 0.640397
O O9 0.575167 0.632456 0.543732
O O10 0.441185 0.412916 0.340762
O O11 0.326130 0.598516 0.883597
O O12 0.500000 0.609659 0.000000
O O13 0.541880 0.703341 0.217740
O O14 0.674816 0.770628 0.543347
O O15 0.702353 0.866005 0.745063
O O16 0.582086 0.415341 0.868060
#
# Coordination Sequence:
#
# PCOD9126555 Si02
#       8
#     4   4   2   4   4   4   4   4
#     4  11  24  45  71 100 135 182 233 284 352 407
#     4  10  22  41  61  91 133 179 215 275 345 405
#     4  12  22  42  64  90 138 170 230 282 330 412
#     4  10  23  44  70  94 133 176 229 280 346 407
#     4  11  25  46  72  99 135 186 224 292 346 414
#     4  11  23  43  65  97 136 178 223 288 350 404
#     4  11  23  39  67  96 133 178 228 277 343 419
#     4  12  25  41  65 101 133 181 233 277 351 420
#
# _framework density 20.347093999999998
#
# number of rings (size 3 to 8) (size 9 to 14) (size 15 to 20)
#    0.000    1.067    5.333    1.600    7.467    1.067 
#    2.400    1.333    0.000    0.000    0.000    0.000 
#    0.000    0.000    0.000    0.000    0.000    0.000 
#
# Total GULP energy -83631.624569 kJ/mol
# GULP energy per Si atom -5575.441638 kJ/mol
# Density = 2.030078 g / cm^3
# Si number density = 20.347094 Si / 1000 Ang^3
#
#
#
# Elastic Constant Matrix: (Units=GPa)
#
#
# Indices 1 2 3 4 5 6 
#
# 1 66.3429 39.7434 6.4313 0.0000 2.1190 0.0000
# 2 39.7434 102.5752 20.8980 0.0000 4.8141 0.0000
# 3 6.4313 20.8980 60.0482 0.0000 4.4729 0.0000
# 4 0.0000 0.0000 0.0000 15.9873 0.0000 -1.0698
# 5 2.1190 4.8141 4.4729 0.0000 30.1177 0.0000
# 6 0.0000 0.0000 0.0000 -1.0698 0.0000 45.7719
#
#
#
# Elastic Compliance Matrix: (Units=1/GPa)
#
#
# Indices 1 2 3 4 5 6 
#
# 1 0.019650 -0.007725 0.000602 0.000000 -0.000237 0.000000
# 2 -0.007725 0.013569 -0.003816 0.000000 -0.001059 0.000000
# 3 0.000602 -0.003816 0.018075 0.000000 -0.002117 0.000000
# 4 0.000000 0.000000 0.000000 0.062647 0.000000 0.001464
# 5 -0.000237 -0.001059 -0.002117 0.000000 0.033703 0.000000
# 6 0.000000 0.000000 0.000000 0.001464 0.000000 0.021882
#
#
# Mechanical properties :
#
#
# Convention : Reuss Voigt Hill
#
# Bulk Modulus (GPa) = 33.99648 40.34574 37.17111
# Shear Modulus (GPa) = 24.84957 29.16829 27.00893
#
# Velocity S-wave (km/s) = 3.49848 3.79031 3.64732
# Velocity P-wave (km/s) = 5.75010 6.24717 6.00378
#
# Compressibility (1/GPa) = 0.02941481
#
# Stress axis : x y z
#
# Youngs Moduli (GPa) = 50.88997 73.69619 55.32626
#
# Poissons Ratio (x) = 0.56931 -0.03328
# Poissons Ratio (y) = 0.39313 0.21113
# Poissons Ratio (z) = -0.03061 0.28123
#
# Static dielectric constant tensor:
#      x y z
#    x 1.751960 0.000000 0.012530 
#    y 0.000000 1.727750 0.000000 
#    z 0.012530 0.000000 1.736250 
# 
# From -- ./inp_files/57625.got.cif
#   From: 2010.05.17/outbox.cif.g08.bks.cpg/sg5_29_cif.got.tgz:57625.got - 2010.06.03 18:56:24.
