data_PCOD9126227
_publ_section_title
;
Structure prediction by ZEFSAII (Michael W. Deem and Ramdas Pophale) SiO2 
 PCOD9126227
Probable space group: C 2
;
_chemical_formula_sum "Si O2"
_cell_formula_units_Z 22
_cell_length_a 10.048247
_cell_length_b 6.958755
_cell_length_c 13.182885
_cell_angle_alpha 90.000000
_cell_angle_beta 81.906250
_cell_angle_gamma 90.000000
_cell_volume 912.608742
_symmetry_space_group_name_H-M "C 2"
_symmetry_group_IT_number 5
_symmetry_cell_setting 'monoclinic'
loop_
_space_group_symop_operation_xyz
x,y,z
-x,y,-z
1/2+x,1/2+y,z
1/2-x,1/2+y,-z
loop_
_atom_site_type_symbol
_atom_site_label
_atom_site_fract_x
_atom_site_fract_y
_atom_site_fract_z
Si Si1 0.548205 0.763420 0.600640
Si Si2 0.384547 0.893809 0.801800
Si Si3 0.803073 0.752188 0.681124
Si Si4 0.500000 0.149609 0.500000
Si Si5 0.350329 0.439688 0.043182
Si Si6 0.346033 0.876723 0.120299
O O1 0.500000 0.680678 0.500000
O O2 0.443371 0.764427 0.704755
O O3 0.680327 0.666090 0.629243
O O4 0.575843 0.989434 0.564082
O O5 0.242831 0.830281 0.864884
O O6 0.499174 0.930680 0.874445
O O7 0.361550 0.097190 0.751493
O O8 0.730695 0.900769 0.763651
O O9 0.914598 0.780422 0.584567
O O10 0.365095 0.651308 0.088935
O O11 0.500000 0.367431 0.000000
O O12 0.253863 0.450722 0.955678
#
# Coordination Sequence:
#
# PCOD9126227 Si02
#       6
#     4   4   4   2   4   4
#     4   8  16  32  58  80 110 154 189 231 290 342
#     4   9  18  36  61  79 114 158 188 235 293 342
#     4   9  17  34  60  83 112 154 195 231 294 344
#     4   8  16  32  54  78 114 150 186 242 282 336
#     4  11  22  37  59  88 118 150 200 239 287 343
#     4  10  22  39  60  85 119 158 192 237 292 346
#
# _framework density 24.106718000000001
#
# number of rings (size 3 to 8) (size 9 to 14) (size 15 to 20)
#    0.545    2.182    0.000    1.636    0.000    2.909 
#    3.273    0.000   34.000    0.000    0.000    0.000 
#    0.000    0.000    0.000    0.000    0.000    0.000 
#
# Total GULP energy -61289.795895 kJ/mol
# GULP energy per Si atom -5571.799627 kJ/mol
# Density = 2.405185 g / cm^3
# Si number density = 24.106718 Si / 1000 Ang^3
#
#
#
# Elastic Constant Matrix: (Units=GPa)
#
#
# Indices 1 2 3 4 5 6 
#
# 1 172.6035 20.4762 95.3220 0.0000 -5.2039 0.0000
# 2 20.4762 43.3169 9.0386 0.0000 -2.3659 0.0000
# 3 95.3220 9.0386 170.6879 0.0000 -21.2534 0.0000
# 4 0.0000 0.0000 0.0000 11.9959 0.0000 4.6947
# 5 -5.2039 -2.3659 -21.2534 0.0000 70.7189 0.0000
# 6 0.0000 0.0000 0.0000 4.6947 0.0000 19.8385
#
#
#
# Elastic Compliance Matrix: (Units=1/GPa)
#
#
# Indices 1 2 3 4 5 6 
#
# 1 0.008844 -0.003212 -0.004884 0.000000 -0.000924 0.000000
# 2 -0.003212 0.024523 0.000590 0.000000 0.000761 0.000000
# 3 -0.004884 0.000590 0.008844 0.000000 0.002318 0.000000
# 4 0.000000 0.000000 0.000000 0.091870 0.000000 -0.021740
# 5 -0.000924 0.000761 0.002318 0.000000 0.014795 0.000000
# 6 0.000000 0.000000 0.000000 -0.021740 0.000000 0.055552
#
#
# Mechanical properties :
#
#
# Convention : Reuss Voigt Hill
#
# Bulk Modulus (GPa) = 36.76738 70.69798 53.73268
# Shear Modulus (GPa) = 21.88141 37.96210 29.92176
#
# Velocity S-wave (km/s) = 3.01606 3.97262 3.52692
# Velocity P-wave (km/s) = 5.23582 7.10162 6.23886
#
# Compressibility (1/GPa) = 0.02719802
#
# Stress axis : x y z
#
# Youngs Moduli (GPa) = 113.07009 40.77887 113.07625
#
# Poissons Ratio (x) = 0.13098 0.55227
# Poissons Ratio (y) = 0.36318 -0.06672
# Poissons Ratio (z) = 0.55224 -0.02406
#
# Static dielectric constant tensor:
#      x y z
#    x 1.965330 0.000000 -0.050670 
#    y 0.000000 1.977040 0.000000 
#    z -0.050670 0.000000 1.970170 
# 
# From -- ./inp_files/49856.got.cif
#   From: 2010.05.17/outbox.cif.g08.bks.cpg/sg5_25_cif.got.tgz:49856.got - 2010.06.03 18:56:24.
