data_PCOD9126640
_publ_section_title
;
Structure prediction by ZEFSAII (Michael W. Deem and Ramdas Pophale) SiO2 
 PCOD9126640
Probable space group: C 2
;
_chemical_formula_sum "Si O2"
_cell_formula_units_Z 18
_cell_length_a 17.203921
_cell_length_b 9.015867
_cell_length_c 7.016379
_cell_angle_alpha 90.000000
_cell_angle_beta 46.141879
_cell_angle_gamma 90.000000
_cell_volume 784.725964
_symmetry_space_group_name_H-M "C 2"
_symmetry_group_IT_number 5
_symmetry_cell_setting 'monoclinic'
loop_
_space_group_symop_operation_xyz
x,y,z
-x,y,-z
1/2+x,1/2+y,z
1/2-x,1/2+y,-z
loop_
_atom_site_type_symbol
_atom_site_label
_atom_site_fract_x
_atom_site_fract_y
_atom_site_fract_z
Si Si1 0.238100 0.030080 0.971433
Si Si2 0.000000 0.338238 0.000000
Si Si3 0.624325 0.381361 0.834020
Si Si4 0.317806 0.066893 0.432164
Si Si5 0.101853 0.294446 0.199047
O O1 0.157379 0.918842 0.995612
O O2 0.306033 0.099790 0.678662
O O3 0.320301 0.935421 0.955498
O O4 0.168889 0.160977 0.177831
O O5 0.941200 0.247475 0.934855
O O6 0.089290 0.445040 0.754096
O O7 0.703315 0.490138 0.581099
O O8 0.656179 0.213906 0.726791
O O9 0.500000 0.402962 0.000000
O O10 0.000000 0.332619 0.500000
#
# Coordination Sequence:
#
# PCOD9126640 Si02
#       5
#     4   2   4   4   4
#     4  10  27  45  71 108 149 187 246 303 363 435
#     4  12  24  46  84  98 158 200 234 310 372 430
#     4  10  22  41  67 105 141 187 241 291 361 428
#     4  10  22  43  70 107 139 195 239 294 362 434
#     4  12  26  51  71 110 149 192 244 304 367 436
#
# _framework density 22.937944999999999
#
# number of rings (size 3 to 8) (size 9 to 14) (size 15 to 20)
#    1.333    0.000    3.333    1.333    4.667    1.778 
#    4.000    0.000    0.000    0.000    0.000    0.000 
#    0.000    0.000    0.000    0.000    0.000    0.000 
#
# Total GULP energy -50300.296379 kJ/mol
# GULP energy per Si atom -5588.921820 kJ/mol
# Density = 2.288574 g / cm^3
# Si number density = 22.937945 Si / 1000 Ang^3
#
#
#
# Elastic Constant Matrix: (Units=GPa)
#
#
# Indices 1 2 3 4 5 6 
#
# 1 101.4220 31.9151 37.5828 0.0000 -23.2710 0.0000
# 2 31.9151 91.6394 20.8148 0.0000 -26.8232 0.0000
# 3 37.5828 20.8148 76.6555 0.0000 -45.2892 0.0000
# 4 0.0000 0.0000 0.0000 35.5372 0.0000 -2.3944
# 5 -23.2710 -26.8232 -45.2892 0.0000 40.6386 0.0000
# 6 0.0000 0.0000 0.0000 -2.3944 0.0000 27.2363
#
#
#
# Elastic Compliance Matrix: (Units=1/GPa)
#
#
# Indices 1 2 3 4 5 6 
#
# 1 0.013000 -0.003782 -0.007095 0.000000 -0.002959 0.000000
# 2 -0.003782 0.015227 0.006962 0.000000 0.015644 0.000000
# 3 -0.007095 0.006962 0.043762 0.000000 0.049303 0.000000
# 4 0.000000 0.000000 0.000000 0.028307 0.000000 0.002489
# 5 -0.002959 0.015644 0.049303 0.000000 0.088183 0.000000
# 6 0.000000 0.000000 0.000000 0.002489 0.000000 0.036934
#
#
# Mechanical properties :
#
#
# Convention : Reuss Voigt Hill
#
# Bulk Modulus (GPa) = 15.58612 50.03805 32.81209
# Shear Modulus (GPa) = 19.63624 32.64269 26.13947
#
# Velocity S-wave (km/s) = 2.92902 3.77648 3.37942
# Velocity P-wave (km/s) = 4.27183 6.39356 5.43719
#
# Compressibility (1/GPa) = 0.06415964
#
# Stress axis : x y z
#
# Youngs Moduli (GPa) = 76.92248 65.67224 22.85068
#
# Poissons Ratio (x) = 0.24838 0.16212
# Poissons Ratio (y) = 0.29093 -0.15909
# Poissons Ratio (z) = 0.54576 -0.45721
#
# Static dielectric constant tensor:
#      x y z
#    x 1.858920 0.000000 0.024420 
#    y 0.000000 1.816700 0.000000 
#    z 0.024420 0.000000 1.840880 
# 
# From -- ./inp_files/28495.got.cif
#   From: 2010.05.17/outbox.cif.g08.bks.cpg/sg5_15_cif.got.tgz:28495.got - 2010.06.03 18:56:24.
