data_PCOD9126907
_publ_section_title
;
Structure prediction by ZEFSAII (Michael W. Deem and Ramdas Pophale) SiO2 
 PCOD9126907
Probable space group: C 2
;
_chemical_formula_sum "Si O2"
_cell_formula_units_Z 26
_cell_length_a 13.161026
_cell_length_b 5.078171
_cell_length_c 15.873357
_cell_angle_alpha 90.000000
_cell_angle_beta 93.917842
_cell_angle_gamma 90.000000
_cell_volume 1058.399778
_symmetry_space_group_name_H-M "C 2"
_symmetry_group_IT_number 5
_symmetry_cell_setting 'monoclinic'
loop_
_space_group_symop_operation_xyz
x,y,z
-x,y,-z
1/2+x,1/2+y,z
1/2-x,1/2+y,-z
loop_
_atom_site_type_symbol
_atom_site_label
_atom_site_fract_x
_atom_site_fract_y
_atom_site_fract_z
Si Si1 0.403327 0.562560 0.658391
Si Si2 0.589768 0.432175 0.115863
Si Si3 0.628114 0.600467 0.927633
Si Si4 0.197200 0.596476 0.846663
Si Si5 0.500000 0.819647 0.500000
Si Si6 0.983023 0.558916 0.761515
Si Si7 0.213702 0.573088 0.546374
O O1 0.456004 0.641515 0.572661
O O2 0.450827 0.300159 0.699510
O O3 0.282970 0.534710 0.632835
O O4 0.432794 0.805652 0.719013
O O5 0.484096 0.587877 0.119551
O O6 0.689816 0.517537 0.171304
O O7 0.559784 0.144821 0.148519
O O8 0.616842 0.481999 0.019971
O O9 0.668408 0.894888 0.921595
O O10 0.694547 0.396135 0.877695
O O11 0.105249 0.550261 0.776876
O O12 0.595171 0.994026 0.539609
O O13 0.234357 0.870158 0.517342
#
# Coordination Sequence:
#
# PCOD9126907 Si02
#       7
#     4   4   4   4   2   4   4
#     4  11  24  45  67  95 132 169 214 267 321 391
#     4  10  23  42  65  91 131 173 209 272 328 362
#     4  10  23  40  66  96 123 166 228 267 306 382
#     4  11  23  42  65  95 128 169 219 262 313 384
#     4  10  24  46  74  96 124 170 218 268 322 376
#     4  11  25  43  63  97 137 169 214 264 325 397
#     4  10  22  42  69  99 125 157 211 266 316 383
#
# _framework density 24.565387000000001
#
# number of rings (size 3 to 8) (size 9 to 14) (size 15 to 20)
#    0.000    1.538    0.000    4.615    0.000   16.615 
#    0.000   10.769    0.000    0.000    0.000    0.000 
#    0.000    0.000    0.000    0.000    0.000    0.000 
#
# Total GULP energy -72769.549682 kJ/mol
# GULP energy per Si atom -5597.657668 kJ/mol
# Density = 2.450948 g / cm^3
# Si number density = 24.565387 Si / 1000 Ang^3
#
#
#
# Elastic Constant Matrix: (Units=GPa)
#
#
# Indices 1 2 3 4 5 6 
#
# 1 204.5658 38.9681 38.9114 0.0000 36.5584 0.0000
# 2 38.9681 93.7241 33.0373 0.0000 9.9405 0.0000
# 3 38.9114 33.0373 105.3889 0.0000 24.6688 0.0000
# 4 0.0000 0.0000 0.0000 17.7815 0.0000 -10.5227
# 5 36.5584 9.9405 24.6688 0.0000 47.5725 0.0000
# 6 0.0000 0.0000 0.0000 -10.5227 0.0000 25.6318
#
#
#
# Elastic Compliance Matrix: (Units=1/GPa)
#
#
# Indices 1 2 3 4 5 6 
#
# 1 0.006080 -0.001849 -0.000753 0.000000 -0.003895 0.000000
# 2 -0.001849 0.012574 -0.003388 0.000000 0.000550 0.000000
# 3 -0.000753 -0.003388 0.011982 0.000000 -0.004926 0.000000
# 4 0.000000 0.000000 0.000000 0.074286 0.000000 0.030497
# 5 -0.003895 0.000550 -0.004926 0.000000 0.026454 0.000000
# 6 0.000000 0.000000 0.000000 0.030497 0.000000 0.051534
#
#
# Mechanical properties :
#
#
# Convention : Reuss Voigt Hill
#
# Bulk Modulus (GPa) = 53.60361 69.50138 61.55249
# Shear Modulus (GPa) = 24.86206 37.71460 31.28833
#
# Velocity S-wave (km/s) = 3.18477 3.92251 3.57273
# Velocity P-wave (km/s) = 5.94910 6.99061 6.49078
#
# Compressibility (1/GPa) = 0.01865546
#
# Stress axis : x y z
#
# Youngs Moduli (GPa) = 164.47037 79.52725 83.45854
#
# Poissons Ratio (x) = 0.14707 0.06288
# Poissons Ratio (y) = 0.30415 0.28275
# Poissons Ratio (z) = 0.12391 0.26943
#
# Static dielectric constant tensor:
#      x y z
#    x 1.935830 0.000000 -0.000840 
#    y 0.000000 1.910750 0.000000 
#    z -0.000840 0.000000 2.044020 
# 
# From -- ./inp_files/60069.got.cif
#   From: 2010.05.17/outbox.cif.g08.bks.cpg/sg5_31_cif.got.tgz:60069.got - 2010.06.03 18:56:24.
