data_PCOD9126067
_publ_section_title
;
Structure prediction by ZEFSAII (Michael W. Deem and Ramdas Pophale) SiO2 
 PCOD9126067
Probable space group: C 2
;
_chemical_formula_sum "Si O2"
_cell_formula_units_Z 24
_cell_length_a 9.212664
_cell_length_b 11.109580
_cell_length_c 11.011374
_cell_angle_alpha 90.000000
_cell_angle_beta 103.170820
_cell_angle_gamma 90.000000
_cell_volume 1097.355535
_symmetry_space_group_name_H-M "C 2"
_symmetry_group_IT_number 5
_symmetry_cell_setting 'monoclinic'
loop_
_space_group_symop_operation_xyz
x,y,z
-x,y,-z
1/2+x,1/2+y,z
1/2-x,1/2+y,-z
loop_
_atom_site_type_symbol
_atom_site_label
_atom_site_fract_x
_atom_site_fract_y
_atom_site_fract_z
Si Si1 0.170714 0.435210 0.366971
Si Si2 0.068162 0.081054 0.637970
Si Si3 0.000000 0.314934 0.500000
Si Si4 0.523800 0.432658 0.143687
Si Si5 0.276493 0.257231 0.189314
Si Si6 0.650413 0.978441 0.805984
Si Si7 0.000000 0.363574 0.000000
O O1 0.257904 0.555573 0.350033
O O2 0.257801 0.330948 0.311223
O O3 0.146207 0.393173 0.499683
O O4 0.999808 0.450551 0.295037
O O5 0.000000 0.022618 0.500000
O O6 0.023819 0.219515 0.614135
O O7 0.017807 0.025865 0.755886
O O8 0.412022 0.321249 0.143588
O O9 0.698906 0.404498 0.190393
O O10 0.500000 0.476951 0.000000
O O11 0.306522 0.116999 0.205917
O O12 0.119379 0.283084 0.093730
O O13 0.598863 0.948065 0.932576
#
# Coordination Sequence:
#
# PCOD9126067 Si02
#       7
#     4   4   2   4   4   4   2
#     4  10  23  42  63  97 128 166 228 274 320 403
#     4   9  23  45  66  94 138 173 219 280 327 391
#     4  10  22  42  72  92 130 178 218 268 352 376
#     4  11  22  42  69  99 132 178 222 266 332 400
#     4  10  23  41  59  94 132 173 219 270 334 382
#     4  11  24  39  66  92 132 172 223 270 332 389
#     4  10  22  38  58  92 130 170 216 274 312 408
#
# _framework density 21.870761000000002
#
# number of rings (size 3 to 8) (size 9 to 14) (size 15 to 20)
#    0.500    1.333    1.667    1.000    4.667    1.333 
#    3.000    3.333    0.000    0.000    0.000    0.000 
#    0.000    0.000    0.000    0.000    0.000    0.000 
#
# Total GULP energy -66914.770420 kJ/mol
# GULP energy per Si atom -5576.230868 kJ/mol
# Density = 2.182098 g / cm^3
# Si number density = 21.870761 Si / 1000 Ang^3
#
#
#
# Elastic Constant Matrix: (Units=GPa)
#
#
# Indices 1 2 3 4 5 6 
#
# 1 148.7442 18.6160 19.5042 0.0000 -16.5942 0.0000
# 2 18.6160 72.7177 -2.4076 0.0000 -7.4199 0.0000
# 3 19.5042 -2.4076 82.6424 0.0000 -15.8467 0.0000
# 4 0.0000 0.0000 0.0000 19.1899 0.0000 -4.9234
# 5 -16.5942 -7.4199 -15.8467 0.0000 38.3735 0.0000
# 6 0.0000 0.0000 0.0000 -4.9234 0.0000 24.7757
#
#
#
# Elastic Compliance Matrix: (Units=1/GPa)
#
#
# Indices 1 2 3 4 5 6 
#
# 1 0.007369 -0.001696 -0.001347 0.000000 0.002302 0.000000
# 2 -0.001696 0.014497 0.001324 0.000000 0.002617 0.000000
# 3 -0.001347 0.001324 0.013460 0.000000 0.005232 0.000000
# 4 0.000000 0.000000 0.000000 0.054910 0.000000 0.010912
# 5 0.002302 0.002617 0.005232 0.000000 0.029722 0.000000
# 6 0.000000 0.000000 0.000000 0.010912 0.000000 0.042531
#
#
# Mechanical properties :
#
#
# Convention : Reuss Voigt Hill
#
# Bulk Modulus (GPa) = 31.35967 41.72551 36.54259
# Shear Modulus (GPa) = 28.31976 34.36058 31.34017
#
# Velocity S-wave (km/s) = 3.60233 3.96798 3.78957
# Velocity P-wave (km/s) = 5.62780 6.33346 5.99103
#
# Compressibility (1/GPa) = 0.03188809
#
# Stress axis : x y z
#
# Youngs Moduli (GPa) = 135.70908 68.98046 74.29393
#
# Poissons Ratio (x) = 0.11700 0.10008
# Poissons Ratio (y) = 0.23018 -0.09839
# Poissons Ratio (z) = 0.18280 -0.09135
#
# Static dielectric constant tensor:
#      x y z
#    x 1.807060 0.000000 -0.003250 
#    y 0.000000 1.776010 0.000000 
#    z -0.003250 0.000000 1.954470 
# 
# From -- ./inp_files/35452.got.cif
#   From: 2010.05.17/outbox.cif.g08.bks.cpg/sg5_18_cif.got.tgz:35452.got - 2010.06.03 18:56:24.
