data_PCOD9126877
_publ_section_title
;
Structure prediction by ZEFSAII (Michael W. Deem and Ramdas Pophale) SiO2 
 PCOD9126877
Probable space group: C 2
;
_chemical_formula_sum "Si O2"
_cell_formula_units_Z 32
_cell_length_a 16.129621
_cell_length_b 5.197180
_cell_length_c 18.679752
_cell_angle_alpha 90.000000
_cell_angle_beta 125.311600
_cell_angle_gamma 90.000000
_cell_volume 1277.803696
_symmetry_space_group_name_H-M "C 2"
_symmetry_group_IT_number 5
_symmetry_cell_setting 'monoclinic'
loop_
_space_group_symop_operation_xyz
x,y,z
-x,y,-z
1/2+x,1/2+y,z
1/2-x,1/2+y,-z
loop_
_atom_site_type_symbol
_atom_site_label
_atom_site_fract_x
_atom_site_fract_y
_atom_site_fract_z
Si Si1 0.887608 0.761390 0.505482
Si Si2 0.096591 0.870490 0.642600
Si Si3 0.338617 0.958246 0.609470
Si Si4 0.011243 0.679554 0.864778
Si Si5 0.981240 0.187046 0.226527
Si Si6 0.181799 0.478788 0.779910
Si Si7 0.711153 0.363999 0.020803
Si Si8 0.706093 0.225830 0.275611
O O1 0.896091 0.692317 0.426251
O O2 0.893973 0.530194 0.564251
O O3 0.979156 0.953000 0.573830
O O4 0.775145 0.868676 0.461875
O O5 0.110318 0.713080 0.722340
O O6 0.192493 0.054127 0.678876
O O7 0.326688 0.199389 0.658549
O O8 0.408510 0.759786 0.687576
O O9 0.043425 0.413634 0.843561
O O10 0.891964 0.640267 0.819921
O O11 0.016772 0.915172 0.811034
O O12 0.093715 0.771070 0.963558
O O13 0.896029 0.242810 0.244031
O O14 0.250201 0.475529 0.884587
O O15 0.256449 0.473118 0.748599
O O16 0.768645 0.100726 0.024375
#
# Coordination Sequence:
#
# PCOD9126877 Si02
#       8
#     4   4   4   4   4   4   4   4
#     4  10  22  42  68  96 152 188 263 303 370 441
#     4  10  24  47  64 105 145 201 244 313 376 441
#     4  10  23  42  68 107 136 206 240 318 356 446
#     4  11  24  48  73 108 144 193 244 307 358 458
#     4  11  24  44  76 103 146 191 251 294 376 435
#     4  12  25  42  75 103 146 195 239 315 369 452
#     4  12  25  46  76 113 141 189 252 305 368 446
#     4  10  27  41  71  99 148 186 246 299 382 441
#
# _framework density 25.04297
#
# number of rings (size 3 to 8) (size 9 to 14) (size 15 to 20)
#    0.000    1.250    3.750    0.000   10.500    2.500 
#    0.000    1.250    0.000    0.000    0.000    0.000 
#    0.000    0.000    0.000    0.000    0.000    0.000 
#
# Total GULP energy -89326.216362 kJ/mol
# GULP energy per Si atom -5582.888523 kJ/mol
# Density = 2.498597 g / cm^3
# Si number density = 25.042970 Si / 1000 Ang^3
#
#
#
# Elastic Constant Matrix: (Units=GPa)
#
#
# Indices 1 2 3 4 5 6 
#
# 1 62.9421 -0.6868 34.7811 0.0000 9.1861 0.0000
# 2 -0.6868 73.7594 21.0681 0.0000 -15.5324 0.0001
# 3 34.7811 21.0681 175.8504 0.0000 30.5455 0.0000
# 4 0.0000 0.0000 0.0000 28.6035 0.0000 2.3825
# 5 9.1861 -15.5324 30.5455 0.0000 43.9706 0.0000
# 6 0.0000 0.0001 0.0000 2.3825 0.0000 33.4170
#
#
#
# Elastic Compliance Matrix: (Units=1/GPa)
#
#
# Indices 1 2 3 4 5 6 
#
# 1 0.017975 0.000959 -0.003499 0.000000 -0.000986 0.000000
# 2 0.000959 0.016256 -0.003525 0.000000 0.007991 0.000000
# 3 -0.003499 -0.003525 0.007836 0.000000 -0.005958 0.000000
# 4 0.000000 0.000000 0.000000 0.035170 0.000000 -0.002507
# 5 -0.000986 0.007991 -0.005958 0.000000 0.029910 0.000000
# 6 0.000000 0.000000 0.000000 -0.002507 0.000000 0.030104
#
#
# Mechanical properties :
#
#
# Convention : Reuss Voigt Hill
#
# Bulk Modulus (GPa) = 33.40314 46.98631 40.19473
# Shear Modulus (GPa) = 31.37543 38.35754 34.86648
#
# Velocity S-wave (km/s) = 3.54342 3.91790 3.73536
# Velocity P-wave (km/s) = 5.48711 6.26655 5.88974
#
# Compressibility (1/GPa) = 0.02993730
#
# Stress axis : x y z
#
# Youngs Moduli (GPa) = 55.63139 61.51476 127.61671
#
# Poissons Ratio (x) = -0.05901 0.44653
# Poissons Ratio (y) = -0.05336 0.44990
# Poissons Ratio (z) = 0.19466 0.21686
#
# Static dielectric constant tensor:
#      x y z
#    x 2.048090 0.000000 0.004670 
#    y 0.000000 2.057820 0.000000 
#    z 0.004670 0.000000 2.033440 
# 
# From -- ./inp_files/66471.got.cif
#   From: 2010.05.17/outbox.cif.g08.bks.cpg/sg5_34_cif.got.tgz:66471.got - 2010.06.03 18:56:24.
