data_PCOD9126552
_publ_section_title
;
Structure prediction by ZEFSAII (Michael W. Deem and Ramdas Pophale) SiO2 
 PCOD9126552
Probable space group: C 2
;
_chemical_formula_sum "Si O2"
_cell_formula_units_Z 28
_cell_length_a 9.426183
_cell_length_b 27.289887
_cell_length_c 9.520871
_cell_angle_alpha 90.000000
_cell_angle_beta 146.975083
_cell_angle_gamma 90.000000
_cell_volume 1334.792451
_symmetry_space_group_name_H-M "C 2"
_symmetry_group_IT_number 5
_symmetry_cell_setting 'monoclinic'
loop_
_space_group_symop_operation_xyz
x,y,z
-x,y,-z
1/2+x,1/2+y,z
1/2-x,1/2+y,-z
loop_
_atom_site_type_symbol
_atom_site_label
_atom_site_fract_x
_atom_site_fract_y
_atom_site_fract_z
Si Si1 0.288547 0.254690 0.195879
Si Si2 0.210387 0.460295 0.252613
Si Si3 0.592566 0.170086 0.917043
Si Si4 0.276170 0.923041 0.426080
Si Si5 0.119172 0.862723 0.752582
Si Si6 0.906327 0.109707 0.580920
Si Si7 0.308147 0.528691 0.720261
O O1 0.500000 0.251867 0.500000
O O2 0.381656 0.219859 0.148616
O O3 0.250204 0.311017 0.108725
O O4 0.000000 0.238044 0.000000
O O5 0.500000 0.480875 0.500000
O O6 0.134189 0.441267 0.344022
O O7 0.243092 0.414212 0.170491
O O8 0.000000 0.493564 0.000000
O O9 0.368672 0.137898 0.656852
O O10 0.500000 0.179109 0.000000
O O11 0.867898 0.141663 0.156389
O O12 0.500000 0.911718 0.500000
O O13 0.091120 0.877371 0.305447
O O14 0.130435 0.971316 0.250488
O O15 0.000000 0.853276 0.500000
O O16 0.861611 0.059804 0.626874
O O17 0.000000 0.101675 0.500000
O O18 0.000000 0.531451 0.500000
O O19 0.500000 0.547609 0.000000
#
# Coordination Sequence:
#
# PCOD9126552 Si02
#       7
#     4   4   4   4   4   4   4
#     4  11  22  38  62  90 118 155 201 242 289 351
#     4   9  18  34  55  76 107 149 189 233 279 333
#     4  10  22  41  61  90 123 152 191 245 299 351
#     4   9  20  38  59  86 120 156 196 246 299 344
#     4   8  18  36  56  82 116 154 196 240 281 343
#     4  10  22  41  64  87 119 157 196 240 293 357
#     4  11  24  40  60  89 122 153 196 248 296 349
#
# _framework density 20.977043999999999
#
# number of rings (size 3 to 8) (size 9 to 14) (size 15 to 20)
#    0.000    2.571    0.000    2.143    0.000   10.286 
#    0.000   10.714    0.000    2.571    0.000    0.000 
#    0.000    0.000    0.000    0.000    0.000    0.000 
#
# Total GULP energy -78056.731547 kJ/mol
# GULP energy per Si atom -5575.480825 kJ/mol
# Density = 2.092930 g / cm^3
# Si number density = 20.977044 Si / 1000 Ang^3
#
#
#
# Elastic Constant Matrix: (Units=GPa)
#
#
# Indices 1 2 3 4 5 6 
#
# 1 114.3517 40.3127 34.1918 0.0000 0.5799 0.0000
# 2 40.3127 85.9647 18.5120 0.0000 -2.2062 0.0000
# 3 34.1918 18.5120 133.2156 0.0000 12.8275 0.0000
# 4 0.0000 0.0000 0.0000 15.0826 0.0000 -17.7457
# 5 0.5799 -2.2062 12.8275 0.0000 20.9690 0.0000
# 6 0.0000 0.0000 0.0000 -17.7457 0.0000 31.6339
#
#
#
# Elastic Compliance Matrix: (Units=1/GPa)
#
#
# Indices 1 2 3 4 5 6 
#
# 1 0.011067 -0.004692 -0.002244 0.000000 0.000573 0.000000
# 2 -0.004692 0.014098 -0.000967 0.000000 0.002205 0.000000
# 3 -0.002244 -0.000967 0.008735 0.000000 -0.005383 0.000000
# 4 0.000000 0.000000 0.000000 0.195013 0.000000 0.109396
# 5 0.000573 0.002205 -0.005383 0.000000 0.051199 0.000000
# 6 0.000000 0.000000 0.000000 0.109396 0.000000 0.092980
#
#
# Mechanical properties :
#
#
# Convention : Reuss Voigt Hill
#
# Bulk Modulus (GPa) = 55.26501 57.72943 56.49722
# Shear Modulus (GPa) = 12.66051 29.57147 21.11599
#
# Velocity S-wave (km/s) = 2.45937 3.75868 3.17618
# Velocity P-wave (km/s) = 5.87089 6.81300 6.35941
#
# Compressibility (1/GPa) = 0.01809463
#
# Stress axis : x y z
#
# Youngs Moduli (GPa) = 90.35893 70.93311 114.47857
#
# Poissons Ratio (x) = 0.33281 0.25685
# Poissons Ratio (y) = 0.42396 0.11071
# Poissons Ratio (z) = 0.20273 0.06860
#
# Static dielectric constant tensor:
#      x y z
#    x 1.757270 0.000000 0.043190 
#    y 0.000000 1.759720 0.000000 
#    z 0.043190 0.000000 1.914280 
# 
# From -- ./inp_files/17560.got.cif
#   From: 2010.05.17/outbox.cif.g08.bks.cpg/sg5_9_cif.got.tgz:17560.got - 2010.06.03 18:56:24.
