data_PCOD9126050
_publ_section_title
;
Structure prediction by ZEFSAII (Michael W. Deem and Ramdas Pophale) SiO2 
 PCOD9126050
Probable space group: C 2
;
_chemical_formula_sum "Si O2"
_cell_formula_units_Z 28
_cell_length_a 16.793760
_cell_length_b 13.328400
_cell_length_c 6.257711
_cell_angle_alpha 90.000000
_cell_angle_beta 61.321275
_cell_angle_gamma 90.000000
_cell_volume 1228.857941
_symmetry_space_group_name_H-M "C 2"
_symmetry_group_IT_number 5
_symmetry_cell_setting 'monoclinic'
loop_
_space_group_symop_operation_xyz
x,y,z
-x,y,-z
1/2+x,1/2+y,z
1/2-x,1/2+y,-z
loop_
_atom_site_type_symbol
_atom_site_label
_atom_site_fract_x
_atom_site_fract_y
_atom_site_fract_z
Si Si1 0.257596 0.600760 0.047084
Si Si2 0.277229 0.102237 0.453763
Si Si3 0.500000 0.817554 0.000000
Si Si4 0.163074 0.294056 0.065938
Si Si5 0.583346 0.157271 0.037577
Si Si6 0.319448 0.436235 0.709201
Si Si7 0.584785 0.947404 0.514352
Si Si8 0.500000 0.309693 0.500000
O O1 0.299156 0.695365 0.869327
O O2 0.313171 0.499364 0.939741
O O3 0.266440 0.642682 0.275255
O O4 0.153606 0.591050 0.092508
O O5 0.211271 0.026646 0.409223
O O6 0.347139 0.025367 0.474555
O O7 0.341668 0.180639 0.244894
O O8 0.422629 0.763063 0.967032
O O9 0.548073 0.885651 0.761830
O O10 0.129417 0.370993 0.290278
O O11 0.240007 0.354109 0.834867
O O12 0.539762 0.240004 0.253699
O O13 0.500000 0.115397 0.000000
O O14 0.414393 0.380638 0.547474
O O15 0.500000 0.996204 0.500000
#
# Coordination Sequence:
#
# PCOD9126050 Si02
#       8
#     4   4   2   4   4   4   4   2
#     4  11  25  47  68 102 142 185 242 305 351 436
#     4  11  24  43  69 105 138 183 239 300 359 428
#     4  10  22  40  66 104 120 178 228 288 360 428
#     4  11  22  45  70  95 140 183 233 297 366 421
#     4  11  26  40  70 108 141 188 234 296 366 429
#     4  11  25  46  72 101 141 198 236 301 368 430
#     4  10  22  37  67  98 136 173 221 292 360 420
#     4  12  26  52  68 106 156 194 246 300 362 448
#
# _framework density 22.785384000000001
#
# number of rings (size 3 to 8) (size 9 to 14) (size 15 to 20)
#    0.000    1.143    4.286    0.857    3.000    4.571 
#    6.429    0.000    0.000    0.000    0.000    0.000 
#    0.000    0.000    0.000    0.000    0.000    0.000 
#
# Total GULP energy -78007.677362 kJ/mol
# GULP energy per Si atom -5571.976954 kJ/mol
# Density = 2.273352 g / cm^3
# Si number density = 22.785384 Si / 1000 Ang^3
#
#
#
# Elastic Constant Matrix: (Units=GPa)
#
#
# Indices 1 2 3 4 5 6 
#
# 1 124.2808 45.4798 37.8870 0.0000 -9.9663 0.0000
# 2 45.4798 102.3472 24.2131 0.0000 -17.8499 0.0000
# 3 37.8870 24.2131 94.6134 0.0000 -7.0919 0.0000
# 4 0.0000 0.0000 0.0000 37.6147 0.0000 -20.5723
# 5 -9.9663 -17.8499 -7.0919 0.0000 32.1414 0.0000
# 6 0.0000 0.0000 0.0000 -20.5723 0.0000 37.1737
#
#
#
# Elastic Compliance Matrix: (Units=1/GPa)
#
#
# Indices 1 2 3 4 5 6 
#
# 1 0.010444 -0.003817 -0.003174 0.000000 0.000418 0.000000
# 2 -0.003817 0.012757 -0.001316 0.000000 0.005611 0.000000
# 3 -0.003174 -0.001316 0.012251 0.000000 0.000988 0.000000
# 4 0.000000 0.000000 0.000000 0.038125 0.000000 0.021099
# 5 0.000418 0.005611 0.000988 0.000000 0.034576 0.000000
# 6 0.000000 0.000000 0.000000 0.021099 0.000000 0.038577
#
#
# Mechanical properties :
#
#
# Convention : Reuss Voigt Hill
#
# Bulk Modulus (GPa) = 53.08304 59.60013 56.34158
# Shear Modulus (GPa) = 29.47715 35.63005 32.55360
#
# Velocity S-wave (km/s) = 3.60069 3.95869 3.78392
# Velocity P-wave (km/s) = 6.37449 6.86359 6.62356
#
# Compressibility (1/GPa) = 0.01883841
#
# Stress axis : x y z
#
# Youngs Moduli (GPa) = 95.74543 78.39047 81.62525
#
# Poissons Ratio (x) = 0.29924 0.25909
# Poissons Ratio (y) = 0.36549 0.10738
# Poissons Ratio (z) = 0.30390 0.10312
#
# Static dielectric constant tensor:
#      x y z
#    x 1.878310 0.000000 0.022020 
#    y 0.000000 1.798100 0.000000 
#    z 0.022020 0.000000 2.185030 
# 
# From -- ./inp_files/8628.got.cif
#   From: 2010.05.17/outbox.cif.g08.bks.cpg/sg5_5_cif.got.tgz:8628.got - 2010.06.03 18:56:24.
