data_PCOD9126408
_publ_section_title
;
Structure prediction by ZEFSAII (Michael W. Deem and Ramdas Pophale) SiO2 
 PCOD9126408
Probable space group: C 2
;
_chemical_formula_sum "Si O2"
_cell_formula_units_Z 18
_cell_length_a 10.508509
_cell_length_b 9.902955
_cell_length_c 9.746098
_cell_angle_alpha 90.000000
_cell_angle_beta 119.363125
_cell_angle_gamma 90.000000
_cell_volume 883.931901
_symmetry_space_group_name_H-M "C 2"
_symmetry_group_IT_number 5
_symmetry_cell_setting 'monoclinic'
loop_
_space_group_symop_operation_xyz
x,y,z
-x,y,-z
1/2+x,1/2+y,z
1/2-x,1/2+y,-z
loop_
_atom_site_type_symbol
_atom_site_label
_atom_site_fract_x
_atom_site_fract_y
_atom_site_fract_z
Si Si1 0.649040 0.567930 0.727997
Si Si2 0.390413 0.274995 0.328259
Si Si3 0.633989 0.918624 0.324440
Si Si4 0.500000 0.803880 0.500000
Si Si5 0.101763 0.587424 0.929963
O O1 0.557406 0.429163 0.677268
O O2 0.764353 0.545877 0.663260
O O3 0.566072 0.703785 0.649570
O O4 0.743078 0.565614 0.916087
O O5 0.500000 0.218886 0.500000
O O6 0.228506 0.299128 0.304975
O O7 0.388287 0.186621 0.192275
O O8 0.611865 0.893539 0.472590
O O9 0.480811 0.953228 0.169315
O O10 0.000000 0.641309 0.000000
#
# Coordination Sequence:
#
# PCOD9126408 Si02
#       5
#     4   4   4   2   4
#     4   9  22  40  58  93 125 156 209 256 292 376
#     4  10  22  42  63  88 130 162 205 262 299 363
#     4   9  24  38  62  90 128 158 207 255 308 363
#     4  12  22  40  66  92 124 168 206 252 316 364
#     4  10  22  40  65  89 128 163 204 252 316 365
#
# _framework density 20.36356
#
# number of rings (size 3 to 8) (size 9 to 14) (size 15 to 20)
#    1.333    0.889    1.111    0.000   10.889    0.000 
#    0.000    2.222    0.000    0.000    0.000    0.000 
#    0.000    0.000    0.000    0.000    0.000    0.000 
#
# Total GULP energy -50102.880576 kJ/mol
# GULP energy per Si atom -5566.986731 kJ/mol
# Density = 2.031721 g / cm^3
# Si number density = 20.363560 Si / 1000 Ang^3
#
#
#
# Elastic Constant Matrix: (Units=GPa)
#
#
# Indices 1 2 3 4 5 6 
#
# 1 58.2842 30.6939 38.9352 0.0000 -21.4674 0.0000
# 2 30.6939 56.0701 44.7472 0.0000 -9.2639 0.0000
# 3 38.9352 44.7472 118.6277 0.0000 -4.4113 0.0000
# 4 0.0000 0.0000 0.0000 27.8219 0.0000 -4.5469
# 5 -21.4674 -9.2639 -4.4113 0.0000 39.4944 0.0000
# 6 0.0000 0.0000 0.0000 -4.5469 0.0000 12.9442
#
#
#
# Elastic Compliance Matrix: (Units=1/GPa)
#
#
# Indices 1 2 3 4 5 6 
#
# 1 0.031838 -0.010245 -0.006056 0.000000 0.014226 0.000000
# 2 -0.010245 0.029806 -0.007860 0.000000 0.000545 0.000000
# 3 -0.006056 -0.007860 0.013246 0.000000 -0.003656 0.000000
# 4 0.000000 0.000000 0.000000 0.038132 0.000000 0.013395
# 5 0.014226 0.000545 -0.003656 0.000000 0.032772 0.000000
# 6 0.000000 0.000000 0.000000 0.013395 0.000000 0.081960
#
#
# Mechanical properties :
#
#
# Convention : Reuss Voigt Hill
#
# Bulk Modulus (GPa) = 37.63986 51.30386 44.47186
# Shear Modulus (GPa) = 17.54791 23.95913 20.75352
#
# Velocity S-wave (km/s) = 2.93871 3.43384 3.19588
# Velocity P-wave (km/s) = 5.48076 6.40080 5.95857
#
# Compressibility (1/GPa) = 0.02656758
#
# Stress axis : x y z
#
# Youngs Moduli (GPa) = 31.40874 33.55006 75.49210
#
# Poissons Ratio (x) = 0.34373 0.45719
# Poissons Ratio (y) = 0.32179 0.59338
# Poissons Ratio (z) = 0.19022 0.26371
#
# Static dielectric constant tensor:
#      x y z
#    x 1.773930 0.000000 0.052950 
#    y 0.000000 1.726620 0.000000 
#    z 0.052950 0.000000 1.735930 
# 
# From -- ./inp_files/18950.got.cif
#   From: 2010.05.17/outbox.cif.g08.bks.cpg/sg5_10_cif.got.tgz:18950.got - 2010.06.03 18:56:24.
