data_PCOD9126973
_publ_section_title
;
Structure prediction by ZEFSAII (Michael W. Deem and Ramdas Pophale) SiO2 
 PCOD9126973
Probable space group: C 2
;
_chemical_formula_sum "Si O2"
_cell_formula_units_Z 28
_cell_length_a 27.355926
_cell_length_b 8.579965
_cell_length_c 11.323026
_cell_angle_alpha 90.000000
_cell_angle_beta 149.239402
_cell_angle_gamma 90.000000
_cell_volume 1359.265699
_symmetry_space_group_name_H-M "C 2"
_symmetry_group_IT_number 5
_symmetry_cell_setting 'monoclinic'
loop_
_space_group_symop_operation_xyz
x,y,z
-x,y,-z
1/2+x,1/2+y,z
1/2-x,1/2+y,-z
loop_
_atom_site_type_symbol
_atom_site_label
_atom_site_fract_x
_atom_site_fract_y
_atom_site_fract_z
Si Si1 0.751174 0.211460 0.833001
Si Si2 0.023990 0.344403 0.422367
Si Si3 0.407730 0.731021 0.965278
Si Si4 0.254393 0.875369 0.074861
Si Si5 0.500000 0.477222 0.000000
Si Si6 0.555644 0.235829 0.297514
Si Si7 0.500000 0.976842 0.000000
Si Si8 0.433734 0.193277 0.252666
O O1 0.641890 0.214428 0.566301
O O2 0.777466 0.047874 0.951078
O O3 0.811132 0.230072 0.838377
O O4 0.765735 0.348437 0.958094
O O5 0.138218 0.359637 0.651899
O O6 0.000000 0.269377 0.500000
O O7 0.986394 0.252158 0.231852
O O8 0.965786 0.510555 0.305321
O O9 0.421275 0.870886 0.900664
O O10 0.431232 0.580531 0.937812
O O11 0.174617 0.746882 0.946440
O O12 0.437199 0.372616 0.781959
O O13 0.543084 0.082739 0.192344
O O14 0.464492 0.264854 0.191655
O O15 0.500000 0.249146 0.500000
#
# Coordination Sequence:
#
# PCOD9126973 Si02
#       8
#     4   4   4   4   2   4   2   4
#     4  12  25  41  68 101 142 177 239 289 361 436
#     4  11  21  43  70 100 142 182 225 295 359 426
#     4  11  23  44  64 101 137 179 238 295 348 425
#     4  12  24  42  70 110 141 189 226 286 373 438
#     4  10  26  44  62  92 136 186 236 294 346 408
#     4  11  22  46  67  95 135 187 236 292 354 422
#     4  10  22  42  74  84 132 198 236 288 354 406
#     4  11  21  41  73 101 141 180 230 290 361 424
#
# _framework density 20.599357000000001
#
# number of rings (size 3 to 8) (size 9 to 14) (size 15 to 20)
#    0.000    0.857    5.714    1.714    0.000    2.286 
#    2.571    5.714    0.000    0.000    0.000    0.000 
#    0.000    0.000    0.000    0.000    0.000    0.000 
#
# Total GULP energy -78166.358443 kJ/mol
# GULP energy per Si atom -5583.311317 kJ/mol
# Density = 2.055247 g / cm^3
# Si number density = 20.599357 Si / 1000 Ang^3
#
#
#
# Elastic Constant Matrix: (Units=GPa)
#
#
# Indices 1 2 3 4 5 6 
#
# 1 155.4811 48.5906 14.3387 0.0000 11.2024 0.0000
# 2 48.5906 83.7017 21.2868 0.0000 -2.5383 0.0000
# 3 14.3387 21.2868 70.5332 0.0000 11.7852 0.0000
# 4 0.0000 0.0000 0.0000 15.7741 0.0000 -1.1669
# 5 11.2024 -2.5383 11.7852 0.0000 44.3773 0.0000
# 6 0.0000 0.0000 0.0000 -1.1669 0.0000 22.2943
#
#
#
# Elastic Compliance Matrix: (Units=1/GPa)
#
#
# Indices 1 2 3 4 5 6 
#
# 1 0.008090 -0.004821 0.000207 0.000000 -0.002373 0.000000
# 2 -0.004821 0.015962 -0.004388 0.000000 0.003295 0.000000
# 3 0.000207 -0.004388 0.016231 0.000000 -0.004614 0.000000
# 4 0.000000 0.000000 0.000000 0.063641 0.000000 0.003331
# 5 -0.002373 0.003295 -0.004614 0.000000 0.024547 0.000000
# 6 0.000000 0.000000 0.000000 0.003331 0.000000 0.045029
#
#
# Mechanical properties :
#
#
# Convention : Reuss Voigt Hill
#
# Bulk Modulus (GPa) = 44.88595 53.12760 49.00677
# Shear Modulus (GPa) = 25.13448 31.52248 28.32848
#
# Velocity S-wave (km/s) = 3.49687 3.91610 3.71241
# Velocity P-wave (km/s) = 6.17587 6.80402 6.49754
#
# Compressibility (1/GPa) = 0.02227869
#
# Stress axis : x y z
#
# Youngs Moduli (GPa) = 123.60586 62.64972 61.61141
#
# Poissons Ratio (x) = 0.30204 -0.01274
# Poissons Ratio (y) = 0.59592 0.27034
# Poissons Ratio (z) = -0.02556 0.27489
#
# Static dielectric constant tensor:
#      x y z
#    x 1.765410 0.000000 0.027380 
#    y 0.000000 1.782040 0.000000 
#    z 0.027380 0.000000 1.718890 
# 
# From -- ./inp_files/47929.got.cif
#   From: 2010.05.17/outbox.cif.g08.bks.cpg/sg5_24_cif.got.tgz:47929.got - 2010.06.03 18:56:24.
