data_PCOD9126723
_publ_section_title
;
Structure prediction by ZEFSAII (Michael W. Deem and Ramdas Pophale) SiO2 
 PCOD9126723
Probable space group: C 2
;
_chemical_formula_sum "Si O2"
_cell_formula_units_Z 20
_cell_length_a 7.783904
_cell_length_b 11.517894
_cell_length_c 12.482613
_cell_angle_alpha 90.000000
_cell_angle_beta 64.114408
_cell_angle_gamma 90.000000
_cell_volume 1006.834599
_symmetry_space_group_name_H-M "C 2"
_symmetry_group_IT_number 5
_symmetry_cell_setting 'monoclinic'
loop_
_space_group_symop_operation_xyz
x,y,z
-x,y,-z
1/2+x,1/2+y,z
1/2-x,1/2+y,-z
loop_
_atom_site_type_symbol
_atom_site_label
_atom_site_fract_x
_atom_site_fract_y
_atom_site_fract_z
Si Si1 0.927906 0.797260 0.407225
Si Si2 0.985988 0.974430 0.806609
Si Si3 0.000000 0.360406 0.500000
Si Si4 0.082993 0.551698 0.299452
Si Si5 0.000000 0.835754 0.000000
Si Si6 0.378701 0.108785 0.133519
O O1 0.697214 0.789751 0.460417
O O2 0.030128 0.673017 0.370091
O O3 0.000000 0.849630 0.500000
O O4 0.990252 0.878784 0.292199
O O5 0.836349 0.067843 0.807803
O O6 0.904639 0.916570 0.937424
O O7 0.191193 0.030703 0.775135
O O8 0.985826 0.445427 0.607262
O O9 0.981555 0.566821 0.212685
O O10 0.880170 0.746911 0.106914
O O11 0.500000 0.060706 0.000000
#
# Coordination Sequence:
#
# PCOD9126723 Si02
#       6
#     4   4   2   4   2   4
#     4  11  22  42  63  92 122 161 203 245 306 357
#     4  11  23  42  63  87 128 161 194 258 300 349
#     4  10  24  40  64  88 128 160 194 258 294 356
#     4  11  22  43  62  92 123 157 209 243 301 368
#     4  10  22  42  60  92 120 154 212 242 296 368
#     4  10  22  42  61  91 121 159 204 248 296 362
#
# _framework density 19.864236999999999
#
# number of rings (size 3 to 8) (size 9 to 14) (size 15 to 20)
#    0.600    0.800    3.000    2.400    0.000    1.600 
#    9.000    0.000    0.000    0.000    0.000    0.000 
#    0.000    0.000    0.000    0.000    0.000    0.000 
#
# Total GULP energy -55762.434659 kJ/mol
# GULP energy per Si atom -5576.243466 kJ/mol
# Density = 1.981902 g / cm^3
# Si number density = 19.864237 Si / 1000 Ang^3
#
#
#
# Elastic Constant Matrix: (Units=GPa)
#
#
# Indices 1 2 3 4 5 6 
#
# 1 102.5097 37.4091 36.0283 0.0000 15.9999 0.0000
# 2 37.4091 65.8989 9.9052 0.0000 0.7022 0.0000
# 3 36.0283 9.9052 100.7266 0.0000 35.1603 0.0000
# 4 0.0000 0.0000 0.0000 -2.2607 0.0000 -10.4579
# 5 15.9999 0.7022 35.1603 0.0000 39.1610 0.0000
# 6 0.0000 0.0000 0.0000 -10.4579 0.0000 6.7494
#
#
#
# Elastic Compliance Matrix: (Units=1/GPa)
#
#
# Indices 1 2 3 4 5 6 
#
# 1 0.014070 -0.007447 -0.003408 0.000000 -0.002555 0.000000
# 2 -0.007447 0.019412 -0.000270 0.000000 0.002938 0.000000
# 3 -0.003408 -0.000270 0.015563 0.000000 -0.012576 0.000000
# 4 0.000000 0.000000 0.000000 -0.054157 0.000000 -0.083915
# 5 -0.002555 0.002938 -0.012576 0.000000 0.037818 0.000000
# 6 0.000000 0.000000 0.000000 -0.083915 0.000000 0.018140
#
#
# Mechanical properties :
#
#
# Convention : Reuss Voigt Hill
#
# Bulk Modulus (GPa) = 37.32404 48.42450 42.87427
# Shear Modulus (GPa) = 60.95411 21.11610 41.03511
#
# Velocity S-wave (km/s) = 5.54545 3.26394 4.55001
# Velocity P-wave (km/s) = 7.73518 6.21571 7.01670
#
# Compressibility (1/GPa) = 0.02679238
#
# Stress axis : x y z
#
# Youngs Moduli (GPa) = 71.07505 51.51501 64.25290
#
# Poissons Ratio (x) = 0.38365 0.21900
# Poissons Ratio (y) = 0.52933 0.01738
# Poissons Ratio (z) = 0.24225 0.01393
#
# Static dielectric constant tensor:
#      x y z
#    x 1.651360 0.000000 -0.007070 
#    y 0.000000 1.709080 0.000000 
#    z -0.007070 0.000000 1.741390 
# 
# From -- ./inp_files/34973.got.cif
#   From: 2010.05.17/outbox.cif.g08.bks.cpg/sg5_18_cif.got.tgz:34973.got - 2010.06.03 18:56:24.
