data_PCOD9126786
_publ_section_title
;
Structure prediction by ZEFSAII (Michael W. Deem and Ramdas Pophale) SiO2 
 PCOD9126786
Probable space group: C 2
;
_chemical_formula_sum "Si O2"
_cell_formula_units_Z 32
_cell_length_a 10.379234
_cell_length_b 9.141433
_cell_length_c 24.432223
_cell_angle_alpha 90.000000
_cell_angle_beta 39.011294
_cell_angle_gamma 90.000000
_cell_volume 1459.217623
_symmetry_space_group_name_H-M "C 2"
_symmetry_group_IT_number 5
_symmetry_cell_setting 'monoclinic'
loop_
_space_group_symop_operation_xyz
x,y,z
-x,y,-z
1/2+x,1/2+y,z
1/2-x,1/2+y,-z
loop_
_atom_site_type_symbol
_atom_site_label
_atom_site_fract_x
_atom_site_fract_y
_atom_site_fract_z
Si Si1 0.592967 0.453370 0.273170
Si Si2 0.724497 0.748464 0.410061
Si Si3 0.169885 0.583918 0.990623
Si Si4 0.241711 0.920227 0.418706
Si Si5 0.541526 0.488642 0.798431
Si Si6 0.222637 0.915096 0.942909
Si Si7 0.384695 0.758524 0.676557
Si Si8 0.916143 0.319250 0.244601
O O1 0.392312 0.372293 0.363079
O O2 0.585759 0.425570 0.210931
O O3 0.599135 0.623127 0.287826
O O4 0.783549 0.381163 0.238926
O O5 0.500000 0.801419 0.500000
O O6 0.767901 0.592063 0.423279
O O7 0.708977 0.711474 0.350447
O O8 0.386959 0.520975 0.898108
O O9 0.183099 0.759639 0.986079
O O10 0.151054 0.519195 0.057632
O O11 0.000000 0.546833 0.000000
O O12 0.389453 0.824235 0.407785
O O13 0.330360 0.881576 0.329415
O O14 0.000000 0.887937 0.500000
O O15 0.732363 0.385044 0.748107
O O16 0.610507 0.645204 0.751647
O O17 0.354268 0.870513 0.845922
O O18 0.000000 0.976778 0.000000
#
# Coordination Sequence:
#
# PCOD9126786 Si02
#       8
#     4   4   4   4   4   4   4   4
#     4  11  22  41  62  92 123 167 213 259 317 381
#     4  10  24  41  61  92 126 166 213 268 318 376
#     4  10  22  42  65  95 129 167 211 266 320 391
#     4  11  24  42  63  93 128 168 213 260 322 380
#     4  10  23  40  64  92 126 168 211 258 323 382
#     4  10  24  42  65  96 129 167 214 266 326 385
#     4  11  23  40  63  92 122 171 212 259 318 385
#     4  11  22  42  64  91 131 168 207 268 319 380
#
# _framework density 21.929559999999999
#
# number of rings (size 3 to 8) (size 9 to 14) (size 15 to 20)
#    0.000    1.500    2.500    1.500    3.500    3.000 
#    0.000    0.000    0.000    0.000    0.000    0.000 
#    0.000    0.000    0.000    0.000    0.000    0.000 
#
# Total GULP energy -89398.923802 kJ/mol
# GULP energy per Si atom -5587.432738 kJ/mol
# Density = 2.187965 g / cm^3
# Si number density = 21.929560 Si / 1000 Ang^3
#
#
#
# Elastic Constant Matrix: (Units=GPa)
#
#
# Indices 1 2 3 4 5 6 
#
# 1 76.1010 23.2780 8.1030 0.0000 -11.0777 0.0000
# 2 23.2780 45.7146 10.9532 0.0000 -8.9582 0.0000
# 3 8.1030 10.9532 54.0509 0.0000 -0.2313 0.0000
# 4 0.0000 0.0000 0.0000 22.2439 0.0000 -1.5284
# 5 -11.0777 -8.9582 -0.2313 0.0000 25.2061 0.0000
# 6 0.0000 0.0000 0.0000 -1.5284 0.0000 28.5859
#
#
#
# Elastic Compliance Matrix: (Units=1/GPa)
#
#
# Indices 1 2 3 4 5 6 
#
# 1 0.016063 -0.007060 -0.000958 0.000000 0.004542 0.000000
# 2 -0.007060 0.027889 -0.004564 0.000000 0.006767 0.000000
# 3 -0.000958 -0.004564 0.019562 0.000000 -0.001864 0.000000
# 4 0.000000 0.000000 0.000000 0.045122 0.000000 0.002413
# 5 0.004542 0.006767 -0.001864 0.000000 0.044057 0.000000
# 6 0.000000 0.000000 0.000000 0.002413 0.000000 0.035111
#
#
# Mechanical properties :
#
#
# Convention : Reuss Voigt Hill
#
# Bulk Modulus (GPa) = 26.07575 28.94831 27.51203
# Shear Modulus (GPa) = 22.14821 24.10933 23.12877
#
# Velocity S-wave (km/s) = 3.18145 3.31932 3.25111
# Velocity P-wave (km/s) = 5.04103 5.28391 5.16390
#
# Compressibility (1/GPa) = 0.03834981
#
# Stress axis : x y z
#
# Youngs Moduli (GPa) = 62.25487 35.85584 51.12045
#
# Poissons Ratio (x) = 0.25314 0.04897
# Poissons Ratio (y) = 0.43951 0.23333
# Poissons Ratio (z) = 0.05964 0.16366
#
# Static dielectric constant tensor:
#      x y z
#    x 1.836110 0.000000 0.028450 
#    y 0.000000 1.795090 0.000000 
#    z 0.028450 0.000000 1.823130 
# 
# From -- ./inp_files/52450.got.cif
#   From: 2010.05.17/outbox.cif.g08.bks.cpg/sg5_27_cif.got.tgz:52450.got - 2010.06.03 18:56:24.
