data_PCOD9126929
_publ_section_title
;
Structure prediction by ZEFSAII (Michael W. Deem and Ramdas Pophale) SiO2 
 PCOD9126929
Probable space group: C 2
;
_chemical_formula_sum "Si O2"
_cell_formula_units_Z 32
_cell_length_a 11.328183
_cell_length_b 13.929050
_cell_length_c 9.084515
_cell_angle_alpha 90.000000
_cell_angle_beta 90.666705
_cell_angle_gamma 90.000000
_cell_volume 1433.356094
_symmetry_space_group_name_H-M "C 2"
_symmetry_group_IT_number 5
_symmetry_cell_setting 'monoclinic'
loop_
_space_group_symop_operation_xyz
x,y,z
-x,y,-z
1/2+x,1/2+y,z
1/2-x,1/2+y,-z
loop_
_atom_site_type_symbol
_atom_site_label
_atom_site_fract_x
_atom_site_fract_y
_atom_site_fract_z
Si Si1 0.473537 0.813400 0.328982
Si Si2 0.688606 0.241907 0.877827
Si Si3 0.791243 0.614616 0.858323
Si Si4 0.868189 0.134551 0.694157
Si Si5 0.096883 0.843520 0.627960
Si Si6 0.051507 0.009618 0.840448
Si Si7 0.891457 0.406504 0.892706
Si Si8 0.258494 0.718790 0.418843
O O1 0.500000 0.817057 0.500000
O O2 0.542273 0.721236 0.268518
O O3 0.539382 0.902230 0.260444
O O4 0.336494 0.788623 0.316052
O O5 0.754260 0.156876 0.789384
O O6 0.581868 0.274287 0.770434
O O7 0.782316 0.331108 0.895585
O O8 0.664693 0.198518 0.034883
O O9 0.649727 0.591976 0.871634
O O10 0.848126 0.514519 0.910128
O O11 0.813396 0.650854 0.691919
O O12 0.837310 0.147464 0.521927
O O13 0.935955 0.042034 0.748690
O O14 0.199566 0.789895 0.537174
O O15 0.000000 0.854812 0.500000
O O16 0.115166 0.941034 0.720199
O O17 0.000000 0.975395 0.000000
O O18 0.000000 0.377736 0.000000
#
# Coordination Sequence:
#
# PCOD9126929 Si02
#       8
#     4   4   4   4   4   4   4   4
#     4   9  18  36  65  93 125 169 224 287 345 397
#     4  10  22  44  70  99 144 179 244 294 357 433
#     4  12  24  40  71 105 141 187 241 295 362 432
#     4   9  19  36  65 101 132 173 232 302 350 403
#     4  11  27  47  70 101 148 190 231 298 375 434
#     4  12  24  41  69 111 139 183 244 313 356 417
#     4  11  24  41  65  99 135 180 229 297 347 423
#     4  10  22  42  70  99 137 193 231 291 367 433
#
# _framework density 22.325227000000002
#
# number of rings (size 3 to 8) (size 9 to 14) (size 15 to 20)
#    0.000    1.500    3.750    1.500    3.500    2.000 
#    2.250    3.125    0.000    0.000    0.000    0.000 
#    0.000    0.000    0.000    0.000    0.000    0.000 
#
# Total GULP energy -89079.213620 kJ/mol
# GULP energy per Si atom -5567.450851 kJ/mol
# Density = 2.227441 g / cm^3
# Si number density = 22.325227 Si / 1000 Ang^3
#
#
#
# Elastic Constant Matrix: (Units=GPa)
#
#
# Indices 1 2 3 4 5 6 
#
# 1 20.6933 4.8574 21.2220 0.0000 10.3519 0.0000
# 2 4.8574 58.9617 39.9928 0.0000 1.3460 0.0000
# 3 21.2220 39.9928 112.9198 0.0000 10.4594 0.0000
# 4 0.0000 0.0000 0.0000 31.2613 0.0000 -4.3405
# 5 10.3519 1.3460 10.4594 0.0000 31.9237 0.0000
# 6 0.0000 0.0000 0.0000 -4.3405 0.0000 -2.7613
#
#
#
# Elastic Compliance Matrix: (Units=1/GPa)
#
#
# Indices 1 2 3 4 5 6 
#
# 1 0.069728 0.003157 -0.012495 0.000000 -0.018650 0.000000
# 2 0.003157 0.022556 -0.008662 0.000000 0.000863 0.000000
# 3 -0.012495 -0.008662 0.014297 0.000000 -0.000267 0.000000
# 4 0.000000 0.000000 0.000000 0.026258 0.000000 -0.041275
# 5 -0.018650 0.000863 -0.000267 0.000000 0.037423 0.000000
# 6 0.000000 0.000000 0.000000 -0.041275 0.000000 -0.297272
#
#
# Mechanical properties :
#
#
# Convention : Reuss Voigt Hill
#
# Bulk Modulus (GPa) = 14.16843 36.07992 25.12417
# Shear Modulus (GPa) = -74.09060 20.51825 -26.78617
#
# Velocity S-wave (km/s) = -5.76706 3.03489 -3.46759
# Velocity P-wave (km/s) = 6.16321 5.33637 2.18040
#
# Compressibility (1/GPa) = 0.07057944
#
# Stress axis : x y z
#
# Youngs Moduli (GPa) = 14.34153 44.33507 69.94683
#
# Poissons Ratio (x) = -0.13995 0.87398
# Poissons Ratio (y) = -0.04527 0.60586
# Poissons Ratio (z) = 0.17920 0.38402
#
# Static dielectric constant tensor:
#      x y z
#    x 1.914040 0.000000 -0.013280 
#    y 0.000000 1.892620 0.000000 
#    z -0.013280 0.000000 2.612970 
# 
# From -- ./inp_files/20648.got.cif
#   From: 2010.05.17/outbox.cif.g08.bks.cpg/sg5_11_cif.got.tgz:20648.got - 2010.06.03 18:56:24.
