data_PCOD9126471
_publ_section_title
;
Structure prediction by ZEFSAII (Michael W. Deem and Ramdas Pophale) SiO2 
 PCOD9126471
Probable space group: C 2
;
_chemical_formula_sum "Si O2"
_cell_formula_units_Z 18
_cell_length_a 8.240370
_cell_length_b 11.519682
_cell_length_c 8.343755
_cell_angle_alpha 90.000000
_cell_angle_beta 76.040958
_cell_angle_gamma 90.000000
_cell_volume 768.652692
_symmetry_space_group_name_H-M "C 2"
_symmetry_group_IT_number 5
_symmetry_cell_setting 'monoclinic'
loop_
_space_group_symop_operation_xyz
x,y,z
-x,y,-z
1/2+x,1/2+y,z
1/2-x,1/2+y,-z
loop_
_atom_site_type_symbol
_atom_site_label
_atom_site_fract_x
_atom_site_fract_y
_atom_site_fract_z
Si Si1 0.566067 0.741260 0.804655
Si Si2 0.912488 0.464152 0.351868
Si Si3 0.000000 0.835308 0.000000
Si Si4 0.280187 0.174325 0.236253
Si Si5 0.259709 0.033939 0.913139
O O1 0.667903 0.846882 0.700645
O O2 0.403483 0.729664 0.728645
O O3 0.661201 0.619453 0.813162
O O4 0.500000 0.771951 0.000000
O O5 0.800209 0.579837 0.370276
O O6 0.000000 0.447087 0.500000
O O7 0.065588 0.495353 0.198287
O O8 0.063917 0.761589 0.830659
O O9 0.153796 0.921798 0.987724
O O10 0.283263 0.106272 0.067357
#
# Coordination Sequence:
#
# PCOD9126471 Si02
#       5
#     4   4   2   4   4
#     4  10  22  40  68  91 117 155 210 262 301 346
#     4  12  26  40  58  90 133 169 196 237 305 377
#     4  12  20  36  70  94 116 144 208 266 302 338
#     4  11  22  38  67  91 120 155 207 259 301 348
#     4  11  22  40  66  95 115 155 209 260 303 347
#
# _framework density 23.417598000000002
#
# number of rings (size 3 to 8) (size 9 to 14) (size 15 to 20)
#    0.000    0.889    7.778    1.333    3.111    1.778 
#    0.000    0.000    0.000    0.000    0.000    0.000 
#    0.000    0.000    0.000    0.000    0.000    0.000 
#
# Total GULP energy -50277.088235 kJ/mol
# GULP energy per Si atom -5586.343137 kJ/mol
# Density = 2.336430 g / cm^3
# Si number density = 23.417598 Si / 1000 Ang^3
#
#
#
# Elastic Constant Matrix: (Units=GPa)
#
#
# Indices 1 2 3 4 5 6 
#
# 1 60.5376 30.9765 -3.0545 0.0000 12.3931 0.0000
# 2 30.9765 132.5645 15.0160 0.0000 19.1532 0.0000
# 3 -3.0545 15.0160 34.8933 0.0000 20.0435 0.0000
# 4 0.0000 0.0000 0.0000 15.2271 0.0000 10.2325
# 5 12.3931 19.1532 20.0435 0.0000 24.1297 0.0000
# 6 0.0000 0.0000 0.0000 10.2325 0.0000 15.3936
#
#
#
# Elastic Compliance Matrix: (Units=1/GPa)
#
#
# Indices 1 2 3 4 5 6 
#
# 1 0.024493 -0.004277 0.017712 0.000000 -0.023897 0.000000
# 2 -0.004277 0.009271 -0.002675 0.000000 -0.002940 0.000000
# 3 0.017712 -0.002675 0.067641 0.000000 -0.063159 0.000000
# 4 0.000000 0.000000 0.000000 0.118691 0.000000 -0.078897
# 5 -0.023897 -0.002940 -0.063159 0.000000 0.108513 0.000000
# 6 0.000000 0.000000 0.000000 -0.078897 0.000000 0.117406
#
#
# Mechanical properties :
#
#
# Convention : Reuss Voigt Hill
#
# Bulk Modulus (GPa) = 8.13515 34.87461 21.50488
# Shear Modulus (GPa) = 10.74183 23.28724 17.01453
#
# Velocity S-wave (km/s) = 2.14407 3.15688 2.69842
# Velocity P-wave (km/s) = 3.10014 5.31156 4.34877
#
# Compressibility (1/GPa) = 0.12292329
#
# Stress axis : x y z
#
# Youngs Moduli (GPa) = 40.82810 107.86712 14.78404
#
# Poissons Ratio (x) = 0.46133 -0.26185
# Poissons Ratio (y) = 0.17462 0.03955
# Poissons Ratio (z) = -0.72313 0.28857
#
# Static dielectric constant tensor:
#      x y z
#    x 1.926000 0.000000 0.030180 
#    y 0.000000 2.025930 0.000000 
#    z 0.030180 0.000000 1.846310 
# 
# From -- ./inp_files/13947.got.cif
#   From: 2010.05.17/outbox.cif.g08.bks.cpg/sg5_7_cif.got.tgz:13947.got - 2010.06.03 18:56:24.
