data_PCOD9126193
_publ_section_title
;
Structure prediction by ZEFSAII (Michael W. Deem and Ramdas Pophale) SiO2 
 PCOD9126193
Probable space group: C 2
;
_chemical_formula_sum "Si O2"
_cell_formula_units_Z 26
_cell_length_a 12.700107
_cell_length_b 17.786259
_cell_length_c 12.201648
_cell_angle_alpha 90.000000
_cell_angle_beta 155.388096
_cell_angle_gamma 90.000000
_cell_volume 1147.873114
_symmetry_space_group_name_H-M "C 2"
_symmetry_group_IT_number 5
_symmetry_cell_setting 'monoclinic'
loop_
_space_group_symop_operation_xyz
x,y,z
-x,y,-z
1/2+x,1/2+y,z
1/2-x,1/2+y,-z
loop_
_atom_site_type_symbol
_atom_site_label
_atom_site_fract_x
_atom_site_fract_y
_atom_site_fract_z
Si Si1 0.559839 0.240900 0.166295
Si Si2 0.000000 0.130984 0.500000
Si Si3 0.500000 0.351722 0.500000
Si Si4 0.522974 0.954601 0.262517
Si Si5 0.212247 0.293125 0.421893
Si Si6 0.609354 0.644329 0.836845
Si Si7 0.500000 0.952085 0.000000
Si Si8 0.496727 0.502825 0.128955
O O1 0.646830 0.303358 0.331331
O O2 0.767401 0.184930 0.311218
O O3 0.500000 0.285443 0.000000
O O4 0.367137 0.187990 0.050829
O O5 0.054668 0.097501 0.671478
O O6 0.407658 0.297982 0.509049
O O7 0.738679 0.403802 0.759289
O O8 0.545497 0.866777 0.252651
O O9 0.530933 0.993539 0.147868
O O10 0.748754 0.981326 0.558979
O O11 0.251407 0.961870 0.060042
O O12 0.076118 0.214082 0.311860
O O13 0.576577 0.588492 0.905816
O O14 0.500000 0.495188 0.000000
#
# Coordination Sequence:
#
# PCOD9126193 Si02
#       8
#     4   2   2   4   4   4   2   4
#     4   9  19  38  64 100 138 174 240 301 358 414
#     4   8  18  40  61 104 127 176 240 304 360 400
#     4  10  22  38  69 108 145 166 246 300 378 416
#     4  11  26  49  73 103 149 189 252 298 362 436
#     4  10  23  41  70 103 135 191 240 305 356 423
#     4  10  23  41  71  99 143 185 247 301 359 434
#     4  10  22  46  74 104 132 186 242 320 358 416
#     4  12  29  51  69 107 154 203 236 285 377 460
#
# _framework density 22.650585
#
# number of rings (size 3 to 8) (size 9 to 14) (size 15 to 20)
#    0.000    1.846    0.000    2.308   10.769    3.077 
#   16.615    0.000    0.000    0.000    0.000    0.000 
#    0.000    0.000    0.000    0.000    0.000    0.000 
#
# Total GULP energy -72393.944023 kJ/mol
# GULP energy per Si atom -5568.764925 kJ/mol
# Density = 2.259903 g / cm^3
# Si number density = 22.650585 Si / 1000 Ang^3
#
#
#
# Elastic Constant Matrix: (Units=GPa)
#
#
# Indices 1 2 3 4 5 6 
#
# 1 202.2191 32.2771 75.3353 -0.0004 -5.7767 -0.0003
# 2 32.2771 51.3426 9.0282 -0.0007 1.3051 -0.0006
# 3 75.3353 9.0282 124.0453 -0.0008 0.6035 -0.0009
# 4 -0.0004 -0.0007 -0.0008 -11.0060 -0.0004 -31.3931
# 5 -5.7767 1.3051 0.6035 -0.0004 48.5377 -0.0005
# 6 -0.0003 -0.0006 -0.0009 -31.3931 -0.0005 12.3390
#
#
#
# Elastic Compliance Matrix: (Units=1/GPa)
#
#
# Indices 1 2 3 4 5 6 
#
# 1 0.007075 -0.003765 -0.004028 0.000000 0.000993 0.000000
# 2 -0.003765 0.021746 0.000709 0.000000 -0.001042 0.000000
# 3 -0.004028 0.000709 0.010459 0.000000 -0.000628 0.000000
# 4 0.000000 0.000000 0.000000 -0.011004 0.000000 -0.027996
# 5 0.000993 -0.001042 -0.000628 0.000000 0.020757 0.000000
# 6 0.000000 0.000000 0.000000 -0.027996 0.000000 0.009815
#
#
# Mechanical properties :
#
#
# Convention : Reuss Voigt Hill
#
# Bulk Modulus (GPa) = 39.82076 67.87646 53.84861
# Shear Modulus (GPa) = 61.43633 27.37189 44.40411
#
# Velocity S-wave (km/s) = 5.21367 3.48003 4.43244
# Velocity P-wave (km/s) = 7.33906 6.79554 7.07252
#
# Compressibility (1/GPa) = 0.02511253
#
# Stress axis : x y z
#
# Youngs Moduli (GPa) = 141.34607 45.98637 95.61107
#
# Poissons Ratio (x) = 0.17313 0.38508
# Poissons Ratio (y) = 0.53213 -0.06777
# Poissons Ratio (z) = 0.56927 -0.03259
#
# Static dielectric constant tensor:
#      x y z
#    x 1.897520 0.000000 -0.087740 
#    y 0.000000 1.820720 0.000000 
#    z -0.087740 0.000000 2.070910 
# 
# From -- ./inp_files/40520.got.cif
#   From: 2010.05.17/outbox.cif.g08.bks.cpg/sg5_21_cif.got.tgz:40520.got - 2010.06.03 18:56:24.
