data_PCOD9126322
_publ_section_title
;
Structure prediction by ZEFSAII (Michael W. Deem and Ramdas Pophale) SiO2 
 PCOD9126322
Probable space group: C 2
;
_chemical_formula_sum "Si O2"
_cell_formula_units_Z 28
_cell_length_a 12.309335
_cell_length_b 8.091652
_cell_length_c 20.058264
_cell_angle_alpha 90.000000
_cell_angle_beta 34.851142
_cell_angle_gamma 90.000000
_cell_volume 1141.669903
_symmetry_space_group_name_H-M "C 2"
_symmetry_group_IT_number 5
_symmetry_cell_setting 'monoclinic'
loop_
_space_group_symop_operation_xyz
x,y,z
-x,y,-z
1/2+x,1/2+y,z
1/2-x,1/2+y,-z
loop_
_atom_site_type_symbol
_atom_site_label
_atom_site_fract_x
_atom_site_fract_y
_atom_site_fract_z
Si Si1 0.023952 0.164100 0.418648
Si Si2 0.689954 0.875947 0.215856
Si Si3 0.373690 0.074006 0.117390
Si Si4 0.984168 0.101485 0.893886
Si Si5 0.306462 0.334692 0.700045
Si Si6 0.089612 0.639422 0.642065
Si Si7 0.091357 0.753235 0.130675
O O1 0.805933 0.132397 0.509539
O O2 0.000000 0.258109 0.500000
O O3 0.136691 0.276520 0.310262
O O4 0.128211 0.987373 0.378952
O O5 0.777644 0.729968 0.128273
O O6 0.495815 0.961766 0.295414
O O7 0.851869 0.013848 0.143601
O O8 0.490864 0.147222 0.121258
O O9 0.225073 0.942852 0.217474
O O10 0.500000 0.986052 0.000000
O O11 0.108986 0.236712 0.789838
O O12 0.909734 0.945371 0.889152
O O13 0.806363 0.182236 0.021656
O O14 0.470843 0.208195 0.638335
O O15 0.032563 0.734772 0.739173
#
# Coordination Sequence:
#
# PCOD9126322 Si02
#       7
#     4   4   4   4   4   4   4
#     4  11  22  45  66  91 131 175 224 270 322 384
#     4   9  22  40  64  95 127 171 211 268 324 383
#     4  10  22  40  59  93 133 169 211 261 326 388
#     4  10  22  41  62  94 135 161 229 256 329 384
#     4  10  23  40  62  93 129 172 219 269 323 382
#     4  11  23  40  68  94 130 171 218 270 331 385
#     4  11  24  39  66  96 132 176 212 271 326 398
#
# _framework density 24.525479000000001
#
# number of rings (size 3 to 8) (size 9 to 14) (size 15 to 20)
#    0.000    1.714    0.000    4.286    8.000    1.143 
#    0.000    7.143    0.000    0.000    0.000    0.000 
#    0.000    0.000    0.000    0.000    0.000    0.000 
#
# Total GULP energy -78135.932936 kJ/mol
# GULP energy per Si atom -5581.138067 kJ/mol
# Density = 2.446966 g / cm^3
# Si number density = 24.525479 Si / 1000 Ang^3
#
#
#
# Elastic Constant Matrix: (Units=GPa)
#
#
# Indices 1 2 3 4 5 6 
#
# 1 59.2445 23.4125 25.7206 0.0000 -23.8482 0.0000
# 2 23.4125 104.4921 18.1674 0.0000 -14.7194 0.0000
# 3 25.7206 18.1674 122.4416 0.0000 -24.4444 0.0000
# 4 0.0000 0.0000 0.0000 21.8907 0.0000 -12.8334
# 5 -23.8482 -14.7194 -24.4444 0.0000 48.5045 0.0000
# 6 0.0000 0.0000 0.0000 -12.8334 0.0000 32.5944
#
#
#
# Elastic Compliance Matrix: (Units=1/GPa)
#
#
# Indices 1 2 3 4 5 6 
#
# 1 0.022941 -0.003439 -0.002519 0.000000 0.008966 0.000000
# 2 -0.003439 0.010619 -0.000609 0.000000 0.001225 0.000000
# 3 -0.002519 -0.000609 0.009454 0.000000 0.003341 0.000000
# 4 0.000000 0.000000 0.000000 0.059390 0.000000 0.023384
# 5 0.008966 0.001225 0.003341 0.000000 0.027081 0.000000
# 6 0.000000 0.000000 0.000000 0.023384 0.000000 0.039887
#
#
# Mechanical properties :
#
#
# Convention : Reuss Voigt Hill
#
# Bulk Modulus (GPa) = 33.46651 46.75324 40.10988
# Shear Modulus (GPa) = 25.97873 35.18977 30.58425
#
# Velocity S-wave (km/s) = 3.25815 3.79202 3.53518
# Velocity P-wave (km/s) = 5.27535 6.18684 5.74919
#
# Compressibility (1/GPa) = 0.02988062
#
# Stress axis : x y z
#
# Youngs Moduli (GPa) = 43.58974 94.17037 105.77982
#
# Poissons Ratio (x) = 0.32387 0.26643
# Poissons Ratio (y) = 0.14991 0.06438
# Poissons Ratio (z) = 0.10979 0.05731
#
# Static dielectric constant tensor:
#      x y z
#    x 2.081010 0.000000 -0.048350 
#    y 0.000000 1.976220 0.000000 
#    z -0.048350 0.000000 2.009980 
# 
# From -- ./inp_files/65956.got.cif
#   From: 2010.05.17/outbox.cif.g08.bks.cpg/sg5_33_cif.got.tgz:65956.got - 2010.06.03 18:56:24.
