data_PCOD9126771
_publ_section_title
;
Structure prediction by ZEFSAII (Michael W. Deem and Ramdas Pophale) SiO2 
 PCOD9126771
Probable space group: C 2
;
_chemical_formula_sum "Si O2"
_cell_formula_units_Z 22
_cell_length_a 6.307204
_cell_length_b 22.799547
_cell_length_c 7.657449
_cell_angle_alpha 90.000000
_cell_angle_beta 115.839534
_cell_angle_gamma 90.000000
_cell_volume 991.056751
_symmetry_space_group_name_H-M "C 2"
_symmetry_group_IT_number 5
_symmetry_cell_setting 'monoclinic'
loop_
_space_group_symop_operation_xyz
x,y,z
-x,y,-z
1/2+x,1/2+y,z
1/2-x,1/2+y,-z
loop_
_atom_site_type_symbol
_atom_site_label
_atom_site_fract_x
_atom_site_fract_y
_atom_site_fract_z
Si Si1 0.000000 0.243181 0.000000
Si Si2 0.741633 0.325262 0.690098
Si Si3 0.000000 0.255021 0.500000
Si Si4 0.255097 0.171230 0.808953
Si Si5 0.993511 0.058107 0.787200
Si Si6 0.319553 0.962325 0.777004
Si Si7 0.000000 0.529480 0.500000
O O1 0.060766 0.200066 0.865477
O O2 0.780528 0.285557 0.875678
O O3 0.500000 0.317331 0.500000
O O4 0.941861 0.298901 0.636161
O O5 0.777999 0.393308 0.741894
O O6 0.782335 0.211296 0.375354
O O7 0.500000 0.174332 0.000000
O O8 0.173057 0.104300 0.764854
O O9 0.726119 0.067551 0.633289
O O10 0.080235 0.995279 0.747052
O O11 0.000000 0.060541 0.000000
O O12 0.427655 0.989630 0.639686
O O13 0.500000 0.973308 0.000000
#
# Coordination Sequence:
#
# PCOD9126771 Si02
#       7
#     2   4   2   4   4   4   2
#     4  10  22  42  64  98 130 180 222 278 346 400
#     4  11  22  43  68  97 134 176 230 286 345 411
#     4  10  25  42  68 102 132 183 232 280 352 410
#     4  11  24  43  67  99 138 176 231 286 340 417
#     4  12  26  45  70 104 142 190 235 288 356 418
#     4  12  25  47  73 103 144 188 234 294 354 419
#     4  12  27  46  70 100 144 187 236 288 356 416
#
# _framework density 22.198525
#
# number of rings (size 3 to 8) (size 9 to 14) (size 15 to 20)
#    0.000    0.727    3.636    3.818    2.545    0.000 
#    6.545    0.909    0.000    0.000    0.000    0.000 
#    0.000    0.000    0.000    0.000    0.000    0.000 
#
# Total GULP energy -61499.122699 kJ/mol
# GULP energy per Si atom -5590.829336 kJ/mol
# Density = 2.214800 g / cm^3
# Si number density = 22.198525 Si / 1000 Ang^3
#
#
#
# Elastic Constant Matrix: (Units=GPa)
#
#
# Indices 1 2 3 4 5 6 
#
# 1 44.0010 12.6175 23.0505 0.0000 16.0698 0.0000
# 2 12.6175 114.1099 19.7217 0.0000 0.3609 0.0000
# 3 23.0505 19.7217 123.8524 0.0000 21.0052 0.0000
# 4 0.0000 0.0000 0.0000 24.5498 0.0000 -5.4860
# 5 16.0698 0.3609 21.0052 0.0000 54.4983 0.0000
# 6 0.0000 0.0000 0.0000 -5.4860 0.0000 20.8291
#
#
#
# Elastic Compliance Matrix: (Units=1/GPa)
#
#
# Indices 1 2 3 4 5 6 
#
# 1 0.027804 -0.002424 -0.003639 0.000000 -0.006780 0.000000
# 2 -0.002424 0.009237 -0.001210 0.000000 0.001120 0.000000
# 3 -0.003639 -0.001210 0.009373 0.000000 -0.002532 0.000000
# 4 0.000000 0.000000 0.000000 0.043281 0.000000 0.011399
# 5 -0.006780 0.001120 -0.002532 0.000000 0.021317 0.000000
# 6 0.000000 0.000000 0.000000 0.011399 0.000000 0.051012
#
#
# Mechanical properties :
#
#
# Convention : Reuss Voigt Hill
#
# Bulk Modulus (GPa) = 31.37785 43.63808 37.50796
# Shear Modulus (GPa) = 26.71043 35.08035 30.89539
#
# Velocity S-wave (km/s) = 3.47256 3.97961 3.73470
# Velocity P-wave (km/s) = 5.49945 6.38883 5.96075
#
# Compressibility (1/GPa) = 0.03186961
#
# Stress axis : x y z
#
# Youngs Moduli (GPa) = 35.96563 108.25987 106.68520
#
# Poissons Ratio (x) = 0.26243 0.38821
# Poissons Ratio (y) = 0.08718 0.12905
# Poissons Ratio (z) = 0.13087 0.13096
#
# Static dielectric constant tensor:
#      x y z
#    x 1.806910 0.000000 -0.014150 
#    y 0.000000 1.768230 0.000000 
#    z -0.014150 0.000000 1.954090 
# 
# From -- ./inp_files/12463.got.cif
#   From: 2010.05.17/outbox.cif.g08.bks.cpg/sg5_7_cif.got.tgz:12463.got - 2010.06.03 18:56:24.
