data_PCOD9126401
_publ_section_title
;
Structure prediction by ZEFSAII (Michael W. Deem and Ramdas Pophale) SiO2 
 PCOD9126401
Probable space group: C 2
;
_chemical_formula_sum "Si O2"
_cell_formula_units_Z 20
_cell_length_a 18.863151
_cell_length_b 5.039114
_cell_length_c 18.018606
_cell_angle_alpha 90.000000
_cell_angle_beta 147.095291
_cell_angle_gamma 90.000000
_cell_volume 930.430881
_symmetry_space_group_name_H-M "C 2"
_symmetry_group_IT_number 5
_symmetry_cell_setting 'monoclinic'
loop_
_space_group_symop_operation_xyz
x,y,z
-x,y,-z
1/2+x,1/2+y,z
1/2-x,1/2+y,-z
loop_
_atom_site_type_symbol
_atom_site_label
_atom_site_fract_x
_atom_site_fract_y
_atom_site_fract_z
Si Si1 0.802275 0.234280 0.374392
Si Si2 0.178738 0.480876 0.908494
Si Si3 0.040944 0.829146 0.311889
Si Si4 0.092372 0.178669 0.691086
Si Si5 0.289873 0.720335 0.626175
O O1 0.822168 0.146790 0.307272
O O2 0.735931 0.515904 0.329366
O O3 0.948397 0.265307 0.536647
O O4 0.724469 0.012819 0.352672
O O5 0.160164 0.375509 0.808523
O O6 0.217403 0.217938 0.988314
O O7 0.042884 0.625349 0.809839
O O8 0.089290 0.091775 0.311592
O O9 0.944716 0.920774 0.293493
O O10 0.168447 0.701858 0.461417
#
# Coordination Sequence:
#
# PCOD9126401 Si02
#       5
#     4   4   4   4   4
#     4  10  23  37  63  99 137 163 200 278 345 392
#     4  12  25  40  65  98 131 181 227 271 305 385
#     4  11  23  41  65 100 134 171 219 269 332 391
#     4  10  22  40  64  96 133 169 224 263 330 391
#     4  11  23  37  63 100 135 165 201 276 347 390
#
# _framework density 21.495417
#
# number of rings (size 3 to 8) (size 9 to 14) (size 15 to 20)
#    0.000    1.200    4.000    2.400    5.600    1.600 
#    0.000    0.000    0.000    1.200   10.400    0.000 
#    0.000    0.000    0.000    0.000    0.000    0.000 
#
# Total GULP energy -55837.632444 kJ/mol
# GULP energy per Si atom -5583.763244 kJ/mol
# Density = 2.144649 g / cm^3
# Si number density = 21.495417 Si / 1000 Ang^3
#
#
#
# Elastic Constant Matrix: (Units=GPa)
#
#
# Indices 1 2 3 4 5 6 
#
# 1 124.7955 37.6515 38.6858 0.0002 -14.0049 -0.0001
# 2 37.6515 125.8750 50.1147 0.0013 -2.5677 0.0006
# 3 38.6858 50.1147 99.1054 0.0003 -6.2835 0.0002
# 4 0.0002 0.0013 0.0003 48.8565 0.0003 10.5359
# 5 -14.0049 -2.5677 -6.2835 0.0003 18.9055 -0.0001
# 6 -0.0001 0.0006 0.0002 10.5359 -0.0001 30.2078
#
#
#
# Elastic Compliance Matrix: (Units=1/GPa)
#
#
# Indices 1 2 3 4 5 6 
#
# 1 0.010092 -0.001854 -0.002598 0.000000 0.006360 0.000000
# 2 -0.001854 0.010290 -0.004574 0.000000 -0.001496 0.000000
# 3 -0.002598 -0.004574 0.013542 0.000000 0.001955 0.000000
# 4 0.000000 0.000000 0.000000 0.022133 0.000000 -0.007719
# 5 0.006360 -0.001496 0.001955 0.000000 0.058053 0.000000
# 6 0.000000 0.000000 0.000000 -0.007719 0.000000 0.035796
#
#
# Mechanical properties :
#
#
# Convention : Reuss Voigt Hill
#
# Bulk Modulus (GPa) = 63.01567 66.96445 64.99006
# Shear Modulus (GPa) = 28.86025 34.48222 31.67123
#
# Velocity S-wave (km/s) = 3.66816 4.00955 3.84265
# Velocity P-wave (km/s) = 6.87895 7.25643 7.07021
#
# Compressibility (1/GPa) = 0.01586907
#
# Stress axis : x y z
#
# Youngs Moduli (GPa) = 99.08980 97.18479 73.84702
#
# Poissons Ratio (x) = 0.18022 0.19188
# Poissons Ratio (y) = 0.18375 0.33779
# Poissons Ratio (z) = 0.25747 0.44454
#
# Static dielectric constant tensor:
#      x y z
#    x 1.802390 0.000000 0.032130 
#    y 0.000000 1.826200 0.000000 
#    z 0.032130 0.000000 1.823190 
# 
# From -- ./inp_files/62026.got.cif
#   From: 2010.05.17/outbox.cif.g08.bks.cpg/sg5_32_cif.got.tgz:62026.got - 2010.06.03 18:56:24.
