data_PCOD9126414
_publ_section_title
;
Structure prediction by ZEFSAII (Michael W. Deem and Ramdas Pophale) SiO2 
 PCOD9126414
Probable space group: C 2
;
_chemical_formula_sum "Si O2"
_cell_formula_units_Z 24
_cell_length_a 15.769763
_cell_length_b 4.925377
_cell_length_c 15.065697
_cell_angle_alpha 90.000000
_cell_angle_beta 117.012404
_cell_angle_gamma 90.000000
_cell_volume 1042.525865
_symmetry_space_group_name_H-M "C 2"
_symmetry_group_IT_number 5
_symmetry_cell_setting 'monoclinic'
loop_
_space_group_symop_operation_xyz
x,y,z
-x,y,-z
1/2+x,1/2+y,z
1/2-x,1/2+y,-z
loop_
_atom_site_type_symbol
_atom_site_label
_atom_site_fract_x
_atom_site_fract_y
_atom_site_fract_z
Si Si1 0.958042 0.408740 0.713815
Si Si2 0.324819 0.927877 0.809113
Si Si3 0.698321 0.080910 0.611386
Si Si4 0.656840 0.859614 0.760530
Si Si5 0.759021 0.228403 0.942720
Si Si6 0.367169 0.401956 0.583904
O O1 0.917730 0.464960 0.793373
O O2 0.945681 0.700573 0.661884
O O3 0.060415 0.266458 0.761162
O O4 0.895495 0.207656 0.621872
O O5 0.265809 0.732514 0.714636
O O6 0.343750 0.805237 0.915494
O O7 0.251427 0.174892 0.795335
O O8 0.651489 0.297271 0.523751
O O9 0.628552 0.928510 0.645546
O O10 0.766123 0.876438 0.588575
O O11 0.683340 0.112375 0.836381
O O12 0.723975 0.488833 0.979820
#
# Coordination Sequence:
#
# PCOD9126414 Si02
#       6
#     4   4   4   4   4   4
#     4  11  26  42  66 101 136 180 229 283 337 404
#     4  10  22  44  70  94 133 180 220 279 344 409
#     4  10  22  40  65  95 132 189 230 276 337 391
#     4  11  24  44  71  98 139 177 226 287 351 413
#     4  11  23  43  75  98 126 171 220 276 351 425
#     4  11  23  41  63  96 137 181 235 279 326 400
#
# _framework density 23.021011000000001
#
# number of rings (size 3 to 8) (size 9 to 14) (size 15 to 20)
#    0.000    1.333    3.333    2.000    7.000    0.667 
#    0.000    0.833    7.333    0.000    0.000    0.000 
#    0.000    0.000    0.000    0.000    0.000    0.000 
#
# Total GULP energy -66882.727883 kJ/mol
# GULP energy per Si atom -5573.560657 kJ/mol
# Density = 2.296861 g / cm^3
# Si number density = 23.021011 Si / 1000 Ang^3
#
#
#
# Elastic Constant Matrix: (Units=GPa)
#
#
# Indices 1 2 3 4 5 6 
#
# 1 107.0947 21.4809 31.0508 0.0001 -26.8746 0.0000
# 2 21.4809 98.6009 28.9682 0.0003 -13.8479 0.0003
# 3 31.0508 28.9682 114.9352 0.0000 -40.5312 0.0001
# 4 0.0001 0.0003 0.0000 51.0975 0.0000 -6.3775
# 5 -26.8746 -13.8479 -40.5312 0.0000 25.9766 0.0001
# 6 0.0000 0.0003 0.0001 -6.3775 0.0001 16.9165
#
#
#
# Elastic Compliance Matrix: (Units=1/GPa)
#
#
# Indices 1 2 3 4 5 6 
#
# 1 0.013130 -0.001267 0.002944 0.000000 0.017502 0.000000
# 2 -0.001267 0.011212 -0.001863 0.000000 0.001758 0.000000
# 3 0.002944 -0.001863 0.020230 0.000000 0.033617 0.000000
# 4 0.000000 0.000000 0.000000 0.020537 0.000000 0.007742
# 5 0.017502 0.001758 0.033617 0.000000 0.109993 -0.000001
# 6 0.000000 0.000000 0.000000 0.007742 -0.000001 0.062033
#
#
# Mechanical properties :
#
#
# Convention : Reuss Voigt Hill
#
# Bulk Modulus (GPa) = 22.62496 53.73674 38.18085
# Shear Modulus (GPa) = 19.82234 34.74019 27.28126
#
# Velocity S-wave (km/s) = 2.93756 3.88888 3.44620
# Velocity P-wave (km/s) = 4.62114 6.59982 5.69704
#
# Compressibility (1/GPa) = 0.04419898
#
# Stress axis : x y z
#
# Youngs Moduli (GPa) = 76.16054 89.18659 49.43269
#
# Poissons Ratio (x) = 0.11304 -0.14555
# Poissons Ratio (y) = 0.09653 0.09212
# Poissons Ratio (z) = -0.22424 0.16620
#
# Static dielectric constant tensor:
#      x y z
#    x 2.005140 0.000000 -0.042360 
#    y 0.000000 1.967720 0.000000 
#    z -0.042360 0.000000 1.858970 
# 
# From -- ./inp_files/53696.got.cif
#   From: 2010.05.17/outbox.cif.g08.bks.cpg/sg5_27_cif.got.tgz:53696.got - 2010.06.03 18:56:24.
