data_PCOD9126874
_publ_section_title
;
Structure prediction by ZEFSAII (Michael W. Deem and Ramdas Pophale) SiO2 
 PCOD9126874
Probable space group: C 2
;
_chemical_formula_sum "Si O2"
_cell_formula_units_Z 26
_cell_length_a 11.656594
_cell_length_b 10.386492
_cell_length_c 18.082608
_cell_angle_alpha 90.000000
_cell_angle_beta 150.209294
_cell_angle_gamma 90.000000
_cell_volume 1087.707773
_symmetry_space_group_name_H-M "C 2"
_symmetry_group_IT_number 5
_symmetry_cell_setting 'monoclinic'
loop_
_space_group_symop_operation_xyz
x,y,z
-x,y,-z
1/2+x,1/2+y,z
1/2-x,1/2+y,-z
loop_
_atom_site_type_symbol
_atom_site_label
_atom_site_fract_x
_atom_site_fract_y
_atom_site_fract_z
Si Si1 0.339321 0.308820 0.319241
Si Si2 0.000000 0.570907 0.500000
Si Si3 0.752414 0.104457 0.964489
Si Si4 0.758081 0.548349 0.638401
Si Si5 0.257845 0.649471 0.138478
Si Si6 0.000000 0.898518 0.000000
Si Si7 0.826733 0.988481 0.564396
Si Si8 0.000000 0.295844 0.000000
O O1 0.370089 0.167291 0.369869
O O2 0.278050 0.403247 0.352186
O O3 0.572678 0.355035 0.409403
O O4 0.146240 0.342830 0.151113
O O5 0.823419 0.485756 0.446932
O O6 0.475331 0.095665 0.805908
O O7 0.811132 0.214415 0.939090
O O8 0.896778 0.984445 0.009407
O O9 0.820416 0.137611 0.086515
O O10 0.500000 0.608303 0.500000
O O11 0.814623 0.546034 0.583500
O O12 0.452835 0.579504 0.294548
O O13 0.000000 0.587821 0.000000
O O14 0.206242 0.796983 0.133737
#
# Coordination Sequence:
#
# PCOD9126874 Si02
#       8
#     4   2   4   4   4   2   4   2
#     4  11  24  45  70 103 140 186 229 291 347 408
#     4  12  24  46  76  98 138 192 228 276 366 408
#     4  11  23  45  68 102 143 173 237 289 333 421
#     4  10  22  42  68  95 140 183 215 289 343 391
#     4  10  23  42  69 100 131 183 225 279 351 400
#     4   9  26  41  68 104 134 175 226 295 340 396
#     4  11  24  43  70 103 138 179 233 285 338 422
#     4  11  26  41  72 106 132 191 234 283 358 406
#
# _framework density 23.903479000000001
#
# number of rings (size 3 to 8) (size 9 to 14) (size 15 to 20)
#    0.462    0.923    2.308    3.692    7.538    1.231 
#    0.000    0.000   13.538    0.000    0.000    0.000 
#    0.000    0.000    0.000    0.000    0.000    0.000 
#
# Total GULP energy -72545.957411 kJ/mol
# GULP energy per Si atom -5580.458262 kJ/mol
# Density = 2.384907 g / cm^3
# Si number density = 23.903479 Si / 1000 Ang^3
#
#
#
# Elastic Constant Matrix: (Units=GPa)
#
#
# Indices 1 2 3 4 5 6 
#
# 1 151.3134 33.6404 32.7022 0.0007 0.7429 0.0003
# 2 33.6404 16.6753 26.0593 0.0010 -2.1416 -0.0004
# 3 32.7022 26.0593 106.2320 0.0031 -24.2648 -0.0011
# 4 0.0007 0.0010 0.0031 21.5434 0.0009 25.3207
# 5 0.7429 -2.1416 -24.2648 0.0009 44.5999 0.0001
# 6 0.0003 -0.0004 -0.0011 25.3207 0.0001 139.9064
#
#
#
# Elastic Compliance Matrix: (Units=1/GPa)
#
#
# Indices 1 2 3 4 5 6 
#
# 1 0.012924 -0.032361 0.004060 0.000001 0.000440 0.000000
# 2 -0.032361 0.181929 -0.037167 -0.000003 -0.010946 0.000001
# 3 0.004060 -0.037167 0.019250 -0.000002 0.008621 0.000000
# 4 0.000001 -0.000003 -0.000002 0.058960 -0.000002 -0.010671
# 5 0.000440 -0.010946 0.008621 -0.000002 0.026579 0.000000
# 6 0.000000 0.000001 0.000000 -0.010671 0.000000 0.009079
#
#
# Mechanical properties :
#
#
# Convention : Reuss Voigt Hill
#
# Bulk Modulus (GPa) = 12.02379 51.00273 31.51326
# Shear Modulus (GPa) = 10.69803 53.33118 32.01461
#
# Velocity S-wave (km/s) = 2.11784 4.72858 3.66365
# Velocity P-wave (km/s) = 3.31984 7.15513 5.57751
#
# Compressibility (1/GPa) = 0.08316846
#
# Stress axis : x y z
#
# Youngs Moduli (GPa) = 77.37780 5.49666 51.94901
#
# Poissons Ratio (x) = 0.17788 -0.21093
# Poissons Ratio (y) = 2.50399 1.93076
# Poissons Ratio (z) = -0.31418 0.20429
#
# Static dielectric constant tensor:
#      x y z
#    x 1.904670 0.000000 0.051240 
#    y 0.000000 1.973500 0.000000 
#    z 0.051240 0.000000 1.894040 
# 
# From -- ./inp_files/60532.got.cif
#   From: 2010.05.17/outbox.cif.g08.bks.cpg/sg5_31_cif.got.tgz:60532.got - 2010.06.03 18:56:24.
