data_PCOD9126919
_publ_section_title
;
Structure prediction by ZEFSAII (Michael W. Deem and Ramdas Pophale) SiO2 
 PCOD9126919
Probable space group: C 2
;
_chemical_formula_sum "Si O2"
_cell_formula_units_Z 26
_cell_length_a 14.800623
_cell_length_b 14.653013
_cell_length_c 11.678290
_cell_angle_alpha 90.000000
_cell_angle_beta 151.479966
_cell_angle_gamma 90.000000
_cell_volume 1209.284968
_symmetry_space_group_name_H-M "C 2"
_symmetry_group_IT_number 5
_symmetry_cell_setting 'monoclinic'
loop_
_space_group_symop_operation_xyz
x,y,z
-x,y,-z
1/2+x,1/2+y,z
1/2-x,1/2+y,-z
loop_
_atom_site_type_symbol
_atom_site_label
_atom_site_fract_x
_atom_site_fract_y
_atom_site_fract_z
Si Si1 0.886396 0.341350 0.206560
Si Si2 0.162435 0.133809 0.767043
Si Si3 0.132561 0.080259 0.992922
Si Si4 0.000000 0.552932 0.000000
Si Si5 0.000000 0.486376 0.500000
Si Si6 0.020811 0.895151 0.154493
Si Si7 0.000000 0.239835 0.000000
Si Si8 0.354857 0.883443 0.698948
O O1 0.892293 0.238615 0.261474
O O2 0.023817 0.413611 0.424328
O O3 0.949683 0.356913 0.147710
O O4 0.674500 0.372030 0.999072
O O5 0.359147 0.114728 0.919672
O O6 0.000000 0.099481 0.500000
O O7 0.167500 0.085327 0.896118
O O8 0.064141 0.174299 0.969371
O O9 0.321598 0.047044 0.268247
O O10 0.973783 0.004894 0.841639
O O11 0.881412 0.483156 0.785178
O O12 0.191554 0.866145 0.424850
O O13 0.000000 0.861662 0.000000
O O14 0.164492 0.307539 0.224839
#
# Coordination Sequence:
#
# PCOD9126919 Si02
#       8
#     4   4   4   2   2   4   2   4
#     4  11  23  41  65 100 136 181 227 285 341 415
#     4  12  26  45  71 104 143 177 236 292 347 410
#     4  11  23  45  70 104 135 177 238 287 343 418
#     4  11  26  44  71 102 138 192 233 284 356 425
#     4  10  22  42  70  94 138 180 222 280 354 402
#     4  11  24  40  70  99 133 182 234 278 347 418
#     4  11  24  44  69 102 134 184 233 286 346 417
#     4  11  24  47  67  95 145 186 227 285 359 413
#
# _framework density 21.500308
#
# number of rings (size 3 to 8) (size 9 to 14) (size 15 to 20)
#    0.000    0.923    3.077    4.615    1.077    1.231 
#    5.538    1.538    0.000    0.000    0.000    0.000 
#    0.000    0.000    0.000    0.000    0.000    0.000 
#
# Total GULP energy -72552.068832 kJ/mol
# GULP energy per Si atom -5580.928372 kJ/mol
# Density = 2.145137 g / cm^3
# Si number density = 21.500308 Si / 1000 Ang^3
#
#
#
# Elastic Constant Matrix: (Units=GPa)
#
#
# Indices 1 2 3 4 5 6 
#
# 1 128.9645 9.9739 38.4137 0.0000 -15.9157 0.0000
# 2 9.9739 69.9333 18.6411 0.0000 -13.3985 0.0000
# 3 38.4137 18.6411 126.7961 0.0000 -24.0661 0.0000
# 4 0.0000 0.0000 0.0000 13.6609 0.0000 -15.7231
# 5 -15.9157 -13.3985 -24.0661 0.0000 21.9576 0.0000
# 6 0.0000 0.0000 0.0000 -15.7231 0.0000 28.8694
#
#
#
# Elastic Compliance Matrix: (Units=1/GPa)
#
#
# Indices 1 2 3 4 5 6 
#
# 1 0.008846 0.000081 -0.001850 0.000000 0.004433 0.000000
# 2 0.000081 0.016234 -0.000656 0.000000 0.009245 0.000000
# 3 -0.001850 -0.000656 0.010371 0.000000 0.009625 0.000000
# 4 0.000000 0.000000 0.000000 0.196167 0.000000 0.106838
# 5 0.004433 0.009245 0.009625 0.000000 0.064946 0.000000
# 6 0.000000 0.000000 0.000000 0.106838 0.000000 0.092826
#
#
# Mechanical properties :
#
#
# Convention : Reuss Voigt Hill
#
# Bulk Modulus (GPa) = 32.68089 51.08347 41.88218
# Shear Modulus (GPa) = 12.36275 30.14194 21.25235
#
# Velocity S-wave (km/s) = 2.40052 3.74830 3.14740
# Velocity P-wave (km/s) = 4.78712 6.52257 5.72104
#
# Compressibility (1/GPa) = 0.03059892
#
# Stress axis : x y z
#
# Youngs Moduli (GPa) = 113.04413 61.59887 96.42692
#
# Poissons Ratio (x) = -0.00499 0.17843
# Poissons Ratio (y) = -0.00916 0.06330
# Poissons Ratio (z) = 0.20918 0.04044
#
# Static dielectric constant tensor:
#      x y z
#    x 1.822070 0.000000 -0.025490 
#    y 0.000000 1.821760 0.000000 
#    z -0.025490 0.000000 1.840240 
# 
# From -- ./inp_files/43147.got.cif
#   From: 2010.05.17/outbox.cif.g08.bks.cpg/sg5_22_cif.got.tgz:43147.got - 2010.06.03 18:56:24.
