data_PCOD9126901
_publ_section_title
;
Structure prediction by ZEFSAII (Michael W. Deem and Ramdas Pophale) SiO2 
 PCOD9126901
Probable space group: C 2
;
_chemical_formula_sum "Si O2"
_cell_formula_units_Z 30
_cell_length_a 32.880972
_cell_length_b 8.996494
_cell_length_c 5.173130
_cell_angle_alpha 90.000000
_cell_angle_beta 124.295357
_cell_angle_gamma 90.000000
_cell_volume 1264.232833
_symmetry_space_group_name_H-M "C 2"
_symmetry_group_IT_number 5
_symmetry_cell_setting 'monoclinic'
loop_
_space_group_symop_operation_xyz
x,y,z
-x,y,-z
1/2+x,1/2+y,z
1/2-x,1/2+y,-z
loop_
_atom_site_type_symbol
_atom_site_label
_atom_site_fract_x
_atom_site_fract_y
_atom_site_fract_z
Si Si1 0.127559 0.329290 0.114902
Si Si2 0.205590 0.119573 0.321291
Si Si3 0.725070 0.337340 0.665299
Si Si4 0.968708 0.810446 0.147979
Si Si5 0.000000 0.095993 0.500000
Si Si6 0.630745 0.178571 0.085242
Si Si7 0.582704 0.693365 0.438486
Si Si8 0.855979 0.917018 0.233967
O O1 0.178084 0.247098 0.386050
O O2 0.133487 0.504036 0.114896
O O3 0.087943 0.280021 0.188485
O O4 0.113175 0.276991 0.774585
O O5 0.231816 0.216211 0.192428
O O6 0.238810 0.996055 0.582732
O O7 0.160562 0.017095 0.067536
O O8 0.681781 0.248541 0.361999
O O9 0.696331 0.384691 0.818519
O O10 0.000000 0.740246 0.500000
O O11 0.916603 0.733836 0.927585
O O12 0.962704 0.980004 0.228311
O O13 0.000000 0.809943 0.000000
O O14 0.029507 0.178859 0.382593
O O15 0.622682 0.260126 0.780509
O O16 0.606445 0.527710 0.489746
#
# Coordination Sequence:
#
# PCOD9126901 Si02
#       8
#     4   4   4   4   2   4   4   4
#     4  11  26  45  67  99 148 179 231 286 363 415
#     4  10  23  41  62 101 130 187 229 293 342 428
#     4  11  23  41  71  93 140 177 244 284 354 420
#     4  10  24  40  71 100 134 176 235 288 345 426
#     4  10  24  40  78  96 134 176 244 282 350 430
#     4  11  25  44  68 102 134 186 230 298 357 424
#     4  11  24  45  70  99 136 187 230 292 349 427
#     4  10  22  42  69  95 136 184 238 286 356 420
#
# _framework density 23.729804999999999
#
# number of rings (size 3 to 8) (size 9 to 14) (size 15 to 20)
#    0.400    1.067    2.667    0.800    7.467    3.200 
#    6.000    0.000    0.000    0.000    0.000    0.000 
#    0.000    0.000    0.000    0.000    0.000    0.000 
#
# Total GULP energy -83707.800565 kJ/mol
# GULP energy per Si atom -5580.520038 kJ/mol
# Density = 2.367580 g / cm^3
# Si number density = 23.729805 Si / 1000 Ang^3
#
#
#
# Elastic Constant Matrix: (Units=GPa)
#
#
# Indices 1 2 3 4 5 6 
#
# 1 119.9035 52.9607 11.8719 0.0000 -15.5180 0.0000
# 2 52.9607 188.0131 23.2519 0.0000 -8.0008 0.0000
# 3 11.8719 23.2519 65.5721 0.0000 -10.9096 0.0000
# 4 0.0000 0.0000 0.0000 11.0437 0.0000 -4.4157
# 5 -15.5180 -8.0008 -10.9096 0.0000 36.7056 0.0000
# 6 0.0000 0.0000 0.0000 -4.4157 0.0000 29.2845
#
#
#
# Elastic Compliance Matrix: (Units=1/GPa)
#
#
# Indices 1 2 3 4 5 6 
#
# 1 0.009990 -0.002627 -0.000284 0.000000 0.003567 0.000000
# 2 -0.002627 0.006269 -0.001793 0.000000 -0.000277 0.000000
# 3 -0.000284 -0.001793 0.016677 0.000000 0.004446 0.000000
# 4 0.000000 0.000000 0.000000 0.096359 0.000000 0.014530
# 5 0.003567 -0.000277 0.004446 0.000000 0.030013 0.000000
# 6 0.000000 0.000000 0.000000 0.014530 0.000000 0.036339
#
#
# Mechanical properties :
#
#
# Convention : Reuss Voigt Hill
#
# Bulk Modulus (GPa) = 42.50316 61.07309 51.78812
# Shear Modulus (GPa) = 23.48542 34.43370 28.95956
#
# Velocity S-wave (km/s) = 3.14936 3.81343 3.49719
# Velocity P-wave (km/s) = 5.58344 6.72179 6.17889
#
# Compressibility (1/GPa) = 0.02352766
#
# Stress axis : x y z
#
# Youngs Moduli (GPa) = 100.09865 159.51965 59.96139
#
# Poissons Ratio (x) = 0.41909 0.01701
# Poissons Ratio (y) = 0.26298 0.10753
# Poissons Ratio (z) = 0.02840 0.28608
#
# Static dielectric constant tensor:
#      x y z
#    x 2.360870 0.000000 -0.140730 
#    y 0.000000 1.876920 0.000000 
#    z -0.140730 0.000000 2.074420 
# 
# From -- ./inp_files/11266.got.cif
#   From: 2010.05.17/outbox.cif.g08.bks.cpg/sg5_6_cif.got.tgz:11266.got - 2010.06.03 18:56:24.
