data_PCOD9126243
_publ_section_title
;
Structure prediction by ZEFSAII (Michael W. Deem and Ramdas Pophale) SiO2 
 PCOD9126243
Probable space group: C 2
;
_chemical_formula_sum "Si O2"
_cell_formula_units_Z 32
_cell_length_a 10.906126
_cell_length_b 8.373421
_cell_length_c 27.042411
_cell_angle_alpha 90.000000
_cell_angle_beta 33.285849
_cell_angle_gamma 90.000000
_cell_volume 1355.332667
_symmetry_space_group_name_H-M "C 2"
_symmetry_group_IT_number 5
_symmetry_cell_setting 'monoclinic'
loop_
_space_group_symop_operation_xyz
x,y,z
-x,y,-z
1/2+x,1/2+y,z
1/2-x,1/2+y,-z
loop_
_atom_site_type_symbol
_atom_site_label
_atom_site_fract_x
_atom_site_fract_y
_atom_site_fract_z
Si Si1 0.696585 0.020890 0.292496
Si Si2 0.415798 0.182455 0.094627
Si Si3 0.125043 0.221295 0.111631
Si Si4 0.725123 0.834919 0.842986
Si Si5 0.648929 0.814109 0.631819
Si Si6 0.439220 0.202797 0.203524
Si Si7 0.561458 0.287054 0.559937
Si Si8 0.047499 0.985193 0.317089
O O1 0.542406 0.125258 0.381312
O O2 0.911750 0.118645 0.201513
O O3 0.527515 0.956016 0.307627
O O4 0.799652 0.850163 0.274413
O O5 0.251079 0.295602 0.117460
O O6 0.449354 0.229191 0.140530
O O7 0.288717 0.013950 0.132034
O O8 0.656567 0.152448 0.989226
O O9 0.010719 0.315757 0.104970
O O10 0.820268 0.714397 0.851567
O O11 0.899855 0.846274 0.738993
O O12 0.856960 0.849990 0.595751
O O13 0.546381 0.640924 0.678799
O O14 0.734097 0.782757 0.546812
O O15 0.285264 0.045579 0.259470
O O16 0.604026 0.410913 0.589578
#
# Coordination Sequence:
#
# PCOD9126243 Si02
#       8
#     4   4   4   4   4   4   4   4
#     4  11  22  40  67  94 123 176 212 261 325 391
#     4  10  25  45  60  95 136 170 216 277 315 385
#     4  11  24  41  67  93 128 174 218 263 326 379
#     4  11  22  42  65  94 124 176 213 270 320 380
#     4  10  24  40  64  93 128 167 217 262 331 383
#     4  10  23  41  68  93 131 172 218 266 322 383
#     4  11  22  41  64  93 129 169 208 275 321 387
#     4  10  22  39  61  94 130 160 218 265 317 387
#
# _framework density 23.610441999999999
#
# number of rings (size 3 to 8) (size 9 to 14) (size 15 to 20)
#    0.000    1.500    2.500    1.500    7.000    0.500 
#    2.250    0.000    0.000    6.000    0.000    0.000 
#    0.000    0.000    0.000    0.000    0.000    0.000 
#
# Total GULP energy -89176.117279 kJ/mol
# GULP energy per Si atom -5573.507330 kJ/mol
# Density = 2.355670 g / cm^3
# Si number density = 23.610442 Si / 1000 Ang^3
#
#
#
# Elastic Constant Matrix: (Units=GPa)
#
#
# Indices 1 2 3 4 5 6 
#
# 1 107.4613 28.2018 17.2888 0.0000 -4.9048 0.0002
# 2 28.2018 51.3301 16.0069 0.0001 -0.9238 0.0002
# 3 17.2888 16.0069 98.6360 0.0008 3.1045 -0.0002
# 4 0.0000 0.0001 0.0008 22.8201 -0.0003 -1.4786
# 5 -4.9048 -0.9238 3.1045 -0.0003 34.7735 0.0000
# 6 0.0002 0.0002 -0.0002 -1.4786 0.0000 22.8071
#
#
#
# Elastic Compliance Matrix: (Units=1/GPa)
#
#
# Indices 1 2 3 4 5 6 
#
# 1 0.011043 -0.005711 -0.001056 0.000000 0.001500 0.000000
# 2 -0.005711 0.023498 -0.002815 0.000000 0.000070 0.000000
# 3 -0.001056 -0.002815 0.010818 0.000000 -0.001189 0.000000
# 4 0.000000 0.000000 0.000000 0.044006 0.000000 0.002853
# 5 0.001500 0.000070 -0.001189 0.000000 0.029077 0.000000
# 6 0.000000 0.000000 0.000000 0.002853 0.000000 0.044031
#
#
# Mechanical properties :
#
#
# Convention : Reuss Voigt Hill
#
# Bulk Modulus (GPa) = 38.17398 42.26917 40.22158
# Shear Modulus (GPa) = 26.26496 29.14211 27.70353
#
# Velocity S-wave (km/s) = 3.33893 3.51706 3.42915
# Velocity P-wave (km/s) = 5.57386 5.86809 5.72287
#
# Compressibility (1/GPa) = 0.02619585
#
# Stress axis : x y z
#
# Youngs Moduli (GPa) = 90.55694 42.55613 92.44215
#
# Poissons Ratio (x) = 0.24303 0.09762
# Poissons Ratio (y) = 0.51716 0.26019
# Poissons Ratio (z) = 0.09563 0.11978
#
# Static dielectric constant tensor:
#      x y z
#    x 2.011020 0.000000 0.017670 
#    y 0.000000 1.908500 0.000000 
#    z 0.017670 0.000000 1.896140 
# 
# From -- ./inp_files/71738.got.cif
#   From: 2010.05.17/outbox.cif.g08.bks.cpg/sg5_36_cif.got.tgz:71738.got - 2010.06.03 18:56:24.
