data_PCOD9126699
_publ_section_title
;
Structure prediction by ZEFSAII (Michael W. Deem and Ramdas Pophale) SiO2 
 PCOD9126699
Probable space group: C 2
;
_chemical_formula_sum "Si O2"
_cell_formula_units_Z 26
_cell_length_a 8.586176
_cell_length_b 19.479340
_cell_length_c 9.291632
_cell_angle_alpha 90.000000
_cell_angle_beta 48.603965
_cell_angle_gamma 90.000000
_cell_volume 1165.784011
_symmetry_space_group_name_H-M "C 2"
_symmetry_group_IT_number 5
_symmetry_cell_setting 'monoclinic'
loop_
_space_group_symop_operation_xyz
x,y,z
-x,y,-z
1/2+x,1/2+y,z
1/2-x,1/2+y,-z
loop_
_atom_site_type_symbol
_atom_site_label
_atom_site_fract_x
_atom_site_fract_y
_atom_site_fract_z
Si Si1 0.123046 0.142150 0.774736
Si Si2 0.364915 0.761207 0.802994
Si Si3 0.463473 0.298411 0.224163
Si Si4 0.000000 0.738149 0.500000
Si Si5 0.392740 0.521849 0.416059
Si Si6 0.308356 0.428177 0.899298
Si Si7 0.392475 0.901099 0.284345
O O1 0.321130 0.190802 0.675603
O O2 0.203201 0.079892 0.625638
O O3 0.975034 0.189641 0.765160
O O4 0.000000 0.127044 0.000000
O O5 0.234972 0.769007 0.736345
O O6 0.522708 0.825885 0.720910
O O7 0.180672 0.767490 0.034022
O O8 0.433551 0.285901 0.409454
O O9 0.509416 0.377762 0.161131
O O10 0.500000 0.545199 0.500000
O O11 0.588977 0.498811 0.201967
O O12 0.249993 0.454602 0.538652
O O13 0.220644 0.396042 0.802405
O O14 0.114715 0.437047 0.120904
#
# Coordination Sequence:
#
# PCOD9126699 Si02
#       7
#     4   4   4   2   4   4   4
#     4  12  27  48  67  98 145 195 229 292 352 409
#     4  10  22  44  72 103 140 179 233 297 350 403
#     4  10  22  41  71 110 135 177 234 289 352 419
#     4  12  26  42  70 100 140 186 234 282 352 422
#     4  10  24  44  69  99 133 186 240 277 343 420
#     4   9  19  39  68  99 138 176 219 291 350 407
#     4   9  19  40  71 100 134 180 232 281 350 411
#
# _framework density 22.302586000000002
#
# number of rings (size 3 to 8) (size 9 to 14) (size 15 to 20)
#    0.000    1.846    1.538    0.923    9.692    1.231 
#    8.308    1.538    0.000    0.000    0.000    0.000 
#    0.000    0.000    0.000    0.000    0.000    0.000 
#
# Total GULP energy -72513.793279 kJ/mol
# GULP energy per Si atom -5577.984098 kJ/mol
# Density = 2.225182 g / cm^3
# Si number density = 22.302586 Si / 1000 Ang^3
#
#
#
# Elastic Constant Matrix: (Units=GPa)
#
#
# Indices 1 2 3 4 5 6 
#
# 1 86.5432 28.1269 36.2170 0.0000 4.4166 0.0000
# 2 28.1269 42.1532 13.9107 0.0000 4.3347 0.0000
# 3 36.2170 13.9107 105.7593 0.0000 -1.0254 0.0000
# 4 0.0000 0.0000 0.0000 29.6690 0.0000 4.6871
# 5 4.4166 4.3347 -1.0254 0.0000 34.8011 0.0000
# 6 0.0000 0.0000 0.0000 4.6871 0.0000 14.3127
#
#
#
# Elastic Compliance Matrix: (Units=1/GPa)
#
#
# Indices 1 2 3 4 5 6 
#
# 1 0.016538 -0.009466 -0.004429 0.000000 -0.001050 0.000000
# 2 -0.009466 0.030575 -0.000806 0.000000 -0.002631 0.000000
# 3 -0.004429 -0.000806 0.011088 0.000000 0.000989 0.000000
# 4 0.000000 0.000000 0.000000 0.035544 0.000000 -0.011640
# 5 -0.001050 -0.002631 0.000989 0.000000 0.029225 0.000000
# 6 0.000000 0.000000 0.000000 -0.011640 0.000000 0.073680
#
#
# Mechanical properties :
#
#
# Convention : Reuss Voigt Hill
#
# Bulk Modulus (GPa) = 34.72069 43.44053 39.08061
# Shear Modulus (GPa) = 21.21789 26.16996 23.69393
#
# Velocity S-wave (km/s) = 3.08777 3.42922 3.26296
# Velocity P-wave (km/s) = 5.32111 5.93291 5.63532
#
# Compressibility (1/GPa) = 0.02880127
#
# Stress axis : x y z
#
# Youngs Moduli (GPa) = 60.46600 32.70598 90.19119
#
# Poissons Ratio (x) = 0.30959 0.39942
# Poissons Ratio (y) = 0.57235 0.07266
# Poissons Ratio (z) = 0.26778 0.02635
#
# Static dielectric constant tensor:
#      x y z
#    x 1.843270 0.000000 0.014660 
#    y 0.000000 1.796900 0.000000 
#    z 0.014660 0.000000 1.853800 
# 
# From -- ./inp_files/17013.got.cif
#   From: 2010.05.17/outbox.cif.g08.bks.cpg/sg5_9_cif.got.tgz:17013.got - 2010.06.03 18:56:24.
