data_PCOD9126909
_publ_section_title
;
Structure prediction by ZEFSAII (Michael W. Deem and Ramdas Pophale) SiO2 
 PCOD9126909
Probable space group: C 2
;
_chemical_formula_sum "Si O2"
_cell_formula_units_Z 26
_cell_length_a 9.192893
_cell_length_b 20.915238
_cell_length_c 8.415566
_cell_angle_alpha 90.000000
_cell_angle_beta 135.053082
_cell_angle_gamma 90.000000
_cell_volume 1143.090515
_symmetry_space_group_name_H-M "C 2"
_symmetry_group_IT_number 5
_symmetry_cell_setting 'monoclinic'
loop_
_space_group_symop_operation_xyz
x,y,z
-x,y,-z
1/2+x,1/2+y,z
1/2-x,1/2+y,-z
loop_
_atom_site_type_symbol
_atom_site_label
_atom_site_fract_x
_atom_site_fract_y
_atom_site_fract_z
Si Si1 0.901269 0.945760 0.647855
Si Si2 0.000000 0.260736 0.500000
Si Si3 0.736378 0.604118 0.171196
Si Si4 0.241227 0.511771 0.214418
Si Si5 0.567451 0.303983 0.242679
Si Si6 0.500000 0.211892 0.500000
Si Si7 0.000000 0.496461 0.500000
Si Si8 0.264873 0.152346 0.843796
O O1 0.801289 0.963687 0.401124
O O2 0.985766 0.874996 0.739521
O O3 0.704091 0.958476 0.607629
O O4 0.100167 0.992604 0.803240
O O5 0.816546 0.299954 0.435204
O O6 0.882634 0.211221 0.296987
O O7 0.902671 0.547185 0.301611
O O8 0.807870 0.661217 0.346734
O O9 0.500000 0.583644 0.000000
O O10 0.751033 0.634199 0.012685
O O11 0.275922 0.586631 0.284030
O O12 0.000000 0.505128 0.000000
O O13 0.501957 0.254201 0.336412
O O14 0.500000 0.300235 0.000000
O O15 0.500000 0.170718 0.000000
#
# Coordination Sequence:
#
# PCOD9126909 Si02
#       8
#     4   2   4   4   4   2   2   4
#     4  11  24  43  64  95 134 179 233 280 330 401
#     4  12  23  42  68  96 133 176 226 278 338 406
#     4  11  23  39  66 100 135 174 215 276 346 409
#     4  10  22  42  70 100 133 176 222 278 346 410
#     4  12  28  47  68  96 134 184 235 284 335 397
#     4  11  24  46  68  98 138 175 232 284 334 405
#     4  11  23  40  64  98 135 169 216 280 346 409
#     4  11  22  39  66 100 133 169 218 276 342 409
#
# _framework density 22.745356000000001
#
# number of rings (size 3 to 8) (size 9 to 14) (size 15 to 20)
#    0.000    0.923    0.000    8.308    0.000    8.000 
#    0.000    3.077    0.000    0.000    0.000    0.000 
#    0.000    0.000    0.000    0.000    0.000    0.000 
#
# Total GULP energy -72460.771265 kJ/mol
# GULP energy per Si atom -5573.905482 kJ/mol
# Density = 2.269359 g / cm^3
# Si number density = 22.745356 Si / 1000 Ang^3
#
#
#
# Elastic Constant Matrix: (Units=GPa)
#
#
# Indices 1 2 3 4 5 6 
#
# 1 94.7168 9.5806 24.0033 0.0000 18.9959 0.0000
# 2 9.5806 106.1074 17.4238 0.0000 -5.5877 0.0000
# 3 24.0033 17.4238 102.0289 0.0000 11.2540 0.0000
# 4 0.0000 0.0000 0.0000 44.7463 0.0000 12.5913
# 5 18.9959 -5.5877 11.2540 0.0000 53.9151 0.0000
# 6 0.0000 0.0000 0.0000 12.5913 0.0000 40.7368
#
#
#
# Elastic Compliance Matrix: (Units=1/GPa)
#
#
# Indices 1 2 3 4 5 6 
#
# 1 0.011991 -0.000918 -0.002239 0.000000 -0.003852 0.000000
# 2 -0.000918 0.009868 -0.001656 0.000000 0.001692 0.000000
# 3 -0.002239 -0.001656 0.010791 0.000000 -0.001635 0.000000
# 4 0.000000 0.000000 0.000000 0.024477 0.000000 -0.007566
# 5 -0.003852 0.001692 -0.001635 0.000000 0.020422 0.000000
# 6 0.000000 0.000000 0.000000 -0.007566 0.000000 0.026886
#
#
# Mechanical properties :
#
#
# Convention : Reuss Voigt Hill
#
# Bulk Modulus (GPa) = 43.43274 44.98537 44.20905
# Shear Modulus (GPa) = 41.07253 44.66933 42.87093
#
# Velocity S-wave (km/s) = 4.25403 4.43639 4.34616
# Velocity P-wave (km/s) = 6.57766 6.78696 6.68313
#
# Compressibility (1/GPa) = 0.02302411
#
# Stress axis : x y z
#
# Youngs Moduli (GPa) = 83.39781 101.33465 92.66896
#
# Poissons Ratio (x) = 0.09301 0.20751
# Poissons Ratio (y) = 0.07654 0.15345
# Poissons Ratio (z) = 0.18675 0.16780
#
# Static dielectric constant tensor:
#      x y z
#    x 1.906740 0.000000 -0.009080 
#    y 0.000000 1.903410 0.000000 
#    z -0.009080 0.000000 1.917960 
# 
# From -- ./inp_files/17101.got.cif
#   From: 2010.05.17/outbox.cif.g08.bks.cpg/sg5_9_cif.got.tgz:17101.got - 2010.06.03 18:56:24.
