data_PCOD9126023
_publ_section_title
;
Structure prediction by ZEFSAII (Michael W. Deem and Ramdas Pophale) SiO2 
 PCOD9126023
Probable space group: C 2
;
_chemical_formula_sum "Si O2"
_cell_formula_units_Z 28
_cell_length_a 5.515463
_cell_length_b 13.784064
_cell_length_c 15.997537
_cell_angle_alpha 90.000000
_cell_angle_beta 97.180704
_cell_angle_gamma 90.000000
_cell_volume 1206.681673
_symmetry_space_group_name_H-M "C 2"
_symmetry_group_IT_number 5
_symmetry_cell_setting 'monoclinic'
loop_
_space_group_symop_operation_xyz
x,y,z
-x,y,-z
1/2+x,1/2+y,z
1/2-x,1/2+y,-z
loop_
_atom_site_type_symbol
_atom_site_label
_atom_site_fract_x
_atom_site_fract_y
_atom_site_fract_z
Si Si1 0.810055 0.454760 0.389508
Si Si2 0.730777 0.241894 0.446664
Si Si3 0.500000 0.177204 0.000000
Si Si4 0.960236 0.007599 0.776047
Si Si5 0.693933 0.535007 0.617628
Si Si6 0.946455 0.803781 0.829429
Si Si7 0.000000 0.179973 0.000000
Si Si8 0.061543 0.231146 0.183246
O O1 0.726526 0.345198 0.400597
O O2 0.775628 0.485804 0.291486
O O3 0.591998 0.519746 0.421087
O O4 0.096270 0.472226 0.419078
O O5 0.500000 0.237455 0.500000
O O6 0.725938 0.145808 0.389928
O O7 0.000000 0.239285 0.500000
O O8 0.529041 0.243041 0.083753
O O9 0.751689 0.120726 0.000328
O O10 0.978122 0.918831 0.840005
O O11 0.947374 0.115373 0.809271
O O12 0.172022 0.005878 0.714448
O O13 0.675752 0.777604 0.785057
O O14 0.172115 0.769516 0.780939
O O15 0.967974 0.247444 0.917587
#
# Coordination Sequence:
#
# PCOD9126023 Si02
#       8
#     4   4   2   4   4   4   2   4
#     4  10  25  43  63  91 127 153 197 248 298 358
#     4  12  26  44  70  94 116 162 202 240 306 358
#     4   8  16  35  54  83 116 160 202 255 294 339
#     4  10  26  37  65  92 122 166 198 242 314 350
#     4  10  25  43  63  91 127 153 197 248 298 358
#     4  10  22  37  61  86 124 161 208 251 299 353
#     4   8  16  35  54  83 116 160 202 255 294 339
#     4  10  22  37  61  86 124 161 208 251 299 353
#
# _framework density 23.204128999999998
#
# number of rings (size 3 to 8) (size 9 to 14) (size 15 to 20)
#    0.857    1.143    0.000    1.714    6.000    4.000 
#    0.000    0.000    0.000   10.286    0.000    0.000 
#    0.000    0.000    0.000    0.000    0.000    0.000 
#
# Total GULP energy -78025.960089 kJ/mol
# GULP energy per Si atom -5573.282864 kJ/mol
# Density = 2.315132 g / cm^3
# Si number density = 23.204129 Si / 1000 Ang^3
#
#
#
# Elastic Constant Matrix: (Units=GPa)
#
#
# Indices 1 2 3 4 5 6 
#
# 1 236.7475 43.8445 15.0750 0.0000 -24.4281 0.0000
# 2 43.8445 148.3379 7.0107 0.0000 -15.0419 0.0000
# 3 15.0750 7.0107 44.2004 0.0000 -6.2079 0.0000
# 4 0.0000 0.0000 0.0000 12.8825 0.0000 -1.6649
# 5 -24.4281 -15.0419 -6.2079 0.0000 15.1172 0.0000
# 6 0.0000 0.0000 0.0000 -1.6649 0.0000 23.4611
#
#
#
# Elastic Compliance Matrix: (Units=1/GPa)
#
#
# Indices 1 2 3 4 5 6 
#
# 1 0.005159 -0.000752 -0.000610 0.000000 0.007338 0.000000
# 2 -0.000752 0.007608 -0.000061 0.000000 0.006330 0.000000
# 3 -0.000610 -0.000061 0.024084 0.000000 0.008844 0.000000
# 4 0.000000 0.000000 0.000000 0.078343 0.000000 0.005560
# 5 0.007338 0.006330 0.008844 0.000000 0.087939 0.000000
# 6 0.000000 0.000000 0.000000 0.005560 0.000000 0.043018
#
#
# Mechanical properties :
#
#
# Convention : Reuss Voigt Hill
#
# Bulk Modulus (GPa) = 29.40669 62.34956 45.87813
# Shear Modulus (GPa) = 19.20620 34.51586 26.86103
#
# Velocity S-wave (km/s) = 2.88011 3.86098 3.40604
# Velocity P-wave (km/s) = 4.87448 6.84139 5.93992
#
# Compressibility (1/GPa) = 0.03400587
#
# Stress axis : x y z
#
# Youngs Moduli (GPa) = 193.82985 131.43313 41.52131
#
# Poissons Ratio (x) = 0.09883 0.02531
# Poissons Ratio (y) = 0.14575 0.00254
# Poissons Ratio (z) = 0.11817 0.00805
#
# Static dielectric constant tensor:
#      x y z
#    x 2.005570 0.000000 0.038110 
#    y 0.000000 1.791610 0.000000 
#    z 0.038110 0.000000 1.947370 
# 
# From -- ./inp_files/58812.got.cif
#   From: 2010.05.17/outbox.cif.g08.bks.cpg/sg5_30_cif.got.tgz:58812.got - 2010.06.03 18:56:24.
