data_PCOD9126444
_publ_section_title
;
Structure prediction by ZEFSAII (Michael W. Deem and Ramdas Pophale) SiO2 
 PCOD9126444
Probable space group: C 2
;
_chemical_formula_sum "Si O2"
_cell_formula_units_Z 28
_cell_length_a 15.837498
_cell_length_b 14.457246
_cell_length_c 5.712390
_cell_angle_alpha 90.000000
_cell_angle_beta 100.175579
_cell_angle_gamma 90.000000
_cell_volume 1287.373847
_symmetry_space_group_name_H-M "C 2"
_symmetry_group_IT_number 5
_symmetry_cell_setting 'monoclinic'
loop_
_space_group_symop_operation_xyz
x,y,z
-x,y,-z
1/2+x,1/2+y,z
1/2-x,1/2+y,-z
loop_
_atom_site_type_symbol
_atom_site_label
_atom_site_fract_x
_atom_site_fract_y
_atom_site_fract_z
Si Si1 0.000000 0.421270 0.500000
Si Si2 0.311837 0.897060 0.257443
Si Si3 0.456089 0.497369 0.725562
Si Si4 0.745315 0.268946 0.868481
Si Si5 0.000000 0.526387 0.000000
Si Si6 0.639797 0.320976 0.434089
Si Si7 0.232310 0.079519 0.357750
Si Si8 0.842099 0.640282 0.802713
O O1 0.904033 0.377946 0.421717
O O2 0.006606 0.473301 0.251495
O O3 0.230196 0.855978 0.361939
O O4 0.287090 0.006196 0.228506
O O5 0.309245 0.844098 0.007048
O O6 0.500000 0.526049 0.500000
O O7 0.433739 0.389013 0.684852
O O8 0.363990 0.545671 0.686774
O O9 0.500000 0.514042 0.000000
O O10 0.663853 0.322290 0.719444
O O11 0.772792 0.189405 0.699838
O O12 0.715312 0.202074 0.059175
O O13 0.083232 0.589647 0.028778
O O14 0.618215 0.216092 0.355611
O O15 0.281466 0.072453 0.627874
#
# Coordination Sequence:
#
# PCOD9126444 Si02
#       8
#     2   4   4   4   2   4   4   4
#     4  12  26  42  66 104 136 180 232 276 342 404
#     4  10  22  42  68  98 138 182 226 283 343 410
#     4  11  27  43  68 102 135 183 233 285 341 406
#     4  10  22  41  74  97 130 187 230 275 349 407
#     4  12  26  40  66 106 138 174 230 282 346 406
#     4   9  23  41  65  97 135 178 226 282 351 407
#     4  10  22  45  68  97 138 181 231 280 350 410
#     4  10  22  40  66  98 135 180 225 286 344 414
#
# _framework density 21.749704000000001
#
# number of rings (size 3 to 8) (size 9 to 14) (size 15 to 20)
#    0.000    1.714    1.429    0.857   13.000    1.143 
#    0.000    4.286    0.000    0.000    0.000    0.000 
#    0.000    0.000    0.000    0.000    0.000    0.000 
#
# Total GULP energy -77991.834720 kJ/mol
# GULP energy per Si atom -5570.845337 kJ/mol
# Density = 2.170020 g / cm^3
# Si number density = 21.749704 Si / 1000 Ang^3
#
#
#
# Elastic Constant Matrix: (Units=GPa)
#
#
# Indices 1 2 3 4 5 6 
#
# 1 84.3712 14.2463 31.1324 0.0000 17.0393 0.0000
# 2 14.2463 40.4216 44.1253 0.0000 3.6136 0.0000
# 3 31.1324 44.1253 120.7742 0.0000 25.9592 0.0000
# 4 0.0000 0.0000 0.0000 38.8861 0.0000 7.4996
# 5 17.0393 3.6136 25.9592 0.0000 30.1172 0.0000
# 6 0.0000 0.0000 0.0000 7.4996 0.0000 8.2034
#
#
#
# Elastic Compliance Matrix: (Units=1/GPa)
#
#
# Indices 1 2 3 4 5 6 
#
# 1 0.014138 -0.003302 -0.000987 0.000000 -0.006752 0.000000
# 2 -0.003302 0.044447 -0.017973 0.000000 0.012027 0.000000
# 3 -0.000987 -0.017973 0.017818 0.000000 -0.012644 0.000000
# 4 0.000000 0.000000 0.000000 0.031221 0.000000 -0.028542
# 5 -0.006752 0.012027 -0.012644 0.000000 0.046479 0.000000
# 6 0.000000 0.000000 0.000000 -0.028542 0.000000 0.147995
#
#
# Mechanical properties :
#
#
# Convention : Reuss Voigt Hill
#
# Bulk Modulus (GPa) = 31.36733 47.17501 39.27117
# Shear Modulus (GPa) = 13.99589 25.84552 19.92070
#
# Velocity S-wave (km/s) = 2.53948 3.45094 3.02968
# Velocity P-wave (km/s) = 4.80124 6.13316 5.50761
#
# Compressibility (1/GPa) = 0.03188030
#
# Stress axis : x y z
#
# Youngs Moduli (GPa) = 70.73331 22.49847 56.12211
#
# Poissons Ratio (x) = 0.07429 0.05537
# Poissons Ratio (y) = 0.23357 1.00867
# Poissons Ratio (z) = 0.06979 0.40436
#
# Static dielectric constant tensor:
#      x y z
#    x 1.811970 0.000000 -0.068300 
#    y 0.000000 1.860150 0.000000 
#    z -0.068300 0.000000 1.900590 
# 
# From -- ./inp_files/8577.got.cif
#   From: 2010.05.17/outbox.cif.g08.bks.cpg/sg5_5_cif.got.tgz:8577.got - 2010.06.03 18:56:24.
