data_PCOD9126069
_publ_section_title
;
Structure prediction by ZEFSAII (Michael W. Deem and Ramdas Pophale) SiO2 
 PCOD9126069
Probable space group: C 2
;
_chemical_formula_sum "Si O2"
_cell_formula_units_Z 20
_cell_length_a 15.849579
_cell_length_b 10.371940
_cell_length_c 11.725583
_cell_angle_alpha 90.000000
_cell_angle_beta 149.862546
_cell_angle_gamma 90.000000
_cell_volume 967.791461
_symmetry_space_group_name_H-M "C 2"
_symmetry_group_IT_number 5
_symmetry_cell_setting 'monoclinic'
loop_
_space_group_symop_operation_xyz
x,y,z
-x,y,-z
1/2+x,1/2+y,z
1/2-x,1/2+y,-z
loop_
_atom_site_type_symbol
_atom_site_label
_atom_site_fract_x
_atom_site_fract_y
_atom_site_fract_z
Si Si1 0.445832 0.758450 0.652897
Si Si2 0.451821 0.023571 0.320239
Si Si3 0.346064 0.867892 0.892882
Si Si4 0.112013 0.995391 0.798803
Si Si5 0.632567 0.257713 0.441126
O O1 0.474533 0.880844 0.606537
O O2 0.500264 0.623413 0.662873
O O3 0.257663 0.760724 0.480951
O O4 0.567425 0.788103 0.903753
O O5 0.500000 0.074477 0.500000
O O6 0.538306 0.121895 0.334008
O O7 0.256582 0.017718 0.062080
O O8 0.247696 0.778985 0.688214
O O9 0.212898 0.960454 0.800634
O O10 0.500000 0.929642 0.000000
O O11 0.499791 0.373852 0.293893
#
# Coordination Sequence:
#
# PCOD9126069 Si02
#       5
#     4   4   4   4   4
#     4  10  22  38  59  89 118 146 190 242 287 335
#     4  11  22  38  58  83 115 154 191 234 286 338
#     4   9  20  38  63  88 113 151 195 232 284 352
#     4  11  21  37  60  88 117 151 192 241 285 337
#     4  11  21  39  62  84 113 156 195 231 283 350
#
# _framework density 20.665610000000001
#
# number of rings (size 3 to 8) (size 9 to 14) (size 15 to 20)
#    0.000    1.600    0.000    6.600    0.000    1.600 
#    0.000    3.000    0.000    0.000    0.000    0.000 
#    0.000    0.000    0.000    0.000    0.000    0.000 
#
# Total GULP energy -55870.448897 kJ/mol
# GULP energy per Si atom -5587.044890 kJ/mol
# Density = 2.061857 g / cm^3
# Si number density = 20.665610 Si / 1000 Ang^3
#
#
#
# Elastic Constant Matrix: (Units=GPa)
#
#
# Indices 1 2 3 4 5 6 
#
# 1 110.3479 59.7927 23.7638 0.0000 44.2113 0.0000
# 2 59.7927 123.6875 7.8103 0.0000 44.9961 0.0000
# 3 23.7638 7.8103 60.7424 0.0000 25.0070 0.0000
# 4 0.0000 0.0000 0.0000 9.4627 0.0000 0.4874
# 5 44.2113 44.9961 25.0070 0.0000 40.4162 0.0000
# 6 0.0000 0.0000 0.0000 0.4874 0.0000 12.9392
#
#
#
# Elastic Compliance Matrix: (Units=1/GPa)
#
#
# Indices 1 2 3 4 5 6 
#
# 1 0.016542 -0.002295 0.000297 0.000000 -0.015723 0.000000
# 2 -0.002295 0.015767 0.006794 0.000000 -0.019247 0.000000
# 3 0.000297 0.006794 0.025120 0.000000 -0.023431 0.000000
# 4 0.000000 0.000000 0.000000 0.105884 0.000000 -0.003988
# 5 -0.015723 -0.019247 -0.023431 0.000000 0.077868 0.000000
# 6 0.000000 0.000000 0.000000 -0.003988 0.000000 0.077435
#
#
# Mechanical properties :
#
#
# Convention : Reuss Voigt Hill
#
# Bulk Modulus (GPa) = 14.92092 53.05684 33.98888
# Shear Modulus (GPa) = 15.08916 26.12436 20.60676
#
# Velocity S-wave (km/s) = 2.70507 3.55934 3.16120
# Velocity P-wave (km/s) = 4.12219 6.52852 5.45958
#
# Compressibility (1/GPa) = 0.06702000
#
# Stress axis : x y z
#
# Youngs Moduli (GPa) = 60.45378 63.42217 39.80933
#
# Poissons Ratio (x) = 0.14558 -0.01181
# Poissons Ratio (y) = 0.13877 -0.27048
# Poissons Ratio (z) = -0.01793 -0.43092
#
# Static dielectric constant tensor:
#      x y z
#    x 1.763240 0.000000 -0.007690 
#    y 0.000000 1.700690 0.000000 
#    z -0.007690 0.000000 1.758800 
# 
# From -- ./inp_files/18961.got.cif
#   From: 2010.05.17/outbox.cif.g08.bks.cpg/sg5_10_cif.got.tgz:18961.got - 2010.06.03 18:56:24.
