data_PCOD9126479
_publ_section_title
;
Structure prediction by ZEFSAII (Michael W. Deem and Ramdas Pophale) SiO2 
 PCOD9126479
Probable space group: C 2
;
_chemical_formula_sum "Si O2"
_cell_formula_units_Z 28
_cell_length_a 14.015833
_cell_length_b 16.610531
_cell_length_c 8.718294
_cell_angle_alpha 90.000000
_cell_angle_beta 41.721835
_cell_angle_gamma 90.000000
_cell_volume 1350.801977
_symmetry_space_group_name_H-M "C 2"
_symmetry_group_IT_number 5
_symmetry_cell_setting 'monoclinic'
loop_
_space_group_symop_operation_xyz
x,y,z
-x,y,-z
1/2+x,1/2+y,z
1/2-x,1/2+y,-z
loop_
_atom_site_type_symbol
_atom_site_label
_atom_site_fract_x
_atom_site_fract_y
_atom_site_fract_z
Si Si1 0.000000 0.053921 0.500000
Si Si2 0.037733 0.465877 0.276294
Si Si3 0.470176 0.136179 0.216074
Si Si4 0.000000 0.050506 0.000000
Si Si5 0.547326 0.305912 0.617586
Si Si6 0.614232 0.826035 0.722657
Si Si7 0.140547 0.153503 0.571395
Si Si8 0.860505 0.946285 0.934811
O O1 0.884562 0.112687 0.561570
O O2 0.929612 0.999206 0.714943
O O3 0.000000 0.473826 0.500000
O O4 0.037331 0.554274 0.200105
O O5 0.930368 0.406758 0.314105
O O6 0.198028 0.429694 0.082493
O O7 0.502983 0.217164 0.270288
O O8 0.299238 0.132987 0.434566
O O9 0.500000 0.146102 0.000000
O O10 0.875998 0.994671 0.075984
O O11 0.043394 0.107866 0.810239
O O12 0.500000 0.318589 0.500000
O O13 0.718481 0.322897 0.425807
O O14 0.459721 0.368350 0.826194
O O15 0.605443 0.747673 0.623460
O O16 0.500000 0.817712 0.000000
#
# Coordination Sequence:
#
# PCOD9126479 Si02
#       8
#     2   4   4   2   4   4   4   4
#     4  10  22  40  68  96 130 170 224 272 336 398
#     4  12  27  44  68 101 136 180 227 279 337 402
#     4  11  25  44  68  96 136 178 223 278 336 401
#     4  10  22  40  70  92 132 168 226 274 328 404
#     4  11  25  45  69  99 136 180 228 277 340 403
#     4  11  25  44  68  98 137 179 224 283 338 395
#     4  10  22  43  65  98 129 175 219 276 335 396
#     4  11  24  42  69  98 130 180 221 278 333 399
#
# _framework density 20.728428999999998
#
# number of rings (size 3 to 8) (size 9 to 14) (size 15 to 20)
#    0.000    1.143    1.429    3.429    8.000    2.286 
#    7.714    0.000    0.000    0.000    0.000    0.000 
#    0.000    0.000    0.000    0.000    0.000    0.000 
#
# Total GULP energy -78202.146596 kJ/mol
# GULP energy per Si atom -5585.867614 kJ/mol
# Density = 2.068125 g / cm^3
# Si number density = 20.728429 Si / 1000 Ang^3
#
#
#
# Elastic Constant Matrix: (Units=GPa)
#
#
# Indices 1 2 3 4 5 6 
#
# 1 69.5566 45.6838 3.5524 0.0001 -4.1973 0.0000
# 2 45.6838 113.8678 15.7936 0.0001 -11.4109 0.0000
# 3 3.5524 15.7936 46.5768 0.0001 -12.7770 0.0000
# 4 0.0001 0.0001 0.0001 13.6727 -0.0001 3.9078
# 5 -4.1973 -11.4109 -12.7770 -0.0001 30.5140 0.0000
# 6 0.0000 0.0000 0.0000 3.9078 0.0000 40.2083
#
#
#
# Elastic Compliance Matrix: (Units=1/GPa)
#
#
# Indices 1 2 3 4 5 6 
#
# 1 0.019589 -0.008014 0.001288 0.000000 0.000237 0.000000
# 2 -0.008014 0.012654 -0.003032 0.000000 0.002360 0.000000
# 3 0.001288 -0.003032 0.025010 0.000000 0.009516 0.000000
# 4 0.000000 0.000000 0.000000 0.075228 0.000000 -0.007311
# 5 0.000237 0.002360 0.009516 0.000000 0.037672 0.000000
# 6 0.000000 0.000000 0.000000 -0.007311 0.000000 0.025581
#
#
# Mechanical properties :
#
#
# Convention : Reuss Voigt Hill
#
# Bulk Modulus (GPa) = 26.49867 40.00677 33.25272
# Shear Modulus (GPa) = 21.94631 27.87710 24.91171
#
# Velocity S-wave (km/s) = 3.25738 3.67123 3.47048
# Velocity P-wave (km/s) = 5.19219 6.10843 5.66885
#
# Compressibility (1/GPa) = 0.03773774
#
# Stress axis : x y z
#
# Youngs Moduli (GPa) = 51.04972 79.02382 39.98370
#
# Poissons Ratio (x) = 0.63329 -0.05152
# Poissons Ratio (y) = 0.40911 0.12124
# Poissons Ratio (z) = -0.06577 0.23962
#
# Static dielectric constant tensor:
#      x y z
#    x 1.731450 0.000000 -0.011230 
#    y 0.000000 1.748990 0.000000 
#    z -0.011230 0.000000 1.719630 
# 
# From -- ./inp_files/25192.got.cif
#   From: 2010.05.17/outbox.cif.g08.bks.cpg/sg5_13_cif.got.tgz:25192.got - 2010.06.03 18:56:24.
