data_PCOD9126835
_publ_section_title
;
Structure prediction by ZEFSAII (Michael W. Deem and Ramdas Pophale) SiO2 
 PCOD9126835
Probable space group: C 2
;
_chemical_formula_sum "Si O2"
_cell_formula_units_Z 22
_cell_length_a 6.884559
_cell_length_b 13.185214
_cell_length_c 11.494178
_cell_angle_alpha 90.000000
_cell_angle_beta 89.743046
_cell_angle_gamma 90.000000
_cell_volume 1043.366432
_symmetry_space_group_name_H-M "C 2"
_symmetry_group_IT_number 5
_symmetry_cell_setting 'monoclinic'
loop_
_space_group_symop_operation_xyz
x,y,z
-x,y,-z
1/2+x,1/2+y,z
1/2-x,1/2+y,-z
loop_
_atom_site_type_symbol
_atom_site_label
_atom_site_fract_x
_atom_site_fract_y
_atom_site_fract_z
Si Si1 0.746098 0.973440 0.805469
Si Si2 0.783054 0.709664 0.955348
Si Si3 0.000000 0.023621 0.000000
Si Si4 0.500000 0.205420 0.500000
Si Si5 0.000000 0.388618 0.000000
Si Si6 0.116330 0.117948 0.392305
Si Si7 0.286753 0.771728 0.310449
O O1 0.687376 0.889867 0.711434
O O2 0.825422 0.066157 0.729421
O O3 0.563366 0.960707 0.893648
O O4 0.930194 0.956374 0.891754
O O5 0.763438 0.727940 0.817088
O O6 0.674781 0.603423 0.980062
O O7 0.673134 0.805809 0.016412
O O8 0.000000 0.705246 0.000000
O O9 0.323628 0.144117 0.445419
O O10 0.604660 0.263851 0.396150
O O11 0.000000 0.063503 0.500000
O O12 0.972658 0.211928 0.360634
#
# Coordination Sequence:
#
# PCOD9126835 Si02
#       7
#     4   4   2   2   2   4   4
#     4  11  24  44  68 102 142 180 229 288 343 432
#     4  10  22  42  67  94 142 194 224 282 361 412
#     4  11  24  40  64 107 138 178 240 281 348 429
#     4  10  24  44  72  94 124 186 232 292 356 400
#     4   9  24  40  60 105 138 180 230 287 336 427
#     4  10  23  49  68  99 137 176 240 292 352 409
#     4  10  23  43  67  97 140 182 228 297 343 412
#
# _framework density 21.085591999999998
#
# number of rings (size 3 to 8) (size 9 to 14) (size 15 to 20)
#    0.000    1.818    1.818    0.000   10.182    0.000 
#    4.909    0.000    0.000    0.000    0.000    0.000 
#    0.000    0.000    0.000    0.000    0.000    0.000 
#
# Total GULP energy -61243.130388 kJ/mol
# GULP energy per Si atom -5567.557308 kJ/mol
# Density = 2.103760 g / cm^3
# Si number density = 21.085592 Si / 1000 Ang^3
#
#
#
# Elastic Constant Matrix: (Units=GPa)
#
#
# Indices 1 2 3 4 5 6 
#
# 1 164.6659 40.1044 54.5936 0.0000 -8.7481 0.0000
# 2 40.1044 53.5171 12.2262 0.0000 -13.1446 0.0000
# 3 54.5936 12.2262 87.1359 0.0000 -5.3462 0.0000
# 4 0.0000 0.0000 0.0000 27.4599 0.0000 -10.3025
# 5 -8.7481 -13.1446 -5.3462 0.0000 50.9073 0.0000
# 6 0.0000 0.0000 0.0000 -10.3025 0.0000 30.8262
#
#
#
# Elastic Compliance Matrix: (Units=1/GPa)
#
#
# Indices 1 2 3 4 5 6 
#
# 1 0.009089 -0.005801 -0.004908 0.000000 -0.000451 0.000000
# 2 -0.005801 0.024209 0.000563 0.000000 0.005313 0.000000
# 3 -0.004908 0.000563 0.014523 0.000000 0.000827 0.000000
# 4 0.000000 0.000000 0.000000 0.041638 0.000000 0.013916
# 5 -0.000451 0.005313 0.000827 0.000000 0.021025 0.000000
# 6 0.000000 0.000000 0.000000 0.013916 0.000000 0.037091
#
#
# Mechanical properties :
#
#
# Convention : Reuss Voigt Hill
#
# Bulk Modulus (GPa) = 36.32393 57.68526 47.00460
# Shear Modulus (GPa) = 28.24190 35.06498 31.65344
#
# Velocity S-wave (km/s) = 3.66374 4.08239 3.87872
# Velocity P-wave (km/s) = 5.92973 7.04545 6.51153
#
# Compressibility (1/GPa) = 0.02753006
#
# Stress axis : x y z
#
# Youngs Moduli (GPa) = 110.02322 41.30743 68.85504
#
# Poissons Ratio (x) = 0.23961 0.33797
# Poissons Ratio (y) = 0.63820 -0.03880
# Poissons Ratio (z) = 0.54003 -0.02328
#
# Static dielectric constant tensor:
#      x y z
#    x 1.832610 0.000000 -0.067080 
#    y 0.000000 1.846160 0.000000 
#    z -0.067080 0.000000 1.819210 
# 
# From -- ./inp_files/33296.got.cif
#   From: 2010.05.17/outbox.cif.g08.bks.cpg/sg5_17_cif.got.tgz:33296.got - 2010.06.03 18:56:24.
