data_PCOD9126294
_publ_section_title
;
Structure prediction by ZEFSAII (Michael W. Deem and Ramdas Pophale) SiO2 
 PCOD9126294
Probable space group: C 2
;
_chemical_formula_sum "Si O2"
_cell_formula_units_Z 18
_cell_length_a 8.153447
_cell_length_b 6.392011
_cell_length_c 14.808537
_cell_angle_alpha 90.000000
_cell_angle_beta 112.004829
_cell_angle_gamma 90.000000
_cell_volume 715.553303
_symmetry_space_group_name_H-M "C 2"
_symmetry_group_IT_number 5
_symmetry_cell_setting 'monoclinic'
loop_
_space_group_symop_operation_xyz
x,y,z
-x,y,-z
1/2+x,1/2+y,z
1/2-x,1/2+y,-z
loop_
_atom_site_type_symbol
_atom_site_label
_atom_site_fract_x
_atom_site_fract_y
_atom_site_fract_z
Si Si1 0.000000 0.722580 0.500000
Si Si2 0.683533 0.268792 0.051161
Si Si3 0.255162 0.198855 0.136192
Si Si4 0.502962 0.850221 0.226594
Si Si5 0.590208 0.622063 0.426763
O O1 0.805404 0.617166 0.465526
O O2 0.986243 0.885383 0.582477
O O3 0.641119 0.488338 0.092227
O O4 0.851214 0.210426 0.146008
O O5 0.500000 0.148265 0.000000
O O6 0.742135 0.307726 0.960310
O O7 0.438146 0.089154 0.203699
O O8 0.173231 0.323488 0.200345
O O9 0.529652 0.764015 0.331423
O O10 0.500000 0.709772 0.500000
#
# Coordination Sequence:
#
# PCOD9126294 Si02
#       5
#     2   4   4   4   4
#     4  10  26  42  80  96 150 180 240 298 356 418
#     4  10  22  39  66  99 141 185 226 284 337 418
#     4  10  24  42  67  95 142 182 231 277 345 409
#     4  10  24  42  71 101 142 186 232 286 352 420
#     4  10  26  49  75 107 146 184 244 294 366 416
#
# _framework density 25.155360000000002
#
# number of rings (size 3 to 8) (size 9 to 14) (size 15 to 20)
#    2.000    0.000    0.000    2.000    7.778    1.778 
#    8.000    0.000    0.000    0.000    0.000    0.000 
#    0.000    0.000    0.000    0.000    0.000    0.000 
#
# Total GULP energy -50154.299114 kJ/mol
# GULP energy per Si atom -5572.699902 kJ/mol
# Density = 2.509810 g / cm^3
# Si number density = 25.155360 Si / 1000 Ang^3
#
#
#
# Elastic Constant Matrix: (Units=GPa)
#
#
# Indices 1 2 3 4 5 6 
#
# 1 191.9730 54.0956 73.0203 0.0000 -17.3151 0.0000
# 2 54.0956 48.0364 8.9850 0.0000 -0.2765 0.0000
# 3 73.0203 8.9850 135.5332 0.0000 -16.8070 0.0000
# 4 0.0000 0.0000 0.0000 11.0689 0.0000 10.8092
# 5 -17.3151 -0.2765 -16.8070 0.0000 35.9749 0.0000
# 6 0.0000 0.0000 0.0000 10.8092 0.0000 32.1054
#
#
#
# Elastic Compliance Matrix: (Units=1/GPa)
#
#
# Indices 1 2 3 4 5 6 
#
# 1 0.010098 -0.010532 -0.004405 0.000000 0.002721 0.000000
# 2 -0.010532 0.032073 0.003131 0.000000 -0.003360 0.000000
# 3 -0.004405 0.003131 0.009855 0.000000 0.002508 0.000000
# 4 0.000000 0.000000 0.000000 0.134595 0.000000 -0.045316
# 5 0.002721 -0.003360 0.002508 0.000000 0.030253 0.000000
# 6 0.000000 0.000000 0.000000 -0.045316 0.000000 0.046404
#
#
# Mechanical properties :
#
#
# Convention : Reuss Voigt Hill
#
# Bulk Modulus (GPa) = 35.19272 71.97159 53.58216
# Shear Modulus (GPa) = 16.87142 31.79262 24.33202
#
# Velocity S-wave (km/s) = 2.59258 3.55892 3.11347
# Velocity P-wave (km/s) = 4.79400 6.74988 5.85420
#
# Compressibility (1/GPa) = 0.02841497
#
# Stress axis : x y z
#
# Youngs Moduli (GPa) = 99.03351 31.17917 101.47426
#
# Poissons Ratio (x) = 0.32837 0.44695
# Poissons Ratio (y) = 1.04300 -0.31775
# Poissons Ratio (z) = 0.43620 -0.09763
#
# Static dielectric constant tensor:
#      x y z
#    x 2.050610 0.000000 0.060620 
#    y 0.000000 2.164670 0.000000 
#    z 0.060620 0.000000 1.947700 
# 
# From -- ./inp_files/49804.got.cif
#   From: 2010.05.17/outbox.cif.g08.bks.cpg/sg5_25_cif.got.tgz:49804.got - 2010.06.03 18:56:24.
