data_PCOD9126345
_publ_section_title
;
Structure prediction by ZEFSAII (Michael W. Deem and Ramdas Pophale) SiO2 
 PCOD9126345
Probable space group: C 2
;
_chemical_formula_sum "Si O2"
_cell_formula_units_Z 20
_cell_length_a 9.343295
_cell_length_b 24.685207
_cell_length_c 7.975766
_cell_angle_alpha 90.000000
_cell_angle_beta 32.977696
_cell_angle_gamma 90.000000
_cell_volume 1001.284655
_symmetry_space_group_name_H-M "C 2"
_symmetry_group_IT_number 5
_symmetry_cell_setting 'monoclinic'
loop_
_space_group_symop_operation_xyz
x,y,z
-x,y,-z
1/2+x,1/2+y,z
1/2-x,1/2+y,-z
loop_
_atom_site_type_symbol
_atom_site_label
_atom_site_fract_x
_atom_site_fract_y
_atom_site_fract_z
Si Si1 0.012580 0.298920 0.190350
Si Si2 0.500000 0.020095 0.000000
Si Si3 0.100029 0.626042 0.078314
Si Si4 0.607880 0.676217 0.705851
Si Si5 0.000000 0.944872 0.500000
Si Si6 0.514106 0.363162 0.793499
O O1 0.927854 0.237950 0.318343
O O2 0.802265 0.339772 0.474403
O O3 0.000000 0.303680 0.000000
O O4 0.300029 0.315673 0.971766
O O5 0.554395 0.061925 0.099505
O O6 0.251661 0.982731 0.277132
O O7 0.902196 0.653797 0.402899
O O8 0.000000 0.650017 0.000000
O O9 0.403545 0.638876 0.805993
O O10 0.500000 0.674994 0.000000
O O11 0.959182 0.907810 0.704678
O O12 0.500000 0.381937 0.000000
#
# Coordination Sequence:
#
# PCOD9126345 Si02
#       6
#     4   2   4   4   2   4
#     4  11  22  41  61  93 136 181 204 258 329 391
#     4  10  24  42  70  86 120 180 218 260 342 370
#     4  10  22  40  61  90 121 162 223 258 304 393
#     4  11  22  37  63  94 134 170 205 257 325 378
#     4  12  22  46  70  88 134 174 208 292 324 370
#     4  12  25  41  66  98 129 167 223 268 320 390
#
# _framework density 19.974340000000002
#
# number of rings (size 3 to 8) (size 9 to 14) (size 15 to 20)
#    0.600    0.400    2.000    5.400    0.000    8.000 
#    0.000    6.000    0.000    0.000    0.000    0.000 
#    0.000    0.000    0.000    0.000    0.000    0.000 
#
# Total GULP energy -55859.642636 kJ/mol
# GULP energy per Si atom -5585.964264 kJ/mol
# Density = 1.992888 g / cm^3
# Si number density = 19.974340 Si / 1000 Ang^3
#
#
#
# Elastic Constant Matrix: (Units=GPa)
#
#
# Indices 1 2 3 4 5 6 
#
# 1 81.6344 20.3488 3.5152 0.0000 10.8648 0.0000
# 2 20.3488 97.7263 17.2078 0.0000 13.2038 0.0000
# 3 3.5152 17.2078 79.1749 0.0000 2.4164 0.0000
# 4 0.0000 0.0000 0.0000 57.9461 0.0000 -20.2661
# 5 10.8648 13.2038 2.4164 0.0000 35.8233 0.0000
# 6 0.0000 0.0000 0.0000 -20.2661 0.0000 24.7301
#
#
#
# Elastic Compliance Matrix: (Units=1/GPa)
#
#
# Indices 1 2 3 4 5 6 
#
# 1 0.013252 -0.002335 0.000016 0.000000 -0.003159 0.000000
# 2 -0.002335 0.011586 -0.002310 0.000000 -0.003406 0.000000
# 3 0.000016 -0.002310 0.013133 0.000000 -0.000039 0.000000
# 4 0.000000 0.000000 0.000000 0.024191 0.000000 0.019824
# 5 -0.003159 -0.003406 -0.000039 0.000000 0.030131 0.000000
# 6 0.000000 0.000000 0.000000 0.019824 0.000000 0.056682
#
#
# Mechanical properties :
#
#
# Convention : Reuss Voigt Hill
#
# Bulk Modulus (GPa) = 34.83050 37.85326 36.34188
# Shear Modulus (GPa) = 29.79653 38.19748 33.99701
#
# Velocity S-wave (km/s) = 3.86650 4.37776 4.13005
# Velocity P-wave (km/s) = 6.11625 6.67421 6.40132
#
# Compressibility (1/GPa) = 0.02871047
#
# Stress axis : x y z
#
# Youngs Moduli (GPa) = 75.46241 86.31154 76.14456
#
# Poissons Ratio (x) = 0.20155 -0.00119
# Poissons Ratio (y) = 0.17622 0.17593
# Poissons Ratio (z) = -0.00118 0.19942
#
# Static dielectric constant tensor:
#      x y z
#    x 1.729420 0.000000 0.037200 
#    y 0.000000 1.685270 0.000000 
#    z 0.037200 0.000000 1.683570 
# 
# From -- ./inp_files/17368.got.cif
#   From: 2010.05.17/outbox.cif.g08.bks.cpg/sg5_9_cif.got.tgz:17368.got - 2010.06.03 18:56:24.
