data_PCOD9126947
_publ_section_title
;
Structure prediction by ZEFSAII (Michael W. Deem and Ramdas Pophale) SiO2 
 PCOD9126947
Probable space group: C 2
;
_chemical_formula_sum "Si O2"
_cell_formula_units_Z 28
_cell_length_a 8.319264
_cell_length_b 17.505764
_cell_length_c 13.545053
_cell_angle_alpha 90.000000
_cell_angle_beta 140.843210
_cell_angle_gamma 90.000000
_cell_volume 1245.609759
_symmetry_space_group_name_H-M "C 2"
_symmetry_group_IT_number 5
_symmetry_cell_setting 'monoclinic'
loop_
_space_group_symop_operation_xyz
x,y,z
-x,y,-z
1/2+x,1/2+y,z
1/2-x,1/2+y,-z
loop_
_atom_site_type_symbol
_atom_site_label
_atom_site_fract_x
_atom_site_fract_y
_atom_site_fract_z
Si Si1 0.765627 0.672990 0.178074
Si Si2 0.097465 0.225500 0.307147
Si Si3 0.450501 0.877424 0.146036
Si Si4 0.075258 0.527605 0.311681
Si Si5 0.605303 0.412598 0.802955
Si Si6 0.978930 0.065228 0.332546
Si Si7 0.278646 0.279545 0.594906
O O1 0.739281 0.689535 0.281306
O O2 0.841350 0.585620 0.197603
O O3 0.000929 0.725624 0.255997
O O4 0.500000 0.692957 0.000000
O O5 0.965184 0.152328 0.292897
O O6 0.266136 0.265525 0.471770
O O7 0.931410 0.294148 0.183948
O O8 0.694402 0.883938 0.186908
O O9 0.492244 0.941260 0.249957
O O10 0.216468 0.894638 0.962804
O O11 0.267291 0.549366 0.314426
O O12 0.245533 0.545136 0.489147
O O13 0.572492 0.502947 0.775977
O O14 0.353046 0.365101 0.659414
O O15 0.000000 0.258936 0.500000
#
# Coordination Sequence:
#
# PCOD9126947 Si02
#       7
#     4   4   4   4   4   4   4
#     4  12  26  44  72 107 148 186 238 304 368 435
#     4  12  24  43  73 106 136 190 243 302 361 434
#     4  10  22  43  72 102 141 194 238 290 366 440
#     4  10  22  44  69 101 144 188 241 293 361 440
#     4  10  22  44  69 101 144 191 239 292 361 439
#     4  10  22  42  72 103 140 187 245 300 357 433
#     4  12  25  46  72 106 146 188 247 305 359 438
#
# _framework density 22.478950999999999
#
# number of rings (size 3 to 8) (size 9 to 14) (size 15 to 20)
#    0.000    1.143    2.857    3.000    2.000    1.143 
#    5.143    5.714    0.000    0.000    0.000    0.000 
#    0.000    0.000    0.000    0.000    0.000    0.000 
#
# Total GULP energy -78315.663737 kJ/mol
# GULP energy per Si atom -5593.975981 kJ/mol
# Density = 2.242779 g / cm^3
# Si number density = 22.478951 Si / 1000 Ang^3
#
#
#
# Elastic Constant Matrix: (Units=GPa)
#
#
# Indices 1 2 3 4 5 6 
#
# 1 34.6056 16.5087 37.4741 -0.0036 4.6911 -0.0014
# 2 16.5087 181.4328 56.0990 0.0000 -15.6903 -0.0002
# 3 37.4741 56.0990 133.2040 -0.0091 -2.3837 -0.0028
# 4 -0.0036 0.0000 -0.0091 15.4862 -0.0048 -13.2812
# 5 4.6911 -15.6903 -2.3837 -0.0048 27.5072 -0.0017
# 6 -0.0014 -0.0002 -0.0028 -13.2812 -0.0017 29.8164
#
#
#
# Elastic Compliance Matrix: (Units=1/GPa)
#
#
# Indices 1 2 3 4 5 6 
#
# 1 0.043611 -0.001045 -0.011991 0.000001 -0.009073 0.000001
# 2 -0.001045 0.006694 -0.002457 -0.000001 0.003783 0.000000
# 3 -0.011991 -0.002457 0.011946 0.000009 0.001678 0.000004
# 4 0.000001 -0.000001 0.000009 0.104489 0.000021 0.046543
# 5 -0.009073 0.003783 0.001678 0.000021 0.040205 0.000011
# 6 0.000001 0.000000 0.000004 0.046543 0.000011 0.054270
#
#
# Mechanical properties :
#
#
# Convention : Reuss Voigt Hill
#
# Bulk Modulus (GPa) = 31.98683 63.26733 47.62708
# Shear Modulus (GPa) = 16.52223 30.50601 23.51412
#
# Velocity S-wave (km/s) = 2.71405 3.68787 3.23778
# Velocity P-wave (km/s) = 4.90734 6.80736 5.93389
#
# Compressibility (1/GPa) = 0.03126287
#
# Stress axis : x y z
#
# Youngs Moduli (GPa) = 22.93023 149.39217 83.71232
#
# Poissons Ratio (x) = 0.15613 1.00380
# Poissons Ratio (y) = 0.02396 0.20571
# Poissons Ratio (z) = 0.27496 0.36711
#
# Static dielectric constant tensor:
#      x y z
#    x 1.871480 0.000000 -0.004680 
#    y 0.000000 1.834660 0.000000 
#    z -0.004680 0.000000 1.834520 
# 
# From -- ./inp_files/51384.got.cif
#   From: 2010.05.17/outbox.cif.g08.bks.cpg/sg5_26_cif.got.tgz:51384.got - 2010.06.03 18:56:24.
