data_PCOD9126248
_publ_section_title
;
Structure prediction by ZEFSAII (Michael W. Deem and Ramdas Pophale) SiO2 
 PCOD9126248
Probable space group: C 2
;
_chemical_formula_sum "Si O2"
_cell_formula_units_Z 24
_cell_length_a 9.845923
_cell_length_b 9.285655
_cell_length_c 10.463702
_cell_angle_alpha 90.000000
_cell_angle_beta 105.461675
_cell_angle_gamma 90.000000
_cell_volume 922.030560
_symmetry_space_group_name_H-M "C 2"
_symmetry_group_IT_number 5
_symmetry_cell_setting 'monoclinic'
loop_
_space_group_symop_operation_xyz
x,y,z
-x,y,-z
1/2+x,1/2+y,z
1/2-x,1/2+y,-z
loop_
_atom_site_type_symbol
_atom_site_label
_atom_site_fract_x
_atom_site_fract_y
_atom_site_fract_z
Si Si1 0.694332 0.782480 0.741853
Si Si2 0.264969 0.530288 0.614353
Si Si3 0.709482 0.993536 0.965275
Si Si4 0.046430 0.014928 0.794957
Si Si5 0.711704 0.361622 0.623419
Si Si6 0.571587 0.056952 0.205081
O O1 0.708989 0.843097 0.890041
O O2 0.581027 0.657918 0.722918
O O3 0.839499 0.699856 0.741531
O O4 0.657760 0.907131 0.633189
O O5 0.379168 0.515470 0.757852
O O6 0.334404 0.463648 0.505223
O O7 0.215097 0.693272 0.590317
O O8 0.595630 0.080248 0.849128
O O9 0.867838 0.024271 0.051481
O O10 0.631712 0.005720 0.082441
O O11 0.115599 0.891011 0.723821
O O12 0.867189 0.428371 0.692680
#
# Coordination Sequence:
#
# PCOD9126248 Si02
#       6
#     4   4   4   4   4   4
#     4  10  22  39  62  92 122 159 198 243 301 354
#     4  12  24  41  64  88 120 158 202 250 299 354
#     4   9  19  37  62  90 121 156 195 239 296 352
#     4  10  24  42  62  89 124 158 198 249 294 354
#     4  10  22  41  62  88 119 159 203 246 298 353
#     4   9  20  39  62  88 125 159 196 247 291 353
#
# _framework density 26.029506999999999
#
# number of rings (size 3 to 8) (size 9 to 14) (size 15 to 20)
#    0.000    2.333    0.000    3.500    0.000   12.667 
#    0.000    7.500    0.000    0.000    0.000    0.000 
#    0.000    0.000    0.000    0.000    0.000    0.000 
#
# Total GULP energy -66968.964097 kJ/mol
# GULP energy per Si atom -5580.747008 kJ/mol
# Density = 2.597026 g / cm^3
# Si number density = 26.029507 Si / 1000 Ang^3
#
#
#
# Elastic Constant Matrix: (Units=GPa)
#
#
# Indices 1 2 3 4 5 6 
#
# 1 82.9023 16.5883 6.0407 0.0000 9.4663 0.0000
# 2 16.5883 206.7841 33.2472 0.0000 -17.4730 0.0000
# 3 6.0407 33.2472 85.8386 0.0000 1.9631 0.0000
# 4 0.0000 0.0000 0.0000 41.1719 0.0000 -9.3681
# 5 9.4663 -17.4730 1.9631 0.0000 36.4732 0.0000
# 6 0.0000 0.0000 0.0000 -9.3681 0.0000 22.5808
#
#
#
# Elastic Compliance Matrix: (Units=1/GPa)
#
#
# Indices 1 2 3 4 5 6 
#
# 1 0.012796 -0.001310 -0.000303 0.000000 -0.003932 0.000000
# 2 -0.001310 0.005546 -0.002127 0.000000 0.003111 0.000000
# 3 -0.000303 -0.002127 0.012532 0.000000 -0.001615 0.000000
# 4 0.000000 0.000000 0.000000 0.026820 0.000000 0.011127
# 5 -0.003932 0.003111 -0.001615 0.000000 0.030015 0.000000
# 6 0.000000 0.000000 0.000000 0.011127 0.000000 0.048902
#
#
# Mechanical properties :
#
#
# Convention : Reuss Voigt Hill
#
# Bulk Modulus (GPa) = 42.74769 54.14193 48.44481
# Shear Modulus (GPa) = 32.91883 41.35509 37.13696
#
# Velocity S-wave (km/s) = 3.56008 3.99027 3.78130
# Velocity P-wave (km/s) = 5.77558 6.48653 6.14135
#
# Compressibility (1/GPa) = 0.02339308
#
# Stress axis : x y z
#
# Youngs Moduli (GPa) = 78.15180 180.31191 79.79650
#
# Poissons Ratio (x) = 0.23621 0.02419
# Poissons Ratio (y) = 0.10238 0.16973
# Poissons Ratio (z) = 0.02369 0.38353
#
# Static dielectric constant tensor:
#      x y z
#    x 2.132150 0.000000 0.029160 
#    y 0.000000 2.018600 0.000000 
#    z 0.029160 0.000000 2.094390 
# 
# From -- ./inp_files/38433.got.cif
#   From: 2010.05.17/outbox.cif.g08.bks.cpg/sg5_20_cif.got.tgz:38433.got - 2010.06.03 18:56:24.
