data_PCOD9126009
_publ_section_title
;
Structure prediction by ZEFSAII (Michael W. Deem and Ramdas Pophale) SiO2 
 PCOD9126009
Probable space group: C 2
;
_chemical_formula_sum "Si O2"
_cell_formula_units_Z 26
_cell_length_a 13.114695
_cell_length_b 21.206547
_cell_length_c 13.647396
_cell_angle_alpha 90.000000
_cell_angle_beta 157.612447
_cell_angle_gamma 90.000000
_cell_volume 1445.620053
_symmetry_space_group_name_H-M "C 2"
_symmetry_group_IT_number 5
_symmetry_cell_setting 'monoclinic'
loop_
_space_group_symop_operation_xyz
x,y,z
-x,y,-z
1/2+x,1/2+y,z
1/2-x,1/2+y,-z
loop_
_atom_site_type_symbol
_atom_site_label
_atom_site_fract_x
_atom_site_fract_y
_atom_site_fract_z
Si Si1 0.715742 0.294170 0.490757
Si Si2 0.500000 0.306334 0.000000
Si Si3 0.387772 0.038414 0.509027
Si Si4 0.000000 0.194526 0.000000
Si Si5 0.234855 0.726679 0.043700
Si Si6 0.286616 0.890723 0.393578
Si Si7 0.172519 0.104959 0.977253
Si Si8 0.000000 0.780274 0.500000
O O1 0.818143 0.354485 0.522377
O O2 0.575843 0.314739 0.467123
O O3 0.975849 0.250628 0.735803
O O4 0.500769 0.255398 0.234232
O O5 0.695587 0.256077 0.117922
O O6 0.533133 0.357491 0.117765
O O7 0.500000 0.057562 0.500000
O O8 0.115632 0.073741 0.295949
O O9 0.311225 0.964837 0.429929
O O10 0.612701 0.054867 0.789643
O O11 0.880799 0.151416 0.979087
O O12 0.244655 0.237014 0.252095
O O13 0.231788 0.651055 0.025160
O O14 0.500000 0.871680 0.500000
#
# Coordination Sequence:
#
# PCOD9126009 Si02
#       8
#     4   2   4   2   4   4   4   2
#     4  11  21  35  55  85 109 151 182 240 291 339
#     4  10  22  39  60  86 113 152 194 256 280 342
#     4  11  23  33  55  79 113 151 185 229 288 335
#     4  12  20  31  50  80 111 138 170 218 260 348
#     4  11  22  35  58  82 115 146 191 234 298 331
#     4  10  22  37  57  81 116 146 197 246 283 338
#     4  12  21  35  51  81 115 146 180 220 281 358
#     4  12  20  34  54  80 116 142 176 218 290 344
#
# _framework density 17.985361999999999
#
# number of rings (size 3 to 8) (size 9 to 14) (size 15 to 20)
#    0.000    0.923    6.154    1.846    4.308    0.000 
#    0.000    0.000    0.000    1.846    0.000    0.000 
#    0.000    0.000    0.000    0.000    0.000    0.000 
#
# Total GULP energy -72378.215869 kJ/mol
# GULP energy per Si atom -5567.555067 kJ/mol
# Density = 1.794443 g / cm^3
# Si number density = 17.985362 Si / 1000 Ang^3
#
#
#
# Elastic Constant Matrix: (Units=GPa)
#
#
# Indices 1 2 3 4 5 6 
#
# 1 88.6628 41.8772 6.4020 0.0021 7.7451 -0.0014
# 2 41.8772 83.1940 20.5487 0.0015 1.0594 -0.0017
# 3 6.4020 20.5487 87.1490 0.0064 15.8872 -0.0018
# 4 0.0021 0.0015 0.0064 17.2636 0.0036 1.0645
# 5 7.7451 1.0594 15.8872 0.0036 16.2514 -0.0014
# 6 -0.0014 -0.0017 -0.0018 1.0645 -0.0014 34.3530
#
#
#
# Elastic Compliance Matrix: (Units=1/GPa)
#
#
# Indices 1 2 3 4 5 6 
#
# 1 0.015971 -0.008557 0.002592 0.000000 -0.009588 0.000000
# 2 -0.008557 0.017437 -0.004891 0.000000 0.007723 0.000001
# 3 0.002592 -0.004891 0.015338 -0.000002 -0.015911 0.000000
# 4 0.000000 0.000000 -0.000002 0.058036 -0.000011 -0.001798
# 5 -0.009588 0.007723 -0.015911 -0.000011 0.081153 0.000003
# 6 0.000000 0.000001 0.000000 -0.001798 0.000003 0.029165
#
#
# Mechanical properties :
#
#
# Convention : Reuss Voigt Hill
#
# Bulk Modulus (GPa) = 36.98982 44.07352 40.53167
# Shear Modulus (GPa) = 20.17561 26.25213 23.21387
#
# Velocity S-wave (km/s) = 3.35293 3.82467 3.59654
# Velocity P-wave (km/s) = 5.96664 6.63796 6.31123
#
# Compressibility (1/GPa) = 0.02703447
#
# Stress axis : x y z
#
# Youngs Moduli (GPa) = 62.61383 57.34822 65.19806
#
# Poissons Ratio (x) = 0.49076 -0.16902
# Poissons Ratio (y) = 0.53582 0.31887
# Poissons Ratio (z) = -0.16232 0.28048
#
# Static dielectric constant tensor:
#      x y z
#    x 1.645540 0.000000 -0.033920 
#    y 0.000000 1.607290 0.000000 
#    z -0.033920 0.000000 1.895250 
# 
# From -- ./inp_files/7101.got.cif
#   From: 2010.05.17/outbox.cif.g08.bks.cpg/sg5_4_cif.got.tgz:7101.got - 2010.06.03 18:56:24.
