data_PCOD9126650
_publ_section_title
;
Structure prediction by ZEFSAII (Michael W. Deem and Ramdas Pophale) SiO2 
 PCOD9126650
Probable space group: C 2
;
_chemical_formula_sum "Si O2"
_cell_formula_units_Z 20
_cell_length_a 25.510928
_cell_length_b 7.481303
_cell_length_c 9.282201
_cell_angle_alpha 90.000000
_cell_angle_beta 27.568264
_cell_angle_gamma 90.000000
_cell_volume 819.884364
_symmetry_space_group_name_H-M "C 2"
_symmetry_group_IT_number 5
_symmetry_cell_setting 'monoclinic'
loop_
_space_group_symop_operation_xyz
x,y,z
-x,y,-z
1/2+x,1/2+y,z
1/2-x,1/2+y,-z
loop_
_atom_site_type_symbol
_atom_site_label
_atom_site_fract_x
_atom_site_fract_y
_atom_site_fract_z
Si Si1 0.737265 0.988100 0.420548
Si Si2 0.748546 0.894161 0.718463
Si Si3 0.853755 0.257489 0.766884
Si Si4 0.624179 0.363576 0.160265
Si Si5 0.577847 0.689398 0.680090
O O1 0.726907 0.988125 0.617642
O O2 0.641538 0.856562 0.596810
O O3 0.727670 0.188063 0.381880
O O4 0.848367 0.894064 0.077077
O O5 0.853162 0.008996 0.521938
O O6 0.658564 0.890195 0.068047
O O7 0.950040 0.269807 0.409058
O O8 0.870535 0.064492 0.793387
O O9 0.732844 0.273869 0.975209
O O10 0.500000 0.289055 0.500000
O O11 0.500000 0.630449 0.000000
#
# Coordination Sequence:
#
# PCOD9126650 Si02
#       5
#     4   4   4   4   4
#     4  10  23  40  67  99 139 179 232 292 345 424
#     4  11  21  41  69  94 138 179 227 291 347 407
#     4  10  22  42  66  97 141 177 232 291 337 427
#     4  10  22  41  67  96 137 183 228 279 358 409
#     4  11  24  42  68 100 139 182 229 286 357 417
#
# _framework density 24.393681999999998
#
# number of rings (size 3 to 8) (size 9 to 14) (size 15 to 20)
#    0.000    1.600    4.000    0.000    2.800    0.800 
#    0.000    5.000    0.000    0.000    0.000    0.000 
#    0.000    0.000    0.000    0.000    0.000    0.000 
#
# Total GULP energy -55742.017932 kJ/mol
# GULP energy per Si atom -5574.201793 kJ/mol
# Density = 2.433816 g / cm^3
# Si number density = 24.393682 Si / 1000 Ang^3
#
#
#
# Elastic Constant Matrix: (Units=GPa)
#
#
# Indices 1 2 3 4 5 6 
#
# 1 95.5876 13.6140 66.3427 0.0000 34.0348 0.0000
# 2 13.6140 82.9783 21.8954 0.0000 -2.9870 0.0000
# 3 66.3427 21.8954 141.4081 0.0000 54.0524 0.0000
# 4 0.0000 0.0000 0.0000 32.6059 0.0000 9.3518
# 5 34.0348 -2.9870 54.0524 0.0000 64.1612 0.0000
# 6 0.0000 0.0000 0.0000 9.3518 0.0000 30.9465
#
#
#
# Elastic Compliance Matrix: (Units=1/GPa)
#
#
# Indices 1 2 3 4 5 6 
#
# 1 0.016046 -0.001174 -0.006006 0.000000 -0.003507 0.000000
# 2 -0.001174 0.013137 -0.002884 0.000000 0.003664 0.000000
# 3 -0.006006 -0.002884 0.013525 0.000000 -0.008342 0.000000
# 4 0.000000 0.000000 0.000000 0.033580 0.000000 -0.010148
# 5 -0.003507 0.003664 -0.008342 0.000000 0.024644 0.000000
# 6 0.000000 0.000000 0.000000 -0.010148 0.000000 0.035380
#
#
# Mechanical properties :
#
#
# Convention : Reuss Voigt Hill
#
# Bulk Modulus (GPa) = 44.28679 58.18647 51.23663
# Shear Modulus (GPa) = 30.49425 40.08419 35.28922
#
# Velocity S-wave (km/s) = 3.53949 4.05806 3.80762
# Velocity P-wave (km/s) = 5.90749 6.77215 6.35455
#
# Compressibility (1/GPa) = 0.02258010
#
# Stress axis : x y z
#
# Youngs Moduli (GPa) = 62.32185 76.12216 73.93904
#
# Poissons Ratio (x) = 0.08937 0.44406
# Poissons Ratio (y) = 0.07317 0.21322
# Poissons Ratio (z) = 0.37429 0.21951
#
# Static dielectric constant tensor:
#      x y z
#    x 2.058240 0.000000 0.031340 
#    y 0.000000 1.865280 0.000000 
#    z 0.031340 0.000000 2.187740 
# 
# From -- ./inp_files/28612.got.cif
#   From: 2010.05.17/outbox.cif.g08.bks.cpg/sg5_15_cif.got.tgz:28612.got - 2010.06.03 18:56:24.
