data_PCOD9126625
_publ_section_title
;
Structure prediction by ZEFSAII (Michael W. Deem and Ramdas Pophale) SiO2 
 PCOD9126625
Probable space group: C 2
;
_chemical_formula_sum "Si O2"
_cell_formula_units_Z 28
_cell_length_a 7.630623
_cell_length_b 33.541534
_cell_length_c 5.304164
_cell_angle_alpha 90.000000
_cell_angle_beta 117.013090
_cell_angle_gamma 90.000000
_cell_volume 1209.456286
_symmetry_space_group_name_H-M "C 2"
_symmetry_group_IT_number 5
_symmetry_cell_setting 'monoclinic'
loop_
_space_group_symop_operation_xyz
x,y,z
-x,y,-z
1/2+x,1/2+y,z
1/2-x,1/2+y,-z
loop_
_atom_site_type_symbol
_atom_site_label
_atom_site_fract_x
_atom_site_fract_y
_atom_site_fract_z
Si Si1 0.790368 0.069910 0.219952
Si Si2 0.869667 0.372532 0.664546
Si Si3 0.767574 0.743835 0.846351
Si Si4 0.290795 0.959002 0.521967
Si Si5 0.000000 0.010705 0.000000
Si Si6 0.233049 0.784013 0.657330
Si Si7 0.631786 0.655901 0.836485
Si Si8 0.000000 0.512768 0.000000
O O1 0.837349 0.040343 0.017038
O O2 0.747155 0.114904 0.109717
O O3 0.000000 0.070308 0.500000
O O4 0.611808 0.047464 0.243111
O O5 0.746142 0.412590 0.533059
O O6 0.763945 0.330517 0.628702
O O7 0.000000 0.368083 0.500000
O O8 0.000000 0.379623 0.000000
O O9 0.692008 0.755818 0.520365
O O10 0.739670 0.698054 0.906394
O O11 0.689303 0.772023 0.017130
O O12 0.000000 0.751202 0.000000
O O13 0.500000 0.962758 0.500000
O O14 0.335333 0.979346 0.819470
O O15 0.120069 0.982901 0.270214
O O16 0.000000 0.776876 0.500000
O O17 0.500000 0.657384 0.500000
O O18 0.500000 0.652436 0.000000
#
# Coordination Sequence:
#
# PCOD9126625 Si02
#       8
#     4   4   4   4   2   4   4   2
#     4  11  24  40  65  96 133 172 227 275 332 400
#     4  11  24  43  66  97 134 169 220 278 329 397
#     4  10  22  41  66  92 130 170 214 265 327 401
#     4  11  24  42  65  98 133 171 230 280 335 402
#     4  12  22  44  66  92 132 182 220 278 342 396
#     4  10  22  43  64  94 130 169 216 266 326 403
#     4  11  24  41  64  98 133 165 218 276 323 391
#     4  12  22  42  68  90 132 180 222 280 340 396
#
# _framework density 23.1509
#
# number of rings (size 3 to 8) (size 9 to 14) (size 15 to 20)
#    0.000    1.143    4.286    1.714    1.000    3.429 
#   11.571    0.000    3.143    0.000    0.000    0.000 
#    0.000    0.000    0.000    0.000    0.000    0.000 
#
# Total GULP energy -78062.059052 kJ/mol
# GULP energy per Si atom -5575.861361 kJ/mol
# Density = 2.309821 g / cm^3
# Si number density = 23.150900 Si / 1000 Ang^3
#
#
#
# Elastic Constant Matrix: (Units=GPa)
#
#
# Indices 1 2 3 4 5 6 
#
# 1 85.8116 36.3625 22.2921 0.0000 -6.2963 0.0000
# 2 36.3625 184.6612 25.2911 0.0000 -18.8521 0.0000
# 3 22.2921 25.2911 114.6733 0.0000 -9.5477 0.0000
# 4 0.0000 0.0000 0.0000 39.9887 0.0000 2.9121
# 5 -6.2963 -18.8521 -9.5477 0.0000 30.7161 0.0000
# 6 0.0000 0.0000 0.0000 2.9121 0.0000 29.2694
#
#
#
# Elastic Compliance Matrix: (Units=1/GPa)
#
#
# Indices 1 2 3 4 5 6 
#
# 1 0.013179 -0.002249 -0.002008 0.000000 0.000697 0.000000
# 2 -0.002249 0.006276 -0.000682 0.000000 0.003179 0.000000
# 3 -0.002008 -0.000682 0.009436 0.000000 0.002103 0.000000
# 4 0.000000 0.000000 0.000000 0.025190 0.000000 -0.002506
# 5 0.000697 0.003179 0.002103 0.000000 0.035304 0.000000
# 6 0.000000 0.000000 0.000000 -0.002506 0.000000 0.034415
#
#
# Mechanical properties :
#
#
# Convention : Reuss Voigt Hill
#
# Bulk Modulus (GPa) = 52.59516 61.44860 57.02188
# Shear Modulus (GPa) = 35.71019 40.07488 37.89253
#
# Velocity S-wave (km/s) = 3.93172 4.16508 4.05008
# Velocity P-wave (km/s) = 6.58627 7.05200 6.82311
#
# Compressibility (1/GPa) = 0.01901316
#
# Stress axis : x y z
#
# Youngs Moduli (GPa) = 75.87702 159.33274 105.97348
#
# Poissons Ratio (x) = 0.35834 0.21279
# Poissons Ratio (y) = 0.17065 0.07231
# Poissons Ratio (z) = 0.15236 0.10872
#
# Static dielectric constant tensor:
#      x y z
#    x 3.223870 0.000000 -0.272670 
#    y 0.000000 1.843940 0.000000 
#    z -0.272670 0.000000 1.903570 
# 
# From -- ./inp_files/4008.got.cif
#   From: 2010.05.17/outbox.cif.g08.bks.cpg/sg5_3_cif.got.tgz:4008.got - 2010.06.03 18:56:24.
