data_PCOD9126756
_publ_section_title
;
Structure prediction by ZEFSAII (Michael W. Deem and Ramdas Pophale) SiO2 
 PCOD9126756
Probable space group: C 2
;
_chemical_formula_sum "Si O2"
_cell_formula_units_Z 30
_cell_length_a 14.123028
_cell_length_b 7.936095
_cell_length_c 24.107113
_cell_angle_alpha 90.000000
_cell_angle_beta 151.708043
_cell_angle_gamma 90.000000
_cell_volume 1280.636256
_symmetry_space_group_name_H-M "C 2"
_symmetry_group_IT_number 5
_symmetry_cell_setting 'monoclinic'
loop_
_space_group_symop_operation_xyz
x,y,z
-x,y,-z
1/2+x,1/2+y,z
1/2-x,1/2+y,-z
loop_
_atom_site_type_symbol
_atom_site_label
_atom_site_fract_x
_atom_site_fract_y
_atom_site_fract_z
Si Si1 0.253591 0.829090 0.781614
Si Si2 0.560510 0.688493 0.231420
Si Si3 0.699072 0.398494 0.019575
Si Si4 0.301585 0.216482 0.546753
Si Si5 0.447428 0.134554 0.831160
Si Si6 0.262586 0.519981 0.382820
Si Si7 0.000000 0.158024 0.000000
Si Si8 0.195525 0.520328 0.562626
O O1 0.362013 0.706548 0.791819
O O2 0.020879 0.795447 0.658467
O O3 0.292974 0.024679 0.787599
O O4 0.348148 0.774378 0.888063
O O5 0.332235 0.749359 0.115450
O O6 0.621704 0.528481 0.299213
O O7 0.690148 0.837690 0.326277
O O8 0.617140 0.531695 0.020506
O O9 0.861151 0.507981 0.069608
O O10 0.525498 0.309948 0.894942
O O11 0.301891 0.056919 0.588048
O O12 0.169331 0.348595 0.513812
O O13 0.260049 0.154248 0.463505
O O14 0.352320 0.139190 0.720753
O O15 0.500000 0.533762 0.500000
O O16 0.000000 0.549842 0.500000
#
# Coordination Sequence:
#
# PCOD9126756 Si02
#       8
#     4   4   4   4   4   4   2   4
#     4  10  23  43  65  95 132 188 223 290 356 410
#     4  10  22  42  70  90 140 181 221 290 354 406
#     4  10  22  42  64 102 130 184 227 286 352 411
#     4  12  26  42  70  99 136 184 234 281 365 411
#     4  10  23  42  71  96 139 183 228 289 353 415
#     4  10  22  42  70 103 137 179 231 287 344 426
#     4  12  24  40  66  98 140 174 238 286 338 432
#     4  12  26  46  68 104 141 184 233 297 346 429
#
# _framework density 23.425857000000001
#
# number of rings (size 3 to 8) (size 9 to 14) (size 15 to 20)
#    0.000    1.600    1.333    4.800    5.600    4.800 
#    2.400    0.000    0.000    0.000    0.000    0.000 
#    0.000    0.000    0.000    0.000    0.000    0.000 
#
# Total GULP energy -83851.633011 kJ/mol
# GULP energy per Si atom -5590.108867 kJ/mol
# Density = 2.337254 g / cm^3
# Si number density = 23.425857 Si / 1000 Ang^3
#
#
#
# Elastic Constant Matrix: (Units=GPa)
#
#
# Indices 1 2 3 4 5 6 
#
# 1 84.5096 22.4980 26.7676 -0.0001 -12.2796 0.0000
# 2 22.4980 63.9300 19.3118 0.0000 -17.0800 0.0000
# 3 26.7676 19.3118 92.3180 -0.0002 -24.9853 -0.0001
# 4 -0.0001 0.0000 -0.0002 38.8712 0.0000 -20.7946
# 5 -12.2796 -17.0800 -24.9853 0.0000 42.1420 0.0000
# 6 0.0000 0.0000 -0.0001 -20.7946 0.0000 27.5155
#
#
#
# Elastic Compliance Matrix: (Units=1/GPa)
#
#
# Indices 1 2 3 4 5 6 
#
# 1 0.013909 -0.003784 -0.003049 0.000000 0.000712 0.000000
# 2 -0.003784 0.018912 -0.001290 0.000000 0.005798 0.000000
# 3 -0.003049 -0.001290 0.013822 0.000000 0.006784 0.000000
# 4 0.000000 0.000000 0.000000 0.043186 0.000000 0.032637
# 5 0.000712 0.005798 0.006784 0.000000 0.030308 0.000000
# 6 0.000000 0.000000 0.000000 0.032637 0.000000 0.061009
#
#
# Mechanical properties :
#
#
# Convention : Reuss Voigt Hill
#
# Bulk Modulus (GPa) = 32.89644 41.99026 37.44335
# Shear Modulus (GPa) = 24.09353 33.18439 28.63896
#
# Velocity S-wave (km/s) = 3.21051 3.76782 3.50027
# Velocity P-wave (km/s) = 5.27413 6.07390 5.68809
#
# Compressibility (1/GPa) = 0.03039842
#
# Stress axis : x y z
#
# Youngs Moduli (GPa) = 71.89371 52.87549 72.34879
#
# Poissons Ratio (x) = 0.20007 0.22058
# Poissons Ratio (y) = 0.27203 0.09333
# Poissons Ratio (z) = 0.21919 0.06821
#
# Static dielectric constant tensor:
#      x y z
#    x 1.944360 0.000000 0.068620 
#    y 0.000000 1.983340 0.000000 
#    z 0.068620 0.000000 1.941780 
# 
# From -- ./inp_files/68721.got.cif
#   From: 2010.05.17/outbox.cif.g08.bks.cpg/sg5_35_cif.got.tgz:68721.got - 2010.06.03 18:56:24.
