data_PCOD9126788
_publ_section_title
;
Structure prediction by ZEFSAII (Michael W. Deem and Ramdas Pophale) SiO2 
 PCOD9126788
Probable space group: C 2
;
_chemical_formula_sum "Si O2"
_cell_formula_units_Z 32
_cell_length_a 14.734347
_cell_length_b 24.149028
_cell_length_c 8.297825
_cell_angle_alpha 90.000000
_cell_angle_beta 149.299735
_cell_angle_gamma 90.000000
_cell_volume 1507.406762
_symmetry_space_group_name_H-M "C 2"
_symmetry_group_IT_number 5
_symmetry_cell_setting 'monoclinic'
loop_
_space_group_symop_operation_xyz
x,y,z
-x,y,-z
1/2+x,1/2+y,z
1/2-x,1/2+y,-z
loop_
_atom_site_type_symbol
_atom_site_label
_atom_site_fract_x
_atom_site_fract_y
_atom_site_fract_z
Si Si1 0.501956 0.760050 0.198335
Si Si2 0.805899 0.970924 0.777617
Si Si3 0.987558 0.385099 0.673672
Si Si4 0.570960 0.067452 0.451036
Si Si5 0.811224 0.682229 0.289418
Si Si6 0.692726 0.585445 0.712798
Si Si7 0.815160 0.962158 0.179929
Si Si8 0.295613 0.180363 0.646386
O O1 0.491030 0.823613 0.228643
O O2 0.679593 0.730881 0.536030
O O3 0.500000 0.758213 0.000000
O O4 0.342616 0.720292 0.016200
O O5 0.696657 0.915747 0.566833
O O6 0.690165 0.023688 0.540254
O O7 0.817651 0.974282 0.991302
O O8 0.000000 0.971924 0.000000
O O9 0.000000 0.382104 0.500000
O O10 0.147275 0.425383 0.969060
O O11 0.500000 0.035158 0.500000
O O12 0.692736 0.115171 0.717715
O O13 0.396879 0.093063 0.097960
O O14 0.796412 0.688682 0.457343
O O15 0.000000 0.697415 0.500000
O O16 0.500000 0.602183 0.500000
O O17 0.685132 0.518786 0.715766
O O18 0.708953 0.622818 0.576897
O O19 0.000000 0.932135 0.500000
O O20 0.500000 0.181999 0.000000
#
# Coordination Sequence:
#
# PCOD9126788 Si02
#       8
#     4   4   4   4   4   4   4   4
#     4  10  25  45  66  93 129 174 223 275 328 390
#     4  11  23  40  67  98 131 176 219 267 332 394
#     4  10  22  45  69  91 129 175 224 271 329 394
#     4  11  20  40  63  93 134 175 209 261 332 397
#     4  10  24  42  66  92 130 177 216 270 332 393
#     4  11  23  39  67  98 137 171 214 271 331 395
#     4  10  22  42  65  96 132 172 215 272 334 392
#     4  11  24  42  61  96 132 169 220 273 325 395
#
# _framework density 21.228508999999999
#
# number of rings (size 3 to 8) (size 9 to 14) (size 15 to 20)
#    0.000    1.500    3.750    0.375    3.500    7.000 
#    0.000    5.625    0.000    0.000    0.000    0.000 
#    0.000    0.000    0.000    0.000    0.000    0.000 
#
# Total GULP energy -89149.995575 kJ/mol
# GULP energy per Si atom -5571.874723 kJ/mol
# Density = 2.118019 g / cm^3
# Si number density = 21.228509 Si / 1000 Ang^3
#
#
#
# Elastic Constant Matrix: (Units=GPa)
#
#
# Indices 1 2 3 4 5 6 
#
# 1 75.4411 52.1495 47.3010 0.0000 34.8745 0.0000
# 2 52.1495 134.7739 62.2736 0.0000 34.6784 0.0000
# 3 47.3010 62.2736 107.4378 0.0000 38.8615 0.0000
# 4 0.0000 0.0000 0.0000 0.8960 0.0000 16.9875
# 5 34.8745 34.6784 38.8615 0.0000 39.2333 0.0000
# 6 0.0000 0.0000 0.0000 16.9875 0.0000 15.1000
#
#
#
# Elastic Compliance Matrix: (Units=1/GPa)
#
#
# Indices 1 2 3 4 5 6 
#
# 1 0.025466 -0.004433 -0.002917 0.000000 -0.015829 0.000000
# 2 -0.004433 0.011546 -0.003856 0.000000 -0.002445 0.000000
# 3 -0.002917 -0.003856 0.016606 0.000000 -0.010448 0.000000
# 4 0.000000 0.000000 0.000000 -0.054900 0.000000 0.061763
# 5 -0.015829 -0.002445 -0.010448 0.000000 0.052069 0.000000
# 6 0.000000 0.000000 0.000000 0.061763 0.000000 -0.003258
#
#
# Mechanical properties :
#
#
# Convention : Reuss Voigt Hill
#
# Bulk Modulus (GPa) = 32.04475 71.23346 51.63910
# Shear Modulus (GPa) = 62.23319 21.44113 41.83716
#
# Velocity S-wave (km/s) = 5.42029 3.18152 4.44419
# Velocity P-wave (km/s) = 7.36889 6.86473 7.12127
#
# Compressibility (1/GPa) = 0.03120636
#
# Stress axis : x y z
#
# Youngs Moduli (GPa) = 39.26805 86.60837 60.21963
#
# Poissons Ratio (x) = 0.38395 0.17563
# Poissons Ratio (y) = 0.17408 0.23222
# Poissons Ratio (z) = 0.11453 0.33398
#
# Static dielectric constant tensor:
#      x y z
#    x 1.934630 0.000000 -0.122350 
#    y 0.000000 1.754050 0.000000 
#    z -0.122350 0.000000 1.934510 
# 
# From -- ./inp_files/25649.got.cif
#   From: 2010.05.17/outbox.cif.g08.bks.cpg/sg5_13_cif.got.tgz:25649.got - 2010.06.03 18:56:24.
