data_PCOD9126114
_publ_section_title
;
Structure prediction by ZEFSAII (Michael W. Deem and Ramdas Pophale) SiO2 
 PCOD9126114
Probable space group: C 2
;
_chemical_formula_sum "Si O2"
_cell_formula_units_Z 24
_cell_length_a 25.058747
_cell_length_b 10.506802
_cell_length_c 8.975588
_cell_angle_alpha 90.000000
_cell_angle_beta 150.957969
_cell_angle_gamma 90.000000
_cell_volume 1147.197764
_symmetry_space_group_name_H-M "C 2"
_symmetry_group_IT_number 5
_symmetry_cell_setting 'monoclinic'
loop_
_space_group_symop_operation_xyz
x,y,z
-x,y,-z
1/2+x,1/2+y,z
1/2-x,1/2+y,-z
loop_
_atom_site_type_symbol
_atom_site_label
_atom_site_fract_x
_atom_site_fract_y
_atom_site_fract_z
Si Si1 0.401294 0.131470 0.140017
Si Si2 0.529298 0.930125 0.272992
Si Si3 0.301824 0.903184 0.046165
Si Si4 0.813192 0.296488 0.751676
Si Si5 0.730230 0.023863 0.559289
Si Si6 0.621858 0.406504 0.847341
O O1 0.500000 0.140931 0.500000
O O2 0.370502 0.275870 0.039721
O O3 0.451007 0.048668 0.127810
O O4 0.310024 0.045580 0.997936
O O5 0.599425 0.892642 0.591990
O O6 0.616390 0.982970 0.365284
O O7 0.443174 0.816432 0.028096
O O8 0.309629 0.813582 0.921939
O O9 0.192193 0.882979 0.870786
O O10 0.751926 0.166924 0.556740
O O11 0.755084 0.417651 0.531854
O O12 0.820544 0.009632 0.909949
O O13 0.500000 0.437965 0.500000
#
# Coordination Sequence:
#
# PCOD9126114 Si02
#       6
#     4   4   4   4   4   4
#     4   8  16  33  63  88 120 159 217 260 332 387
#     4   9  20  44  71  92 125 180 223 275 339 399
#     4   9  20  37  66  95 122 175 220 277 334 398
#     4  11  24  43  66 100 132 178 223 273 335 409
#     4  11  26  43  66  97 136 179 221 276 341 397
#     4  10  22  38  62  96 132 165 221 285 327 396
#
# _framework density 20.920542000000001
#
# number of rings (size 3 to 8) (size 9 to 14) (size 15 to 20)
#    0.000    2.333    0.000    2.000   14.000    1.333 
#    3.000    2.500    0.000    0.000    0.000    0.000 
#    0.000    0.000    0.000    0.000    0.000    0.000 
#
# Total GULP energy -66913.333754 kJ/mol
# GULP energy per Si atom -5576.111146 kJ/mol
# Density = 2.087293 g / cm^3
# Si number density = 20.920542 Si / 1000 Ang^3
#
#
#
# Elastic Constant Matrix: (Units=GPa)
#
#
# Indices 1 2 3 4 5 6 
#
# 1 107.4568 40.4022 50.0928 0.0000 0.2892 0.0000
# 2 40.4022 112.9126 37.0806 0.0000 -1.5012 0.0000
# 3 50.0928 37.0806 100.6547 0.0000 11.8192 0.0000
# 4 0.0000 0.0000 0.0000 32.1892 0.0000 -6.3326
# 5 0.2892 -1.5012 11.8192 0.0000 31.2206 0.0000
# 6 0.0000 0.0000 0.0000 -6.3326 0.0000 18.3118
#
#
#
# Elastic Compliance Matrix: (Units=1/GPa)
#
#
# Indices 1 2 3 4 5 6 
#
# 1 0.012979 -0.002759 -0.005665 0.000000 0.001892 0.000000
# 2 -0.002759 0.010780 -0.002786 0.000000 0.001599 0.000000
# 3 -0.005665 -0.002786 0.014432 0.000000 -0.005545 0.000000
# 4 0.000000 0.000000 0.000000 0.033334 0.000000 0.011528
# 5 0.001892 0.001599 -0.005545 0.000000 0.034189 0.000000
# 6 0.000000 0.000000 0.000000 0.011528 0.000000 0.058596
#
#
# Mechanical properties :
#
#
# Convention : Reuss Voigt Hill
#
# Bulk Modulus (GPa) = 63.40754 64.01948 63.71351
# Shear Modulus (GPa) = 26.04356 29.24088 27.64222
#
# Velocity S-wave (km/s) = 3.53211 3.74265 3.63891
# Velocity P-wave (km/s) = 6.85631 7.02455 6.94094
#
# Compressibility (1/GPa) = 0.01577100
#
# Stress axis : x y z
#
# Youngs Moduli (GPa) = 77.04708 92.76736 69.29129
#
# Poissons Ratio (x) = 0.25590 0.39255
# Poissons Ratio (y) = 0.21254 0.19305
# Poissons Ratio (z) = 0.43649 0.25845
#
# Static dielectric constant tensor:
#      x y z
#    x 1.751000 0.000000 -0.024850 
#    y 0.000000 1.787520 0.000000 
#    z -0.024850 0.000000 1.808640 
# 
# From -- ./inp_files/30900.got.cif
#   From: 2010.05.17/outbox.cif.g08.bks.cpg/sg5_16_cif.got.tgz:30900.got - 2010.06.03 18:56:24.
