data_PCOD9126161
_publ_section_title
;
Structure prediction by ZEFSAII (Michael W. Deem and Ramdas Pophale) SiO2 
 PCOD9126161
Probable space group: C 2
;
_chemical_formula_sum "Si O2"
_cell_formula_units_Z 30
_cell_length_a 11.304047
_cell_length_b 19.119376
_cell_length_c 14.650320
_cell_angle_alpha 90.000000
_cell_angle_beta 151.517243
_cell_angle_gamma 90.000000
_cell_volume 1509.999751
_symmetry_space_group_name_H-M "C 2"
_symmetry_group_IT_number 5
_symmetry_cell_setting 'monoclinic'
loop_
_space_group_symop_operation_xyz
x,y,z
-x,y,-z
1/2+x,1/2+y,z
1/2-x,1/2+y,-z
loop_
_atom_site_type_symbol
_atom_site_label
_atom_site_fract_x
_atom_site_fract_y
_atom_site_fract_z
Si Si1 0.362891 0.745720 0.603911
Si Si2 0.983294 0.912950 0.100022
Si Si3 0.738265 0.901002 0.224306
Si Si4 0.241974 0.639009 0.369831
Si Si5 0.986464 0.491338 0.771625
Si Si6 0.399060 0.252413 0.034298
Si Si7 0.750297 0.400967 0.457326
Si Si8 0.000000 0.781769 0.500000
O O1 0.349999 0.682862 0.526208
O O2 0.607981 0.737447 0.830599
O O3 0.352596 0.821705 0.545398
O O4 0.117018 0.740600 0.497378
O O5 0.767066 0.966784 0.981232
O O6 0.917055 0.832360 0.079986
O O7 0.000000 0.916699 0.000000
O O8 0.212770 0.921914 0.326036
O O9 0.682710 0.961519 0.260113
O O10 0.981895 0.907001 0.326413
O O11 0.785649 0.832736 0.317721
O O12 0.500000 0.893915 0.000000
O O13 0.500000 0.613554 0.500000
O O14 0.070360 0.572815 0.274239
O O15 0.070810 0.696163 0.201343
O O16 0.917716 0.452422 0.630861
O O17 0.500000 0.253372 0.000000
#
# Coordination Sequence:
#
# PCOD9126161 Si02
#       8
#     4   4   4   4   4   4   4   2
#     4  11  22  41  64  99 132 179 227 271 340 400
#     4  11  24  41  68  98 128 177 233 277 331 406
#     4  11  19  34  63  96 127 165 217 272 331 382
#     4  12  26  42  67 100 139 175 216 286 353 399
#     4  12  24  43  63 100 136 172 227 280 341 407
#     4  11  22  41  67  98 133 171 228 276 331 410
#     4  11  21  39  68  93 132 175 223 284 327 399
#     4  10  22  38  66  96 130 174 222 276 320 400
#
# _framework density 19.867553000000001
#
# number of rings (size 3 to 8) (size 9 to 14) (size 15 to 20)
#    0.000    0.800    8.000    0.800    0.000    2.133 
#    0.000    2.667    0.000    0.000    0.000    0.000 
#    0.000    0.000    0.000    0.000    0.000    0.000 
#
# Total GULP energy -83691.501701 kJ/mol
# GULP energy per Si atom -5579.433447 kJ/mol
# Density = 1.982233 g / cm^3
# Si number density = 19.867553 Si / 1000 Ang^3
#
#
#
# Elastic Constant Matrix: (Units=GPa)
#
#
# Indices 1 2 3 4 5 6 
#
# 1 40.2376 18.2805 6.6087 -0.0001 -7.3859 -0.0001
# 2 18.2805 96.7722 26.6289 -0.0002 6.1541 -0.0003
# 3 6.6087 26.6289 113.7699 -0.0008 -5.1279 -0.0014
# 4 -0.0001 -0.0002 -0.0008 13.4226 -0.0004 10.0470
# 5 -7.3859 6.1541 -5.1279 -0.0004 35.1468 -0.0005
# 6 -0.0001 -0.0003 -0.0014 10.0470 -0.0005 1.0803
#
#
#
# Elastic Compliance Matrix: (Units=1/GPa)
#
#
# Indices 1 2 3 4 5 6 
#
# 1 0.028834 -0.005906 0.000027 0.000001 0.007097 0.000000
# 2 -0.005906 0.012447 -0.002742 0.000000 -0.003821 0.000000
# 3 0.000027 -0.002742 0.009514 0.000001 0.001874 -0.000001
# 4 0.000001 0.000000 0.000001 -0.012498 0.000002 0.116230
# 5 0.007097 -0.003821 0.001874 0.000002 0.030886 -0.000001
# 6 0.000000 0.000000 -0.000001 0.116230 -0.000001 -0.155282
#
#
# Mechanical properties :
#
#
# Convention : Reuss Voigt Hill
#
# Bulk Modulus (GPa) = 29.80336 39.31288 34.55812
# Shear Modulus (GPa) = -86.69544 23.21405 -31.74069
#
# Velocity S-wave (km/s) = -6.61297 3.42195 -4.00135
# Velocity P-wave (km/s) = 6.57837 5.95344 1.97883
#
# Compressibility (1/GPa) = 0.03355326
#
# Stress axis : x y z
#
# Youngs Moduli (GPa) = 34.68176 80.34243 105.10336
#
# Poissons Ratio (x) = 0.47447 -0.00286
# Poissons Ratio (y) = 0.20482 0.28824
# Poissons Ratio (z) = -0.00095 0.22033
#
# Static dielectric constant tensor:
#      x y z
#    x 1.782240 0.000000 0.003730 
#    y 0.000000 1.672240 0.000000 
#    z 0.003730 0.000000 1.762370 
# 
# From -- ./inp_files/53423.got.cif
#   From: 2010.05.17/outbox.cif.g08.bks.cpg/sg5_27_cif.got.tgz:53423.got - 2010.06.03 18:56:24.
