data_PCOD9126668
_publ_section_title
;
Structure prediction by ZEFSAII (Michael W. Deem and Ramdas Pophale) SiO2 
 PCOD9126668
Probable space group: C 2
;
_chemical_formula_sum "Si O2"
_cell_formula_units_Z 20
_cell_length_a 17.105460
_cell_length_b 11.987636
_cell_length_c 5.240480
_cell_angle_alpha 90.000000
_cell_angle_beta 52.213172
_cell_angle_gamma 90.000000
_cell_volume 849.237375
_symmetry_space_group_name_H-M "C 2"
_symmetry_group_IT_number 5
_symmetry_cell_setting 'monoclinic'
loop_
_space_group_symop_operation_xyz
x,y,z
-x,y,-z
1/2+x,1/2+y,z
1/2-x,1/2+y,-z
loop_
_atom_site_type_symbol
_atom_site_label
_atom_site_fract_x
_atom_site_fract_y
_atom_site_fract_z
Si Si1 0.187939 0.337230 0.475075
Si Si2 0.887281 0.111737 0.228853
Si Si3 0.887281 0.015188 0.722024
Si Si4 0.687939 0.289695 0.273170
Si Si5 0.567741 0.063463 0.614519
O O1 0.113935 0.243172 0.733182
O O2 0.271176 0.330337 0.531911
O O3 0.133799 0.454461 0.544844
O O4 0.228824 0.296589 0.116615
O O5 0.834238 0.063463 0.581524
O O6 0.839983 0.063462 0.070033
O O7 0.000000 0.068365 0.000000
O O8 0.000000 0.058560 0.500000
O O9 0.886065 0.883753 0.688921
O O10 0.633800 0.172464 0.419959
O O11 0.500000 0.041196 0.500000
O O12 0.500000 0.085730 0.000000
#
# Coordination Sequence:
#
# PCOD9126668 Si02
#       5
#     4   4   4   4   4
#     4  12  27  44  74 108 150 187 246 311 371 434
#     4  10  22  41  68  97 135 183 232 287 356 439
#     4  10  22  41  68  97 135 183 232 287 356 439
#     4  12  27  44  74 108 150 187 246 311 371 434
#     4  12  28  52  78 108 154 208 254 300 380 470
#
# _framework density 23.550542
#
# number of rings (size 3 to 8) (size 9 to 14) (size 15 to 20)
#    0.000    0.800    0.000    6.000    8.400    4.800 
#    0.000    0.000    0.000    0.000    0.000    0.000 
#    0.000    0.000    0.000    0.000    0.000    0.000 
#
# Total GULP energy -55862.199994 kJ/mol
# GULP energy per Si atom -5586.219999 kJ/mol
# Density = 2.349694 g / cm^3
# Si number density = 23.550542 Si / 1000 Ang^3
#
#
#
# Elastic Constant Matrix: (Units=GPa)
#
#
# Indices 1 2 3 4 5 6 
#
# 1 118.8225 60.2891 74.2718 0.0000 37.2966 0.0000
# 2 60.2891 194.9467 66.5978 0.0000 21.5801 0.0000
# 3 74.2718 66.5978 142.3975 0.0000 43.3371 0.0000
# 4 0.0000 0.0000 0.0000 42.9884 0.0000 2.3072
# 5 37.2966 21.5801 43.3371 0.0000 48.3874 0.0000
# 6 0.0000 0.0000 0.0000 2.3072 0.0000 42.3137
#
#
#
# Elastic Compliance Matrix: (Units=1/GPa)
#
#
# Indices 1 2 3 4 5 6 
#
# 1 0.014259 -0.002177 -0.004632 0.000000 -0.005871 0.000000
# 2 -0.002177 0.006439 -0.002080 0.000000 0.000669 0.000000
# 3 -0.004632 -0.002080 0.012431 0.000000 -0.006635 0.000000
# 4 0.000000 0.000000 0.000000 0.023330 0.000000 -0.001272
# 5 -0.005871 0.000669 -0.006635 0.000000 0.030836 0.000000
# 6 0.000000 0.000000 0.000000 -0.001272 0.000000 0.023702
#
#
# Mechanical properties :
#
#
# Convention : Reuss Voigt Hill
#
# Bulk Modulus (GPa) = 65.14308 95.38714 80.26511
# Shear Modulus (GPa) = 37.34340 43.73842 40.54091
#
# Velocity S-wave (km/s) = 3.98637 4.31422 4.15353
# Velocity P-wave (km/s) = 6.99351 8.08750 7.56032
#
# Compressibility (1/GPa) = 0.01535082
#
# Stress axis : x y z
#
# Youngs Moduli (GPa) = 70.13213 155.29547 80.44704
#
# Poissons Ratio (x) = 0.33814 0.37263
# Poissons Ratio (y) = 0.15270 0.16729
# Poissons Ratio (z) = 0.32485 0.32294
#
# Static dielectric constant tensor:
#      x y z
#    x 1.949240 0.000000 0.048220 
#    y 0.000000 1.888330 0.000000 
#    z 0.048220 0.000000 1.963340 
# 
# From -- ./inp_files/8257.got.cif
#   From: 2010.05.17/outbox.cif.g08.bks.cpg/sg5_5_cif.got.tgz:8257.got - 2010.06.03 18:56:24.
