data_PCOD9126377
_publ_section_title
;
Structure prediction by ZEFSAII (Michael W. Deem and Ramdas Pophale) SiO2 
 PCOD9126377
Probable space group: C 2
;
_chemical_formula_sum "Si O2"
_cell_formula_units_Z 24
_cell_length_a 9.359987
_cell_length_b 18.545083
_cell_length_c 9.655476
_cell_angle_alpha 90.000000
_cell_angle_beta 134.930035
_cell_angle_gamma 90.000000
_cell_volume 1186.567356
_symmetry_space_group_name_H-M "C 2"
_symmetry_group_IT_number 5
_symmetry_cell_setting 'monoclinic'
loop_
_space_group_symop_operation_xyz
x,y,z
-x,y,-z
1/2+x,1/2+y,z
1/2-x,1/2+y,-z
loop_
_atom_site_type_symbol
_atom_site_label
_atom_site_fract_x
_atom_site_fract_y
_atom_site_fract_z
Si Si1 0.161272 0.768920 0.318554
Si Si2 0.134497 0.535018 0.958986
Si Si3 0.571518 0.784454 0.761479
Si Si4 0.525151 0.637260 0.856054
Si Si5 0.890203 0.617155 0.571898
Si Si6 0.130336 0.896412 0.950949
O O1 0.359438 0.791836 0.539610
O O2 0.252396 0.760136 0.226135
O O3 0.089228 0.692357 0.329347
O O4 0.998813 0.833519 0.213380
O O5 0.989128 0.552265 0.727728
O O6 0.268144 0.606564 0.061104
O O7 0.303170 0.472667 0.063311
O O8 0.000000 0.522258 0.000000
O O9 0.537888 0.723333 0.852032
O O10 0.654984 0.859212 0.872526
O O11 0.343501 0.610550 0.633204
O O12 0.500000 0.615843 0.000000
O O13 0.000000 0.624368 0.500000
O O14 0.000000 0.910309 0.000000
#
# Coordination Sequence:
#
# PCOD9126377 Si02
#       6
#     4   4   4   4   4   4
#     4   9  19  39  63  94 123 163 209 264 323 379
#     4  12  26  43  62  95 133 177 218 267 324 385
#     4   9  19  37  64  94 124 161 210 264 319 383
#     4  11  22  40  67  96 129 169 217 271 323 382
#     4  11  23  41  68 100 127 169 218 272 323 384
#     4  10  22  40  63  89 129 173 211 256 322 388
#
# _framework density 20.226412
#
# number of rings (size 3 to 8) (size 9 to 14) (size 15 to 20)
#    0.000    1.667    1.667    2.500    0.000    5.333 
#    6.000    0.000    0.000    0.000    0.000    0.000 
#    0.000    0.000    0.000    0.000    0.000    0.000 
#
# Total GULP energy -66930.773004 kJ/mol
# GULP energy per Si atom -5577.564417 kJ/mol
# Density = 2.018038 g / cm^3
# Si number density = 20.226412 Si / 1000 Ang^3
#
#
#
# Elastic Constant Matrix: (Units=GPa)
#
#
# Indices 1 2 3 4 5 6 
#
# 1 55.9543 20.4166 30.2872 0.0000 9.6392 0.0000
# 2 20.4166 62.2256 39.5933 0.0000 0.5538 0.0000
# 3 30.2872 39.5933 74.2210 0.0000 10.3642 0.0000
# 4 0.0000 0.0000 0.0000 16.7737 0.0000 16.3958
# 5 9.6392 0.5538 10.3642 0.0000 26.2847 0.0000
# 6 0.0000 0.0000 0.0000 16.3958 0.0000 33.9092
#
#
#
# Elastic Compliance Matrix: (Units=1/GPa)
#
#
# Indices 1 2 3 4 5 6 
#
# 1 0.023978 -0.003195 -0.007262 0.000000 -0.005863 0.000000
# 2 -0.003195 0.025358 -0.013030 0.000000 0.005775 0.000000
# 3 -0.007262 -0.013030 0.024316 0.000000 -0.006650 0.000000
# 4 0.000000 0.000000 0.000000 0.113045 0.000000 -0.054660
# 5 -0.005863 0.005775 -0.006650 0.000000 0.042695 0.000000
# 6 0.000000 0.000000 0.000000 -0.054660 0.000000 0.055920
#
#
# Mechanical properties :
#
#
# Convention : Reuss Voigt Hill
#
# Bulk Modulus (GPa) = 37.48233 41.44391 39.46312
# Shear Modulus (GPa) = 14.65504 22.20046 18.42775
#
# Velocity S-wave (km/s) = 2.69467 3.31659 3.02167
# Velocity P-wave (km/s) = 5.31538 5.93303 5.63268
#
# Compressibility (1/GPa) = 0.02667924
#
# Stress axis : x y z
#
# Youngs Moduli (GPa) = 41.70485 39.43491 41.12470
#
# Poissons Ratio (x) = 0.12598 0.29864
# Poissons Ratio (y) = 0.13323 0.53586
# Poissons Ratio (z) = 0.30286 0.51385
#
# Static dielectric constant tensor:
#      x y z
#    x 1.709360 0.000000 0.021940 
#    y 0.000000 1.683830 0.000000 
#    z 0.021940 0.000000 1.773420 
# 
# From -- ./inp_files/16679.got.cif
#   From: 2010.05.17/outbox.cif.g08.bks.cpg/sg5_9_cif.got.tgz:16679.got - 2010.06.03 18:56:24.
