data_PCOD9126433
_publ_section_title
;
Structure prediction by ZEFSAII (Michael W. Deem and Ramdas Pophale) SiO2 
 PCOD9126433
Probable space group: C 2
;
_chemical_formula_sum "Si O2"
_cell_formula_units_Z 24
_cell_length_a 15.222904
_cell_length_b 7.344763
_cell_length_c 9.201271
_cell_angle_alpha 90.000000
_cell_angle_beta 76.830957
_cell_angle_gamma 90.000000
_cell_volume 1001.726681
_symmetry_space_group_name_H-M "C 2"
_symmetry_group_IT_number 5
_symmetry_cell_setting 'monoclinic'
loop_
_space_group_symop_operation_xyz
x,y,z
-x,y,-z
1/2+x,1/2+y,z
1/2-x,1/2+y,-z
loop_
_atom_site_type_symbol
_atom_site_label
_atom_site_fract_x
_atom_site_fract_y
_atom_site_fract_z
Si Si1 0.227001 0.974940 0.663214
Si Si2 0.582330 0.809203 0.872137
Si Si3 0.718253 0.315103 0.169780
Si Si4 0.416760 0.905447 0.466372
Si Si5 0.099472 0.024567 0.446751
Si Si6 0.601692 0.371727 0.927778
O O1 0.313395 0.959443 0.526419
O O2 0.151121 0.039438 0.579113
O O3 0.170433 0.817865 0.769548
O O4 0.265393 0.114109 0.769705
O O5 0.679224 0.883665 0.887560
O O6 0.569428 0.864009 0.708951
O O7 0.586791 0.588520 0.896337
O O8 0.500000 0.875882 0.000000
O O9 0.662129 0.424655 0.310646
O O10 0.660474 0.333879 0.047427
O O11 0.500000 0.021815 0.500000
O O12 0.417310 0.735528 0.582126
O O13 0.000000 0.942225 0.500000
O O14 0.500000 0.302692 0.000000
#
# Coordination Sequence:
#
# PCOD9126433 Si02
#       6
#     4   4   4   4   4   4
#     4  11  22  44  63  99 137 167 215 274 326 384
#     4  10  22  42  65  95 129 171 219 266 316 395
#     4  11  23  39  69  98 128 171 215 272 329 372
#     4  11  24  40  69  97 127 175 219 265 328 386
#     4  11  21  39  69 100 123 171 225 264 317 383
#     4  10  22  40  66  94 131 172 220 262 319 391
#
# _framework density 23.958631
#
# number of rings (size 3 to 8) (size 9 to 14) (size 15 to 20)
#    0.000    1.333    5.000    1.000    9.333    2.000 
#    0.000    1.667    7.333    0.000    0.000    0.000 
#    0.000    0.000    0.000    0.000    0.000    0.000 
#
# Total GULP energy -66857.708739 kJ/mol
# GULP energy per Si atom -5571.475728 kJ/mol
# Density = 2.390410 g / cm^3
# Si number density = 23.958631 Si / 1000 Ang^3
#
#
#
# Elastic Constant Matrix: (Units=GPa)
#
#
# Indices 1 2 3 4 5 6 
#
# 1 242.6010 7.5372 93.5336 0.0000 -14.4718 0.0000
# 2 7.5372 43.3028 7.9407 0.0000 -3.1288 0.0000
# 3 93.5336 7.9407 153.4857 0.0000 -17.3869 0.0000
# 4 0.0000 0.0000 0.0000 15.8520 0.0000 -12.0224
# 5 -14.4718 -3.1288 -17.3869 0.0000 62.7749 0.0000
# 6 0.0000 0.0000 0.0000 -12.0224 0.0000 45.1456
#
#
#
# Elastic Compliance Matrix: (Units=1/GPa)
#
#
# Indices 1 2 3 4 5 6 
#
# 1 0.005400 -0.000322 -0.003236 0.000000 0.000332 0.000000
# 2 -0.000322 0.023378 -0.000918 0.000000 0.000837 0.000000
# 3 -0.003236 -0.000918 0.008719 0.000000 0.001623 0.000000
# 4 0.000000 0.000000 0.000000 0.079049 0.000000 0.021051
# 5 0.000332 0.000837 0.001623 0.000000 0.016498 0.000000
# 6 0.000000 0.000000 0.000000 0.021051 0.000000 0.027756
#
#
# Mechanical properties :
#
#
# Convention : Reuss Voigt Hill
#
# Bulk Modulus (GPa) = 35.03506 73.04583 54.04044
# Shear Modulus (GPa) = 27.89128 46.77969 37.33548
#
# Velocity S-wave (km/s) = 3.41566 4.42353 3.95185
# Velocity P-wave (km/s) = 5.49641 7.52626 6.58996
#
# Compressibility (1/GPa) = 0.02854284
#
# Stress axis : x y z
#
# Youngs Moduli (GPa) = 185.20233 42.77501 114.69605
#
# Poissons Ratio (x) = 0.01379 0.37117
# Poissons Ratio (y) = 0.05971 0.10532
# Poissons Ratio (z) = 0.59933 0.03928
#
# Static dielectric constant tensor:
#      x y z
#    x 2.080820 0.000000 -0.084470 
#    y 0.000000 2.070120 0.000000 
#    z -0.084470 0.000000 1.776910 
# 
# From -- ./inp_files/22804.got.cif
#   From: 2010.05.17/outbox.cif.g08.bks.cpg/sg5_12_cif.got.tgz:22804.got - 2010.06.03 18:56:24.
