data_PCOD9126051
_publ_section_title
;
Structure prediction by ZEFSAII (Michael W. Deem and Ramdas Pophale) SiO2 
 PCOD9126051
Probable space group: C 2
;
_chemical_formula_sum "Si O2"
_cell_formula_units_Z 28
_cell_length_a 9.272832
_cell_length_b 13.216431
_cell_length_c 10.935317
_cell_angle_alpha 90.000000
_cell_angle_beta 111.677023
_cell_angle_gamma 90.000000
_cell_volume 1245.388680
_symmetry_space_group_name_H-M "C 2"
_symmetry_group_IT_number 5
_symmetry_cell_setting 'monoclinic'
loop_
_space_group_symop_operation_xyz
x,y,z
-x,y,-z
1/2+x,1/2+y,z
1/2-x,1/2+y,-z
loop_
_atom_site_type_symbol
_atom_site_label
_atom_site_fract_x
_atom_site_fract_y
_atom_site_fract_z
Si Si1 0.136419 0.994080 0.947640
Si Si2 0.871833 0.728044 0.548447
Si Si3 0.801452 0.385724 0.208729
Si Si4 0.127783 0.788742 0.801318
Si Si5 0.816475 0.681320 0.941610
Si Si6 0.819048 0.503357 0.453841
Si Si7 0.163985 0.356901 0.357793
O O1 0.087132 0.895845 0.853163
O O2 0.271578 0.954227 0.080200
O O3 0.000000 0.022641 0.000000
O O4 0.204628 0.085507 0.888968
O O5 0.713565 0.789800 0.491731
O O6 0.000000 0.780431 0.500000
O O7 0.976254 0.729087 0.702116
O O8 0.173835 0.623414 0.530573
O O9 0.748520 0.452095 0.310777
O O10 0.983390 0.362564 0.276245
O O11 0.719021 0.278365 0.154819
O O12 0.210562 0.720958 0.928856
O O13 0.248585 0.814278 0.732065
O O14 0.000000 0.656235 0.000000
O O15 0.768868 0.463011 0.571051
O O16 0.000000 0.474308 0.500000
#
# Coordination Sequence:
#
# PCOD9126051 Si02
#       7
#     4   4   4   4   4   4   4
#     4  11  27  44  71  97 132 190 227 296 350 407
#     4   9  20  38  63  96 130 182 220 278 351 399
#     4  10  23  43  66  99 142 174 238 283 348 419
#     4  10  23  43  66  99 142 174 238 283 348 419
#     4  11  27  44  71  97 132 190 227 296 350 407
#     4   9  20  38  63  96 130 182 220 278 351 399
#     4  10  22  37  68 101 132 182 224 296 332 418
#
# _framework density 22.482939999999999
#
# number of rings (size 3 to 8) (size 9 to 14) (size 15 to 20)
#    0.000    2.000    0.000    1.714   16.000    1.143 
#    0.000    0.000    0.000    0.000    0.000    0.000 
#    0.000    0.000    0.000    0.000    0.000    0.000 
#
# Total GULP energy -78003.189809 kJ/mol
# GULP energy per Si atom -5571.656415 kJ/mol
# Density = 2.243177 g / cm^3
# Si number density = 22.482940 Si / 1000 Ang^3
#
#
#
# Elastic Constant Matrix: (Units=GPa)
#
#
# Indices 1 2 3 4 5 6 
#
# 1 64.1656 24.9739 17.4531 0.0000 10.0244 0.0000
# 2 24.9739 92.5110 20.0899 0.0000 12.4540 0.0000
# 3 17.4531 20.0899 94.4666 0.0000 16.3296 0.0000
# 4 0.0000 0.0000 0.0000 23.4430 0.0000 0.0847
# 5 10.0244 12.4540 16.3296 0.0000 37.0598 0.0000
# 6 0.0000 0.0000 0.0000 0.0847 0.0000 31.4449
#
#
#
# Elastic Compliance Matrix: (Units=1/GPa)
#
#
# Indices 1 2 3 4 5 6 
#
# 1 0.018144 -0.004104 -0.002024 0.000000 -0.002637 0.000000
# 2 -0.004104 0.012572 -0.001491 0.000000 -0.002458 0.000000
# 3 -0.002024 -0.001491 0.012010 0.000000 -0.004244 0.000000
# 4 0.000000 0.000000 0.000000 0.042657 0.000000 -0.000115
# 5 -0.002637 -0.002458 -0.004244 0.000000 0.030393 0.000000
# 6 0.000000 0.000000 0.000000 -0.000115 0.000000 0.031802
#
#
# Mechanical properties :
#
#
# Convention : Reuss Voigt Hill
#
# Bulk Modulus (GPa) = 36.37604 41.79744 39.08674
# Shear Modulus (GPa) = 29.07357 30.96463 30.01910
#
# Velocity S-wave (km/s) = 3.59993 3.71516 3.65800
# Velocity P-wave (km/s) = 5.78738 6.08558 5.93835
#
# Compressibility (1/GPa) = 0.02749063
#
# Stress axis : x y z
#
# Youngs Moduli (GPa) = 55.11374 79.54225 83.26252
#
# Poissons Ratio (x) = 0.32642 0.16850
# Poissons Ratio (y) = 0.22617 0.12411
# Poissons Ratio (z) = 0.11153 0.11856
#
# Static dielectric constant tensor:
#      x y z
#    x 1.871090 0.000000 -0.032520 
#    y 0.000000 1.898030 0.000000 
#    z -0.032520 0.000000 1.897300 
# 
# From -- ./inp_files/36199.got.cif
#   From: 2010.05.17/outbox.cif.g08.bks.cpg/sg5_19_cif.got.tgz:36199.got - 2010.06.03 18:56:24.
