data_PCOD9126658
_publ_section_title
;
Structure prediction by ZEFSAII (Michael W. Deem and Ramdas Pophale) SiO2 
 PCOD9126658
Probable space group: C 2
;
_chemical_formula_sum "Si O2"
_cell_formula_units_Z 30
_cell_length_a 20.373016
_cell_length_b 8.239193
_cell_length_c 23.148069
_cell_angle_alpha 90.000000
_cell_angle_beta 159.675957
_cell_angle_gamma 90.000000
_cell_volume 1349.571972
_symmetry_space_group_name_H-M "C 2"
_symmetry_group_IT_number 5
_symmetry_cell_setting 'monoclinic'
loop_
_space_group_symop_operation_xyz
x,y,z
-x,y,-z
1/2+x,1/2+y,z
1/2-x,1/2+y,-z
loop_
_atom_site_type_symbol
_atom_site_label
_atom_site_fract_x
_atom_site_fract_y
_atom_site_fract_z
Si Si1 0.162159 0.489640 0.977862
Si Si2 0.625344 0.064710 0.160830
Si Si3 0.692549 0.824760 0.626270
Si Si4 0.500000 0.384765 0.500000
Si Si5 0.485415 0.306873 0.681914
Si Si6 0.838728 0.156691 0.513901
Si Si7 0.303451 0.158759 0.432269
Si Si8 0.558874 0.781790 0.793304
O O1 0.314034 0.362066 0.128815
O O2 0.264735 0.661674 0.060830
O O3 0.110370 0.441828 0.870107
O O4 0.989603 0.491679 0.879880
O O5 0.659552 0.252943 0.206171
O O6 0.834651 0.985480 0.330353
O O7 0.500000 0.045297 0.000000
O O8 0.500000 0.861918 0.500000
O O9 0.657726 0.680839 0.551154
O O10 0.741506 0.983335 0.630484
O O11 0.378125 0.273358 0.442887
O O12 0.359566 0.226830 0.627767
O O13 0.387402 0.475309 0.576505
O O14 0.469948 0.178420 0.617156
O O15 0.986503 0.275941 0.668135
O O16 0.115775 0.211207 0.312583
#
# Coordination Sequence:
#
# PCOD9126658 Si02
#       8
#     4   4   4   2   4   4   4   4
#     4  11  24  42  66 107 144 185 233 303 366 432
#     4  12  28  47  75 104 143 195 246 299 365 439
#     4  12  26  43  68  99 139 187 243 291 363 427
#     4  12  22  48  78  98 146 182 254 294 362 432
#     4  10  22  41  71 101 141 182 244 291 370 424
#     4  10  22  41  68 101 133 185 237 292 357 436
#     4  11  23  45  67 103 134 189 242 302 354 440
#     4  10  24  40  68 100 143 181 235 296 375 422
#
# _framework density 22.22927
#
# number of rings (size 3 to 8) (size 9 to 14) (size 15 to 20)
#    0.000    1.067    2.667    4.000    9.333    1.067 
#    0.000    2.000    0.000    0.000    0.000    0.000 
#    0.000    0.000    0.000    0.000    0.000    0.000 
#
# Total GULP energy -83844.738258 kJ/mol
# GULP energy per Si atom -5589.649217 kJ/mol
# Density = 2.217868 g / cm^3
# Si number density = 22.229270 Si / 1000 Ang^3
#
#
#
# Elastic Constant Matrix: (Units=GPa)
#
#
# Indices 1 2 3 4 5 6 
#
# 1 62.1575 2.2145 13.6292 -0.0130 -3.7703 -0.0032
# 2 2.2145 73.0625 38.0134 -0.0281 -6.2206 -0.0076
# 3 13.6292 38.0134 105.4505 -0.0283 -4.2275 -0.0086
# 4 -0.0130 -0.0281 -0.0283 34.2508 -0.0113 -8.8201
# 5 -3.7703 -6.2206 -4.2275 -0.0113 34.9644 -0.0012
# 6 -0.0032 -0.0076 -0.0086 -8.8201 -0.0012 34.5642
#
#
#
# Elastic Compliance Matrix: (Units=1/GPa)
#
#
# Indices 1 2 3 4 5 6 
#
# 1 0.016686 0.000890 -0.002411 0.000006 0.001666 0.000003
# 2 0.000890 0.017076 -0.006175 0.000011 0.002387 0.000005
# 3 -0.002411 -0.006175 0.012025 0.000005 0.000095 0.000003
# 4 0.000006 0.000011 0.000005 0.031250 0.000014 0.007974
# 5 0.001666 0.002387 0.000095 0.000014 0.029216 0.000005
# 6 0.000003 0.000005 0.000003 0.007974 0.000005 0.030967
#
#
# Mechanical properties :
#
#
# Convention : Reuss Voigt Hill
#
# Bulk Modulus (GPa) = 32.89925 38.70941 35.80433
# Shear Modulus (GPa) = 30.72339 33.21009 31.96674
#
# Velocity S-wave (km/s) = 3.72171 3.86940 3.79627
# Velocity P-wave (km/s) = 5.77064 6.11674 5.94621
#
# Compressibility (1/GPa) = 0.03039583
#
# Stress axis : x y z
#
# Youngs Moduli (GPa) = 59.93002 58.56184 83.16324
#
# Poissons Ratio (x) = -0.05215 0.20049
# Poissons Ratio (y) = -0.05336 0.51353
# Poissons Ratio (z) = 0.14448 0.36162
#
# Static dielectric constant tensor:
#      x y z
#    x 1.805820 0.000000 -0.031700 
#    y 0.000000 1.874630 0.000000 
#    z -0.031700 0.000000 1.836730 
# 
# From -- ./inp_files/69459.got.cif
#   From: 2010.05.17/outbox.cif.g08.bks.cpg/sg5_35_cif.got.tgz:69459.got - 2010.06.03 18:56:24.
