data_PCOD9126195
_publ_section_title
;
Structure prediction by ZEFSAII (Michael W. Deem and Ramdas Pophale) SiO2 
 PCOD9126195
Probable space group: C 2
;
_chemical_formula_sum "Si O2"
_cell_formula_units_Z 26
_cell_length_a 22.930716
_cell_length_b 7.880024
_cell_length_c 12.053603
_cell_angle_alpha 90.000000
_cell_angle_beta 31.683438
_cell_angle_gamma 90.000000
_cell_volume 1143.952526
_symmetry_space_group_name_H-M "C 2"
_symmetry_group_IT_number 5
_symmetry_cell_setting 'monoclinic'
loop_
_space_group_symop_operation_xyz
x,y,z
-x,y,-z
1/2+x,1/2+y,z
1/2-x,1/2+y,-z
loop_
_atom_site_type_symbol
_atom_site_label
_atom_site_fract_x
_atom_site_fract_y
_atom_site_fract_z
Si Si1 0.500000 0.126971 0.000000
Si Si2 0.977797 0.017910 0.908943
Si Si3 0.360408 0.855920 0.104622
Si Si4 0.358809 0.782105 0.869064
Si Si5 0.856005 0.770307 0.432806
Si Si6 0.167333 0.893781 0.029662
Si Si7 0.497980 0.095602 0.632705
O O1 0.406032 0.199095 0.237510
O O2 0.422357 0.024544 0.039219
O O3 0.864987 0.931201 0.045575
O O4 0.076473 0.948996 0.672210
O O5 0.000000 0.974193 0.000000
O O6 0.956507 0.215661 0.939349
O O7 0.273119 0.802524 0.340475
O O8 0.302546 0.843442 0.077230
O O9 0.365988 0.577484 0.861196
O O10 0.468480 0.897671 0.693992
O O11 0.288515 0.849262 0.878424
O O12 0.896180 0.649481 0.467368
O O13 0.096859 0.726620 0.172722
O O14 0.500000 0.130539 0.500000
#
# Coordination Sequence:
#
# PCOD9126195 Si02
#       7
#     2   4   4   4   4   4   4
#     4  12  24  40  68 104 134 176 234 282 338 430
#     4  10  22  43  65  95 137 173 225 282 334 406
#     4  11  25  43  70  96 138 182 227 287 344 409
#     4  11  21  42  67 101 135 182 234 283 350 413
#     4  11  25  43  68  99 133 186 225 282 352 403
#     4  10  22  38  69  92 132 181 218 288 348 398
#     4  11  23  42  66  99 140 177 233 291 339 419
#
# _framework density 22.728214000000001
#
# number of rings (size 3 to 8) (size 9 to 14) (size 15 to 20)
#    0.000    1.231    4.615    0.923    4.308    0.615 
#    0.000    1.538    0.000    0.000    0.000    0.000 
#    0.000    0.000    0.000    0.000    0.000    0.000 
#
# Total GULP energy -72440.139817 kJ/mol
# GULP energy per Si atom -5572.318447 kJ/mol
# Density = 2.267648 g / cm^3
# Si number density = 22.728214 Si / 1000 Ang^3
#
#
#
# Elastic Constant Matrix: (Units=GPa)
#
#
# Indices 1 2 3 4 5 6 
#
# 1 111.0753 10.7929 6.2771 0.0000 20.3220 0.0000
# 2 10.7929 78.0221 21.3905 0.0000 -2.4758 0.0000
# 3 6.2771 21.3905 53.0415 0.0000 5.4815 0.0000
# 4 0.0000 0.0000 0.0000 77.7924 0.0000 -152.8010
# 5 20.3220 -2.4758 5.4815 0.0000 30.9109 0.0000
# 6 0.0000 0.0000 0.0000 -152.8010 0.0000 474.4233
#
#
#
# Elastic Compliance Matrix: (Units=1/GPa)
#
#
# Indices 1 2 3 4 5 6 
#
# 1 0.010447 -0.001719 0.000184 0.000000 -0.007039 0.000000
# 2 -0.001719 0.014845 -0.006135 0.000000 0.003407 0.000000
# 3 0.000184 -0.006135 0.021768 0.000000 -0.004473 0.000000
# 4 0.000000 0.000000 0.000000 0.034991 0.000000 0.011270
# 5 -0.007039 0.003407 -0.004473 0.000000 0.038045 0.000000
# 6 0.000000 0.000000 0.000000 0.011270 0.000000 0.005738
#
#
# Mechanical properties :
#
#
# Convention : Reuss Voigt Hill
#
# Bulk Modulus (GPa) = 31.52597 35.45111 33.48854
# Shear Modulus (GPa) = 32.94961 130.20388 81.57674
#
# Velocity S-wave (km/s) = 3.81165 7.57705 5.99752
# Velocity P-wave (km/s) = 5.76824 9.60107 7.92001
#
# Compressibility (1/GPa) = 0.03171988
#
# Stress axis : x y z
#
# Youngs Moduli (GPa) = 95.71823 67.36336 45.93941
#
# Poissons Ratio (x) = 0.11580 -0.00847
# Poissons Ratio (y) = 0.16455 0.28185
# Poissons Ratio (z) = -0.01764 0.41329
#
# Static dielectric constant tensor:
#      x y z
#    x 1.905340 0.000000 0.027420 
#    y 0.000000 1.986250 0.000000 
#    z 0.027420 0.000000 1.828640 
# 
# From -- ./inp_files/47277.got.cif
#   From: 2010.05.17/outbox.cif.g08.bks.cpg/sg5_24_cif.got.tgz:47277.got - 2010.06.03 18:56:24.
