data_PCOD9126763
_publ_section_title
;
Structure prediction by ZEFSAII (Michael W. Deem and Ramdas Pophale) SiO2 
 PCOD9126763
Probable space group: C 2
;
_chemical_formula_sum "Si O2"
_cell_formula_units_Z 28
_cell_length_a 10.506445
_cell_length_b 8.878287
_cell_length_c 15.157410
_cell_angle_alpha 90.000000
_cell_angle_beta 89.784090
_cell_angle_gamma 90.000000
_cell_volume 1413.861556
_symmetry_space_group_name_H-M "C 2"
_symmetry_group_IT_number 5
_symmetry_cell_setting 'monoclinic'
loop_
_space_group_symop_operation_xyz
x,y,z
-x,y,-z
1/2+x,1/2+y,z
1/2-x,1/2+y,-z
loop_
_atom_site_type_symbol
_atom_site_label
_atom_site_fract_x
_atom_site_fract_y
_atom_site_fract_z
Si Si1 0.760111 0.543890 0.410072
Si Si2 0.094407 0.020070 0.133479
Si Si3 0.000000 0.772901 0.000000
Si Si4 0.485263 0.408673 0.683824
Si Si5 0.118768 0.517069 0.887320
Si Si6 0.000000 0.269136 0.000000
Si Si7 0.511109 0.049023 0.292386
Si Si8 0.738555 0.903358 0.398556
O O1 0.635593 0.461869 0.372198
O O2 0.885422 0.513244 0.350819
O O3 0.733520 0.722873 0.409234
O O4 0.784359 0.485057 0.508469
O O5 0.242869 0.025578 0.155317
O O6 0.055894 0.164219 0.076406
O O7 0.017366 0.995869 0.223147
O O8 0.070220 0.878771 0.069530
O O9 0.093361 0.665018 0.945313
O O10 0.472147 0.229817 0.701565
O O11 0.618660 0.437632 0.635202
O O12 0.017077 0.507818 0.808891
O O13 0.102427 0.377650 0.953543
O O14 0.632590 0.963010 0.330913
#
# Coordination Sequence:
#
# PCOD9126763 Si02
#       8
#     4   4   2   4   4   2   4   4
#     4  11  24  46  67  95 130 167 215 264 320 380
#     4  11  22  43  64  93 130 167 211 264 318 371
#     4  10  22  42  64  90 124 174 206 260 322 370
#     4  11  24  42  67  96 131 169 212 266 315 383
#     4  11  22  42  64  94 128 167 214 259 317 379
#     4  10  26  38  62  98 124 166 218 266 308 382
#     4  11  24  42  67  96 131 170 212 264 318 382
#     4  11  26  43  68  98 128 168 214 264 319 387
#
# _framework density 19.803920000000002
#
# number of rings (size 3 to 8) (size 9 to 14) (size 15 to 20)
#    0.000    1.143    2.857    2.571    2.000    6.857 
#   10.286    0.000    0.000    0.000    0.000    0.000 
#    0.000    0.000    0.000    0.000    0.000    0.000 
#
# Total GULP energy -78289.848395 kJ/mol
# GULP energy per Si atom -5592.132028 kJ/mol
# Density = 1.975885 g / cm^3
# Si number density = 19.803920 Si / 1000 Ang^3
#
#
#
# Elastic Constant Matrix: (Units=GPa)
#
#
# Indices 1 2 3 4 5 6 
#
# 1 65.6794 15.5614 -14.5117 0.0000 0.5804 0.0000
# 2 15.5614 67.5347 1.4710 0.0000 -5.6875 0.0000
# 3 -14.5117 1.4710 55.9913 0.0000 0.9478 0.0000
# 4 0.0000 0.0000 0.0000 -151.2798 0.0000 73.6761
# 5 0.5804 -5.6875 0.9478 0.0000 39.2613 0.0000
# 6 0.0000 0.0000 0.0000 73.6761 0.0000 -13.6147
#
#
#
# Elastic Compliance Matrix: (Units=1/GPa)
#
#
# Indices 1 2 3 4 5 6 
#
# 1 0.017232 -0.004152 0.004592 0.000000 -0.000967 0.000000
# 2 -0.004152 0.016001 -0.001537 0.000000 0.002416 0.000000
# 3 0.004592 -0.001537 0.019103 0.000000 -0.000752 0.000000
# 4 0.000000 0.000000 0.000000 0.004042 0.000000 0.021872
# 5 -0.000967 0.002416 -0.000752 0.000000 0.025853 0.000000
# 6 0.000000 0.000000 0.000000 0.021872 0.000000 0.044910
#
#
# Mechanical properties :
#
#
# Convention : Reuss Voigt Hill
#
# Bulk Modulus (GPa) = 19.94393 21.58299 20.76346
# Shear Modulus (GPa) = 34.23490 -12.68099 10.77696
#
# Velocity S-wave (km/s) = 4.16227 -2.53321 2.33530
# Velocity P-wave (km/s) = 5.76124 1.53811 4.21649
#
# Compressibility (1/GPa) = 0.05014056
#
# Stress axis : x y z
#
# Youngs Moduli (GPa) = 58.03052 62.49632 52.34755
#
# Poissons Ratio (x) = 0.25949 -0.24036
# Poissons Ratio (y) = 0.24095 0.08048
# Poissons Ratio (z) = -0.26646 0.09608
#
# Static dielectric constant tensor:
#      x y z
#    x 1.883840 0.000000 -0.097040 
#    y 0.000000 1.677370 0.000000 
#    z -0.097040 0.000000 1.709300 
# 
# From -- ./inp_files/59352.got.cif
#   From: 2010.05.17/outbox.cif.g08.bks.cpg/sg5_30_cif.got.tgz:59352.got - 2010.06.03 18:56:24.
