data_PCOD9126681
_publ_section_title
;
Structure prediction by ZEFSAII (Michael W. Deem and Ramdas Pophale) SiO2 
 PCOD9126681
Probable space group: C 2
;
_chemical_formula_sum "Si O2"
_cell_formula_units_Z 32
_cell_length_a 8.630826
_cell_length_b 23.928656
_cell_length_c 14.639325
_cell_angle_alpha 90.000000
_cell_angle_beta 30.373366
_cell_angle_gamma 90.000000
_cell_volume 1528.716425
_symmetry_space_group_name_H-M "C 2"
_symmetry_group_IT_number 5
_symmetry_cell_setting 'monoclinic'
loop_
_space_group_symop_operation_xyz
x,y,z
-x,y,-z
1/2+x,1/2+y,z
1/2-x,1/2+y,-z
loop_
_atom_site_type_symbol
_atom_site_label
_atom_site_fract_x
_atom_site_fract_y
_atom_site_fract_z
Si Si1 0.642058 0.685310 0.021849
Si Si2 0.623264 0.552801 0.037846
Si Si3 0.806524 0.081108 0.380256
Si Si4 0.112272 0.467587 0.840576
Si Si5 0.868591 0.172685 0.666428
Si Si6 0.336825 0.968284 0.485742
Si Si7 0.875232 0.262376 0.801799
Si Si8 0.135004 0.389803 0.183079
O O1 0.572988 0.619516 0.064143
O O2 0.527932 0.723954 0.162090
O O3 0.500000 0.706195 0.000000
O O4 0.008804 0.682767 0.837877
O O5 0.461814 0.543658 0.220034
O O6 0.500000 0.533586 0.000000
O O7 0.960254 0.524819 0.876409
O O8 0.500000 0.111684 0.500000
O O9 0.040799 0.122568 0.310332
O O10 0.663149 0.035879 0.523476
O O11 0.475095 0.458804 0.656154
O O12 0.965674 0.417061 0.859897
O O13 0.000000 0.466104 0.000000
O O14 0.980602 0.229467 0.658008
O O15 0.000000 0.161449 0.500000
O O16 0.500000 0.955550 0.500000
O O17 0.509972 0.931364 0.323851
O O18 0.978725 0.326231 0.749830
O O19 0.500000 0.262791 0.000000
O O20 0.500000 0.388675 0.000000
#
# Coordination Sequence:
#
# PCOD9126681 Si02
#       8
#     4   4   4   4   4   4   4   4
#     4  10  22  41  69  98 131 174 223 272 337 401
#     4  11  24  41  70 102 136 177 220 271 339 408
#     4  11  25  42  63 103 144 173 219 276 336 405
#     4  12  24  41  67 100 133 178 223 276 342 401
#     4  11  24  40  67 101 135 174 216 277 337 399
#     4  11  25  44  65  96 138 177 224 278 333 401
#     4   9  21  45  69  94 130 174 230 278 329 395
#     4  11  25  45  70  96 133 182 228 282 336 402
#
# _framework density 20.932594000000002
#
# number of rings (size 3 to 8) (size 9 to 14) (size 15 to 20)
#    0.000    1.250    2.500    2.250    8.750    2.000 
#    0.000    6.250    0.000    0.000    0.000    0.000 
#    0.000    0.000    0.000    0.000    0.000    0.000 
#
# Total GULP energy -89224.698468 kJ/mol
# GULP energy per Si atom -5576.543654 kJ/mol
# Density = 2.088495 g / cm^3
# Si number density = 20.932594 Si / 1000 Ang^3
#
#
#
# Elastic Constant Matrix: (Units=GPa)
#
#
# Indices 1 2 3 4 5 6 
#
# 1 158.0671 55.4966 44.2882 -0.0003 -0.9704 0.0002
# 2 55.4966 112.5061 24.1211 -0.0001 6.5336 0.0000
# 3 44.2882 24.1211 78.7222 -0.0003 -3.8267 0.0003
# 4 -0.0003 -0.0001 -0.0003 6.7337 0.0003 11.4645
# 5 -0.9704 6.5336 -3.8267 0.0003 37.2936 -0.0002
# 6 0.0002 0.0000 0.0003 11.4645 -0.0002 7.6717
#
#
#
# Elastic Compliance Matrix: (Units=1/GPa)
#
#
# Indices 1 2 3 4 5 6 
#
# 1 0.008596 -0.003461 -0.003754 0.000000 0.000445 0.000000
# 2 -0.003461 0.011054 -0.001546 0.000000 -0.002185 0.000000
# 3 -0.003754 -0.001546 0.015374 -0.000001 0.001751 0.000001
# 4 0.000000 0.000000 -0.000001 -0.096167 0.000001 0.143710
# 5 0.000445 -0.002185 0.001751 0.000001 0.027388 -0.000001
# 6 0.000000 0.000000 0.000001 0.143710 -0.000001 -0.084409
#
#
# Mechanical properties :
#
#
# Convention : Reuss Voigt Hill
#
# Bulk Modulus (GPa) = 57.13801 66.34524 61.74163
# Shear Modulus (GPa) = -52.73884 25.36575 -13.68654
#
# Velocity S-wave (km/s) = -5.02487 3.48484 -2.55980
# Velocity P-wave (km/s) = 2.51203 6.92500 4.56319
#
# Compressibility (1/GPa) = 0.01750148
#
# Stress axis : x y z
#
# Youngs Moduli (GPa) = 116.33038 90.46358 65.04645
#
# Poissons Ratio (x) = 0.31312 0.24418
# Poissons Ratio (y) = 0.40266 0.10056
# Poissons Ratio (z) = 0.43670 0.13986
#
# Static dielectric constant tensor:
#      x y z
#    x 1.811160 0.000000 -0.005360 
#    y 0.000000 1.750050 0.000000 
#    z -0.005360 0.000000 1.856830 
# 
# From -- ./inp_files/51692.got.cif
#   From: 2010.05.17/outbox.cif.g08.bks.cpg/sg5_26_cif.got.tgz:51692.got - 2010.06.03 18:56:24.
