data_PCOD9126498
_publ_section_title
;
Structure prediction by ZEFSAII (Michael W. Deem and Ramdas Pophale) SiO2 
 PCOD9126498
Probable space group: C 2
;
_chemical_formula_sum "Si O2"
_cell_formula_units_Z 28
_cell_length_a 13.862569
_cell_length_b 8.326687
_cell_length_c 21.516209
_cell_angle_alpha 90.000000
_cell_angle_beta 29.027874
_cell_angle_gamma 90.000000
_cell_volume 1205.129970
_symmetry_space_group_name_H-M "C 2"
_symmetry_group_IT_number 5
_symmetry_cell_setting 'monoclinic'
loop_
_space_group_symop_operation_xyz
x,y,z
-x,y,-z
1/2+x,1/2+y,z
1/2-x,1/2+y,-z
loop_
_atom_site_type_symbol
_atom_site_label
_atom_site_fract_x
_atom_site_fract_y
_atom_site_fract_z
Si Si1 0.131900 0.189260 0.365546
Si Si2 0.297145 0.249158 0.792017
Si Si3 0.057515 0.046242 0.650964
Si Si4 0.000000 0.486661 0.000000
Si Si5 0.491167 0.059247 0.575764
Si Si6 0.533886 0.326709 0.111007
Si Si7 0.855861 0.136394 0.876551
Si Si8 0.000000 0.996602 0.000000
O O1 0.373935 0.197926 0.227561
O O2 0.000000 0.138654 0.500000
O O3 0.087282 0.378357 0.382539
O O4 0.048297 0.096063 0.353032
O O5 0.476595 0.365967 0.713346
O O6 0.357952 0.169794 0.693745
O O7 0.197845 0.110141 0.890712
O O8 0.118065 0.373745 0.886351
O O9 0.292501 0.048912 0.515179
O O10 0.000716 0.173019 0.737503
O O11 0.839369 0.580905 0.051539
O O12 0.500000 0.118585 0.500000
O O13 0.543377 0.488085 0.145722
O O14 0.759652 0.260505 0.978332
O O15 0.477936 0.388038 0.073382
#
# Coordination Sequence:
#
# PCOD9126498 Si02
#       8
#     4   4   4   2   4   4   4   2
#     4  11  24  46  69  96 139 183 221 279 341 404
#     4  10  22  40  69  91 129 174 225 278 328 394
#     4  11  24  44  67  99 137 179 230 275 339 399
#     4   9  21  42  66  93 135 172 224 281 331 394
#     4  11  23  41  67  96 134 180 226 281 335 400
#     4  12  25  44  69 102 137 176 226 280 341 406
#     4  11  25  41  69  98 134 178 225 280 337 398
#     4  11  23  44  70  93 135 174 224 277 349 396
#
# _framework density 23.234010000000001
#
# number of rings (size 3 to 8) (size 9 to 14) (size 15 to 20)
#    0.000    1.143    1.429    5.571    6.000    1.714 
#    0.000    0.000    0.000    0.000    0.000    0.000 
#    0.000    0.000    0.000    0.000    0.000    0.000 
#
# Total GULP energy -78190.738695 kJ/mol
# GULP energy per Si atom -5585.052764 kJ/mol
# Density = 2.318113 g / cm^3
# Si number density = 23.234010 Si / 1000 Ang^3
#
#
#
# Elastic Constant Matrix: (Units=GPa)
#
#
# Indices 1 2 3 4 5 6 
#
# 1 75.4275 10.2419 20.6026 0.0000 9.6326 -0.0001
# 2 10.2419 39.4723 32.9325 0.0001 3.6110 -0.0002
# 3 20.6026 32.9325 121.0081 -0.0005 25.6938 -0.0004
# 4 0.0000 0.0001 -0.0005 22.0202 0.0001 8.6649
# 5 9.6326 3.6110 25.6938 0.0001 32.5017 0.0001
# 6 -0.0001 -0.0002 -0.0004 8.6649 0.0001 21.4272
#
#
#
# Elastic Compliance Matrix: (Units=1/GPa)
#
#
# Indices 1 2 3 4 5 6 
#
# 1 0.014293 -0.002514 -0.001092 0.000000 -0.003093 0.000000
# 2 -0.002514 0.033679 -0.009736 -0.000001 0.004700 0.000000
# 3 -0.001092 -0.009736 0.012980 0.000000 -0.008856 0.000000
# 4 0.000000 -0.000001 0.000000 0.054007 0.000000 -0.021839
# 5 -0.003093 0.004700 -0.008856 0.000000 0.038163 0.000000
# 6 0.000000 0.000000 0.000000 -0.021839 0.000000 0.055501
#
#
# Mechanical properties :
#
#
# Convention : Reuss Voigt Hill
#
# Bulk Modulus (GPa) = 29.18249 40.38465 34.78357
# Shear Modulus (GPa) = 20.26514 26.66522 23.46518
#
# Velocity S-wave (km/s) = 2.95654 3.39142 3.18142
# Velocity P-wave (km/s) = 4.92365 5.72320 5.33842
#
# Compressibility (1/GPa) = 0.03426712
#
# Stress axis : x y z
#
# Youngs Moduli (GPa) = 69.96659 29.69187 77.04268
#
# Poissons Ratio (x) = 0.07465 0.08417
# Poissons Ratio (y) = 0.17590 0.75006
# Poissons Ratio (z) = 0.07644 0.28907
#
# Static dielectric constant tensor:
#      x y z
#    x 1.866130 0.000000 0.020560 
#    y 0.000000 1.914950 0.000000 
#    z 0.020560 0.000000 1.972820 
# 
# From -- ./inp_files/46114.got.cif
#   From: 2010.05.17/outbox.cif.g08.bks.cpg/sg5_24_cif.got.tgz:46114.got - 2010.06.03 18:56:24.
