data_PCOD9126014
_publ_section_title
;
Structure prediction by ZEFSAII (Michael W. Deem and Ramdas Pophale) SiO2 
 PCOD9126014
Probable space group: C 2
;
_chemical_formula_sum "Si O2"
_cell_formula_units_Z 28
_cell_length_a 9.636051
_cell_length_b 10.792153
_cell_length_c 15.084111
_cell_angle_alpha 90.000000
_cell_angle_beta 118.918485
_cell_angle_gamma 90.000000
_cell_volume 1373.055462
_symmetry_space_group_name_H-M "C 2"
_symmetry_group_IT_number 5
_symmetry_cell_setting 'monoclinic'
loop_
_space_group_symop_operation_xyz
x,y,z
-x,y,-z
1/2+x,1/2+y,z
1/2-x,1/2+y,-z
loop_
_atom_site_type_symbol
_atom_site_label
_atom_site_fract_x
_atom_site_fract_y
_atom_site_fract_z
Si Si1 0.469585 0.877460 0.396598
Si Si2 0.447679 0.219035 0.720965
Si Si3 0.357398 0.313335 0.888555
Si Si4 0.764249 0.036581 0.443636
Si Si5 0.044669 0.968640 0.654107
Si Si6 0.751378 0.055836 0.767595
Si Si7 0.956039 0.190345 0.228120
O O1 0.500000 0.812979 0.500000
O O2 0.484319 0.785330 0.318247
O O3 0.611519 0.975632 0.438774
O O4 0.314439 0.962421 0.330036
O O5 0.403978 0.251707 0.808233
O O6 0.296658 0.159295 0.624366
O O7 0.493436 0.341566 0.681558
O O8 0.597224 0.125744 0.758607
O O9 0.326613 0.458815 0.859896
O O10 0.191181 0.252386 0.868563
O O11 0.500000 0.295413 0.000000
O O12 0.827322 0.950199 0.383317
O O13 0.900948 0.038253 0.558789
O O14 0.103090 0.061479 0.747500
O O15 0.883722 0.151775 0.773529
#
# Coordination Sequence:
#
# PCOD9126014 Si02
#       7
#     4   4   4   4   4   4   4
#     4  10  22  37  59  91 133 174 218 253 311 382
#     4  11  23  45  64  93 137 171 212 269 317 384
#     4  11  25  45  70  95 123 168 221 277 334 382
#     4  10  23  37  58  95 133 175 216 252 308 386
#     4  11  22  36  63  94 131 176 211 259 317 385
#     4  10  23  44  66  93 130 168 216 269 321 382
#     4  11  22  39  67  90 126 169 211 270 323 381
#
# _framework density 20.392475999999998
#
# number of rings (size 3 to 8) (size 9 to 14) (size 15 to 20)
#    0.000    1.429    2.857    1.714    6.000    1.143 
#   10.286    0.000    0.000    0.000    0.000    0.000 
#    0.000    0.000    0.000    0.000    0.000    0.000 
#
# Total GULP energy -78176.767796 kJ/mol
# GULP energy per Si atom -5584.054843 kJ/mol
# Density = 2.034606 g / cm^3
# Si number density = 20.392476 Si / 1000 Ang^3
#
#
#
# Elastic Constant Matrix: (Units=GPa)
#
#
# Indices 1 2 3 4 5 6 
#
# 1 94.9103 27.5389 28.9600 0.0000 15.6431 0.0000
# 2 27.5389 97.6538 44.6468 0.0000 8.0553 0.0000
# 3 28.9600 44.6468 92.4976 0.0000 26.7436 0.0000
# 4 0.0000 0.0000 0.0000 21.4035 0.0000 7.6980
# 5 15.6431 8.0553 26.7436 0.0000 24.1879 0.0000
# 6 0.0000 0.0000 0.0000 7.6980 0.0000 45.9348
#
#
#
# Elastic Compliance Matrix: (Units=1/GPa)
#
#
# Indices 1 2 3 4 5 6 
#
# 1 0.012606 -0.002651 -0.000831 0.000000 -0.006351 0.000000
# 2 -0.002651 0.013949 -0.007431 0.000000 0.005285 0.000000
# 3 -0.000831 -0.007431 0.020266 0.000000 -0.019395 0.000000
# 4 0.000000 0.000000 0.000000 0.049718 0.000000 -0.008332
# 5 -0.006351 0.005285 -0.019395 0.000000 0.065134 0.000000
# 6 0.000000 0.000000 0.000000 -0.008332 0.000000 0.023166
#
#
# Mechanical properties :
#
#
# Convention : Reuss Voigt Hill
#
# Bulk Modulus (GPa) = 40.00873 54.15032 47.07952
# Shear Modulus (GPa) = 23.25608 30.56632 26.91120
#
# Velocity S-wave (km/s) = 3.38068 3.87577 3.63666
# Velocity P-wave (km/s) = 5.90767 6.82938 6.38518
#
# Compressibility (1/GPa) = 0.02499455
#
# Stress axis : x y z
#
# Youngs Moduli (GPa) = 79.32848 71.68750 49.34448
#
# Poissons Ratio (x) = 0.19006 0.04099
# Poissons Ratio (y) = 0.21031 0.36669
# Poissons Ratio (z) = 0.06590 0.53273
#
# Static dielectric constant tensor:
#      x y z
#    x 1.777200 0.000000 0.005860 
#    y 0.000000 1.731280 0.000000 
#    z 0.005860 0.000000 1.718610 
# 
# From -- ./inp_files/50379.got.cif
#   From: 2010.05.17/outbox.cif.g08.bks.cpg/sg5_26_cif.got.tgz:50379.got - 2010.06.03 18:56:24.
