data_PCOD9126684
_publ_section_title
;
Structure prediction by ZEFSAII (Michael W. Deem and Ramdas Pophale) SiO2 
 PCOD9126684
Probable space group: C 2
;
_chemical_formula_sum "Si O2"
_cell_formula_units_Z 20
_cell_length_a 7.132127
_cell_length_b 13.193183
_cell_length_c 8.953676
_cell_angle_alpha 90.000000
_cell_angle_beta 69.651921
_cell_angle_gamma 90.000000
_cell_volume 789.926093
_symmetry_space_group_name_H-M "C 2"
_symmetry_group_IT_number 5
_symmetry_cell_setting 'monoclinic'
loop_
_space_group_symop_operation_xyz
x,y,z
-x,y,-z
1/2+x,1/2+y,z
1/2-x,1/2+y,-z
loop_
_atom_site_type_symbol
_atom_site_label
_atom_site_fract_x
_atom_site_fract_y
_atom_site_fract_z
Si Si1 0.916646 0.405160 0.678460
Si Si2 0.976081 0.839361 0.341000
Si Si3 0.289745 0.361605 0.989925
Si Si4 0.694487 0.602319 0.033838
Si Si5 0.414825 0.120777 0.265096
O O1 0.681081 0.413196 0.698923
O O2 0.887741 0.341681 0.841935
O O3 0.034863 0.511380 0.673285
O O4 0.000000 0.359087 0.500000
O O5 0.817094 0.838442 0.807973
O O6 0.000000 0.877366 0.500000
O O7 0.897134 0.722914 0.366553
O O8 0.269545 0.618252 0.800208
O O9 0.500000 0.323588 0.000000
O O10 0.292725 0.482420 0.989834
O O11 0.887832 0.638723 0.890319
O O12 0.500000 0.639941 0.000000
#
# Coordination Sequence:
#
# PCOD9126684 Si02
#       5
#     4   4   4   4   4
#     4  10  22  42  69 101 139 184 238 292 365 422
#     4  11  24  43  69 102 144 188 236 298 356 425
#     4   8  18  38  66  92 130 179 225 280 356 414
#     4   9  19  39  69 104 133 185 240 285 363 429
#     4  10  22  41  70 100 144 185 234 303 357 426
#
# _framework density 25.318826000000001
#
# number of rings (size 3 to 8) (size 9 to 14) (size 15 to 20)
#    0.000    2.400    0.000    1.800   11.200    0.000 
#    3.600    0.000    0.000    0.000    0.000    0.000 
#    0.000    0.000    0.000    0.000    0.000    0.000 
#
# Total GULP energy -55717.272196 kJ/mol
# GULP energy per Si atom -5571.727220 kJ/mol
# Density = 2.526120 g / cm^3
# Si number density = 25.318826 Si / 1000 Ang^3
#
#
#
# Elastic Constant Matrix: (Units=GPa)
#
#
# Indices 1 2 3 4 5 6 
#
# 1 123.9190 22.7697 41.7452 0.0000 22.2710 0.0000
# 2 22.7697 121.2622 10.0265 0.0000 14.2210 0.0000
# 3 41.7452 10.0265 180.0595 0.0000 -9.2716 0.0000
# 4 0.0000 0.0000 0.0000 28.1803 0.0000 13.9316
# 5 22.2710 14.2210 -9.2716 0.0000 51.2165 0.0000
# 6 0.0000 0.0000 0.0000 13.9316 0.0000 21.1169
#
#
#
# Elastic Compliance Matrix: (Units=1/GPa)
#
#
# Indices 1 2 3 4 5 6 
#
# 1 0.009905 -0.001136 -0.002462 0.000000 -0.004437 0.000000
# 2 -0.001136 0.008720 -0.000324 0.000000 -0.001986 0.000000
# 3 -0.002462 -0.000324 0.006261 0.000000 0.002294 0.000000
# 4 0.000000 0.000000 0.000000 0.052662 0.000000 -0.034743
# 5 -0.004437 -0.001986 0.002294 0.000000 0.022421 0.000000
# 6 0.000000 0.000000 0.000000 -0.034743 0.000000 0.070277
#
#
# Mechanical properties :
#
#
# Convention : Reuss Voigt Hill
#
# Bulk Modulus (GPa) = 58.68094 63.81372 61.24733
# Shear Modulus (GPa) = 27.20793 43.48270 35.34531
#
# Velocity S-wave (km/s) = 3.28168 4.14866 3.74037
# Velocity P-wave (km/s) = 6.13077 6.94314 6.54957
#
# Compressibility (1/GPa) = 0.01704131
#
# Stress axis : x y z
#
# Youngs Moduli (GPa) = 100.95591 114.68390 159.72853
#
# Poissons Ratio (x) = 0.13028 0.39320
# Poissons Ratio (y) = 0.11469 0.05182
# Poissons Ratio (z) = 0.24852 0.03721
#
# Static dielectric constant tensor:
#      x y z
#    x 2.052580 0.000000 -0.023350 
#    y 0.000000 2.038500 0.000000 
#    z -0.023350 0.000000 2.116480 
# 
# From -- ./inp_files/15413.got.cif
#   From: 2010.05.17/outbox.cif.g08.bks.cpg/sg5_8_cif.got.tgz:15413.got - 2010.06.03 18:56:24.
