data_PCOD9126896
_publ_section_title
;
Structure prediction by ZEFSAII (Michael W. Deem and Ramdas Pophale) SiO2 
 PCOD9126896
Probable space group: C 2
;
_chemical_formula_sum "Si O2"
_cell_formula_units_Z 26
_cell_length_a 11.434226
_cell_length_b 11.876479
_cell_length_c 11.066172
_cell_angle_alpha 90.000000
_cell_angle_beta 133.760939
_cell_angle_gamma 90.000000
_cell_volume 1085.346911
_symmetry_space_group_name_H-M "C 2"
_symmetry_group_IT_number 5
_symmetry_cell_setting 'monoclinic'
loop_
_space_group_symop_operation_xyz
x,y,z
-x,y,-z
1/2+x,1/2+y,z
1/2-x,1/2+y,-z
loop_
_atom_site_type_symbol
_atom_site_label
_atom_site_fract_x
_atom_site_fract_y
_atom_site_fract_z
Si Si1 0.253049 0.247590 0.165344
Si Si2 0.500000 0.543291 0.000000
Si Si3 0.000000 0.449214 0.000000
Si Si4 0.045257 0.516541 0.287393
Si Si5 0.404409 0.792099 0.557958
Si Si6 0.967248 0.860384 0.761071
Si Si7 0.000000 0.656589 0.500000
Si Si8 0.577899 0.556192 0.430722
O O1 0.387589 0.270426 0.154404
O O2 0.346269 0.232599 0.360170
O O3 0.146306 0.132063 0.074611
O O4 0.147306 0.360011 0.102221
O O5 0.462635 0.451966 0.866804
O O6 0.017880 0.527010 0.893735
O O7 0.023329 0.386739 0.304993
O O8 0.235607 0.534602 0.415907
O O9 0.002548 0.583103 0.379730
O O10 0.500000 0.805049 0.500000
O O11 0.212637 0.808345 0.388027
O O12 0.434154 0.673887 0.646722
O O13 0.000173 0.945973 0.676033
O O14 0.500000 0.583184 0.500000
#
# Coordination Sequence:
#
# PCOD9126896 Si02
#       8
#     4   2   2   4   4   4   2   4
#     4  11  27  48  76 112 157 208 269 327 407 484
#     4  11  28  50  73 118 158 213 262 340 409 484
#     4  11  28  44  71 112 158 193 250 350 399 450
#     4  11  24  43  72 107 147 199 256 320 398 469
#     4  10  22  42  70 109 146 198 265 327 383 490
#     4  11  25  46  75 109 159 207 261 336 405 481
#     4  12  26  48  82 106 144 216 268 308 398 504
#     4  10  22  42  69 105 142 193 265 316 388 485
#
# _framework density 23.955473000000001
#
# number of rings (size 3 to 8) (size 9 to 14) (size 15 to 20)
#    0.000    1.231    0.769    3.692   14.000    0.000 
#    2.769    1.538    0.000    0.000    0.000    0.000 
#    0.000    0.000    0.000    0.000    0.000    0.000 
#
# Total GULP energy -72512.531120 kJ/mol
# GULP energy per Si atom -5577.887009 kJ/mol
# Density = 2.390095 g / cm^3
# Si number density = 23.955473 Si / 1000 Ang^3
#
#
#
# Elastic Constant Matrix: (Units=GPa)
#
#
# Indices 1 2 3 4 5 6 
#
# 1 121.6312 34.5476 31.8538 0.0000 1.2525 0.0000
# 2 34.5476 109.6709 27.5118 0.0000 -12.3015 0.0000
# 3 31.8538 27.5118 79.4527 0.0000 -12.3010 0.0000
# 4 0.0000 0.0000 0.0000 26.8981 0.0000 -11.3291
# 5 1.2525 -12.3015 -12.3010 0.0000 37.2034 0.0000
# 6 0.0000 0.0000 0.0000 -11.3291 0.0000 22.8514
#
#
#
# Elastic Compliance Matrix: (Units=1/GPa)
#
#
# Indices 1 2 3 4 5 6 
#
# 1 0.009856 -0.002499 -0.003442 0.000000 -0.002296 0.000000
# 2 -0.002499 0.010805 -0.002291 0.000000 0.002900 0.000000
# 3 -0.003442 -0.002291 0.015451 0.000000 0.004467 0.000000
# 4 0.000000 0.000000 0.000000 0.046989 0.000000 0.023296
# 5 -0.002296 0.002900 0.004467 0.000000 0.029392 0.000000
# 6 0.000000 0.000000 0.000000 0.023296 0.000000 0.055310
#
#
# Mechanical properties :
#
#
# Convention : Reuss Voigt Hill
#
# Bulk Modulus (GPa) = 50.89191 55.39792 53.14492
# Shear Modulus (GPa) = 26.20308 31.84670 29.02489
#
# Velocity S-wave (km/s) = 3.31089 3.65007 3.48461
# Velocity P-wave (km/s) = 5.99220 6.39840 6.19863
#
# Compressibility (1/GPa) = 0.01964949
#
# Stress axis : x y z
#
# Youngs Moduli (GPa) = 101.45711 92.54723 64.72186
#
# Poissons Ratio (x) = 0.23128 0.22275
# Poissons Ratio (y) = 0.25355 0.14826
# Poissons Ratio (z) = 0.34919 0.21200
#
# Static dielectric constant tensor:
#      x y z
#    x 1.999020 0.000000 -0.017650 
#    y 0.000000 2.022210 0.000000 
#    z -0.017650 0.000000 1.935250 
# 
# From -- ./inp_files/39319.got.cif
#   From: 2010.05.17/outbox.cif.g08.bks.cpg/sg5_20_cif.got.tgz:39319.got - 2010.06.03 18:56:24.
