data_PCOD9126035
_publ_section_title
;
Structure prediction by ZEFSAII (Michael W. Deem and Ramdas Pophale) SiO2 
 PCOD9126035
Probable space group: C 2
;
_chemical_formula_sum "Si O2"
_cell_formula_units_Z 24
_cell_length_a 21.927120
_cell_length_b 10.570565
_cell_length_c 14.433164
_cell_angle_alpha 90.000000
_cell_angle_beta 18.469813
_cell_angle_gamma 90.000000
_cell_volume 1059.822988
_symmetry_space_group_name_H-M "C 2"
_symmetry_group_IT_number 5
_symmetry_cell_setting 'monoclinic'
loop_
_space_group_symop_operation_xyz
x,y,z
-x,y,-z
1/2+x,1/2+y,z
1/2-x,1/2+y,-z
loop_
_atom_site_type_symbol
_atom_site_label
_atom_site_fract_x
_atom_site_fract_y
_atom_site_fract_z
Si Si1 0.818369 0.199150 0.647639
Si Si2 0.768578 0.121132 0.522262
Si Si3 0.565352 0.102033 0.147782
Si Si4 0.422787 0.450726 0.008815
Si Si5 0.426711 0.807889 0.859466
Si Si6 0.880683 0.663797 0.590451
O O1 0.722568 0.126190 0.697631
O O2 0.025192 0.234255 0.305973
O O3 0.774415 0.120632 0.801714
O O4 0.702687 0.328986 0.835174
O O5 0.594824 0.127379 0.700979
O O6 0.903243 0.247662 0.321210
O O7 0.901328 0.999295 0.307958
O O8 0.515559 0.187400 0.308277
O O9 0.548057 0.954310 0.196503
O O10 0.500000 0.426109 0.000000
O O11 0.282014 0.570681 0.213076
O O12 0.229912 0.774867 0.195463
O O13 0.000000 0.596469 0.500000
#
# Coordination Sequence:
#
# PCOD9126035 Si02
#       6
#     4   4   4   4   4   4
#     4  10  22  37  63 100 128 154 206 261 310 371
#     4   9  20  34  61  93 127 155 198 253 309 363
#     4  12  21  40  64  92 126 171 200 253 318 368
#     4  11  18  39  68  90 126 163 200 255 314 366
#     4   9  23  42  58  92 133 152 210 264 298 373
#     4  11  24  45  64  88 125 170 214 252 307 373
#
# _framework density 22.645291
#
# number of rings (size 3 to 8) (size 9 to 14) (size 15 to 20)
#    1.000    0.667    3.333    1.500    2.333    1.333 
#    6.000    0.833    0.000    0.000    0.000    0.000 
#    0.000    0.000    0.000    0.000    0.000    0.000 
#
# Total GULP energy -66876.807672 kJ/mol
# GULP energy per Si atom -5573.067306 kJ/mol
# Density = 2.259375 g / cm^3
# Si number density = 22.645291 Si / 1000 Ang^3
#
#
#
# Elastic Constant Matrix: (Units=GPa)
#
#
# Indices 1 2 3 4 5 6 
#
# 1 65.2509 -3.1930 42.4184 -0.0001 24.1529 0.0000
# 2 -3.1930 39.8955 27.5421 -0.0004 16.0685 0.0001
# 3 42.4184 27.5421 146.7001 -0.0003 42.2755 0.0000
# 4 -0.0001 -0.0004 -0.0003 -3.8255 0.0001 20.9702
# 5 24.1529 16.0685 42.2755 0.0001 42.8243 0.0000
# 6 0.0000 0.0001 0.0000 20.9702 0.0000 -2.5016
#
#
#
# Elastic Compliance Matrix: (Units=1/GPa)
#
#
# Indices 1 2 3 4 5 6 
#
# 1 0.023785 0.010460 -0.005373 0.000000 -0.012036 0.000000
# 2 0.010460 0.035307 -0.005780 0.000000 -0.013442 0.000001
# 3 -0.005373 -0.005780 0.011121 0.000000 -0.005779 0.000000
# 4 0.000000 0.000000 0.000000 0.005815 0.000000 0.048748
# 5 -0.012036 -0.013442 -0.005779 0.000000 0.040888 0.000000
# 6 0.000000 0.000001 0.000000 0.048748 0.000000 0.008893
#
#
# Mechanical properties :
#
#
# Convention : Reuss Voigt Hill
#
# Bulk Modulus (GPa) = 14.52891 42.82017 28.67454
# Shear Modulus (GPa) = 33.30312 19.63803 26.47058
#
# Velocity S-wave (km/s) = 3.83906 2.94802 3.42266
# Velocity P-wave (km/s) = 5.10695 5.52611 5.32066
#
# Compressibility (1/GPa) = 0.06882827
#
# Stress axis : x y z
#
# Youngs Moduli (GPa) = 42.04284 28.32332 89.92177
#
# Poissons Ratio (x) = -0.29627 0.48315
# Poissons Ratio (y) = -0.43979 0.51971
# Poissons Ratio (z) = 0.22590 0.16370
#
# Static dielectric constant tensor:
#      x y z
#    x 1.850640 0.000000 -0.021560 
#    y 0.000000 1.818760 0.000000 
#    z -0.021560 0.000000 1.945580 
# 
# From -- ./inp_files/57752.got.cif
#   From: 2010.05.17/outbox.cif.g08.bks.cpg/sg5_29_cif.got.tgz:57752.got - 2010.06.03 18:56:24.
