data_PCOD9126844
_publ_section_title
;
Structure prediction by ZEFSAII (Michael W. Deem and Ramdas Pophale) SiO2 
 PCOD9126844
Probable space group: C 2
;
_chemical_formula_sum "Si O2"
_cell_formula_units_Z 18
_cell_length_a 7.543532
_cell_length_b 9.109136
_cell_length_c 18.095621
_cell_angle_alpha 90.000000
_cell_angle_beta 143.084150
_cell_angle_gamma 90.000000
_cell_volume 746.862570
_symmetry_space_group_name_H-M "C 2"
_symmetry_group_IT_number 5
_symmetry_cell_setting 'monoclinic'
loop_
_space_group_symop_operation_xyz
x,y,z
-x,y,-z
1/2+x,1/2+y,z
1/2-x,1/2+y,-z
loop_
_atom_site_type_symbol
_atom_site_label
_atom_site_fract_x
_atom_site_fract_y
_atom_site_fract_z
Si Si1 0.296433 0.122830 0.049578
Si Si2 0.408727 0.129417 0.384226
Si Si3 0.552757 0.444087 0.171878
Si Si4 0.123616 0.425200 0.259733
Si Si5 0.500000 0.588902 0.500000
O O1 0.415933 0.284837 0.108389
O O2 0.545854 0.006386 0.158293
O O3 0.000000 0.109641 0.000000
O O4 0.183274 0.067174 0.932292
O O5 0.500000 0.140521 0.500000
O O6 0.189478 0.255064 0.283184
O O7 0.702252 0.158876 0.432781
O O8 0.222432 0.980352 0.305132
O O9 0.834893 0.452968 0.212234
O O10 0.392925 0.495806 0.393959
#
# Coordination Sequence:
#
# PCOD9126844 Si02
#       5
#     4   4   4   4   2
#     4  10  22  42  67  98 135 176 228 287 338 403
#     4  11  24  46  70 102 139 184 226 280 345 408
#     4  10  23  43  66 100 135 180 229 283 342 406
#     4  10  22  43  65  95 142 175 224 289 331 400
#     4  10  24  44  64 102 142 178 228 284 330 406
#
# _framework density 24.100819999999999
#
# number of rings (size 3 to 8) (size 9 to 14) (size 15 to 20)
#    0.000    1.778    1.111    1.333    3.111    1.778 
#   16.000    0.000    0.000    0.000    0.000    0.000 
#    0.000    0.000    0.000    0.000    0.000    0.000 
#
# Total GULP energy -50207.679948 kJ/mol
# GULP energy per Si atom -5578.631105 kJ/mol
# Density = 2.404597 g / cm^3
# Si number density = 24.100820 Si / 1000 Ang^3
#
#
#
# Elastic Constant Matrix: (Units=GPa)
#
#
# Indices 1 2 3 4 5 6 
#
# 1 48.3230 3.0206 28.8078 0.0004 -1.9678 -0.0002
# 2 3.0206 99.5686 88.1784 0.0001 -20.3231 0.0000
# 3 28.8078 88.1784 191.0775 0.0025 -19.1655 0.0000
# 4 0.0004 0.0001 0.0025 45.9821 0.0005 12.3984
# 5 -1.9678 -20.3231 -19.1655 0.0005 33.7128 -0.0002
# 6 -0.0002 0.0000 0.0000 12.3984 -0.0002 25.8758
#
#
#
# Elastic Compliance Matrix: (Units=1/GPa)
#
#
# Indices 1 2 3 4 5 6 
#
# 1 0.023726 0.004309 -0.005479 0.000000 0.000868 0.000000
# 2 0.004309 0.019054 -0.008765 0.000000 0.006755 0.000000
# 3 -0.005479 -0.008765 0.010119 -0.000001 0.000149 0.000000
# 4 0.000000 0.000000 -0.000001 0.024974 0.000000 -0.011966
# 5 0.000868 0.006755 0.000149 0.000000 0.033870 0.000000
# 6 0.000000 0.000000 0.000000 -0.011966 0.000000 0.044380
#
#
# Mechanical properties :
#
#
# Convention : Reuss Voigt Hill
#
# Bulk Modulus (GPa) = 30.27514 64.33143 47.30328
# Shear Modulus (GPa) = 26.73766 35.71162 31.22464
#
# Velocity S-wave (km/s) = 3.33439 3.85354 3.60333
# Velocity P-wave (km/s) = 5.23578 6.82278 6.08127
#
# Compressibility (1/GPa) = 0.03303040
#
# Stress axis : x y z
#
# Youngs Moduli (GPa) = 42.14756 52.48314 98.82061
#
# Poissons Ratio (x) = -0.22617 0.54141
# Poissons Ratio (y) = -0.18163 0.86617
# Poissons Ratio (z) = 0.23091 0.46002
#
# Static dielectric constant tensor:
#      x y z
#    x 1.934170 0.000000 -0.060030 
#    y 0.000000 1.988860 0.000000 
#    z -0.060030 0.000000 1.965550 
# 
# From -- ./inp_files/34623.got.cif
#   From: 2010.05.17/outbox.cif.g08.bks.cpg/sg5_18_cif.got.tgz:34623.got - 2010.06.03 18:56:24.
