data_PCOD9126882
_publ_section_title
;
Structure prediction by ZEFSAII (Michael W. Deem and Ramdas Pophale) SiO2 
 PCOD9126882
Probable space group: C 2
;
_chemical_formula_sum "Si O2"
_cell_formula_units_Z 22
_cell_length_a 11.752821
_cell_length_b 9.184207
_cell_length_c 9.625489
_cell_angle_alpha 90.000000
_cell_angle_beta 78.885803
_cell_angle_gamma 90.000000
_cell_volume 1019.492448
_symmetry_space_group_name_H-M "C 2"
_symmetry_group_IT_number 5
_symmetry_cell_setting 'monoclinic'
loop_
_space_group_symop_operation_xyz
x,y,z
-x,y,-z
1/2+x,1/2+y,z
1/2-x,1/2+y,-z
loop_
_atom_site_type_symbol
_atom_site_label
_atom_site_fract_x
_atom_site_fract_y
_atom_site_fract_z
Si Si1 0.000000 0.344710 0.000000
Si Si2 0.643312 0.770301 0.225647
Si Si3 0.736746 0.870230 0.823612
Si Si4 0.285436 0.539990 0.264019
Si Si5 0.127234 0.028370 0.446940
Si Si6 0.623380 0.314065 0.943172
O O1 0.111112 0.423180 0.905868
O O2 0.943949 0.261075 0.881944
O O3 0.607120 0.677296 0.365808
O O4 0.770310 0.718758 0.141305
O O5 0.672685 0.938140 0.259229
O O6 0.724178 0.696859 0.801217
O O7 0.789211 0.935941 0.671877
O O8 0.826654 0.885360 0.928596
O O9 0.312521 0.552473 0.419686
O O10 0.385941 0.443841 0.167246
O O11 0.000000 0.959951 0.500000
O O12 0.500000 0.244668 0.000000
#
# Coordination Sequence:
#
# PCOD9126882 Si02
#       6
#     2   4   4   4   4   4
#     4  10  22  42  68  98 134 166 234 262 330 380
#     4   9  23  41  67  96 128 176 214 272 325 384
#     4  11  24  40  69  98 129 173 220 274 328 386
#     4  10  23  42  64  98 135 168 225 268 331 393
#     4  12  24  44  67  95 136 179 223 264 336 399
#     4   9  21  40  66  93 131 167 221 267 329 384
#
# _framework density 21.579366
#
# number of rings (size 3 to 8) (size 9 to 14) (size 15 to 20)
#    1.091    0.727    0.000    3.273    6.364    0.000 
#    6.545    0.909    0.000    0.000    0.000    0.000 
#    0.000    0.000    0.000    0.000    0.000    0.000 
#
# Total GULP energy -61365.667367 kJ/mol
# GULP energy per Si atom -5578.697033 kJ/mol
# Density = 2.153025 g / cm^3
# Si number density = 21.579366 Si / 1000 Ang^3
#
#
#
# Elastic Constant Matrix: (Units=GPa)
#
#
# Indices 1 2 3 4 5 6 
#
# 1 136.8970 19.1552 55.4348 0.0000 -11.7739 0.0000
# 2 19.1552 68.2586 29.1253 0.0000 -2.1620 0.0000
# 3 55.4348 29.1253 166.5425 0.0000 13.1518 0.0000
# 4 0.0000 0.0000 0.0000 25.9519 0.0000 -10.3830
# 5 -11.7739 -2.1620 13.1518 0.0000 37.9639 0.0000
# 6 0.0000 0.0000 0.0000 -10.3830 0.0000 12.1602
#
#
#
# Elastic Compliance Matrix: (Units=1/GPa)
#
#
# Indices 1 2 3 4 5 6 
#
# 1 0.009051 -0.001085 -0.003125 0.000000 0.003828 0.000000
# 2 -0.001085 0.016098 -0.002570 0.000000 0.001471 0.000000
# 3 -0.003125 -0.002570 0.007796 0.000000 -0.003816 0.000000
# 4 0.000000 0.000000 0.000000 0.058526 0.000000 0.049973
# 5 0.003828 0.001471 -0.003816 0.000000 0.028934 0.000000
# 6 0.000000 0.000000 0.000000 0.049973 0.000000 0.124905
#
#
# Mechanical properties :
#
#
# Convention : Reuss Voigt Hill
#
# Bulk Modulus (GPa) = 51.59025 64.34761 57.96893
# Shear Modulus (GPa) = 18.84429 33.08073 25.96251
#
# Velocity S-wave (km/s) = 2.95830 3.91958 3.47236
# Velocity P-wave (km/s) = 5.96890 7.09703 6.55727
#
# Compressibility (1/GPa) = 0.01938351
#
# Stress axis : x y z
#
# Youngs Moduli (GPa) = 110.47997 62.11966 128.27744
#
# Poissons Ratio (x) = 0.06742 0.40091
# Poissons Ratio (y) = 0.11990 0.32969
# Poissons Ratio (z) = 0.34529 0.15966
#
# Static dielectric constant tensor:
#      x y z
#    x 1.793000 0.000000 -0.030310 
#    y 0.000000 1.807420 0.000000 
#    z -0.030310 0.000000 1.749870 
# 
# From -- ./inp_files/22800.got.cif
#   From: 2010.05.17/outbox.cif.g08.bks.cpg/sg5_12_cif.got.tgz:22800.got - 2010.06.03 18:56:24.
