data_PCOD9126528
_publ_section_title
;
Structure prediction by ZEFSAII (Michael W. Deem and Ramdas Pophale) SiO2 
 PCOD9126528
Probable space group: C 2
;
_chemical_formula_sum "Si O2"
_cell_formula_units_Z 30
_cell_length_a 16.808986
_cell_length_b 15.534417
_cell_length_c 5.317737
_cell_angle_alpha 90.000000
_cell_angle_beta 119.118698
_cell_angle_gamma 90.000000
_cell_volume 1213.061022
_symmetry_space_group_name_H-M "C 2"
_symmetry_group_IT_number 5
_symmetry_cell_setting 'monoclinic'
loop_
_space_group_symop_operation_xyz
x,y,z
-x,y,-z
1/2+x,1/2+y,z
1/2-x,1/2+y,-z
loop_
_atom_site_type_symbol
_atom_site_label
_atom_site_fract_x
_atom_site_fract_y
_atom_site_fract_z
Si Si1 0.390005 0.774360 0.869912
Si Si2 0.610497 0.286614 0.685054
Si Si3 0.500000 0.483151 0.000000
Si Si4 0.654102 0.456446 0.575707
Si Si5 0.350291 0.593074 0.059537
Si Si6 0.890160 0.687365 0.818556
Si Si7 0.187613 0.515102 0.514417
Si Si8 0.393638 0.854893 0.369645
O O1 0.362033 0.688333 0.974818
O O2 0.355527 0.792600 0.533156
O O3 0.500000 0.773616 0.000000
O O4 0.360354 0.844549 0.032878
O O5 0.500000 0.286948 0.500000
O O6 0.650940 0.382821 0.781207
O O7 0.641235 0.244521 0.468498
O O8 0.640426 0.228164 0.965359
O O9 0.434121 0.429901 0.721430
O O10 0.431715 0.541648 0.051095
O O11 0.742779 0.459752 0.545132
O O12 0.640320 0.555682 0.644300
O O13 0.252730 0.558818 0.820911
O O14 0.857294 0.590532 0.716560
O O15 0.000000 0.687195 0.000000
O O16 0.118821 0.450453 0.542428
O O17 0.500000 0.834655 0.500000
#
# Coordination Sequence:
#
# PCOD9126528 Si02
#       8
#     4   4   2   4   4   4   4   4
#     4  10  23  45  75 105 138 189 246 298 363 433
#     4  10  23  45  75 105 136 189 246 298 358 432
#     4  10  22  40  72 104 144 200 234 294 368 458
#     4  11  26  43  71 108 152 190 240 305 374 453
#     4  11  24  43  70 107 150 192 235 306 368 452
#     4  10  25  47  75 100 139 192 249 302 353 431
#     4  11  28  47  67 111 145 192 247 301 379 433
#     4  10  25  47  75 101 139 193 250 305 352 434
#
# _framework density 24.730827000000001
#
# number of rings (size 3 to 8) (size 9 to 14) (size 15 to 20)
#    0.000    1.600    0.667    1.200   14.000    5.333 
#    0.000    0.000    0.000    0.000    0.000    0.000 
#    0.000    0.000    0.000    0.000    0.000    0.000 
#
# Total GULP energy -83893.503633 kJ/mol
# GULP energy per Si atom -5592.900242 kJ/mol
# Density = 2.467454 g / cm^3
# Si number density = 24.730827 Si / 1000 Ang^3
#
#
#
# Elastic Constant Matrix: (Units=GPa)
#
#
# Indices 1 2 3 4 5 6 
#
# 1 51.6874 22.5698 47.8989 0.0000 -22.0185 0.0000
# 2 22.5698 124.4625 49.8573 0.0000 -18.0811 0.0000
# 3 47.8989 49.8573 124.5414 0.0000 -24.9709 0.0000
# 4 0.0000 0.0000 0.0000 31.7659 0.0000 -3.1372
# 5 -22.0185 -18.0811 -24.9709 0.0000 30.5404 0.0000
# 6 0.0000 0.0000 0.0000 -3.1372 0.0000 24.3677
#
#
#
# Elastic Compliance Matrix: (Units=1/GPa)
#
#
# Indices 1 2 3 4 5 6 
#
# 1 0.036729 0.000193 -0.010611 0.000000 0.017919 0.000000
# 2 0.000193 0.009810 -0.003360 0.000000 0.003200 0.000000
# 3 -0.010611 -0.003360 0.013782 0.000000 0.001630 0.000000
# 4 0.000000 0.000000 0.000000 0.031886 0.000000 0.004105
# 5 0.017919 0.003200 0.001630 0.000000 0.048889 0.000000
# 6 0.000000 0.000000 0.000000 0.004105 0.000000 0.041566
#
#
# Mechanical properties :
#
#
# Convention : Reuss Voigt Hill
#
# Bulk Modulus (GPa) = 30.51877 60.14925 45.33401
# Shear Modulus (GPa) = 22.61009 29.35917 25.98463
#
# Velocity S-wave (km/s) = 3.02693 3.44924 3.24496
# Velocity P-wave (km/s) = 4.95818 6.34329 5.69302
#
# Compressibility (1/GPa) = 0.03276672
#
# Stress axis : x y z
#
# Youngs Moduli (GPa) = 27.22645 101.93296 72.55751
#
# Poissons Ratio (x) = -0.01969 0.76988
# Poissons Ratio (y) = -0.00526 0.24380
# Poissons Ratio (z) = 0.28889 0.34250
#
# Static dielectric constant tensor:
#      x y z
#    x 1.927400 0.000000 -0.014970 
#    y 0.000000 1.964100 0.000000 
#    z -0.014970 0.000000 2.044750 
# 
# From -- ./inp_files/8686.got.cif
#   From: 2010.05.17/outbox.cif.g08.bks.cpg/sg5_5_cif.got.tgz:8686.got - 2010.06.03 18:56:24.
