data_PCOD9126477
_publ_section_title
;
Structure prediction by ZEFSAII (Michael W. Deem and Ramdas Pophale) SiO2 
 PCOD9126477
Probable space group: C 2
;
_chemical_formula_sum "Si O2"
_cell_formula_units_Z 30
_cell_length_a 9.978462
_cell_length_b 12.148712
_cell_length_c 12.105499
_cell_angle_alpha 90.000000
_cell_angle_beta 108.914037
_cell_angle_gamma 90.000000
_cell_volume 1388.258750
_symmetry_space_group_name_H-M "C 2"
_symmetry_group_IT_number 5
_symmetry_cell_setting 'monoclinic'
loop_
_space_group_symop_operation_xyz
x,y,z
-x,y,-z
1/2+x,1/2+y,z
1/2-x,1/2+y,-z
loop_
_atom_site_type_symbol
_atom_site_label
_atom_site_fract_x
_atom_site_fract_y
_atom_site_fract_z
Si Si1 0.256280 0.143730 0.693260
Si Si2 0.278691 0.486420 0.963676
Si Si3 0.470673 0.148121 0.103840
Si Si4 0.403502 0.809103 0.193865
Si Si5 0.112753 0.818758 0.430654
Si Si6 0.500000 0.672790 0.000000
Si Si7 0.613077 0.359975 0.794257
Si Si8 0.809808 0.410097 0.654748
O O1 0.378929 0.110677 0.812025
O O2 0.143338 0.216030 0.729924
O O3 0.334886 0.212402 0.620320
O O4 0.225197 0.026383 0.633886
O O5 0.373915 0.585398 0.941044
O O6 0.351385 0.439622 0.094288
O O7 0.130025 0.546580 0.948223
O O8 0.232973 0.384450 0.873830
O O9 0.405724 0.236500 0.167628
O O10 0.500000 0.213262 0.000000
O O11 0.454863 0.748125 0.093688
O O12 0.523714 0.888116 0.280337
O O13 0.255011 0.862220 0.525216
O O14 0.000000 0.799482 0.500000
O O15 0.027881 0.888258 0.314627
O O16 0.741043 0.353547 0.743045
#
# Coordination Sequence:
#
# PCOD9126477 Si02
#       8
#     4   4   4   4   4   2   4   4
#     4  11  24  46  69 103 138 179 235 290 354 418
#     4  12  24  40  67 103 139 190 224 284 354 419
#     4  11  21  38  66  97 136 185 226 281 356 416
#     4  12  26  45  71 108 143 183 238 286 346 431
#     4   9  23  47  71  98 133 183 234 291 355 411
#     4  12  28  42  62 112 146 184 232 280 348 426
#     4  10  22  40  68  95 140 181 234 285 348 423
#     4  11  22  48  70  97 138 185 228 304 353 401
#
# _framework density 21.609805000000001
#
# number of rings (size 3 to 8) (size 9 to 14) (size 15 to 20)
#    0.000    1.067    1.333    5.600    5.600    0.533 
#   12.000    0.000    0.000    0.000    0.000    0.000 
#    0.000    0.000    0.000    0.000    0.000    0.000 
#
# Total GULP energy -83638.210962 kJ/mol
# GULP energy per Si atom -5575.880731 kJ/mol
# Density = 2.156062 g / cm^3
# Si number density = 21.609805 Si / 1000 Ang^3
#
#
#
# Elastic Constant Matrix: (Units=GPa)
#
#
# Indices 1 2 3 4 5 6 
#
# 1 37.9317 9.4203 10.8888 0.0000 10.4028 0.0000
# 2 9.4203 71.9153 31.1105 0.0000 1.2007 0.0000
# 3 10.8888 31.1105 89.0652 0.0000 8.4798 0.0000
# 4 0.0000 0.0000 0.0000 7.7900 0.0000 -3.2489
# 5 10.4028 1.2007 8.4798 0.0000 21.7020 0.0000
# 6 0.0000 0.0000 0.0000 -3.2489 0.0000 42.1729
#
#
#
# Elastic Compliance Matrix: (Units=1/GPa)
#
#
# Indices 1 2 3 4 5 6 
#
# 1 0.031518 -0.003316 -0.001323 0.000000 -0.014407 0.000000
# 2 -0.003316 0.016769 -0.005728 0.000000 0.002900 0.000000
# 3 -0.001323 -0.005728 0.013814 0.000000 -0.004446 0.000000
# 4 0.000000 0.000000 0.000000 0.132632 0.000000 0.010218
# 5 -0.014407 0.002900 -0.004446 0.000000 0.054562 0.000000
# 6 0.000000 0.000000 0.000000 0.010218 0.000000 0.024499
#
#
# Mechanical properties :
#
#
# Convention : Reuss Voigt Hill
#
# Bulk Modulus (GPa) = 24.17425 33.52794 28.85109
# Shear Modulus (GPa) = 16.21711 24.16583 20.19147
#
# Velocity S-wave (km/s) = 2.74241 3.34770 3.06006
# Velocity P-wave (km/s) = 4.60855 5.52192 5.08578
#
# Compressibility (1/GPa) = 0.04136633
#
# Stress axis : x y z
#
# Youngs Moduli (GPa) = 31.72815 59.63334 72.39184
#
# Poissons Ratio (x) = 0.19771 0.09581
# Poissons Ratio (y) = 0.10519 0.41468
# Poissons Ratio (z) = 0.04199 0.34159
#
# Static dielectric constant tensor:
#      x y z
#    x 1.825970 0.000000 0.023070 
#    y 0.000000 1.810280 0.000000 
#    z 0.023070 0.000000 1.885660 
# 
# From -- ./inp_files/39251.got.cif
#   From: 2010.05.17/outbox.cif.g08.bks.cpg/sg5_20_cif.got.tgz:39251.got - 2010.06.03 18:56:24.
