data_PCOD9126575
_publ_section_title
;
Structure prediction by ZEFSAII (Michael W. Deem and Ramdas Pophale) SiO2 
 PCOD9126575
Probable space group: C 2
;
_chemical_formula_sum "Si O2"
_cell_formula_units_Z 22
_cell_length_a 22.706635
_cell_length_b 6.786835
_cell_length_c 7.747155
_cell_angle_alpha 90.000000
_cell_angle_beta 76.808229
_cell_angle_gamma 90.000000
_cell_volume 1162.379908
_symmetry_space_group_name_H-M "C 2"
_symmetry_group_IT_number 5
_symmetry_cell_setting 'monoclinic'
loop_
_space_group_symop_operation_xyz
x,y,z
-x,y,-z
1/2+x,1/2+y,z
1/2-x,1/2+y,-z
loop_
_atom_site_type_symbol
_atom_site_label
_atom_site_fract_x
_atom_site_fract_y
_atom_site_fract_z
Si Si1 0.834661 0.078700 0.637007
Si Si2 0.271866 0.328380 0.204617
Si Si3 0.000000 0.176821 0.000000
Si Si4 0.187686 0.678028 0.182960
Si Si5 0.120643 0.077039 0.766419
Si Si6 0.887896 0.335249 0.912849
O O1 0.765217 0.154499 0.680276
O O2 0.867552 0.131539 0.438059
O O3 0.865808 0.188912 0.777082
O O4 0.835613 0.847627 0.676688
O O5 0.230683 0.522962 0.249629
O O6 0.338025 0.387124 0.224127
O O7 0.276418 0.280032 0.998445
O O8 0.949805 0.052704 0.137237
O O9 0.040772 0.309312 0.100430
O O10 0.135593 0.548047 0.126179
O O11 0.139700 0.249839 0.889125
#
# Coordination Sequence:
#
# PCOD9126575 Si02
#       6
#     4   4   2   4   4   4
#     4  11  23  36  63  97 129 165 215 268 327 388
#     4  11  21  35  60  90 129 166 207 258 329 387
#     4   8  20  44  68  84 126 178 216 274 318 380
#     4  11  19  38  62  90 130 171 203 270 326 377
#     4  10  22  41  63  93 126 174 216 263 324 389
#     4   9  21  42  61  89 124 170 217 267 322 369
#
# _framework density 18.926687000000001
#
# number of rings (size 3 to 8) (size 9 to 14) (size 15 to 20)
#    1.091    0.727    3.636    1.091    2.545    0.727 
#    3.273    3.636    0.000    8.727    0.000    0.000 
#    0.000    0.000    0.000    0.000    0.000    0.000 
#
# Total GULP energy -61286.334486 kJ/mol
# GULP energy per Si atom -5571.484953 kJ/mol
# Density = 1.888361 g / cm^3
# Si number density = 18.926687 Si / 1000 Ang^3
#
#
#
# Elastic Constant Matrix: (Units=GPa)
#
#
# Indices 1 2 3 4 5 6 
#
# 1 122.7265 43.1264 35.1317 0.0000 -16.7683 0.0000
# 2 43.1264 93.0423 33.6188 0.0000 5.0371 0.0000
# 3 35.1317 33.6188 130.1911 0.0000 -2.2609 0.0000
# 4 0.0000 0.0000 0.0000 5.7229 0.0000 -1.4399
# 5 -16.7683 5.0371 -2.2609 0.0000 21.3709 0.0000
# 6 0.0000 0.0000 0.0000 -1.4399 0.0000 29.3634
#
#
#
# Elastic Compliance Matrix: (Units=1/GPa)
#
#
# Indices 1 2 3 4 5 6 
#
# 1 0.012005 -0.005550 -0.001623 0.000000 0.010556 0.000000
# 2 -0.005550 0.014631 -0.002421 0.000000 -0.008059 0.000000
# 3 -0.001623 -0.002421 0.008748 0.000000 0.000222 0.000000
# 4 0.000000 0.000000 0.000000 0.176920 0.000000 0.008675
# 5 0.010556 -0.008059 0.000222 0.000000 0.056998 0.000000
# 6 0.000000 0.000000 0.000000 0.008675 0.000000 0.034481
#
#
# Mechanical properties :
#
#
# Convention : Reuss Voigt Hill
#
# Bulk Modulus (GPa) = 61.73766 63.30152 62.51959
# Shear Modulus (GPa) = 15.22673 26.89697 21.06185
#
# Velocity S-wave (km/s) = 2.83947 3.77386 3.33950
# Velocity P-wave (km/s) = 6.59092 7.24621 6.92632
#
# Compressibility (1/GPa) = 0.01619757
#
# Stress axis : x y z
#
# Youngs Moduli (GPa) = 83.29665 68.34792 114.31253
#
# Poissons Ratio (x) = 0.37930 0.18555
# Poissons Ratio (y) = 0.46226 0.27670
# Poissons Ratio (z) = 0.13521 0.16544
#
# Static dielectric constant tensor:
#      x y z
#    x 1.694620 0.000000 0.004200 
#    y 0.000000 1.669080 0.000000 
#    z 0.004200 0.000000 1.656690 
# 
# From -- ./inp_files/30194.got.cif
#   From: 2010.05.17/outbox.cif.g08.bks.cpg/sg5_16_cif.got.tgz:30194.got - 2010.06.03 18:56:24.
