data_PCOD9126583
_publ_section_title
;
Structure prediction by ZEFSAII (Michael W. Deem and Ramdas Pophale) SiO2 
 PCOD9126583
Probable space group: C 2
;
_chemical_formula_sum "Si O2"
_cell_formula_units_Z 28
_cell_length_a 22.744106
_cell_length_b 5.055667
_cell_length_c 10.454524
_cell_angle_alpha 90.000000
_cell_angle_beta 112.803340
_cell_angle_gamma 90.000000
_cell_volume 1108.172601
_symmetry_space_group_name_H-M "C 2"
_symmetry_group_IT_number 5
_symmetry_cell_setting 'monoclinic'
loop_
_space_group_symop_operation_xyz
x,y,z
-x,y,-z
1/2+x,1/2+y,z
1/2-x,1/2+y,-z
loop_
_atom_site_type_symbol
_atom_site_label
_atom_site_fract_x
_atom_site_fract_y
_atom_site_fract_z
Si Si1 0.421296 0.165590 0.658493
Si Si2 0.715376 0.323841 0.510635
Si Si3 0.330328 0.376264 0.992274
Si Si4 0.534554 0.143669 0.913204
Si Si5 0.793877 0.571030 0.225993
Si Si6 0.604638 0.762860 0.788143
Si Si7 0.979154 0.134555 0.613572
O O1 0.347438 0.218590 0.614883
O O2 0.470214 0.285266 0.806790
O O3 0.439458 0.368052 0.559820
O O4 0.437784 0.857163 0.652420
O O5 0.729115 0.628034 0.492605
O O6 0.709697 0.264221 0.657217
O O7 0.398229 0.279635 0.993050
O O8 0.309118 0.214596 0.102396
O O9 0.346613 0.663264 0.063818
O O10 0.271526 0.408704 0.847543
O O11 0.559209 0.974699 0.815599
O O12 0.500000 0.986324 0.000000
O O13 0.853817 0.373464 0.291518
O O14 0.551059 0.545991 0.717856
O O15 0.000000 0.274367 0.500000
#
# Coordination Sequence:
#
# PCOD9126583 Si02
#       7
#     4   4   4   4   4   4   4
#     4  11  24  45  64 101 136 180 235 283 360 425
#     4  12  30  49  71 106 147 202 246 298 375 446
#     4  11  22  42  69 106 133 189 237 305 370 415
#     4  10  24  42  67 100 139 185 236 298 358 436
#     4  11  25  42  73 102 149 186 251 305 361 454
#     4  10  22  41  64 103 133 179 237 293 365 421
#     4  11  22  39  70  97 132 175 222 289 350 421
#
# _framework density 25.266824
#
# number of rings (size 3 to 8) (size 9 to 14) (size 15 to 20)
#    0.000    1.143    2.857    2.143    6.000    1.714 
#    0.000    0.000    0.000    0.000    0.000    0.000 
#    0.000    0.000    0.000    0.000    0.000    0.000 
#
# Total GULP energy -78034.543587 kJ/mol
# GULP energy per Si atom -5573.895971 kJ/mol
# Density = 2.520932 g / cm^3
# Si number density = 25.266824 Si / 1000 Ang^3
#
#
#
# Elastic Constant Matrix: (Units=GPa)
#
#
# Indices 1 2 3 4 5 6 
#
# 1 130.0835 17.1538 51.9873 0.0000 15.6529 0.0000
# 2 17.1538 75.0358 -4.9871 0.0000 0.6766 0.0000
# 3 51.9873 -4.9871 43.4983 0.0000 16.4082 0.0000
# 4 0.0000 0.0000 0.0000 25.3827 0.0000 3.4600
# 5 15.6529 0.6766 16.4082 0.0000 47.6454 0.0000
# 6 0.0000 0.0000 0.0000 3.4600 0.0000 38.9929
#
#
#
# Elastic Compliance Matrix: (Units=1/GPa)
#
#
# Indices 1 2 3 4 5 6 
#
# 1 0.016603 -0.005219 -0.021161 0.000000 0.001907 0.000000
# 2 -0.005219 0.015098 0.008508 0.000000 -0.001430 0.000000
# 3 -0.021161 0.008508 0.053648 0.000000 -0.011644 0.000000
# 4 0.000000 0.000000 0.000000 0.039879 0.000000 -0.003539
# 5 0.001907 -0.001430 -0.011644 0.000000 0.024392 0.000000
# 6 0.000000 0.000000 0.000000 -0.003539 0.000000 0.025960
#
#
# Mechanical properties :
#
#
# Convention : Reuss Voigt Hill
#
# Bulk Modulus (GPa) = 20.15913 41.88061 31.01987
# Shear Modulus (GPa) = 21.94337 34.70179 28.32258
#
# Velocity S-wave (km/s) = 2.95017 3.70998 3.35168
# Velocity P-wave (km/s) = 4.42725 5.91297 5.22321
#
# Compressibility (1/GPa) = 0.04960532
#
# Stress axis : x y z
#
# Youngs Moduli (GPa) = 60.23015 66.23177 18.64014
#
# Poissons Ratio (x) = 0.34568 0.39444
# Poissons Ratio (y) = 0.31435 -0.15859
# Poissons Ratio (z) = 1.27452 -0.56351
#
# Static dielectric constant tensor:
#      x y z
#    x 2.012960 0.000000 0.004700 
#    y 0.000000 2.099090 0.000000 
#    z 0.004700 0.000000 2.279490 
# 
# From -- ./inp_files/45419.got.cif
#   From: 2010.05.17/outbox.cif.g08.bks.cpg/sg5_23_cif.got.tgz:45419.got - 2010.06.03 18:56:24.
