data_PCOD9126039
_publ_section_title
;
Structure prediction by ZEFSAII (Michael W. Deem and Ramdas Pophale) SiO2 
 PCOD9126039
Probable space group: C 2
;
_chemical_formula_sum "Si O2"
_cell_formula_units_Z 32
_cell_length_a 17.781505
_cell_length_b 14.782758
_cell_length_c 12.369266
_cell_angle_alpha 90.000000
_cell_angle_beta 148.663267
_cell_angle_gamma 90.000000
_cell_volume 1690.935532
_symmetry_space_group_name_H-M "C 2"
_symmetry_group_IT_number 5
_symmetry_cell_setting 'monoclinic'
loop_
_space_group_symop_operation_xyz
x,y,z
-x,y,-z
1/2+x,1/2+y,z
1/2-x,1/2+y,-z
loop_
_atom_site_type_symbol
_atom_site_label
_atom_site_fract_x
_atom_site_fract_y
_atom_site_fract_z
Si Si1 0.800296 0.334400 0.455815
Si Si2 0.346341 0.470404 0.869872
Si Si3 0.176463 0.876507 0.928087
Si Si4 0.336673 0.683675 0.839729
Si Si5 0.884100 0.163626 0.448294
Si Si6 0.849305 0.825519 0.502170
Si Si7 0.674040 0.471134 0.703673
Si Si8 0.407371 0.746890 0.155550
O O1 0.775035 0.416989 0.345685
O O2 0.778519 0.242590 0.358606
O O3 0.698972 0.342432 0.434754
O O4 0.963371 0.319527 0.697819
O O5 0.320759 0.576690 0.828140
O O6 0.500000 0.449902 0.000000
O O7 0.344411 0.436544 0.990837
O O8 0.226175 0.936706 0.885021
O O9 0.021906 0.832682 0.708235
O O10 0.290407 0.795669 0.087373
O O11 0.220117 0.731311 0.620548
O O12 0.500000 0.703137 0.000000
O O13 0.327220 0.724785 0.947322
O O14 0.000000 0.194475 0.500000
O O15 0.001413 0.158489 0.691888
O O16 0.803613 0.074214 0.309095
O O17 0.786564 0.901116 0.342654
O O18 0.500000 0.469437 0.500000
#
# Coordination Sequence:
#
# PCOD9126039 Si02
#       8
#     4   4   4   4   4   4   4   4
#     4  10  22  39  63  91 126 165 202 260 307 365
#     4  11  24  40  65  93 125 166 215 256 313 379
#     4  11  22  40  64  94 125 163 206 258 317 365
#     4  11  22  39  64  95 122 165 214 252 312 379
#     4   9  19  36  63  88 118 159 211 245 298 363
#     4  11  21  39  62  92 130 156 206 262 314 364
#     4   9  20  34  62  92 119 155 208 252 299 362
#     4  10  22  37  63  92 121 162 206 251 306 370
#
# _framework density 18.924434999999999
#
# number of rings (size 3 to 8) (size 9 to 14) (size 15 to 20)
#    0.750    1.000    3.750    0.750    5.250    1.000 
#    0.000    2.500    0.000    0.750    3.250    0.000 
#    0.000    0.000    0.000    0.000    0.000    0.000 
#
# Total GULP energy -89082.446607 kJ/mol
# GULP energy per Si atom -5567.652913 kJ/mol
# Density = 1.888136 g / cm^3
# Si number density = 18.924435 Si / 1000 Ang^3
#
#
#
# Elastic Constant Matrix: (Units=GPa)
#
#
# Indices 1 2 3 4 5 6 
#
# 1 75.9208 52.3566 1.4246 0.0000 -7.6213 0.0000
# 2 52.3566 88.4028 36.2317 0.0000 -8.8514 0.0000
# 3 1.4246 36.2317 51.0937 0.0000 -6.4369 0.0000
# 4 0.0000 0.0000 0.0000 27.6637 0.0000 0.5059
# 5 -7.6213 -8.8514 -6.4369 0.0000 25.3030 0.0000
# 6 0.0000 0.0000 0.0000 0.5059 0.0000 25.2200
#
#
#
# Elastic Compliance Matrix: (Units=1/GPa)
#
#
# Indices 1 2 3 4 5 6 
#
# 1 0.030120 -0.024328 0.017028 0.000000 0.004894 0.000000
# 2 -0.024328 0.035789 -0.024842 0.000000 -0.001128 0.000000
# 3 0.017028 -0.024842 0.037465 0.000000 0.005970 0.000000
# 4 0.000000 0.000000 0.000000 0.036162 0.000000 -0.000725
# 5 0.004894 -0.001128 0.005970 0.000000 0.042119 0.000000
# 6 0.000000 0.000000 0.000000 -0.000725 0.000000 0.039666
#
#
# Mechanical properties :
#
#
# Convention : Reuss Voigt Hill
#
# Bulk Modulus (GPa) = 25.58170 43.93810 34.75990
# Shear Modulus (GPa) = 16.74288 23.99765 20.37026
#
# Velocity S-wave (km/s) = 2.97766 3.56487 3.28441
# Velocity P-wave (km/s) = 5.03677 6.34133 5.72632
#
# Compressibility (1/GPa) = 0.03909045
#
# Stress axis : x y z
#
# Youngs Moduli (GPa) = 33.20028 27.94191 26.69130
#
# Poissons Ratio (x) = 0.67976 -0.45450
# Poissons Ratio (y) = 0.80768 0.66307
# Poissons Ratio (z) = -0.56533 0.69414
#
# Static dielectric constant tensor:
#      x y z
#    x 1.700540 0.000000 -0.032060 
#    y 0.000000 1.676940 0.000000 
#    z -0.032060 0.000000 1.689010 
# 
# From -- ./inp_files/45101.got.cif
#   From: 2010.05.17/outbox.cif.g08.bks.cpg/sg5_23_cif.got.tgz:45101.got - 2010.06.03 18:56:24.
