data_PCOD9126900
_publ_section_title
;
Structure prediction by ZEFSAII (Michael W. Deem and Ramdas Pophale) SiO2 
 PCOD9126900
Probable space group: C 2
;
_chemical_formula_sum "Si O2"
_cell_formula_units_Z 20
_cell_length_a 20.120761
_cell_length_b 6.769634
_cell_length_c 7.316212
_cell_angle_alpha 90.000000
_cell_angle_beta 61.290781
_cell_angle_gamma 90.000000
_cell_volume 874.036515
_symmetry_space_group_name_H-M "C 2"
_symmetry_group_IT_number 5
_symmetry_cell_setting 'monoclinic'
loop_
_space_group_symop_operation_xyz
x,y,z
-x,y,-z
1/2+x,1/2+y,z
1/2-x,1/2+y,-z
loop_
_atom_site_type_symbol
_atom_site_label
_atom_site_fract_x
_atom_site_fract_y
_atom_site_fract_z
Si Si1 0.026530 0.384590 0.657290
Si Si2 0.133385 0.417537 0.995765
Si Si3 0.417139 0.552176 0.140966
Si Si4 0.183062 0.494483 0.328377
Si Si5 0.294734 0.221676 0.374565
O O1 0.061269 0.220066 0.741531
O O2 0.095854 0.521049 0.505767
O O3 0.000000 0.291891 0.500000
O O4 0.953814 0.484093 0.847243
O O5 0.181327 0.471263 0.113474
O O6 0.118318 0.184165 0.977743
O O7 0.169769 0.535120 0.779667
O O8 0.356796 0.393488 0.282574
O O9 0.500000 0.457406 0.000000
O O10 0.221811 0.299287 0.361650
O O11 0.222640 0.667805 0.392249
#
# Coordination Sequence:
#
# PCOD9126900 Si02
#       5
#     4   4   4   4   4
#     4   9  19  44  69  94 130 174 215 280 328 398
#     4  10  24  45  70  93 138 177 223 279 336 401
#     4  10  22  42  69  95 132 177 224 272 333 403
#     4  11  25  42  68  99 135 173 227 274 341 392
#     4  12  26  42  68  98 138 179 217 287 334 407
#
# _framework density 22.882342000000001
#
# number of rings (size 3 to 8) (size 9 to 14) (size 15 to 20)
#    0.000    1.600    2.000    1.200    5.600    0.000 
#   10.800    0.000    0.000    0.000    0.000    0.000 
#    0.000    0.000    0.000    0.000    0.000    0.000 
#
# Total GULP energy -55808.970856 kJ/mol
# GULP energy per Si atom -5580.897086 kJ/mol
# Density = 2.283026 g / cm^3
# Si number density = 22.882342 Si / 1000 Ang^3
#
#
#
# Elastic Constant Matrix: (Units=GPa)
#
#
# Indices 1 2 3 4 5 6 
#
# 1 114.3718 32.5494 49.8468 0.0000 19.7504 0.0000
# 2 32.5494 67.9049 18.5306 0.0000 7.1680 0.0000
# 3 49.8468 18.5306 71.8798 0.0000 10.8119 0.0000
# 4 0.0000 0.0000 0.0000 34.3604 0.0000 -15.5145
# 5 19.7504 7.1680 10.8119 0.0000 62.3021 0.0000
# 6 0.0000 0.0000 0.0000 -15.5145 0.0000 27.5063
#
#
#
# Elastic Compliance Matrix: (Units=1/GPa)
#
#
# Indices 1 2 3 4 5 6 
#
# 1 0.013948 -0.004178 -0.008217 0.000000 -0.002515 0.000000
# 2 -0.004178 0.017172 -0.001470 0.000000 -0.000396 0.000000
# 3 -0.008217 -0.001470 0.020097 0.000000 -0.000714 0.000000
# 4 0.000000 0.000000 0.000000 0.039048 0.000000 0.022024
# 5 -0.002515 -0.000396 -0.000714 0.000000 0.017017 0.000000
# 6 0.000000 0.000000 0.000000 0.022024 0.000000 0.048778
#
#
# Mechanical properties :
#
#
# Convention : Reuss Voigt Hill
#
# Bulk Modulus (GPa) = 42.57767 50.66778 46.62273
# Shear Modulus (GPa) = 26.09340 35.04907 30.57124
#
# Velocity S-wave (km/s) = 3.38054 3.91795 3.65912
# Velocity P-wave (km/s) = 5.82108 6.53130 6.18639
#
# Compressibility (1/GPa) = 0.02348649
#
# Stress axis : x y z
#
# Youngs Moduli (GPa) = 71.69455 58.23395 49.75901
#
# Poissons Ratio (x) = 0.24330 0.40888
# Poissons Ratio (y) = 0.29954 0.07315
# Poissons Ratio (z) = 0.58913 0.08561
#
# Static dielectric constant tensor:
#      x y z
#    x 1.948440 0.000000 -0.021790 
#    y 0.000000 1.847340 0.000000 
#    z -0.021790 0.000000 1.905280 
# 
# From -- ./inp_files/28269.got.cif
#   From: 2010.05.17/outbox.cif.g08.bks.cpg/sg5_15_cif.got.tgz:28269.got - 2010.06.03 18:56:24.
