data_PCOD9126570
_publ_section_title
;
Structure prediction by ZEFSAII (Michael W. Deem and Ramdas Pophale) SiO2 
 PCOD9126570
Probable space group: C 2
;
_chemical_formula_sum "Si O2"
_cell_formula_units_Z 28
_cell_length_a 10.663934
_cell_length_b 9.192557
_cell_length_c 16.175426
_cell_angle_alpha 90.000000
_cell_angle_beta 45.963297
_cell_angle_gamma 90.000000
_cell_volume 1139.921032
_symmetry_space_group_name_H-M "C 2"
_symmetry_group_IT_number 5
_symmetry_cell_setting 'monoclinic'
loop_
_space_group_symop_operation_xyz
x,y,z
-x,y,-z
1/2+x,1/2+y,z
1/2-x,1/2+y,-z
loop_
_atom_site_type_symbol
_atom_site_label
_atom_site_fract_x
_atom_site_fract_y
_atom_site_fract_z
Si Si1 0.829303 0.102470 0.222192
Si Si2 0.221446 0.098958 0.064433
Si Si3 0.260058 0.884065 0.183251
Si Si4 0.627159 0.287829 0.640294
Si Si5 0.118540 0.117690 0.366362
Si Si6 0.789026 0.929484 0.090156
Si Si7 0.282447 0.616594 0.424315
O O1 0.878264 0.247143 0.148391
O O2 0.737732 0.147691 0.349590
O O3 0.018825 0.050155 0.164326
O O4 0.735538 0.987240 0.205579
O O5 0.242959 0.266920 0.080693
O O6 0.312781 0.994489 0.088419
O O7 0.274208 0.047082 0.948814
O O8 0.074803 0.807418 0.248711
O O9 0.221559 0.982773 0.280970
O O10 0.741803 0.232215 0.664294
O O11 0.703417 0.442779 0.577257
O O12 0.655047 0.180155 0.550829
O O13 0.000000 0.076713 0.500000
O O14 0.977416 0.169952 0.362768
O O15 0.000000 0.934409 0.000000
#
# Coordination Sequence:
#
# PCOD9126570 Si02
#       7
#     4   4   4   4   4   4   4
#     4  11  24  41  64 101 133 166 216 266 324 388
#     4  11  23  47  68  96 134 164 214 271 329 391
#     4  11  24  39  66  95 132 172 214 264 324 384
#     4  10  22  42  60  90 132 176 226 264 316 372
#     4   9  20  39  62  82 126 173 220 267 309 364
#     4  10  25  44  71  95 129 167 212 272 331 394
#     4  10  22  41  63  91 133 175 222 269 315 375
#
# _framework density 24.563106000000001
#
# number of rings (size 3 to 8) (size 9 to 14) (size 15 to 20)
#    0.000    1.714    2.857    0.857    8.000    2.286 
#    7.714    0.000    0.000    0.000    0.000    0.000 
#    0.000    0.000    0.000    0.000    0.000    0.000 
#
# Total GULP energy -78287.347489 kJ/mol
# GULP energy per Si atom -5591.953392 kJ/mol
# Density = 2.450720 g / cm^3
# Si number density = 24.563106 Si / 1000 Ang^3
#
#
#
# Elastic Constant Matrix: (Units=GPa)
#
#
# Indices 1 2 3 4 5 6 
#
# 1 88.7228 65.4578 49.7872 0.0000 23.8216 0.0000
# 2 65.4578 111.3465 33.1946 0.0000 21.8453 0.0000
# 3 49.7872 33.1946 81.0075 0.0000 37.3938 0.0000
# 4 0.0000 0.0000 0.0000 42.6572 0.0000 15.4466
# 5 23.8216 21.8453 37.3938 0.0000 42.0292 0.0000
# 6 0.0000 0.0000 0.0000 15.4466 0.0000 49.9921
#
#
#
# Elastic Compliance Matrix: (Units=1/GPa)
#
#
# Indices 1 2 3 4 5 6 
#
# 1 0.026910 -0.012564 -0.012497 0.000000 0.002397 0.000000
# 2 -0.012564 0.016280 0.002833 0.000000 -0.003861 0.000000
# 3 -0.012497 0.002833 0.027616 0.000000 -0.018960 0.000000
# 4 0.000000 0.000000 0.000000 0.026396 0.000000 -0.008156
# 5 0.002397 -0.003861 -0.018960 0.000000 0.041311 0.000000
# 6 0.000000 0.000000 0.000000 -0.008156 0.000000 0.022523
#
#
# Mechanical properties :
#
#
# Convention : Reuss Voigt Hill
#
# Bulk Modulus (GPa) = 37.94946 64.21736 51.08341
# Shear Modulus (GPa) = 23.33457 35.77817 29.55637
#
# Velocity S-wave (km/s) = 3.08553 3.82066 3.47260
# Velocity P-wave (km/s) = 5.30823 6.75750 6.07623
#
# Compressibility (1/GPa) = 0.02635083
#
# Stress axis : x y z
#
# Youngs Moduli (GPa) = 37.16125 61.42465 36.21079
#
# Poissons Ratio (x) = 0.77176 0.45251
# Poissons Ratio (y) = 0.46691 -0.10260
# Poissons Ratio (z) = 0.46439 -0.17404
#
# Static dielectric constant tensor:
#      x y z
#    x 1.963310 0.000000 0.033640 
#    y 0.000000 1.915270 0.000000 
#    z 0.033640 0.000000 2.009290 
# 
# From -- ./inp_files/52390.got.cif
#   From: 2010.05.17/outbox.cif.g08.bks.cpg/sg5_27_cif.got.tgz:52390.got - 2010.06.03 18:56:24.
