data_PCOD9126443
_publ_section_title
;
Structure prediction by ZEFSAII (Michael W. Deem and Ramdas Pophale) SiO2 
 PCOD9126443
Probable space group: C 2
;
_chemical_formula_sum "Si O2"
_cell_formula_units_Z 28
_cell_length_a 25.051211
_cell_length_b 8.317102
_cell_length_c 9.416527
_cell_angle_alpha 90.000000
_cell_angle_beta 137.931385
_cell_angle_gamma 90.000000
_cell_volume 1314.556722
_symmetry_space_group_name_H-M "C 2"
_symmetry_group_IT_number 5
_symmetry_cell_setting 'monoclinic'
loop_
_space_group_symop_operation_xyz
x,y,z
-x,y,-z
1/2+x,1/2+y,z
1/2-x,1/2+y,-z
loop_
_atom_site_type_symbol
_atom_site_label
_atom_site_fract_x
_atom_site_fract_y
_atom_site_fract_z
Si Si1 0.679672 0.971750 0.683144
Si Si2 0.126413 0.207147 0.078965
Si Si3 0.590575 0.372836 0.176405
Si Si4 0.525175 0.801368 0.387746
Si Si5 0.351723 0.533153 0.434648
Si Si6 0.238944 0.292749 0.555404
Si Si7 0.251655 0.778581 0.928022
O O1 0.588514 0.936150 0.469844
O O2 0.726069 0.953237 0.625710
O O3 0.689961 0.133076 0.792281
O O4 0.712992 0.830436 0.851885
O O5 0.184298 0.295247 0.306906
O O6 0.178297 0.213294 0.036481
O O7 0.099049 0.037672 0.097641
O O8 0.045076 0.290204 0.865311
O O9 0.609789 0.412716 0.377017
O O10 0.667195 0.269401 0.281202
O O11 0.500000 0.312451 0.000000
O O12 0.500000 0.831262 0.500000
O O13 0.575899 0.635488 0.486792
O O14 0.298312 0.650054 0.426235
O O15 0.294708 0.435378 0.218788
#
# Coordination Sequence:
#
# PCOD9126443 Si02
#       7
#     4   4   4   4   4   4   4
#     4  11  24  40  69  97 133 167 227 266 333 389
#     4  11  22  39  70  90 138 174 223 260 331 392
#     4  11  20  38  66  99 130 168 221 277 323 387
#     4  11  22  42  66  97 132 182 219 274 324 392
#     4  10  23  39  66  96 133 172 227 266 325 392
#     4  10  22  40  66  98 126 178 217 270 322 397
#     4  12  23  44  67  97 127 180 217 277 324 400
#
# _framework density 21.299955000000001
#
# number of rings (size 3 to 8) (size 9 to 14) (size 15 to 20)
#    0.000    1.143    5.714    1.714    0.000    0.000 
#    0.000    2.143    0.000    0.000    0.000    0.000 
#    0.000    0.000    0.000    0.000    0.000    0.000 
#
# Total GULP energy -78121.762307 kJ/mol
# GULP energy per Si atom -5580.125879 kJ/mol
# Density = 2.125148 g / cm^3
# Si number density = 21.299955 Si / 1000 Ang^3
#
#
#
# Elastic Constant Matrix: (Units=GPa)
#
#
# Indices 1 2 3 4 5 6 
#
# 1 86.9883 -5.5739 36.2079 0.0000 20.9563 0.0000
# 2 -5.5739 31.7912 15.9991 0.0000 9.7469 0.0000
# 3 36.2079 15.9991 160.6604 0.0000 20.4591 0.0000
# 4 0.0000 0.0000 0.0000 31.2009 0.0000 2.6967
# 5 20.9563 9.7469 20.4591 0.0000 43.6104 0.0000
# 6 0.0000 0.0000 0.0000 2.6967 0.0000 16.0164
#
#
#
# Elastic Compliance Matrix: (Units=1/GPa)
#
#
# Indices 1 2 3 4 5 6 
#
# 1 0.014905 0.006353 -0.003083 0.000000 -0.007136 0.000000
# 2 0.006353 0.037492 -0.003945 0.000000 -0.009581 0.000000
# 3 -0.003083 -0.003945 0.007457 0.000000 -0.001135 0.000000
# 4 0.000000 0.000000 0.000000 0.032524 0.000000 -0.005476
# 5 -0.007136 -0.009581 -0.001135 0.000000 0.029033 0.000000
# 6 0.000000 0.000000 0.000000 -0.005476 0.000000 0.063358
#
#
# Mechanical properties :
#
#
# Convention : Reuss Voigt Hill
#
# Bulk Modulus (GPa) = 17.09324 41.41179 29.25251
# Shear Modulus (GPa) = 24.31664 33.68600 29.00132
#
# Velocity S-wave (km/s) = 3.38247 3.98113 3.69395
# Velocity P-wave (km/s) = 4.82672 6.37314 5.65306
#
# Compressibility (1/GPa) = 0.05850267
#
# Stress axis : x y z
#
# Youngs Moduli (GPa) = 67.09038 26.67236 134.11068
#
# Poissons Ratio (x) = -0.16944 0.41348
# Poissons Ratio (y) = -0.42620 0.52909
# Poissons Ratio (z) = 0.20685 0.10523
#
# Static dielectric constant tensor:
#      x y z
#    x 1.802330 0.000000 0.024340 
#    y 0.000000 1.858200 0.000000 
#    z 0.024340 0.000000 1.796460 
# 
# From -- ./inp_files/31728.got.cif
#   From: 2010.05.17/outbox.cif.g08.bks.cpg/sg5_16_cif.got.tgz:31728.got - 2010.06.03 18:56:24.
