data_PCOD9126514
_publ_section_title
;
Structure prediction by ZEFSAII (Michael W. Deem and Ramdas Pophale) SiO2 
 PCOD9126514
Probable space group: C 2
;
_chemical_formula_sum "Si O2"
_cell_formula_units_Z 24
_cell_length_a 14.016039
_cell_length_b 9.635224
_cell_length_c 16.515004
_cell_angle_alpha 90.000000
_cell_angle_beta 151.295839
_cell_angle_gamma 90.000000
_cell_volume 1071.190731
_symmetry_space_group_name_H-M "C 2"
_symmetry_group_IT_number 5
_symmetry_cell_setting 'monoclinic'
loop_
_space_group_symop_operation_xyz
x,y,z
-x,y,-z
1/2+x,1/2+y,z
1/2-x,1/2+y,-z
loop_
_atom_site_type_symbol
_atom_site_label
_atom_site_fract_x
_atom_site_fract_y
_atom_site_fract_z
Si Si1 0.274974 0.090070 0.014754
Si Si2 0.000000 0.138564 0.500000
Si Si3 0.301914 0.888875 0.271436
Si Si4 0.142825 0.215996 0.333157
Si Si5 0.185011 0.534964 0.393496
Si Si6 0.595554 0.346398 0.952321
Si Si7 0.500000 0.130571 0.500000
O O1 0.465260 0.101718 0.216301
O O2 0.370041 0.181993 0.014241
O O3 0.062683 0.168964 0.862636
O O4 0.207229 0.929843 0.964015
O O5 0.086296 0.244708 0.631921
O O6 0.174908 0.057924 0.582341
O O7 0.134395 0.884530 0.217155
O O8 0.434734 0.022490 0.382574
O O9 0.192760 0.903496 0.105874
O O10 0.142312 0.370567 0.370155
O O11 0.201764 0.106873 0.447487
O O12 0.315154 0.215129 0.394473
#
# Coordination Sequence:
#
# PCOD9126514 Si02
#       7
#     4   2   4   4   4   4   2
#     4  12  24  44  68 102 138 176 232 288 340 410
#     4  11  23  44  68 100 140 180 230 294 342 412
#     4  10  22  40  70  98 130 183 233 277 352 416
#     4  12  28  46  72 104 141 185 234 288 353 416
#     4  12  28  46  72 104 141 185 234 288 353 416
#     4  11  22  42  68  98 134 181 231 286 343 416
#     4  11  23  44  68 100 140 180 230 294 342 412
#
# _framework density 22.404973999999999
#
# number of rings (size 3 to 8) (size 9 to 14) (size 15 to 20)
#    0.000    0.667    5.000    2.500    7.000    0.000 
#    0.000    0.000    0.000    8.000    0.000    0.000 
#    0.000    0.000    0.000    0.000    0.000    0.000 
#
# Total GULP energy -66859.559767 kJ/mol
# GULP energy per Si atom -5571.629981 kJ/mol
# Density = 2.235398 g / cm^3
# Si number density = 22.404974 Si / 1000 Ang^3
#
#
#
# Elastic Constant Matrix: (Units=GPa)
#
#
# Indices 1 2 3 4 5 6 
#
# 1 70.4875 23.6573 29.3954 0.0000 21.8081 0.0000
# 2 23.6573 113.9053 41.9338 0.0004 6.0172 0.0003
# 3 29.3954 41.9338 126.8776 0.0011 22.4619 0.0006
# 4 0.0000 0.0004 0.0011 31.7250 0.0003 9.0661
# 5 21.8081 6.0172 22.4619 0.0003 33.3831 0.0001
# 6 0.0000 0.0003 0.0006 9.0661 0.0001 8.6259
#
#
#
# Elastic Compliance Matrix: (Units=1/GPa)
#
#
# Indices 1 2 3 4 5 6 
#
# 1 0.019183 -0.002827 -0.001568 0.000000 -0.010967 0.000000
# 2 -0.002827 0.010419 -0.003159 0.000000 0.002095 0.000000
# 3 -0.001568 -0.003159 0.010225 0.000000 -0.005286 0.000000
# 4 0.000000 0.000000 0.000000 0.045053 0.000000 -0.047352
# 5 -0.010967 0.002095 -0.005286 0.000000 0.040298 0.000000
# 6 0.000000 0.000000 0.000000 -0.047352 0.000000 0.165698
#
#
# Mechanical properties :
#
#
# Convention : Reuss Voigt Hill
#
# Bulk Modulus (GPa) = 40.45884 55.69370 48.07627
# Shear Modulus (GPa) = 15.91219 29.16574 22.53896
#
# Velocity S-wave (km/s) = 2.66786 3.61190 3.17516
# Velocity P-wave (km/s) = 5.25235 6.50431 5.91157
#
# Compressibility (1/GPa) = 0.02471648
#
# Stress axis : x y z
#
# Youngs Moduli (GPa) = 52.12978 95.97960 97.80026
#
# Poissons Ratio (x) = 0.27138 0.15339
# Poissons Ratio (y) = 0.14739 0.30898
# Poissons Ratio (z) = 0.08176 0.30323
#
# Static dielectric constant tensor:
#      x y z
#    x 1.911490 0.000000 0.028080 
#    y 0.000000 1.823630 0.000000 
#    z 0.028080 0.000000 1.838410 
# 
# From -- ./inp_files/61506.got.cif
#   From: 2010.05.17/outbox.cif.g08.bks.cpg/sg5_31_cif.got.tgz:61506.got - 2010.06.03 18:56:24.
