data_PCOD9126774
_publ_section_title
;
Structure prediction by ZEFSAII (Michael W. Deem and Ramdas Pophale) SiO2 
 PCOD9126774
Probable space group: C 2
;
_chemical_formula_sum "Si O2"
_cell_formula_units_Z 26
_cell_length_a 16.507773
_cell_length_b 9.554332
_cell_length_c 8.138965
_cell_angle_alpha 90.000000
_cell_angle_beta 82.329432
_cell_angle_gamma 90.000000
_cell_volume 1272.197079
_symmetry_space_group_name_H-M "C 2"
_symmetry_group_IT_number 5
_symmetry_cell_setting 'monoclinic'
loop_
_space_group_symop_operation_xyz
x,y,z
-x,y,-z
1/2+x,1/2+y,z
1/2-x,1/2+y,-z
loop_
_atom_site_type_symbol
_atom_site_label
_atom_site_fract_x
_atom_site_fract_y
_atom_site_fract_z
Si Si1 0.276887 0.294500 0.652409
Si Si2 0.000000 0.467908 0.500000
Si Si3 0.745273 0.594221 0.216523
Si Si4 0.334304 0.825947 0.616772
Si Si5 0.052513 0.712446 0.246893
Si Si6 0.893987 0.790797 0.138928
Si Si7 0.272109 0.537130 0.149024
O O1 0.266205 0.460089 0.669256
O O2 0.228352 0.263172 0.499695
O O3 0.372696 0.261730 0.657845
O O4 0.229489 0.198538 0.797820
O O5 0.080865 0.371880 0.486443
O O6 0.019073 0.568215 0.337257
O O7 0.668397 0.700548 0.249705
O O8 0.826939 0.682859 0.223204
O O9 0.752609 0.532460 0.032511
O O10 0.293596 0.959741 0.716369
O O11 0.969730 0.799940 0.242405
O O12 0.085459 0.727369 0.048816
O O13 0.853007 0.943055 0.138416
#
# Coordination Sequence:
#
# PCOD9126774 Si02
#       7
#     4   2   4   4   4   4   4
#     4  12  22  41  65 102 129 175 216 275 342 391
#     4  12  24  46  62 100 136 176 214 280 340 404
#     4  11  21  41  68  94 129 175 224 271 327 390
#     4  11  25  41  67  97 133 172 223 273 334 399
#     4  11  23  39  68  94 132 171 220 269 330 397
#     4  10  22  42  65 100 126 174 227 270 317 399
#     4  11  21  43  68  94 129 174 224 272 323 397
#
# _framework density 20.437085
#
# number of rings (size 3 to 8) (size 9 to 14) (size 15 to 20)
#    0.000    0.923    4.615    2.769    4.308    0.000 
#    2.769    0.000    0.000    1.846    0.000    0.000 
#    0.000    0.000    0.000    0.000    0.000    0.000 
#
# Total GULP energy -72407.062879 kJ/mol
# GULP energy per Si atom -5569.774068 kJ/mol
# Density = 2.039057 g / cm^3
# Si number density = 20.437085 Si / 1000 Ang^3
#
#
#
# Elastic Constant Matrix: (Units=GPa)
#
#
# Indices 1 2 3 4 5 6 
#
# 1 150.1616 38.1988 39.9855 0.0000 3.5974 0.0000
# 2 38.1988 97.7398 -2.3146 0.0000 -12.9175 0.0000
# 3 39.9855 -2.3146 54.0738 0.0000 -8.5015 0.0000
# 4 0.0000 0.0000 0.0000 35.9239 0.0000 -8.0307
# 5 3.5974 -12.9175 -8.5015 0.0000 32.8538 0.0000
# 6 0.0000 0.0000 0.0000 -8.0307 0.0000 22.4212
#
#
#
# Elastic Compliance Matrix: (Units=1/GPa)
#
#
# Indices 1 2 3 4 5 6 
#
# 1 0.010375 -0.004968 -0.008725 0.000000 -0.005347 0.000000
# 2 -0.004968 0.013243 0.005363 0.000000 0.007139 0.000000
# 3 -0.008725 0.005363 0.026744 0.000000 0.009985 0.000000
# 4 0.000000 0.000000 0.000000 0.030259 0.000000 0.010838
# 5 -0.005347 0.007139 0.009985 0.000000 0.036414 0.000000
# 6 0.000000 0.000000 0.000000 0.010838 0.000000 0.048483
#
#
# Mechanical properties :
#
#
# Convention : Reuss Voigt Hill
#
# Bulk Modulus (GPa) = 29.67169 50.41274 40.04222
# Shear Modulus (GPa) = 25.85145 33.31346 29.58246
#
# Velocity S-wave (km/s) = 3.56044 4.04177 3.80872
# Velocity P-wave (km/s) = 5.60824 6.81924 6.24317
#
# Compressibility (1/GPa) = 0.03370216
#
# Stress axis : x y z
#
# Youngs Moduli (GPa) = 96.38842 75.50987 37.39098
#
# Poissons Ratio (x) = 0.37513 0.32624
# Poissons Ratio (y) = 0.47885 -0.20052
# Poissons Ratio (z) = 0.84099 -0.40495
#
# Static dielectric constant tensor:
#      x y z
#    x 1.759820 0.000000 -0.033100 
#    y 0.000000 1.731940 0.000000 
#    z -0.033100 0.000000 1.823580 
# 
# From -- ./inp_files/26751.got.cif
#   From: 2010.05.17/outbox.cif.g08.bks.cpg/sg5_14_cif.got.tgz:26751.got - 2010.06.03 18:56:24.
