data_PCOD9126766
_publ_section_title
;
Structure prediction by ZEFSAII (Michael W. Deem and Ramdas Pophale) SiO2 
 PCOD9126766
Probable space group: C 2
;
_chemical_formula_sum "Si O2"
_cell_formula_units_Z 28
_cell_length_a 10.857034
_cell_length_b 7.850574
_cell_length_c 15.060846
_cell_angle_alpha 90.000000
_cell_angle_beta 108.738484
_cell_angle_gamma 90.000000
_cell_volume 1215.652741
_symmetry_space_group_name_H-M "C 2"
_symmetry_group_IT_number 5
_symmetry_cell_setting 'monoclinic'
loop_
_space_group_symop_operation_xyz
x,y,z
-x,y,-z
1/2+x,1/2+y,z
1/2-x,1/2+y,-z
loop_
_atom_site_type_symbol
_atom_site_label
_atom_site_fract_x
_atom_site_fract_y
_atom_site_fract_z
Si Si1 0.047969 0.334040 0.654048
Si Si2 0.646256 0.763269 0.061547
Si Si3 0.339008 0.303042 0.766844
Si Si4 0.863316 0.052517 0.561148
Si Si5 0.616314 0.153123 0.395478
Si Si6 0.648920 0.166525 0.040608
Si Si7 0.887389 0.162387 0.751820
O O1 0.200855 0.344039 0.690216
O O2 0.992779 0.168444 0.589685
O O3 0.985182 0.506551 0.602528
O O4 0.998068 0.289876 0.742979
O O5 0.675199 0.718840 0.170899
O O6 0.644392 0.965542 0.053375
O O7 0.500000 0.701338 0.000000
O O8 0.757202 0.700292 0.020290
O O9 0.394083 0.160847 0.714262
O O10 0.305900 0.252030 0.858105
O O11 0.431026 0.468463 0.782654
O O12 0.755067 0.087280 0.463005
O O13 0.807433 0.135117 0.641530
O O14 0.896168 0.851286 0.576731
O O15 0.500000 0.228189 0.000000
#
# Coordination Sequence:
#
# PCOD9126766 Si02
#       7
#     4   4   4   4   4   4   4
#     4  10  22  42  64  92 137 167 220 279 328 396
#     4  11  23  43  68  94 136 178 227 286 344 402
#     4  11  24  41  67  97 128 174 227 271 340 408
#     4   9  20  39  66  96 131 177 220 272 339 398
#     4  11  20  42  68  92 137 175 216 278 332 404
#     4  11  26  43  66 100 133 178 229 283 345 410
#     4   9  21  40  61  93 127 167 217 272 333 392
#
# _framework density 23.032893000000001
#
# number of rings (size 3 to 8) (size 9 to 14) (size 15 to 20)
#    0.857    0.857    1.429    2.571    0.000    7.429 
#    5.143    0.000    6.286    0.000    0.000    0.000 
#    0.000    0.000    0.000    0.000    0.000    0.000 
#
# Total GULP energy -78037.502562 kJ/mol
# GULP energy per Si atom -5574.107326 kJ/mol
# Density = 2.298047 g / cm^3
# Si number density = 23.032893 Si / 1000 Ang^3
#
#
#
# Elastic Constant Matrix: (Units=GPa)
#
#
# Indices 1 2 3 4 5 6 
#
# 1 85.7975 34.0129 34.5353 0.0000 -4.3855 0.0000
# 2 34.0129 120.0818 22.4117 0.0000 11.9128 0.0000
# 3 34.5353 22.4117 80.8764 0.0000 -23.7581 0.0000
# 4 0.0000 0.0000 0.0000 19.6524 0.0000 -9.8588
# 5 -4.3855 11.9128 -23.7581 0.0000 46.8695 0.0000
# 6 0.0000 0.0000 0.0000 -9.8588 0.0000 10.1716
#
#
#
# Elastic Compliance Matrix: (Units=1/GPa)
#
#
# Indices 1 2 3 4 5 6 
#
# 1 0.015217 -0.003146 -0.005843 0.000000 -0.000738 0.000000
# 2 -0.003146 0.010148 -0.002717 0.000000 -0.004251 0.000000
# 3 -0.005843 -0.002717 0.018394 0.000000 0.009468 0.000000
# 4 0.000000 0.000000 0.000000 0.099040 0.000000 0.095994
# 5 -0.000738 -0.004251 0.009468 0.000000 0.027146 0.000000
# 6 0.000000 0.000000 0.000000 0.095994 0.000000 0.191354
#
#
# Mechanical properties :
#
#
# Convention : Reuss Voigt Hill
#
# Bulk Modulus (GPa) = 49.15112 52.07506 50.61309
# Shear Modulus (GPa) = 12.77161 28.39176 20.58168
#
# Velocity S-wave (km/s) = 2.35732 3.51474 2.99252
# Velocity P-wave (km/s) = 5.36611 6.25534 5.82771
#
# Compressibility (1/GPa) = 0.02034542
#
# Stress axis : x y z
#
# Youngs Moduli (GPa) = 65.71694 98.54406 54.36658
#
# Poissons Ratio (x) = 0.31006 0.31765
# Poissons Ratio (y) = 0.20677 0.14773
# Poissons Ratio (z) = 0.38396 0.26777
#
# Static dielectric constant tensor:
#      x y z
#    x 1.877940 0.000000 -0.041470 
#    y 0.000000 1.873870 0.000000 
#    z -0.041470 0.000000 1.922370 
# 
# From -- ./inp_files/52327.got.cif
#   From: 2010.05.17/outbox.cif.g08.bks.cpg/sg5_27_cif.got.tgz:52327.got - 2010.06.03 18:56:24.
