data_PCOD9126133
_publ_section_title
;
Structure prediction by ZEFSAII (Michael W. Deem and Ramdas Pophale) SiO2 
 PCOD9126133
Probable space group: C 2
;
_chemical_formula_sum "Si O2"
_cell_formula_units_Z 18
_cell_length_a 7.243505
_cell_length_b 19.275153
_cell_length_c 5.541468
_cell_angle_alpha 90.000000
_cell_angle_beta 106.751809
_cell_angle_gamma 90.000000
_cell_volume 740.863927
_symmetry_space_group_name_H-M "C 2"
_symmetry_group_IT_number 5
_symmetry_cell_setting 'monoclinic'
loop_
_space_group_symop_operation_xyz
x,y,z
-x,y,-z
1/2+x,1/2+y,z
1/2-x,1/2+y,-z
loop_
_atom_site_type_symbol
_atom_site_label
_atom_site_fract_x
_atom_site_fract_y
_atom_site_fract_z
Si Si1 0.768396 0.439060 0.395295
Si Si2 0.262418 0.009539 0.897260
Si Si3 0.281824 0.155237 0.014622
Si Si4 0.790505 0.279618 0.302609
Si Si5 0.000000 0.689016 0.500000
O O1 0.706248 0.463681 0.641729
O O2 0.732538 0.359861 0.296015
O O3 0.000000 0.445077 0.500000
O O4 0.703203 0.483001 0.139803
O O5 0.188667 0.089157 0.853875
O O6 0.500000 0.009738 0.000000
O O7 0.200020 0.231876 0.935222
O O8 0.500000 0.155477 0.000000
O O9 0.332951 0.143576 0.312820
O O10 0.625827 0.240183 0.386105
O O11 0.000000 0.274510 0.500000
#
# Coordination Sequence:
#
# PCOD9126133 Si02
#       5
#     4   4   4   4   2
#     4   9  19  33  56  89 119 160 202 257 307 368
#     4   9  18  32  57  86 123 155 209 252 308 367
#     4   9  20  35  60  90 120 162 207 254 306 370
#     4  10  22  39  62  90 124 159 210 253 312 371
#     4  10  22  38  64  86 124 162 208 256 312 362
#
# _framework density 24.295960000000001
#
# number of rings (size 3 to 8) (size 9 to 14) (size 15 to 20)
#    0.000    2.667    0.000    0.000   14.000    0.889 
#    0.000    0.000    2.444    0.000    0.000    0.000 
#    0.000    0.000    0.000    0.000    0.000    0.000 
#
# Total GULP energy -50110.138144 kJ/mol
# GULP energy per Si atom -5567.793127 kJ/mol
# Density = 2.424066 g / cm^3
# Si number density = 24.295960 Si / 1000 Ang^3
#
#
#
# Elastic Constant Matrix: (Units=GPa)
#
#
# Indices 1 2 3 4 5 6 
#
# 1 42.6264 2.5758 17.7022 0.0000 7.6456 0.0000
# 2 2.5758 176.8559 92.9275 0.0000 -2.2286 0.0000
# 3 17.7022 92.9275 120.3626 0.0000 -19.4417 0.0000
# 4 0.0000 0.0000 0.0000 99.4217 0.0000 18.1705
# 5 7.6456 -2.2286 -19.4417 0.0000 30.5719 0.0000
# 6 0.0000 0.0000 0.0000 18.1705 0.0000 17.5135
#
#
#
# Elastic Compliance Matrix: (Units=1/GPa)
#
#
# Indices 1 2 3 4 5 6 
#
# 1 0.029920 0.004824 -0.010339 0.000000 -0.013706 0.000000
# 2 0.004824 0.010863 -0.010212 0.000000 -0.006909 0.000000
# 3 -0.010339 -0.010212 0.020073 0.000000 0.014606 0.000000
# 4 0.000000 0.000000 0.000000 0.012412 0.000000 -0.012877
# 5 -0.013706 -0.006909 0.014606 0.000000 0.044922 0.000000
# 6 0.000000 0.000000 0.000000 -0.012877 0.000000 0.070459
#
#
# Mechanical properties :
#
#
# Convention : Reuss Voigt Hill
#
# Bulk Modulus (GPa) = 34.01203 62.91732 48.46468
# Shear Modulus (GPa) = 21.74831 44.61071 33.17951
#
# Velocity S-wave (km/s) = 2.99514 4.28967 3.69946
# Velocity P-wave (km/s) = 5.09809 7.10545 6.18377
#
# Compressibility (1/GPa) = 0.02940136
#
# Stress axis : x y z
#
# Youngs Moduli (GPa) = 33.42253 92.05557 49.81917
#
# Poissons Ratio (x) = -0.44406 0.51506
# Poissons Ratio (y) = -0.16122 0.50877
# Poissons Ratio (z) = 0.34554 0.94010
#
# Static dielectric constant tensor:
#      x y z
#    x 1.639280 0.000000 -0.006180 
#    y 0.000000 1.998430 0.000000 
#    z -0.006180 0.000000 3.072560 
# 
# From -- ./inp_files/2116.got.cif
#   From: 2010.05.17/outbox.cif.g08.bks.cpg/sg5_2_cif.got.tgz:2116.got - 2010.06.03 18:56:24.
