data_PCOD9126757
_publ_section_title
;
Structure prediction by ZEFSAII (Michael W. Deem and Ramdas Pophale) SiO2 
 PCOD9126757
Probable space group: C 2
;
_chemical_formula_sum "Si O2"
_cell_formula_units_Z 22
_cell_length_a 10.898781
_cell_length_b 8.707024
_cell_length_c 11.786804
_cell_angle_alpha 90.000000
_cell_angle_beta 67.474890
_cell_angle_gamma 90.000000
_cell_volume 1033.189988
_symmetry_space_group_name_H-M "C 2"
_symmetry_group_IT_number 5
_symmetry_cell_setting 'monoclinic'
loop_
_space_group_symop_operation_xyz
x,y,z
-x,y,-z
1/2+x,1/2+y,z
1/2-x,1/2+y,-z
loop_
_atom_site_type_symbol
_atom_site_label
_atom_site_fract_x
_atom_site_fract_y
_atom_site_fract_z
Si Si1 0.631036 0.385720 0.176055
Si Si2 0.340428 0.452624 0.205403
Si Si3 0.224915 0.221598 0.065342
Si Si4 0.000000 0.194428 0.000000
Si Si5 0.852267 0.544440 0.525337
Si Si6 0.146829 0.892684 0.433852
O O1 0.472610 0.399404 0.223816
O O2 0.695951 0.545723 0.108736
O O3 0.671216 0.367413 0.291820
O O4 0.673704 0.253545 0.073391
O O5 0.277085 0.318097 0.152742
O O6 0.396453 0.584075 0.101647
O O7 0.236105 0.513422 0.332494
O O8 0.084701 0.283230 0.063596
O O9 0.864196 0.726524 0.504048
O O10 0.769248 0.477237 0.449899
O O11 0.000000 0.482842 0.500000
O O12 0.000000 0.969285 0.500000
#
# Coordination Sequence:
#
# PCOD9126757 Si02
#       6
#     4   4   4   2   4   4
#     4  11  24  43  72 100 140 186 228 282 354 412
#     4  11  21  44  69  94 142 177 226 289 343 406
#     4  11  22  41  68 102 133 182 226 281 348 402
#     4  10  22  42  64 102 132 184 218 290 350 404
#     4  11  27  44  70 104 139 182 238 286 341 421
#     4  11  25  47  71 102 140 188 230 290 349 411
#
# _framework density 21.293275999999999
#
# number of rings (size 3 to 8) (size 9 to 14) (size 15 to 20)
#    0.000    1.091    5.455    1.091    2.545    5.091 
#    3.273    1.818    0.000    0.000    0.000    0.000 
#    0.000    0.000    0.000    0.000    0.000    0.000 
#
# Total GULP energy -61459.133788 kJ/mol
# GULP energy per Si atom -5587.193981 kJ/mol
# Density = 2.124481 g / cm^3
# Si number density = 21.293276 Si / 1000 Ang^3
#
#
#
# Elastic Constant Matrix: (Units=GPa)
#
#
# Indices 1 2 3 4 5 6 
#
# 1 178.1952 61.3018 44.8627 0.0000 13.4640 0.0000
# 2 61.3018 45.5044 24.8131 0.0000 5.4754 0.0000
# 3 44.8627 24.8131 100.9053 0.0000 9.0069 0.0000
# 4 0.0000 0.0000 0.0000 18.2676 0.0000 10.4363
# 5 13.4640 5.4754 9.0069 0.0000 50.4643 0.0000
# 6 0.0000 0.0000 0.0000 10.4363 0.0000 37.0682
#
#
#
# Elastic Compliance Matrix: (Units=1/GPa)
#
#
# Indices 1 2 3 4 5 6 
#
# 1 0.010690 -0.013543 -0.001320 0.000000 -0.001147 0.000000
# 2 -0.013543 0.042676 -0.004453 0.000000 -0.000222 0.000000
# 3 -0.001320 -0.004453 0.011704 0.000000 -0.001254 0.000000
# 4 0.000000 0.000000 0.000000 0.065235 0.000000 -0.018366
# 5 -0.001147 -0.000222 -0.001254 0.000000 0.020370 0.000000
# 6 0.000000 0.000000 0.000000 -0.018366 0.000000 0.032148
#
#
# Mechanical properties :
#
#
# Convention : Reuss Voigt Hill
#
# Bulk Modulus (GPa) = 37.82542 65.17335 51.49938
# Shear Modulus (GPa) = 21.71389 34.06849 27.89119
#
# Velocity S-wave (km/s) = 3.19682 4.00430 3.62312
# Velocity P-wave (km/s) = 5.60614 7.21478 6.46072
#
# Compressibility (1/GPa) = 0.02643725
#
# Stress axis : x y z
#
# Youngs Moduli (GPa) = 93.54630 23.43250 85.44032
#
# Poissons Ratio (x) = 0.31735 0.11278
# Poissons Ratio (y) = 1.26692 0.38047
# Poissons Ratio (z) = 0.12348 0.10435
#
# Static dielectric constant tensor:
#      x y z
#    x 1.815690 0.000000 0.003890 
#    y 0.000000 1.772850 0.000000 
#    z 0.003890 0.000000 1.763120 
# 
# From -- ./inp_files/38258.got.cif
#   From: 2010.05.17/outbox.cif.g08.bks.cpg/sg5_20_cif.got.tgz:38258.got - 2010.06.03 18:56:24.
