data_PCOD9126485
_publ_section_title
;
Structure prediction by ZEFSAII (Michael W. Deem and Ramdas Pophale) SiO2 
 PCOD9126485
Probable space group: C 2
;
_chemical_formula_sum "Si O2"
_cell_formula_units_Z 26
_cell_length_a 15.758641
_cell_length_b 14.172579
_cell_length_c 8.984749
_cell_angle_alpha 90.000000
_cell_angle_beta 38.788594
_cell_angle_gamma 90.000000
_cell_volume 1257.068889
_symmetry_space_group_name_H-M "C 2"
_symmetry_group_IT_number 5
_symmetry_cell_setting 'monoclinic'
loop_
_space_group_symop_operation_xyz
x,y,z
-x,y,-z
1/2+x,1/2+y,z
1/2-x,1/2+y,-z
loop_
_atom_site_type_symbol
_atom_site_label
_atom_site_fract_x
_atom_site_fract_y
_atom_site_fract_z
Si Si1 0.282770 0.837650 0.548728
Si Si2 0.500000 0.793868 0.000000
Si Si3 0.827669 0.976864 0.798110
Si Si4 0.156702 0.498979 0.299077
Si Si5 0.909726 0.862259 0.442015
Si Si6 0.246500 0.709602 0.177164
Si Si7 0.344007 0.701141 0.720301
O O1 0.404602 0.838965 0.260180
O O2 0.140709 0.848578 0.655453
O O3 0.283477 0.743141 0.650440
O O4 0.305176 0.923814 0.629467
O O5 0.387365 0.736641 0.061804
O O6 0.803842 0.930093 0.672177
O O7 0.951673 0.919281 0.710591
O O8 0.850932 0.087566 0.734270
O O9 0.703413 0.962631 0.075166
O O10 0.228736 0.598658 0.222724
O O11 0.000000 0.516938 0.500000
O O12 0.876509 0.764560 0.573320
O O13 0.262028 0.733074 0.980074
O O14 0.500000 0.735676 0.500000
#
# Coordination Sequence:
#
# PCOD9126485 Si02
#       7
#     4   2   4   4   4   4   4
#     4  11  24  38  65  99 142 163 231 274 342 385
#     4  10  22  40  68  98 128 188 218 286 324 412
#     4  10  23  43  72  91 132 176 236 268 337 400
#     4  11  26  42  64  99 132 184 219 284 331 411
#     4  10  22  41  67 102 128 174 220 285 327 401
#     4  10  23  40  66  96 138 174 230 272 344 389
#     4  11  19  39  67  99 127 187 224 279 316 412
#
# _framework density 20.683036000000001
#
# number of rings (size 3 to 8) (size 9 to 14) (size 15 to 20)
#    0.000    1.538    3.077    1.385    6.462    5.538 
#    0.000    0.000    0.000    0.000    0.000    0.000 
#    0.000    0.000    0.000    0.000    0.000    0.000 
#
# Total GULP energy -72450.208256 kJ/mol
# GULP energy per Si atom -5573.092943 kJ/mol
# Density = 2.063596 g / cm^3
# Si number density = 20.683036 Si / 1000 Ang^3
#
#
#
# Elastic Constant Matrix: (Units=GPa)
#
#
# Indices 1 2 3 4 5 6 
#
# 1 116.6686 27.5123 17.4246 0.0000 3.5972 0.0000
# 2 27.5123 93.9684 14.9636 0.0000 5.8237 0.0000
# 3 17.4246 14.9636 83.1705 0.0000 16.6878 0.0000
# 4 0.0000 0.0000 0.0000 -15.7452 0.0000 -21.8154
# 5 3.5972 5.8237 16.6878 0.0000 32.4967 0.0000
# 6 0.0000 0.0000 0.0000 -21.8154 0.0000 -9.3484
#
#
#
# Elastic Compliance Matrix: (Units=1/GPa)
#
#
# Indices 1 2 3 4 5 6 
#
# 1 0.009390 -0.002514 -0.001557 0.000000 0.000211 0.000000
# 2 -0.002514 0.011662 -0.001347 0.000000 -0.001120 0.000000
# 3 -0.001557 -0.001347 0.013946 0.000000 -0.006748 0.000000
# 4 0.000000 0.000000 0.000000 0.028439 0.000000 -0.066365
# 5 0.000211 -0.001120 -0.006748 0.000000 0.034415 0.000000
# 6 0.000000 0.000000 0.000000 -0.066365 0.000000 0.047899
#
#
# Mechanical properties :
#
#
# Convention : Reuss Voigt Hill
#
# Bulk Modulus (GPa) = 41.38799 45.95651 43.67225
# Shear Modulus (GPa) = 30.36905 17.07440 23.72172
#
# Velocity S-wave (km/s) = 3.83601 2.87632 3.39029
# Velocity P-wave (km/s) = 6.29873 5.77049 6.04039
#
# Compressibility (1/GPa) = 0.02416160
#
# Stress axis : x y z
#
# Youngs Moduli (GPa) = 106.49291 85.74925 71.70548
#
# Poissons Ratio (x) = 0.21561 0.11166
# Poissons Ratio (y) = 0.26777 0.09656
# Poissons Ratio (z) = 0.16583 0.11547
#
# Static dielectric constant tensor:
#      x y z
#    x 1.744970 0.000000 -0.013220 
#    y 0.000000 1.781040 0.000000 
#    z -0.013220 0.000000 1.802920 
# 
# From -- ./inp_files/24786.got.cif
#   From: 2010.05.17/outbox.cif.g08.bks.cpg/sg5_13_cif.got.tgz:24786.got - 2010.06.03 18:56:24.
