data_PCOD9126594
_publ_section_title
;
Structure prediction by ZEFSAII (Michael W. Deem and Ramdas Pophale) SiO2 
 PCOD9126594
Probable space group: C 2
;
_chemical_formula_sum "Si O2"
_cell_formula_units_Z 26
_cell_length_a 19.432002
_cell_length_b 10.974018
_cell_length_c 6.979181
_cell_angle_alpha 90.000000
_cell_angle_beta 57.721311
_cell_angle_gamma 90.000000
_cell_volume 1258.290772
_symmetry_space_group_name_H-M "C 2"
_symmetry_group_IT_number 5
_symmetry_cell_setting 'monoclinic'
loop_
_space_group_symop_operation_xyz
x,y,z
-x,y,-z
1/2+x,1/2+y,z
1/2-x,1/2+y,-z
loop_
_atom_site_type_symbol
_atom_site_label
_atom_site_fract_x
_atom_site_fract_y
_atom_site_fract_z
Si Si1 0.103131 0.417490 0.668597
Si Si2 0.679173 0.040488 0.887853
Si Si3 0.591692 0.139112 0.399510
Si Si4 0.227076 0.268595 0.257445
Si Si5 0.918870 0.127909 0.742090
Si Si6 0.500000 0.710474 0.000000
Si Si7 0.171751 0.881461 0.219167
O O1 0.110523 0.483942 0.859770
O O2 0.081728 0.524868 0.555169
O O3 0.186583 0.359960 0.465468
O O4 0.047616 0.300750 0.786197
O O5 0.727543 0.152579 0.720458
O O6 0.747620 0.938945 0.811615
O O7 0.640420 0.085157 0.144230
O O8 0.500000 0.181374 0.500000
O O9 0.639179 0.263549 0.380723
O O10 0.155538 0.215574 0.220753
O O11 0.296100 0.335188 0.033282
O O12 0.941001 0.139710 0.936704
O O13 0.000000 0.156707 0.500000
O O14 0.890835 0.991637 0.724196
#
# Coordination Sequence:
#
# PCOD9126594 Si02
#       7
#     4   4   4   4   4   2   4
#     4  12  24  38  66  94 127 170 217 264 321 386
#     4  10  23  41  64  94 125 165 219 263 321 382
#     4  11  24  42  65  93 131 174 208 267 326 384
#     4  10  22  41  64  93 128 167 212 270 317 383
#     4  11  23  45  67  97 129 170 218 269 328 381
#     4  12  26  38  68 102 128 174 222 270 318 400
#     4  10  22  45  66  92 133 168 213 270 326 384
#
# _framework density 20.662949000000001
#
# number of rings (size 3 to 8) (size 9 to 14) (size 15 to 20)
#    0.000    1.231    3.077    2.308    4.308    1.231 
#    0.000    3.077    0.000    0.000    0.000    0.000 
#    0.000    0.000    0.000    0.000    0.000    0.000 
#
# Total GULP energy -72493.408826 kJ/mol
# GULP energy per Si atom -5576.416064 kJ/mol
# Density = 2.061592 g / cm^3
# Si number density = 20.662949 Si / 1000 Ang^3
#
#
#
# Elastic Constant Matrix: (Units=GPa)
#
#
# Indices 1 2 3 4 5 6 
#
# 1 52.0555 3.9698 11.7279 0.0000 -2.0778 0.0000
# 2 3.9698 46.5200 16.7532 0.0000 7.2459 0.0000
# 3 11.7279 16.7532 40.3141 0.0000 2.8971 0.0000
# 4 0.0000 0.0000 0.0000 61.0368 0.0000 -15.2803
# 5 -2.0778 7.2459 2.8971 0.0000 30.6681 0.0000
# 6 0.0000 0.0000 0.0000 -15.2803 0.0000 28.1010
#
#
#
# Elastic Compliance Matrix: (Units=1/GPa)
#
#
# Indices 1 2 3 4 5 6 
#
# 1 0.020678 0.000175 -0.006228 0.000000 0.001948 0.000000
# 2 0.000175 0.026071 -0.010515 0.000000 -0.005155 0.000000
# 3 -0.006228 -0.010515 0.031049 0.000000 -0.000871 0.000000
# 4 0.000000 0.000000 0.000000 0.018965 0.000000 0.010313
# 5 0.001948 -0.005155 -0.000871 0.000000 0.034039 0.000000
# 6 0.000000 0.000000 0.000000 0.010313 0.000000 0.041194
#
#
# Mechanical properties :
#
#
# Convention : Reuss Voigt Hill
#
# Bulk Modulus (GPa) = 22.39034 22.64351 22.51693
# Shear Modulus (GPa) = 22.72531 31.05708 26.89119
#
# Velocity S-wave (km/s) = 3.31994 3.88110 3.61143
# Velocity P-wave (km/s) = 5.05524 5.57371 5.32079
#
# Compressibility (1/GPa) = 0.04466211
#
# Stress axis : x y z
#
# Youngs Moduli (GPa) = 48.36089 38.35723 32.20697
#
# Poissons Ratio (x) = -0.00671 0.20059
# Poissons Ratio (y) = -0.00846 0.33864
# Poissons Ratio (z) = 0.30120 0.40331
#
# Static dielectric constant tensor:
#      x y z
#    x 1.070840 0.000000 -0.096230 
#    y 0.000000 1.805130 0.000000 
#    z -0.096230 0.000000 1.745490 
# 
# From -- ./inp_files/9530.got.cif
#   From: 2010.05.17/outbox.cif.g08.bks.cpg/sg5_5_cif.got.tgz:9530.got - 2010.06.03 18:56:24.
