data_PCOD9126331
_publ_section_title
;
Structure prediction by ZEFSAII (Michael W. Deem and Ramdas Pophale) SiO2 
 PCOD9126331
Probable space group: C 2
;
_chemical_formula_sum "Si O2"
_cell_formula_units_Z 20
_cell_length_a 9.376919
_cell_length_b 5.469315
_cell_length_c 19.485264
_cell_angle_alpha 90.000000
_cell_angle_beta 129.302221
_cell_angle_gamma 90.000000
_cell_volume 773.280233
_symmetry_space_group_name_H-M "C 2"
_symmetry_group_IT_number 5
_symmetry_cell_setting 'monoclinic'
loop_
_space_group_symop_operation_xyz
x,y,z
-x,y,-z
1/2+x,1/2+y,z
1/2-x,1/2+y,-z
loop_
_atom_site_type_symbol
_atom_site_label
_atom_site_fract_x
_atom_site_fract_y
_atom_site_fract_z
Si Si1 0.717187 0.007360 0.571198
Si Si2 0.746012 0.560754 0.234989
Si Si3 0.348292 0.007635 0.602301
Si Si4 0.711359 0.384473 0.080264
Si Si5 0.651193 0.391575 0.853837
O O1 0.500000 0.025678 0.500000
O O2 0.803043 0.255109 0.625107
O O3 0.767223 0.996916 0.504245
O O4 0.778580 0.748298 0.618929
O O5 0.748783 0.366474 0.173608
O O6 0.553948 0.500503 0.211824
O O7 0.764798 0.810785 0.195045
O O8 0.931564 0.534164 0.335561
O O9 0.749202 0.104170 0.072045
O O10 0.832677 0.628020 0.102196
O O11 0.500000 0.448798 0.000000
#
# Coordination Sequence:
#
# PCOD9126331 Si02
#       5
#     4   4   4   4   4
#     4  10  22  40  60  89 123 170 207 279 323 408
#     4  10  26  42  68 100 133 181 223 288 335 425
#     4  10  23  38  61  91 125 162 224 259 342 392
#     4  10  24  43  67  98 133 179 223 283 344 413
#     4  10  25  41  68  97 134 176 227 277 347 404
#
# _framework density 25.863844
#
# number of rings (size 3 to 8) (size 9 to 14) (size 15 to 20)
#    1.200    0.800    0.000    1.200    8.400    1.600 
#    0.000    0.000    0.000    0.000    0.000    0.000 
#    0.000    0.000    0.000    0.000    0.000    0.000 
#
# Total GULP energy -55737.458086 kJ/mol
# GULP energy per Si atom -5573.745809 kJ/mol
# Density = 2.580498 g / cm^3
# Si number density = 25.863844 Si / 1000 Ang^3
#
#
#
# Elastic Constant Matrix: (Units=GPa)
#
#
# Indices 1 2 3 4 5 6 
#
# 1 83.3149 69.7839 31.6691 0.0000 32.3555 0.0000
# 2 69.7839 262.5399 42.1888 0.0000 31.1253 0.0000
# 3 31.6691 42.1888 121.9243 0.0000 11.2803 0.0000
# 4 0.0000 0.0000 0.0000 25.5816 0.0000 22.5386
# 5 32.3555 31.1253 11.2803 0.0000 54.2680 0.0000
# 6 0.0000 0.0000 0.0000 22.5386 0.0000 23.1722
#
#
#
# Elastic Compliance Matrix: (Units=1/GPa)
#
#
# Indices 1 2 3 4 5 6 
#
# 1 0.019750 -0.003695 -0.003016 0.000000 -0.009030 0.000000
# 2 -0.003695 0.004964 -0.000712 0.000000 -0.000496 0.000000
# 3 -0.003016 -0.000712 0.009205 0.000000 0.000294 0.000000
# 4 0.000000 0.000000 0.000000 0.273275 0.000000 -0.265803
# 5 -0.009030 -0.000496 0.000294 0.000000 0.024034 0.000000
# 6 0.000000 0.000000 0.000000 -0.265803 0.000000 0.301690
#
#
# Mechanical properties :
#
#
# Convention : Reuss Voigt Hill
#
# Bulk Modulus (GPa) = 52.42947 83.89584 68.16265
# Shear Modulus (GPa) = 7.64384 42.21351 24.92868
#
# Velocity S-wave (km/s) = 1.72100 4.04436 3.10795
# Velocity P-wave (km/s) = 4.92590 7.37001 6.26823
#
# Compressibility (1/GPa) = 0.01907324
#
# Stress axis : x y z
#
# Youngs Moduli (GPa) = 50.63217 201.43987 108.64206
#
# Poissons Ratio (x) = 0.74422 0.32769
# Poissons Ratio (y) = 0.18706 0.07737
# Poissons Ratio (z) = 0.15272 0.14346
#
# Static dielectric constant tensor:
#      x y z
#    x 2.147600 0.000000 -0.105600 
#    y 0.000000 2.097490 0.000000 
#    z -0.105600 0.000000 2.017170 
# 
# From -- ./inp_files/51828.got.cif
#   From: 2010.05.17/outbox.cif.g08.bks.cpg/sg5_26_cif.got.tgz:51828.got - 2010.06.03 18:56:24.
