data_PCOD9126765
_publ_section_title
;
Structure prediction by ZEFSAII (Michael W. Deem and Ramdas Pophale) SiO2 
 PCOD9126765
Probable space group: C 2
;
_chemical_formula_sum "Si O2"
_cell_formula_units_Z 26
_cell_length_a 12.447783
_cell_length_b 13.505946
_cell_length_c 9.592827
_cell_angle_alpha 90.000000
_cell_angle_beta 55.988001
_cell_angle_gamma 90.000000
_cell_volume 1336.830922
_symmetry_space_group_name_H-M "C 2"
_symmetry_group_IT_number 5
_symmetry_cell_setting 'monoclinic'
loop_
_space_group_symop_operation_xyz
x,y,z
-x,y,-z
1/2+x,1/2+y,z
1/2-x,1/2+y,-z
loop_
_atom_site_type_symbol
_atom_site_label
_atom_site_fract_x
_atom_site_fract_y
_atom_site_fract_z
Si Si1 0.829508 0.960790 0.880676
Si Si2 0.654611 0.607316 0.385419
Si Si3 0.180422 0.493128 0.506406
Si Si4 0.116683 0.536570 0.232590
Si Si5 0.947722 0.754262 0.696941
Si Si6 0.500000 0.431757 0.000000
Si Si7 0.195366 0.803061 0.692053
O O1 0.867740 0.853368 0.791100
O O2 0.948065 0.987845 0.901241
O O3 0.813543 0.035664 0.765612
O O4 0.700748 0.972738 0.065514
O O5 0.500000 0.611282 0.500000
O O6 0.720340 0.558671 0.475339
O O7 0.711848 0.716731 0.324072
O O8 0.167665 0.521854 0.353088
O O9 0.230766 0.380581 0.461328
O O10 0.034241 0.506373 0.667830
O O11 0.126438 0.654740 0.206001
O O12 0.000000 0.750919 0.500000
O O13 0.078065 0.755662 0.692244
O O14 0.620671 0.363537 0.866520
#
# Coordination Sequence:
#
# PCOD9126765 Si02
#       7
#     4   4   4   4   4   2   4
#     4  11  25  39  69  99 135 172 233 284 332 403
#     4  12  26  41  65 104 135 173 224 292 338 401
#     4  11  23  45  67  98 134 182 226 273 347 412
#     4  11  23  42  73  96 133 184 229 278 334 426
#     4  11  21  45  70  97 134 190 226 269 348 424
#     4  10  22  42  64  92 130 186 214 270 338 416
#     4  11  23  39  69  93 134 173 226 272 342 407
#
# _framework density 19.448981
#
# number of rings (size 3 to 8) (size 9 to 14) (size 15 to 20)
#    0.000    0.923    4.615    3.231    6.462    0.615 
#    0.000    0.000    0.000    0.000    0.000    0.000 
#    0.000    0.000    0.000    0.000    0.000    0.000 
#
# Total GULP energy -72580.005348 kJ/mol
# GULP energy per Si atom -5583.077334 kJ/mol
# Density = 1.940471 g / cm^3
# Si number density = 19.448981 Si / 1000 Ang^3
#
#
#
# Elastic Constant Matrix: (Units=GPa)
#
#
# Indices 1 2 3 4 5 6 
#
# 1 109.4509 25.3577 32.9283 0.0000 -15.0342 0.0000
# 2 25.3577 73.2284 23.2638 0.0000 -26.2286 0.0000
# 3 32.9283 23.2638 88.8146 0.0000 -28.2505 0.0000
# 4 0.0000 0.0000 0.0000 23.0042 0.0000 -6.4571
# 5 -15.0342 -26.2286 -28.2505 0.0000 25.4824 0.0000
# 6 0.0000 0.0000 0.0000 -6.4571 0.0000 39.3072
#
#
#
# Elastic Compliance Matrix: (Units=1/GPa)
#
#
# Indices 1 2 3 4 5 6 
#
# 1 0.010745 -0.002714 -0.003313 0.000000 -0.000127 0.000000
# 2 -0.002714 0.022594 0.003052 0.000000 0.025038 0.000000
# 3 -0.003313 0.003052 0.018638 0.000000 0.021850 0.000000
# 4 0.000000 0.000000 0.000000 0.045572 0.000000 0.007486
# 5 -0.000127 0.025038 0.021850 0.000000 0.089163 0.000000
# 6 0.000000 0.000000 0.000000 0.007486 0.000000 0.026670
#
#
# Mechanical properties :
#
#
# Convention : Reuss Voigt Hill
#
# Bulk Modulus (GPa) = 21.72605 48.28817 35.00711
# Shear Modulus (GPa) = 21.30622 30.22172 25.76397
#
# Velocity S-wave (km/s) = 3.31341 3.94623 3.64358
# Velocity P-wave (km/s) = 5.08265 6.75616 5.97825
#
# Compressibility (1/GPa) = 0.04602770
#
# Stress axis : x y z
#
# Youngs Moduli (GPa) = 93.07069 44.25945 53.65277
#
# Poissons Ratio (x) = 0.12010 0.17776
# Poissons Ratio (y) = 0.25255 -0.16376
# Poissons Ratio (z) = 0.30836 -0.13509
#
# Static dielectric constant tensor:
#      x y z
#    x 1.682380 0.000000 0.018690 
#    y 0.000000 1.695150 0.000000 
#    z 0.018690 0.000000 1.724900 
# 
# From -- ./inp_files/20270.got.cif
#   From: 2010.05.17/outbox.cif.g08.bks.cpg/sg5_11_cif.got.tgz:20270.got - 2010.06.03 18:56:24.
