data_PCOD9126840
_publ_section_title
;
Structure prediction by ZEFSAII (Michael W. Deem and Ramdas Pophale) SiO2 
 PCOD9126840
Probable space group: C 2
;
_chemical_formula_sum "Si O2"
_cell_formula_units_Z 20
_cell_length_a 7.648693
_cell_length_b 11.957189
_cell_length_c 12.225693
_cell_angle_alpha 90.000000
_cell_angle_beta 50.647171
_cell_angle_gamma 90.000000
_cell_volume 864.595638
_symmetry_space_group_name_H-M "C 2"
_symmetry_group_IT_number 5
_symmetry_cell_setting 'monoclinic'
loop_
_space_group_symop_operation_xyz
x,y,z
-x,y,-z
1/2+x,1/2+y,z
1/2-x,1/2+y,-z
loop_
_atom_site_type_symbol
_atom_site_label
_atom_site_fract_x
_atom_site_fract_y
_atom_site_fract_z
Si Si1 0.206199 0.546760 0.241548
Si Si2 0.087250 0.280232 0.804029
Si Si3 0.864950 0.379574 0.450796
Si Si4 0.375744 0.163074 0.938373
Si Si5 0.479260 0.371591 0.763681
O O1 0.254915 0.671282 0.259757
O O2 0.183631 0.561055 0.119401
O O3 0.409114 0.467229 0.204458
O O4 0.976803 0.500436 0.384917
O O5 0.078766 0.321209 0.684333
O O6 0.217602 0.368546 0.830158
O O7 0.850450 0.232504 0.941044
O O8 0.612551 0.380643 0.595560
O O9 0.000000 0.328615 0.500000
O O10 0.518637 0.255155 0.813086
O O11 0.500000 0.130769 0.000000
#
# Coordination Sequence:
#
# PCOD9126840 Si02
#       5
#     4   4   4   4   4
#     4  10  23  42  66 100 137 178 229 283 348 415
#     4  11  24  44  69 101 138 183 233 288 349 410
#     4  10  22  42  67  96 133 178 227 283 342 409
#     4  11  24  44  71 103 140 186 234 287 350 415
#     4  10  22  42  69  98 135 179 231 287 340 409
#
# _framework density 23.132200000000001
#
# number of rings (size 3 to 8) (size 9 to 14) (size 15 to 20)
#    0.000    1.600    0.000    5.400    0.000   16.000 
#    0.000    8.000    0.000    0.000    0.000    0.000 
#    0.000    0.000    0.000    0.000    0.000    0.000 
#
# Total GULP energy -55840.715151 kJ/mol
# GULP energy per Si atom -5584.071515 kJ/mol
# Density = 2.307955 g / cm^3
# Si number density = 23.132200 Si / 1000 Ang^3
#
#
#
# Elastic Constant Matrix: (Units=GPa)
#
#
# Indices 1 2 3 4 5 6 
#
# 1 115.2181 26.9335 62.1671 0.0000 14.3570 0.0006
# 2 26.9335 68.3345 39.2309 -0.0001 2.0327 0.0002
# 3 62.1671 39.2309 168.9685 0.0000 6.1968 0.0002
# 4 0.0000 -0.0001 0.0000 43.2418 0.0000 -4.5278
# 5 14.3570 2.0327 6.1968 0.0000 56.9134 -0.0003
# 6 0.0006 0.0002 0.0002 -4.5278 -0.0003 35.3774
#
#
#
# Elastic Compliance Matrix: (Units=1/GPa)
#
#
# Indices 1 2 3 4 5 6 
#
# 1 0.011470 -0.002396 -0.003575 0.000000 -0.002419 0.000000
# 2 -0.002396 0.017387 -0.003167 0.000000 0.000328 0.000000
# 3 -0.003575 -0.003167 0.007963 0.000000 0.000148 0.000000
# 4 0.000000 0.000000 0.000000 0.023440 0.000000 0.003000
# 5 -0.002419 0.000328 0.000148 0.000000 0.018153 0.000000
# 6 0.000000 0.000000 0.000000 0.003000 0.000000 0.028651
#
#
# Mechanical properties :
#
#
# Convention : Reuss Voigt Hill
#
# Bulk Modulus (GPa) = 53.92841 67.68713 60.80777
# Shear Modulus (GPa) = 38.01666 42.05247 40.03456
#
# Velocity S-wave (km/s) = 4.05835 4.26833 4.16466
# Velocity P-wave (km/s) = 6.73231 7.32230 7.03349
#
# Compressibility (1/GPa) = 0.01854310
#
# Stress axis : x y z
#
# Youngs Moduli (GPa) = 87.18725 57.51429 125.57353
#
# Poissons Ratio (x) = 0.13783 0.44890
# Poissons Ratio (y) = 0.20893 0.39772
# Poissons Ratio (z) = 0.31168 0.18216
#
# Static dielectric constant tensor:
#      x y z
#    x 2.013140 0.000000 0.057570 
#    y 0.000000 1.859090 0.000000 
#    z 0.057570 0.000000 1.968250 
# 
# From -- ./inp_files/35129.got.cif
#   From: 2010.05.17/outbox.cif.g08.bks.cpg/sg5_18_cif.got.tgz:35129.got - 2010.06.03 18:56:24.
