data_PCOD9126537
_publ_section_title
;
Structure prediction by ZEFSAII (Michael W. Deem and Ramdas Pophale) SiO2 
 PCOD9126537
Probable space group: C 2
;
_chemical_formula_sum "Si O2"
_cell_formula_units_Z 18
_cell_length_a 20.619103
_cell_length_b 7.061740
_cell_length_c 6.089672
_cell_angle_alpha 90.000000
_cell_angle_beta 62.307726
_cell_angle_gamma 90.000000
_cell_volume 785.131722
_symmetry_space_group_name_H-M "C 2"
_symmetry_group_IT_number 5
_symmetry_cell_setting 'monoclinic'
loop_
_space_group_symop_operation_xyz
x,y,z
-x,y,-z
1/2+x,1/2+y,z
1/2-x,1/2+y,-z
loop_
_atom_site_type_symbol
_atom_site_label
_atom_site_fract_x
_atom_site_fract_y
_atom_site_fract_z
Si Si1 0.681273 0.149970 0.125390
Si Si2 0.500000 0.600546 0.000000
Si Si3 0.405075 0.314307 0.367051
Si Si4 0.739017 0.411117 0.661454
Si Si5 0.381764 0.923691 0.145823
O O1 0.620645 0.274526 0.345197
O O2 0.737267 0.086046 0.224614
O O3 0.724942 0.248527 0.861757
O O4 0.639447 0.981877 0.067612
O O5 0.527205 0.454668 0.770017
O O6 0.565419 0.745310 0.945531
O O7 0.335353 0.414335 0.358762
O O8 0.413711 0.111386 0.224809
O O9 0.808347 0.379174 0.397582
#
# Coordination Sequence:
#
# PCOD9126537 Si02
#       5
#     4   2   4   4   4
#     4  10  22  42  73 105 146 188 242 296 362 423
#     4  12  26  44  78 102 148 200 234 302 368 418
#     4  10  24  45  68 106 149 188 242 302 354 431
#     4  10  22  40  74 104 146 186 242 304 350 424
#     4  10  24  45  68 106 149 188 242 302 354 431
#
# _framework density 22.926089999999999
#
# number of rings (size 3 to 8) (size 9 to 14) (size 15 to 20)
#    0.000    1.778    0.000    2.000   15.556    0.000 
#    0.000   26.667    0.000    0.000    0.000    0.000 
#    0.000    0.000    0.000    0.000    0.000    0.000 
#
# Total GULP energy -50309.453504 kJ/mol
# GULP energy per Si atom -5589.939278 kJ/mol
# Density = 2.287391 g / cm^3
# Si number density = 22.926090 Si / 1000 Ang^3
#
#
#
# Elastic Constant Matrix: (Units=GPa)
#
#
# Indices 1 2 3 4 5 6 
#
# 1 45.9142 45.1491 64.6691 0.0000 -6.2563 0.0000
# 2 45.1491 132.2305 61.7209 0.0000 -16.6659 0.0000
# 3 64.6691 61.7209 145.1458 0.0000 -6.8697 0.0000
# 4 0.0000 0.0000 0.0000 36.5575 0.0000 -9.7555
# 5 -6.2563 -16.6659 -6.8697 0.0000 32.6848 0.0000
# 6 0.0000 0.0000 0.0000 -9.7555 0.0000 44.4565
#
#
#
# Elastic Compliance Matrix: (Units=1/GPa)
#
#
# Indices 1 2 3 4 5 6 
#
# 1 0.070746 -0.011509 -0.026527 0.000000 0.002098 0.000000
# 2 -0.011509 0.011858 0.000270 0.000000 0.003900 0.000000
# 3 -0.026527 0.000270 0.018544 0.000000 -0.001042 0.000000
# 4 0.000000 0.000000 0.000000 0.029056 0.000000 0.006376
# 5 0.002098 0.003900 -0.001042 0.000000 0.032766 0.000000
# 6 0.000000 0.000000 0.000000 0.006376 0.000000 0.023893
#
#
# Mechanical properties :
#
#
# Convention : Reuss Voigt Hill
#
# Bulk Modulus (GPa) = 39.03854 74.04097 56.53975
# Shear Modulus (GPa) = 18.45463 32.85652 25.65558
#
# Velocity S-wave (km/s) = 2.84026 3.78980 3.34886
# Velocity P-wave (km/s) = 5.27457 7.17745 6.29829
#
# Compressibility (1/GPa) = 0.02561571
#
# Stress axis : x y z
#
# Youngs Moduli (GPa) = 14.13503 84.33298 53.92435
#
# Poissons Ratio (x) = 0.97062 1.43046
# Poissons Ratio (y) = 0.16268 -0.01457
# Poissons Ratio (z) = 0.37496 -0.02279
#
# Static dielectric constant tensor:
#      x y z
#    x 1.878260 0.000000 -0.022740 
#    y 0.000000 1.959240 0.000000 
#    z -0.022740 0.000000 1.826370 
# 
# From -- ./inp_files/9102.got.cif
#   From: 2010.05.17/outbox.cif.g08.bks.cpg/sg5_5_cif.got.tgz:9102.got - 2010.06.03 18:56:24.
