data_PCOD9126890
_publ_section_title
;
Structure prediction by ZEFSAII (Michael W. Deem and Ramdas Pophale) SiO2 
 PCOD9126890
Probable space group: C 2
;
_chemical_formula_sum "Si O2"
_cell_formula_units_Z 20
_cell_length_a 7.851955
_cell_length_b 23.024623
_cell_length_c 8.240332
_cell_angle_alpha 90.000000
_cell_angle_beta 145.595591
_cell_angle_gamma 90.000000
_cell_volume 841.757370
_symmetry_space_group_name_H-M "C 2"
_symmetry_group_IT_number 5
_symmetry_cell_setting 'monoclinic'
loop_
_space_group_symop_operation_xyz
x,y,z
-x,y,-z
1/2+x,1/2+y,z
1/2-x,1/2+y,-z
loop_
_atom_site_type_symbol
_atom_site_label
_atom_site_fract_x
_atom_site_fract_y
_atom_site_fract_z
Si Si1 0.709594 0.432990 0.877348
Si Si2 0.368319 0.860799 0.579118
Si Si3 0.337632 0.247231 0.707739
Si Si4 0.339550 0.118614 0.708631
Si Si5 0.181829 0.035259 0.289407
O O1 0.391927 0.405413 0.573829
O O2 0.575279 0.489799 0.859295
O O3 0.000000 0.451356 0.000000
O O4 0.850494 0.379764 0.091331
O O5 0.500000 0.865897 0.500000
O O6 0.211594 0.797357 0.463526
O O7 0.465056 0.183376 0.765242
O O8 0.000000 0.236522 0.500000
O O9 0.500000 0.268859 0.000000
O O10 0.305400 0.077976 0.525618
O O11 0.000000 0.123312 0.500000
O O12 0.500000 0.097108 0.000000
O O13 0.500000 0.003198 0.500000
O O14 0.000000 0.066718 0.000000
#
# Coordination Sequence:
#
# PCOD9126890 Si02
#       5
#     4   4   4   4   4
#     4  12  26  43  63  93 131 174 220 274 336 398
#     4  11  21  40  68  96 127 168 217 269 326 397
#     4   9  18  36  66  99 129 167 217 268 328 402
#     4  10  22  42  69 100 133 175 225 276 332 402
#     4  12  26  45  68  98 136 180 229 283 340 401
#
# _framework density 23.759815
#
# number of rings (size 3 to 8) (size 9 to 14) (size 15 to 20)
#    0.000    1.200    0.000    7.800    0.000    4.000 
#    0.000    5.000    0.000    0.000    0.000    0.000 
#    0.000    0.000    0.000    0.000    0.000    0.000 
#
# Total GULP energy -55690.448136 kJ/mol
# GULP energy per Si atom -5569.044814 kJ/mol
# Density = 2.370574 g / cm^3
# Si number density = 23.759815 Si / 1000 Ang^3
#
#
#
# Elastic Constant Matrix: (Units=GPa)
#
#
# Indices 1 2 3 4 5 6 
#
# 1 87.8673 24.8721 27.2692 0.0000 20.2857 0.0000
# 2 24.8721 123.6999 35.9295 0.0000 -22.4027 0.0000
# 3 27.2692 35.9295 178.3745 0.0000 -0.0368 0.0000
# 4 0.0000 0.0000 0.0000 16.8319 0.0000 18.2753
# 5 20.2857 -22.4027 -0.0368 0.0000 41.1201 0.0000
# 6 0.0000 0.0000 0.0000 18.2753 0.0000 5.1407
#
#
#
# Elastic Compliance Matrix: (Units=1/GPa)
#
#
# Indices 1 2 3 4 5 6 
#
# 1 0.015431 -0.004504 -0.001454 0.000000 -0.010068 0.000000
# 2 -0.004504 0.010905 -0.001506 0.000000 0.008162 0.000000
# 3 -0.001454 -0.001506 0.006132 0.000000 -0.000098 0.000000
# 4 0.000000 0.000000 0.000000 -0.020774 0.000000 0.073852
# 5 -0.010068 0.008162 -0.000098 0.000000 0.033732 0.000000
# 6 0.000000 0.000000 0.000000 0.073852 0.000000 -0.068019
#
#
# Mechanical properties :
#
#
# Convention : Reuss Voigt Hill
#
# Bulk Modulus (GPa) = 57.01202 62.89815 59.95509
# Shear Modulus (GPa) = -2751.56297 32.74326 -1359.40985
#
# Velocity S-wave (km/s) = -34.06741 3.71630 -23.94554
# Velocity P-wave (km/s) = 39.03081 6.70406 27.18878
#
# Compressibility (1/GPa) = 0.01754016
#
# Stress axis : x y z
#
# Youngs Moduli (GPa) = 64.80399 91.69835 163.08221
#
# Poissons Ratio (x) = 0.41298 0.23712
# Poissons Ratio (y) = 0.29186 0.24567
# Poissons Ratio (z) = 0.09422 0.13814
#
# Static dielectric constant tensor:
#      x y z
#    x 1.998460 0.000000 -0.077950 
#    y 0.000000 2.054540 0.000000 
#    z -0.077950 0.000000 1.753510 
# 
# From -- ./inp_files/17336.got.cif
#   From: 2010.05.17/outbox.cif.g08.bks.cpg/sg5_9_cif.got.tgz:17336.got - 2010.06.03 18:56:24.
