data_PCOD9126647
_publ_section_title
;
Structure prediction by ZEFSAII (Michael W. Deem and Ramdas Pophale) SiO2 
 PCOD9126647
Probable space group: C 2
;
_chemical_formula_sum "Si O2"
_cell_formula_units_Z 20
_cell_length_a 12.007466
_cell_length_b 17.981933
_cell_length_c 10.105106
_cell_angle_alpha 90.000000
_cell_angle_beta 24.975430
_cell_angle_gamma 90.000000
_cell_volume 921.249495
_symmetry_space_group_name_H-M "C 2"
_symmetry_group_IT_number 5
_symmetry_cell_setting 'monoclinic'
loop_
_space_group_symop_operation_xyz
x,y,z
-x,y,-z
1/2+x,1/2+y,z
1/2-x,1/2+y,-z
loop_
_atom_site_type_symbol
_atom_site_label
_atom_site_fract_x
_atom_site_fract_y
_atom_site_fract_z
Si Si1 0.897375 0.583120 0.243879
Si Si2 0.444338 0.363347 0.208762
Si Si3 0.658291 0.150040 0.200941
Si Si4 0.863574 0.012057 0.870185
Si Si5 0.059619 0.260847 0.284379
O O1 0.603463 0.555818 0.544926
O O2 0.945359 0.638040 0.313395
O O3 0.000000 0.619167 0.000000
O O4 0.101928 0.515865 0.061156
O O5 0.515522 0.433375 0.223007
O O6 0.162986 0.321916 0.513558
O O7 0.500000 0.390623 0.000000
O O8 0.663093 0.302276 0.002388
O O9 0.500000 0.175282 0.500000
O O10 0.778617 0.066093 0.084680
O O11 0.882460 0.201556 0.894042
O O12 0.000000 0.232963 0.500000
#
# Coordination Sequence:
#
# PCOD9126647 Si02
#       5
#     4   4   4   4   4
#     4  10  23  39  65  98 134 174 218 274 334 399
#     4  10  22  41  67  96 133 178 230 271 330 398
#     4  10  26  41  69 104 138 173 223 282 346 387
#     4  10  23  39  69  97 134 167 232 278 332 383
#     4  10  23  41  66  96 134 185 222 272 329 410
#
# _framework density 21.709645999999999
#
# number of rings (size 3 to 8) (size 9 to 14) (size 15 to 20)
#    1.200    0.800    0.000    1.800    8.400    1.600 
#    0.000    4.000    0.000    0.000    0.000    0.000 
#    0.000    0.000    0.000    0.000    0.000    0.000 
#
# Total GULP energy -55711.501070 kJ/mol
# GULP energy per Si atom -5571.150107 kJ/mol
# Density = 2.166023 g / cm^3
# Si number density = 21.709646 Si / 1000 Ang^3
#
#
#
# Elastic Constant Matrix: (Units=GPa)
#
#
# Indices 1 2 3 4 5 6 
#
# 1 74.4378 18.8153 31.9112 -0.0671 10.4990 0.0330
# 2 18.8153 62.8252 17.7794 0.0222 20.9851 -0.1531
# 3 31.9112 17.7794 89.8479 -0.0314 10.6898 0.0027
# 4 -0.0671 0.0222 -0.0314 18.1663 -0.0278 -1.8955
# 5 10.4990 20.9851 10.6898 -0.0278 46.3616 0.0331
# 6 0.0330 -0.1531 0.0027 -1.8955 0.0331 5.6782
#
#
#
# Elastic Compliance Matrix: (Units=1/GPa)
#
#
# Indices 1 2 3 4 5 6 
#
# 1 0.016590 -0.003129 -0.005135 0.000038 -0.001156 -0.000159
# 2 -0.003129 0.020044 -0.001912 0.000012 -0.007923 0.000610
# 3 -0.005135 -0.001912 0.013460 0.000003 -0.001075 -0.000021
# 4 0.000038 0.000012 0.000003 0.057034 0.000006 0.019039
# 5 -0.001156 -0.007923 -0.001075 0.000006 0.025666 -0.000354
# 6 -0.000159 0.000610 -0.000021 0.019039 -0.000354 0.182486
#
#
# Mechanical properties :
#
#
# Convention : Reuss Voigt Hill
#
# Bulk Modulus (GPa) = 33.62502 40.45811 37.04156
# Shear Modulus (GPa) = 14.46983 24.61489 19.54236
#
# Velocity S-wave (km/s) = 2.58450 3.37088 3.00354
# Velocity P-wave (km/s) = 4.94250 5.81609 5.39700
#
# Compressibility (1/GPa) = 0.02973976
#
# Stress axis : x y z
#
# Youngs Moduli (GPa) = 60.27837 49.89131 74.29352
#
# Poissons Ratio (x) = 0.15612 0.38152
# Poissons Ratio (y) = 0.18863 0.14206
# Poissons Ratio (z) = 0.30955 0.09540
#
# Static dielectric constant tensor:
#      x y z
#    x 1.825620 -0.000040 0.008130 
#    y -0.000040 1.857450 -0.000090 
#    z 0.008130 -0.000090 1.784330 
# 
# From -- ./inp_files/7391.got.cif
#   From: 2010.05.17/outbox.cif.g08.bks.cpg/sg5_4_cif.got.tgz:7391.got - 2010.06.03 18:56:24.
