data_PCOD9126180
_publ_section_title
;
Structure prediction by ZEFSAII (Michael W. Deem and Ramdas Pophale) SiO2 
 PCOD9126180
Probable space group: C 2
;
_chemical_formula_sum "Si O2"
_cell_formula_units_Z 28
_cell_length_a 13.301063
_cell_length_b 4.995697
_cell_length_c 19.089244
_cell_angle_alpha 90.000000
_cell_angle_beta 59.652031
_cell_angle_gamma 90.000000
_cell_volume 1094.632407
_symmetry_space_group_name_H-M "C 2"
_symmetry_group_IT_number 5
_symmetry_cell_setting 'monoclinic'
loop_
_space_group_symop_operation_xyz
x,y,z
-x,y,-z
1/2+x,1/2+y,z
1/2-x,1/2+y,-z
loop_
_atom_site_type_symbol
_atom_site_label
_atom_site_fract_x
_atom_site_fract_y
_atom_site_fract_z
Si Si1 0.000000 0.457041 0.000000
Si Si2 0.145290 0.801613 0.642671
Si Si3 0.638202 0.646697 0.528580
Si Si4 0.452286 0.996878 0.639480
Si Si5 0.000000 0.677975 0.500000
Si Si6 0.748331 0.152451 0.754534
Si Si7 0.822758 0.717045 0.956245
Si Si8 0.214859 0.148718 0.854461
O O1 0.901379 0.270548 0.070067
O O2 0.066844 0.630613 0.036283
O O3 0.244137 0.681921 0.555061
O O4 0.141605 0.101858 0.611327
O O5 0.180145 0.735699 0.708872
O O6 0.020523 0.664691 0.672004
O O7 0.551632 0.896780 0.546376
O O8 0.569863 0.395290 0.525279
O O9 0.379390 0.756444 0.695712
O O10 0.386851 0.136020 0.599213
O O11 0.702504 0.345223 0.833216
O O12 0.742027 0.846318 0.780216
O O13 0.819274 0.666779 0.874359
O O14 0.717113 0.522053 0.018912
#
# Coordination Sequence:
#
# PCOD9126180 Si02
#       8
#     2   4   4   4   2   4   4   4
#     4  10  24  52  86 110 142 192 244 294 358 436
#     4  11  25  41  70 100 137 190 256 302 363 426
#     4  11  22  42  67  96 127 189 260 308 344 433
#     4  11  25  42  64  96 136 190 239 312 366 427
#     4  10  22  38  68  90 122 186 242 308 372 408
#     4  12  29  47  68 105 158 190 234 305 380 431
#     4  10  22  45  79 114 142 177 238 293 347 436
#     4  11  27  49  76 112 147 196 237 298 366 451
#
# _framework density 25.579364999999999
#
# number of rings (size 3 to 8) (size 9 to 14) (size 15 to 20)
#    0.000    1.143    1.429    3.857   10.000    6.286 
#    0.000    4.286    0.000    0.000    0.000    0.000 
#    0.000    0.000    0.000    0.000    0.000    0.000 
#
# Total GULP energy -78208.197168 kJ/mol
# GULP energy per Si atom -5586.299798 kJ/mol
# Density = 2.552115 g / cm^3
# Si number density = 25.579365 Si / 1000 Ang^3
#
#
#
# Elastic Constant Matrix: (Units=GPa)
#
#
# Indices 1 2 3 4 5 6 
#
# 1 148.1877 8.9294 37.7636 0.0006 27.4165 0.0009
# 2 8.9294 79.3634 -3.5986 0.0014 3.0688 0.0026
# 3 37.7636 -3.5986 89.6023 0.0002 13.5564 0.0004
# 4 0.0006 0.0014 0.0002 46.0760 -0.0001 2.6945
# 5 27.4165 3.0688 13.5564 -0.0001 54.0363 0.0005
# 6 0.0009 0.0026 0.0004 2.6945 0.0005 25.9743
#
#
#
# Elastic Compliance Matrix: (Units=1/GPa)
#
#
# Indices 1 2 3 4 5 6 
#
# 1 0.008183 -0.000926 -0.002979 0.000000 -0.003352 0.000000
# 2 -0.000926 0.012768 0.000979 0.000000 -0.000501 -0.000001
# 3 -0.002979 0.000979 0.012718 0.000000 -0.001735 0.000000
# 4 0.000000 0.000000 0.000000 0.021836 0.000000 -0.002265
# 5 -0.003352 -0.000501 -0.001735 0.000000 0.020670 0.000000
# 6 0.000000 -0.000001 0.000000 -0.002265 0.000000 0.038735
#
#
# Mechanical properties :
#
#
# Convention : Reuss Voigt Hill
#
# Bulk Modulus (GPa) = 35.94958 44.81581 40.38270
# Shear Modulus (GPa) = 38.45125 43.48791 40.96958
#
# Velocity S-wave (km/s) = 3.88134 4.12772 4.00642
# Velocity P-wave (km/s) = 5.84560 6.34632 6.10110
#
# Compressibility (1/GPa) = 0.02781674
#
# Stress axis : x y z
#
# Youngs Moduli (GPa) = 122.19968 78.31947 78.63047
#
# Poissons Ratio (x) = 0.07254 0.23424
# Poissons Ratio (y) = 0.11318 -0.07697
# Poissons Ratio (z) = 0.36403 -0.07667
#
# Static dielectric constant tensor:
#      x y z
#    x 2.260330 0.000000 -0.012670 
#    y 0.000000 2.086490 0.000000 
#    z -0.012670 0.000000 2.163010 
# 
# From -- ./inp_files/61192.got.cif
#   From: 2010.05.17/outbox.cif.g08.bks.cpg/sg5_31_cif.got.tgz:61192.got - 2010.06.03 18:56:24.
