data_PCOD9126903
_publ_section_title
;
Structure prediction by ZEFSAII (Michael W. Deem and Ramdas Pophale) SiO2 
 PCOD9126903
Probable space group: C 2
;
_chemical_formula_sum "Si O2"
_cell_formula_units_Z 32
_cell_length_a 14.882413
_cell_length_b 11.786188
_cell_length_c 18.495945
_cell_angle_alpha 90.000000
_cell_angle_beta 153.212745
_cell_angle_gamma 90.000000
_cell_volume 1462.145343
_symmetry_space_group_name_H-M "C 2"
_symmetry_group_IT_number 5
_symmetry_cell_setting 'monoclinic'
loop_
_space_group_symop_operation_xyz
x,y,z
-x,y,-z
1/2+x,1/2+y,z
1/2-x,1/2+y,-z
loop_
_atom_site_type_symbol
_atom_site_label
_atom_site_fract_x
_atom_site_fract_y
_atom_site_fract_z
Si Si1 0.165532 0.506440 0.710156
Si Si2 0.304321 0.346764 0.044199
Si Si3 0.873394 0.927230 0.550720
Si Si4 0.782604 0.779072 0.870097
Si Si5 0.851959 0.094041 0.329020
Si Si6 0.211610 0.967124 0.353672
Si Si7 0.930617 0.707586 0.253722
Si Si8 0.464682 0.023681 0.788046
O O1 0.262403 0.408780 0.828513
O O2 0.277978 0.531944 0.715555
O O3 0.142437 0.621303 0.738166
O O4 0.947732 0.451308 0.536976
O O5 0.542159 0.373735 0.213695
O O6 0.267743 0.281208 0.092794
O O7 0.256443 0.277928 0.937214
O O8 0.174415 0.461297 0.949834
O O9 0.851620 0.998916 0.609891
O O10 0.682955 0.939992 0.362334
O O11 0.915983 0.798093 0.602965
O O12 0.058130 0.980529 0.641052
O O13 0.644773 0.693204 0.727318
O O14 0.000000 0.742817 0.000000
O O15 0.000000 0.128633 0.500000
O O16 0.642533 0.064251 0.216133
O O17 0.018903 0.629688 0.253752
#
# Coordination Sequence:
#
# PCOD9126903 Si02
#       8
#     4   4   4   4   4   4   4   4
#     4  11  23  44  68 103 140 179 230 292 345 423
#     4  11  24  42  70 101 145 178 226 293 354 417
#     4  10  23  47  70 102 136 186 238 281 346 427
#     4  12  23  41  69 107 139 178 233 298 347 408
#     4  10  26  45  72  99 139 190 238 285 342 421
#     4  10  22  42  69  96 133 180 228 280 344 415
#     4  11  24  45  72 102 141 185 231 286 350 430
#     4  11  23  48  67 105 144 180 233 292 350 415
#
# _framework density 21.885649000000001
#
# number of rings (size 3 to 8) (size 9 to 14) (size 15 to 20)
#    0.000    1.250    3.750    0.750    3.500    8.000 
#    9.000    2.500    0.000    0.000    0.000    0.000 
#    0.000    0.000    0.000    0.000    0.000    0.000 
#
# Total GULP energy -89236.765536 kJ/mol
# GULP energy per Si atom -5577.297846 kJ/mol
# Density = 2.183584 g / cm^3
# Si number density = 21.885649 Si / 1000 Ang^3
#
#
#
# Elastic Constant Matrix: (Units=GPa)
#
#
# Indices 1 2 3 4 5 6 
#
# 1 95.6552 18.9826 30.4020 -0.0054 -14.4262 -0.0029
# 2 18.9826 97.4387 55.2314 0.0001 -3.7353 -0.0009
# 3 30.4020 55.2314 68.6902 0.0087 -24.8265 0.0034
# 4 -0.0054 0.0001 0.0087 16.1373 0.0032 -9.9185
# 5 -14.4262 -3.7353 -24.8265 0.0032 22.5823 0.0009
# 6 -0.0029 -0.0009 0.0034 -9.9185 0.0009 25.8953
#
#
#
# Elastic Compliance Matrix: (Units=1/GPa)
#
#
# Indices 1 2 3 4 5 6 
#
# 1 0.012304 0.000498 -0.004937 0.000010 0.002515 0.000006
# 2 0.000498 0.029710 -0.036868 0.000041 -0.035299 0.000023
# 3 -0.004937 -0.036868 0.071423 -0.000081 0.069269 -0.000045
# 4 0.000010 0.000041 -0.000081 0.081049 -0.000089 0.031043
# 5 0.002515 -0.035299 0.069269 -0.000089 0.116203 -0.000048
# 6 0.000006 0.000023 -0.000045 0.031043 -0.000048 0.050507
#
#
# Mechanical properties :
#
#
# Convention : Reuss Voigt Hill
#
# Bulk Modulus (GPa) = 32.44275 52.33513 42.38894
# Shear Modulus (GPa) = 11.01117 23.40084 17.20600
#
# Velocity S-wave (km/s) = 2.24547 3.27346 2.80693
# Velocity P-wave (km/s) = 4.64530 6.18484 5.46951
#
# Compressibility (1/GPa) = 0.03082353
#
# Stress axis : x y z
#
# Youngs Moduli (GPa) = 81.27570 33.65822 14.00110
#
# Poissons Ratio (x) = -0.01676 0.06913
# Poissons Ratio (y) = -0.04047 0.51619
# Poissons Ratio (z) = 0.40128 1.24090
#
# Static dielectric constant tensor:
#      x y z
#    x 1.805940 0.000000 -0.009330 
#    y 0.000000 1.797020 0.000000 
#    z -0.009330 0.000000 1.840890 
# 
# From -- ./inp_files/61710.got.cif
#   From: 2010.05.17/outbox.cif.g08.bks.cpg/sg5_31_cif.got.tgz:61710.got - 2010.06.03 18:56:24.
