data_PCOD9126637
_publ_section_title
;
Structure prediction by ZEFSAII (Michael W. Deem and Ramdas Pophale) SiO2 
 PCOD9126637
Probable space group: C 2
;
_chemical_formula_sum "Si O2"
_cell_formula_units_Z 30
_cell_length_a 14.566890
_cell_length_b 12.513960
_cell_length_c 7.633011
_cell_angle_alpha 90.000000
_cell_angle_beta 118.880987
_cell_angle_gamma 90.000000
_cell_volume 1218.359826
_symmetry_space_group_name_H-M "C 2"
_symmetry_group_IT_number 5
_symmetry_cell_setting 'monoclinic'
loop_
_space_group_symop_operation_xyz
x,y,z
-x,y,-z
1/2+x,1/2+y,z
1/2-x,1/2+y,-z
loop_
_atom_site_type_symbol
_atom_site_label
_atom_site_fract_x
_atom_site_fract_y
_atom_site_fract_z
Si Si1 0.344878 0.945140 0.106068
Si Si2 0.877012 0.562509 0.810687
Si Si3 0.057226 0.387965 0.365451
Si Si4 0.000000 0.830719 0.500000
Si Si5 0.566163 0.456705 0.238010
Si Si6 0.328695 0.181875 0.222914
Si Si7 0.890473 0.188302 0.789365
Si Si8 0.199072 0.782368 0.175278
O O1 0.453811 0.893409 0.150450
O O2 0.289323 0.855765 0.171022
O O3 0.354712 0.056501 0.222382
O O4 0.308534 0.990221 0.884522
O O5 0.885362 0.495737 0.639714
O O6 0.812600 0.671291 0.731555
O O7 0.000000 0.582147 0.000000
O O8 0.116547 0.282743 0.360081
O O9 0.000000 0.386070 0.500000
O O10 0.000642 0.908846 0.666409
O O11 0.902018 0.750230 0.416674
O O12 0.609960 0.574312 0.309613
O O13 0.648674 0.368070 0.257639
O O14 0.500000 0.466671 0.000000
O O15 0.208029 0.191592 0.169630
O O16 0.350199 0.237182 0.053494
O O17 0.000000 0.193513 0.000000
#
# Coordination Sequence:
#
# PCOD9126637 Si02
#       8
#     4   4   4   2   4   4   4   4
#     4  10  22  41  67 104 138 185 240 293 364 436
#     4   9  20  38  66  94 131 175 239 291 348 432
#     4  11  24  41  65  95 143 188 233 290 363 434
#     4  12  28  44  76 106 154 188 252 310 348 448
#     4  11  24  45  74 107 144 196 245 301 373 428
#     4  11  24  44  74 106 145 191 241 304 373 425
#     4  11  24  48  74 103 146 193 239 300 367 446
#     4  11  20  40  71 101 136 179 244 296 353 439
#
# _framework density 24.623266000000001
#
# number of rings (size 3 to 8) (size 9 to 14) (size 15 to 20)
#    0.000    1.333    2.667    3.200    5.600    1.067 
#    0.000    0.000    5.867    0.000    0.000    0.000 
#    0.000    0.000    0.000    0.000    0.000    0.000 
#
# Total GULP energy -83672.413625 kJ/mol
# GULP energy per Si atom -5578.160908 kJ/mol
# Density = 2.456722 g / cm^3
# Si number density = 24.623266 Si / 1000 Ang^3
#
#
#
# Elastic Constant Matrix: (Units=GPa)
#
#
# Indices 1 2 3 4 5 6 
#
# 1 121.8965 73.2497 35.1080 0.0000 -25.5015 0.0000
# 2 73.2497 211.4941 52.8980 0.0000 -21.4679 0.0000
# 3 35.1080 52.8980 60.7496 0.0000 -21.0946 0.0000
# 4 0.0000 0.0000 0.0000 20.0097 0.0000 -3.6507
# 5 -25.5015 -21.4679 -21.0946 0.0000 43.9933 0.0000
# 6 0.0000 0.0000 0.0000 -3.6507 0.0000 56.1360
#
#
#
# Elastic Compliance Matrix: (Units=1/GPa)
#
#
# Indices 1 2 3 4 5 6 
#
# 1 0.011585 -0.002914 -0.002782 0.000000 0.003959 0.000000
# 2 -0.002914 0.006788 -0.004394 0.000000 -0.000484 0.000000
# 3 -0.002782 -0.004394 0.024704 0.000000 0.008088 0.000000
# 4 0.000000 0.000000 0.000000 0.050576 0.000000 0.003289
# 5 0.003959 -0.000484 0.008088 0.000000 0.028668 0.000000
# 6 0.000000 0.000000 0.000000 0.003289 0.000000 0.018028
#
#
# Mechanical properties :
#
#
# Convention : Reuss Voigt Hill
#
# Bulk Modulus (GPa) = 43.67974 79.62794 61.65384
# Shear Modulus (GPa) = 29.73346 39.55341 34.64343
#
# Velocity S-wave (km/s) = 3.47873 4.01227 3.75499
# Velocity P-wave (km/s) = 5.82350 7.33983 6.62519
#
# Compressibility (1/GPa) = 0.02289391
#
# Stress axis : x y z
#
# Youngs Moduli (GPa) = 86.32105 147.32800 40.47963
#
# Poissons Ratio (x) = 0.42939 0.11263
# Poissons Ratio (y) = 0.25158 0.17787
# Poissons Ratio (z) = 0.24018 0.64738
#
# Static dielectric constant tensor:
#      x y z
#    x 1.927830 0.000000 0.045100 
#    y 0.000000 1.996350 0.000000 
#    z 0.045100 0.000000 2.103680 
# 
# From -- ./inp_files/23925.got.cif
#   From: 2010.05.17/outbox.cif.g08.bks.cpg/sg5_12_cif.got.tgz:23925.got - 2010.06.03 18:56:24.
