data_PCOD9126713
_publ_section_title
;
Structure prediction by ZEFSAII (Michael W. Deem and Ramdas Pophale) SiO2 
 PCOD9126713
Probable space group: C 2
;
_chemical_formula_sum "Si O2"
_cell_formula_units_Z 28
_cell_length_a 26.477883
_cell_length_b 8.542793
_cell_length_c 8.694233
_cell_angle_alpha 90.000000
_cell_angle_beta 39.560732
_cell_angle_gamma 90.000000
_cell_volume 1252.514543
_symmetry_space_group_name_H-M "C 2"
_symmetry_group_IT_number 5
_symmetry_cell_setting 'monoclinic'
loop_
_space_group_symop_operation_xyz
x,y,z
-x,y,-z
1/2+x,1/2+y,z
1/2-x,1/2+y,-z
loop_
_atom_site_type_symbol
_atom_site_label
_atom_site_fract_x
_atom_site_fract_y
_atom_site_fract_z
Si Si1 0.069188 0.901530 0.242335
Si Si2 0.152946 0.701127 0.781368
Si Si3 0.189489 0.211439 0.422434
Si Si4 0.613407 0.867419 0.866610
Si Si5 0.014964 0.097299 0.808751
Si Si6 0.786534 0.054436 0.915951
Si Si7 0.738415 0.278689 0.273937
O O1 0.000000 0.809577 0.500000
O O2 0.132377 0.990626 0.200166
O O3 0.119767 0.814864 0.991126
O O4 0.016401 0.021923 0.270475
O O5 0.239192 0.644007 0.642615
O O6 0.097014 0.549933 0.919663
O O7 0.173591 0.770856 0.564759
O O8 0.159632 0.355306 0.594763
O O9 0.108060 0.118160 0.595339
O O10 0.214763 0.213632 0.186821
O O11 0.675908 0.799416 0.844259
O O12 0.537046 0.756236 0.052756
O O13 0.000000 0.000047 0.000000
O O14 0.766956 0.924381 0.831979
O O15 0.736292 0.117247 0.179879
#
# Coordination Sequence:
#
# PCOD9126713 Si02
#       7
#     4   4   4   4   4   4   4
#     4  12  26  45  71 106 143 189 238 298 359 422
#     4  11  26  45  72 103 145 189 237 292 359 427
#     4  10  22  41  73  98 138 178 240 286 345 426
#     4  10  22  43  69 103 137 191 231 290 354 429
#     4  10  22  43  71  99 137 186 241 285 348 428
#     4  12  24  42  66 111 139 183 235 304 351 410
#     4  11  26  40  71 104 147 186 239 295 355 423
#
# _framework density 22.355028000000001
#
# number of rings (size 3 to 8) (size 9 to 14) (size 15 to 20)
#    0.000    1.143    4.286    0.857   10.000    0.000 
#    0.000    8.571    0.000    0.000    0.000    0.000 
#    0.000    0.000    0.000    0.000    0.000    0.000 
#
# Total GULP energy -77938.773471 kJ/mol
# GULP energy per Si atom -5567.055248 kJ/mol
# Density = 2.230415 g / cm^3
# Si number density = 22.355028 Si / 1000 Ang^3
#
#
#
# Elastic Constant Matrix: (Units=GPa)
#
#
# Indices 1 2 3 4 5 6 
#
# 1 123.9789 32.0431 52.8002 0.0000 18.7743 0.0000
# 2 32.0431 72.9058 43.1464 0.0000 12.7258 0.0000
# 3 52.8002 43.1464 120.7596 0.0000 22.9124 0.0000
# 4 0.0000 0.0000 0.0000 29.5344 0.0000 19.4628
# 5 18.7743 12.7258 22.9124 0.0000 39.8290 0.0000
# 6 0.0000 0.0000 0.0000 19.4628 0.0000 28.0943
#
#
#
# Elastic Compliance Matrix: (Units=1/GPa)
#
#
# Indices 1 2 3 4 5 6 
#
# 1 0.010397 -0.002203 -0.003326 0.000000 -0.002284 0.000000
# 2 -0.002203 0.018039 -0.005147 0.000000 -0.001764 0.000000
# 3 -0.003326 -0.005147 0.012308 0.000000 -0.003868 0.000000
# 4 0.000000 0.000000 0.000000 0.062301 0.000000 -0.043160
# 5 -0.002284 -0.001764 -0.003868 0.000000 0.028973 0.000000
# 6 0.000000 0.000000 0.000000 -0.043160 0.000000 0.065495
#
#
# Mechanical properties :
#
#
# Convention : Reuss Voigt Hill
#
# Bulk Modulus (GPa) = 51.56617 63.73596 57.65107
# Shear Modulus (GPa) = 22.18986 32.13517 27.16252
#
# Velocity S-wave (km/s) = 3.15399 3.79554 3.48954
# Velocity P-wave (km/s) = 6.03163 6.91237 6.48696
#
# Compressibility (1/GPa) = 0.01939256
#
# Stress axis : x y z
#
# Youngs Moduli (GPa) = 96.17725 55.43663 81.24821
#
# Poissons Ratio (x) = 0.12213 0.27020
# Poissons Ratio (y) = 0.21188 0.41819
# Poissons Ratio (z) = 0.31985 0.28534
#
# Static dielectric constant tensor:
#      x y z
#    x 1.802630 0.000000 0.066550 
#    y 0.000000 1.888650 0.000000 
#    z 0.066550 0.000000 1.972180 
# 
# From -- ./inp_files/31742.got.cif
#   From: 2010.05.17/outbox.cif.g08.bks.cpg/sg5_16_cif.got.tgz:31742.got - 2010.06.03 18:56:24.
