data_PCOD9126158
_publ_section_title
;
Structure prediction by ZEFSAII (Michael W. Deem and Ramdas Pophale) SiO2 
 PCOD9126158
Probable space group: C 2
;
_chemical_formula_sum "Si O2"
_cell_formula_units_Z 28
_cell_length_a 21.344078
_cell_length_b 8.306239
_cell_length_c 9.441862
_cell_angle_alpha 90.000000
_cell_angle_beta 58.677435
_cell_angle_gamma 90.000000
_cell_volume 1429.968838
_symmetry_space_group_name_H-M "C 2"
_symmetry_group_IT_number 5
_symmetry_cell_setting 'monoclinic'
loop_
_space_group_symop_operation_xyz
x,y,z
-x,y,-z
1/2+x,1/2+y,z
1/2-x,1/2+y,-z
loop_
_atom_site_type_symbol
_atom_site_label
_atom_site_fract_x
_atom_site_fract_y
_atom_site_fract_z
Si Si1 0.659130 0.585760 0.179118
Si Si2 0.784017 0.415985 0.521406
Si Si3 0.500000 0.361191 0.000000
Si Si4 0.770438 0.842700 0.123262
Si Si5 0.375896 0.124259 0.194646
Si Si6 0.009549 0.108649 0.217240
Si Si7 0.655266 0.555434 0.510374
Si Si8 0.000000 0.378960 0.000000
O O1 0.709480 0.743670 0.109016
O O2 0.574048 0.627089 0.253497
O O3 0.669958 0.529302 0.327603
O O4 0.685826 0.455071 0.034929
O O5 0.769605 0.444168 0.704912
O O6 0.833793 0.542594 0.375961
O O7 0.704174 0.431819 0.542395
O O8 0.817695 0.235890 0.476528
O O9 0.560530 0.254455 0.850177
O O10 0.463117 0.477676 0.929632
O O11 0.821038 0.712551 0.149254
O O12 0.426042 0.982529 0.070216
O O13 0.931443 0.050055 0.365150
O O14 0.994645 0.268884 0.144965
#
# Coordination Sequence:
#
# PCOD9126158 Si02
#       8
#     4   4   2   4   4   4   4   2
#     4  11  25  43  64  96 138 171 219 269 340 390
#     4  11  22  41  67  97 126 169 227 269 319 389
#     4  10  22  38  66  94 128 164 226 272 324 392
#     4  11  25  44  66  97 130 178 218 275 327 394
#     4  11  20  43  63  96 130 164 226 271 323 382
#     4  11  22  40  64  97 130 177 217 266 334 392
#     4  11  24  41  68  98 129 173 219 277 329 389
#     4  10  24  34  72  98 128 174 214 280 320 398
#
# _framework density 19.580846000000001
#
# number of rings (size 3 to 8) (size 9 to 14) (size 15 to 20)
#    0.000    1.143    5.714    1.286    4.000    1.143 
#    0.000    0.000    0.000    0.000    0.000    0.000 
#    0.000    0.000    0.000    0.000    0.000    0.000 
#
# Total GULP energy -78109.107070 kJ/mol
# GULP energy per Si atom -5579.221934 kJ/mol
# Density = 1.953628 g / cm^3
# Si number density = 19.580846 Si / 1000 Ang^3
#
#
#
# Elastic Constant Matrix: (Units=GPa)
#
#
# Indices 1 2 3 4 5 6 
#
# 1 131.1176 46.5162 40.2348 0.0000 -6.8775 0.0000
# 2 46.5162 56.7105 57.0972 0.0000 -3.9417 0.0000
# 3 40.2348 57.0972 109.3332 0.0000 -12.5017 0.0000
# 4 0.0000 0.0000 0.0000 38.4589 0.0000 -4.8543
# 5 -6.8775 -3.9417 -12.5017 0.0000 32.5551 0.0000
# 6 0.0000 0.0000 0.0000 -4.8543 0.0000 31.5607
#
#
#
# Elastic Compliance Matrix: (Units=1/GPa)
#
#
# Indices 1 2 3 4 5 6 
#
# 1 0.010941 -0.010537 0.001668 0.000000 0.001676 0.000000
# 2 -0.010537 0.047633 -0.021539 0.000000 -0.004730 0.000000
# 3 0.001668 -0.021539 0.020419 0.000000 0.005586 0.000000
# 4 0.000000 0.000000 0.000000 0.026517 0.000000 0.004078
# 5 0.001676 -0.004730 0.005586 0.000000 0.032644 0.000000
# 6 0.000000 0.000000 0.000000 0.004078 0.000000 0.032312
#
#
# Mechanical properties :
#
#
# Convention : Reuss Voigt Hill
#
# Bulk Modulus (GPa) = 55.01121 64.98417 59.99769
# Shear Modulus (GPa) = 21.06671 30.73582 25.90127
#
# Velocity S-wave (km/s) = 3.28362 3.96623 3.64096
# Velocity P-wave (km/s) = 6.52163 7.36439 6.95579
#
# Compressibility (1/GPa) = 0.01817811
#
# Stress axis : x y z
#
# Youngs Moduli (GPa) = 91.39876 20.99366 48.97331
#
# Poissons Ratio (x) = 0.22122 -0.08170
# Poissons Ratio (y) = 0.96311 1.05482
# Poissons Ratio (z) = -0.15248 0.45218
#
# Static dielectric constant tensor:
#      x y z
#    x 1.701980 0.000000 -0.034780 
#    y 0.000000 1.708740 0.000000 
#    z -0.034780 0.000000 1.695840 
# 
# From -- ./inp_files/28710.got.cif
#   From: 2010.05.17/outbox.cif.g08.bks.cpg/sg5_15_cif.got.tgz:28710.got - 2010.06.03 18:56:24.
