data_PCOD9126822
_publ_section_title
;
Structure prediction by ZEFSAII (Michael W. Deem and Ramdas Pophale) SiO2 
 PCOD9126822
Probable space group: C 2
;
_chemical_formula_sum "Si O2"
_cell_formula_units_Z 30
_cell_length_a 26.372413
_cell_length_b 8.718488
_cell_length_c 6.289116
_cell_angle_alpha 90.000000
_cell_angle_beta 73.415456
_cell_angle_gamma 90.000000
_cell_volume 1385.885255
_symmetry_space_group_name_H-M "C 2"
_symmetry_group_IT_number 5
_symmetry_cell_setting 'monoclinic'
loop_
_space_group_symop_operation_xyz
x,y,z
-x,y,-z
1/2+x,1/2+y,z
1/2-x,1/2+y,-z
loop_
_atom_site_type_symbol
_atom_site_label
_atom_site_fract_x
_atom_site_fract_y
_atom_site_fract_z
Si Si1 0.855452 0.925810 0.378885
Si Si2 0.947042 0.877376 0.942003
Si Si3 0.783033 0.829874 0.084996
Si Si4 0.446436 0.950291 0.453140
Si Si5 0.434816 0.682405 0.748395
Si Si6 0.182268 0.131631 0.211560
Si Si7 0.125894 0.685139 0.265608
Si Si8 0.500000 0.888720 0.000000
O O1 0.808880 0.862271 0.283690
O O2 0.871041 0.803561 0.541667
O O3 0.835813 0.073288 0.533489
O O4 0.905770 0.945076 0.164995
O O5 0.917437 0.743530 0.852042
O O6 0.956219 0.012148 0.758892
O O7 0.000000 0.834686 0.000000
O O8 0.723930 0.768309 0.169336
O O9 0.818762 0.700838 0.922883
O O10 0.791768 0.984565 0.937830
O O11 0.500000 0.011736 0.500000
O O12 0.443588 0.769827 0.514732
O O13 0.395060 0.027711 0.612739
O O14 0.457917 0.978150 0.194013
O O15 0.371543 0.672634 0.847381
O O16 0.464362 0.787228 0.885206
#
# Coordination Sequence:
#
# PCOD9126822 Si02
#       8
#     4   4   4   4   4   4   4   2
#     4  10  22  42  66  98 128 169 228 274 332 396
#     4  11  23  40  72  99 132 178 218 270 333 394
#     4  10  24  45  68  94 130 174 222 280 339 387
#     4  10  25  42  62  94 138 174 214 266 328 392
#     4  11  22  42  66  97 135 172 217 269 324 392
#     4  11  24  45  69  95 134 171 222 281 330 397
#     4  10  23  46  63  97 134 170 225 279 325 398
#     4  10  24  42  66 100 134 178 214 262 328 408
#
# _framework density 21.646813000000002
#
# number of rings (size 3 to 8) (size 9 to 14) (size 15 to 20)
#    0.000    1.600    4.667    0.000    5.600    7.467 
#    1.200    0.000    0.000    0.800    0.000    0.000 
#    0.000    0.000    0.000    0.000    0.000    0.000 
#
# Total GULP energy -83787.713632 kJ/mol
# GULP energy per Si atom -5585.847575 kJ/mol
# Density = 2.159754 g / cm^3
# Si number density = 21.646813 Si / 1000 Ang^3
#
#
#
# Elastic Constant Matrix: (Units=GPa)
#
#
# Indices 1 2 3 4 5 6 
#
# 1 117.3936 18.9148 39.7559 0.0000 -0.2880 0.0000
# 2 18.9148 41.6370 29.8056 0.0000 -10.3931 0.0000
# 3 39.7559 29.8056 112.4127 0.0000 1.1942 0.0000
# 4 0.0000 0.0000 0.0000 25.2532 0.0000 -14.0546
# 5 -0.2880 -10.3931 1.1942 0.0000 23.7963 0.0000
# 6 0.0000 0.0000 0.0000 -14.0546 0.0000 25.5230
#
#
#
# Elastic Compliance Matrix: (Units=1/GPa)
#
#
# Indices 1 2 3 4 5 6 
#
# 1 0.009894 -0.002756 -0.002758 0.000000 -0.000946 0.000000
# 2 -0.002756 0.035356 -0.008568 0.000000 0.015839 0.000000
# 3 -0.002758 -0.008568 0.012190 0.000000 -0.004387 0.000000
# 4 0.000000 0.000000 0.000000 0.057097 0.000000 0.031441
# 5 -0.000946 0.015839 -0.004387 0.000000 0.049150 0.000000
# 6 0.000000 0.000000 0.000000 0.031441 0.000000 0.056494
#
#
# Mechanical properties :
#
#
# Convention : Reuss Voigt Hill
#
# Bulk Modulus (GPa) = 34.15898 49.82175 41.99037
# Shear Modulus (GPa) = 19.37200 27.11230 23.24215
#
# Velocity S-wave (km/s) = 2.99475 3.54289 3.28029
# Velocity P-wave (km/s) = 5.26996 6.30886 5.81267
#
# Compressibility (1/GPa) = 0.02927488
#
# Stress axis : x y z
#
# Youngs Moduli (GPa) = 101.06874 28.28370 82.03664
#
# Poissons Ratio (x) = 0.07796 0.22629
# Poissons Ratio (y) = 0.27857 0.70289
# Poissons Ratio (z) = 0.27878 0.24233
#
# Static dielectric constant tensor:
#      x y z
#    x 1.763840 0.000000 -0.018520 
#    y 0.000000 1.819190 0.000000 
#    z -0.018520 0.000000 1.814960 
# 
# From -- ./inp_files/11221.got.cif
#   From: 2010.05.17/outbox.cif.g08.bks.cpg/sg5_6_cif.got.tgz:11221.got - 2010.06.03 18:56:24.
