data_PCOD9126779
_publ_section_title
;
Structure prediction by ZEFSAII (Michael W. Deem and Ramdas Pophale) SiO2 
 PCOD9126779
Probable space group: C 2
;
_chemical_formula_sum "Si O2"
_cell_formula_units_Z 22
_cell_length_a 13.863116
_cell_length_b 4.731331
_cell_length_c 18.920470
_cell_angle_alpha 90.000000
_cell_angle_beta 133.255403
_cell_angle_gamma 90.000000
_cell_volume 903.837193
_symmetry_space_group_name_H-M "C 2"
_symmetry_group_IT_number 5
_symmetry_cell_setting 'monoclinic'
loop_
_space_group_symop_operation_xyz
x,y,z
-x,y,-z
1/2+x,1/2+y,z
1/2-x,1/2+y,-z
loop_
_atom_site_type_symbol
_atom_site_label
_atom_site_fract_x
_atom_site_fract_y
_atom_site_fract_z
Si Si1 0.332298 0.109170 0.722278
Si Si2 0.500000 0.314947 0.000000
Si Si3 0.205071 0.315630 0.434947
Si Si4 0.205226 0.109205 0.205126
Si Si5 0.436688 0.828752 0.236462
Si Si6 0.736417 0.008958 0.040377
O O1 0.254039 0.984378 0.615782
O O2 0.312498 0.433585 0.730809
O O3 0.482248 0.025498 0.777797
O O4 0.296342 0.934967 0.774586
O O5 0.585282 0.509504 0.095498
O O6 0.601054 0.119649 0.006590
O O7 0.292270 0.054284 0.503248
O O8 0.055899 0.209023 0.344350
O O9 0.338440 0.012550 0.234295
O O10 0.352718 0.600602 0.151561
O O11 0.736664 0.684061 0.018418
#
# Coordination Sequence:
#
# PCOD9126779 Si02
#       6
#     4   2   4   4   4   4
#     4  10  23  39  65  84 127 157 205 253 310 356
#     4  10  24  36  64  88 134 154 214 244 296 370
#     4  10  22  42  65  88 121 162 206 262 314 355
#     4  11  22  41  59  97 118 171 197 252 304 370
#     4   9  24  39  65  88 128 161 202 261 302 365
#     4  11  23  39  61  93 123 166 205 245 309 368
#
# _framework density 24.340667
#
# number of rings (size 3 to 8) (size 9 to 14) (size 15 to 20)
#    1.091    0.727    0.000    3.273    0.000   11.636 
#    0.000    5.455    0.000    0.000    0.000    0.000 
#    0.000    0.000    0.000    0.000    0.000    0.000 
#
# Total GULP energy -61640.863202 kJ/mol
# GULP energy per Si atom -5603.714837 kJ/mol
# Density = 2.428527 g / cm^3
# Si number density = 24.340667 Si / 1000 Ang^3
#
#
#
# Elastic Constant Matrix: (Units=GPa)
#
#
# Indices 1 2 3 4 5 6 
#
# 1 96.2783 10.4834 23.7550 -0.0001 -2.1735 0.0002
# 2 10.4834 88.1027 17.5376 -0.0001 -8.8038 0.0008
# 3 23.7550 17.5376 129.0443 0.0000 -7.3459 0.0000
# 4 -0.0001 -0.0001 0.0000 27.3444 -0.0001 -13.8304
# 5 -2.1735 -8.8038 -7.3459 -0.0001 24.2343 0.0001
# 6 0.0002 0.0008 0.0000 -13.8304 0.0001 36.5257
#
#
#
# Elastic Compliance Matrix: (Units=1/GPa)
#
#
# Indices 1 2 3 4 5 6 
#
# 1 0.010954 -0.000920 -0.001887 0.000000 0.000076 0.000000
# 2 -0.000920 0.012102 -0.001251 0.000000 0.003935 0.000000
# 3 -0.001887 -0.001251 0.008376 0.000000 0.001915 0.000000
# 4 0.000000 0.000000 0.000000 0.045234 0.000000 0.017128
# 5 0.000076 0.003935 0.001915 0.000000 0.043281 0.000000
# 6 0.000000 0.000000 0.000000 0.017128 0.000000 0.033863
#
#
# Mechanical properties :
#
#
# Convention : Reuss Voigt Hill
#
# Bulk Modulus (GPa) = 42.89135 46.33082 44.61109
# Shear Modulus (GPa) = 29.46406 35.06415 32.26410
#
# Velocity S-wave (km/s) = 3.48298 3.79959 3.64472
# Velocity P-wave (km/s) = 5.81673 6.19070 6.00663
#
# Compressibility (1/GPa) = 0.02331472
#
# Stress axis : x y z
#
# Youngs Moduli (GPa) = 91.29023 82.62994 119.39255
#
# Poissons Ratio (x) = 0.07603 0.22530
# Poissons Ratio (y) = 0.08400 0.14940
# Poissons Ratio (z) = 0.17227 0.10340
#
# Static dielectric constant tensor:
#      x y z
#    x 1.923800 0.000000 -0.045020 
#    y 0.000000 1.871350 0.000000 
#    z -0.045020 0.000000 1.951530 
# 
# From -- ./inp_files/41094.got.cif
#   From: 2010.05.17/outbox.cif.g08.bks.cpg/sg5_21_cif.got.tgz:41094.got - 2010.06.03 18:56:24.
