data_PCOD9126314
_publ_section_title
;
Structure prediction by ZEFSAII (Michael W. Deem and Ramdas Pophale) SiO2 
 PCOD9126314
Probable space group: C 2
;
_chemical_formula_sum "Si O2"
_cell_formula_units_Z 26
_cell_length_a 7.837605
_cell_length_b 20.882974
_cell_length_c 8.640565
_cell_angle_alpha 90.000000
_cell_angle_beta 58.486602
_cell_angle_gamma 90.000000
_cell_volume 1205.650411
_symmetry_space_group_name_H-M "C 2"
_symmetry_group_IT_number 5
_symmetry_cell_setting 'monoclinic'
loop_
_space_group_symop_operation_xyz
x,y,z
-x,y,-z
1/2+x,1/2+y,z
1/2-x,1/2+y,-z
loop_
_atom_site_type_symbol
_atom_site_label
_atom_site_fract_x
_atom_site_fract_y
_atom_site_fract_z
Si Si1 0.275942 0.687820 0.027694
Si Si2 0.162920 0.579935 0.290934
Si Si3 0.000000 0.791102 0.000000
Si Si4 0.943234 0.097780 0.694294
Si Si5 0.320566 0.878384 0.681873
Si Si6 0.008496 0.951525 0.325303
Si Si7 0.845743 0.463051 0.939741
O O1 0.140791 0.646724 0.210703
O O2 0.500000 0.698152 0.000000
O O3 0.153327 0.749154 0.030939
O O4 0.302903 0.643027 0.861752
O O5 0.366149 0.588195 0.287643
O O6 0.189638 0.525918 0.147054
O O7 0.000000 0.566729 0.500000
O O8 0.146082 0.831423 0.818825
O O9 0.000000 0.125300 0.500000
O O10 0.894819 0.022700 0.689951
O O11 0.500000 0.848280 0.500000
O O12 0.211299 0.936494 0.639346
O O13 0.420001 0.909874 0.785521
O O14 0.000000 0.920930 0.500000
O O15 0.152432 0.933049 0.115262
O O16 0.000000 0.477814 0.000000
#
# Coordination Sequence:
#
# PCOD9126314 Si02
#       7
#     4   4   2   4   4   4   4
#     4  10  25  48  70 101 142 190 242 297 356 425
#     4  11  24  39  65 108 144 179 228 291 363 437
#     4  12  28  50  78  94 144 200 252 304 350 406
#     4  10  22  39  70 102 143 177 220 290 363 438
#     4  12  26  50  72 103 140 185 245 298 355 429
#     4  11  22  41  69 107 138 179 224 287 369 430
#     4  12  24  39  70 107 147 185 224 293 370 438
#
# _framework density 21.565124999999998
#
# number of rings (size 3 to 8) (size 9 to 14) (size 15 to 20)
#    0.000    0.923    4.615    1.385    7.538    1.231 
#    5.538    0.000    0.000    0.000    0.000    0.000 
#    0.000    0.000    0.000    0.000    0.000    0.000 
#
# Total GULP energy -72475.592849 kJ/mol
# GULP energy per Si atom -5575.045604 kJ/mol
# Density = 2.151604 g / cm^3
# Si number density = 21.565125 Si / 1000 Ang^3
#
#
#
# Elastic Constant Matrix: (Units=GPa)
#
#
# Indices 1 2 3 4 5 6 
#
# 1 92.0648 30.9917 52.9089 0.0000 15.7639 0.0000
# 2 30.9917 76.0864 46.2541 0.0000 -1.4020 0.0000
# 3 52.9089 46.2541 170.2971 0.0000 -0.1271 0.0000
# 4 0.0000 0.0000 0.0000 16.6622 0.0000 -6.6583
# 5 15.7639 -1.4020 -0.1271 0.0000 42.2292 0.0000
# 6 0.0000 0.0000 0.0000 -6.6583 0.0000 69.8350
#
#
#
# Elastic Compliance Matrix: (Units=1/GPa)
#
#
# Indices 1 2 3 4 5 6 
#
# 1 0.015364 -0.004147 -0.003651 0.000000 -0.005884 0.000000
# 2 -0.004147 0.016872 -0.003293 0.000000 0.002098 0.000000
# 3 -0.003651 -0.003293 0.007902 0.000000 0.001278 0.000000
# 4 0.000000 0.000000 0.000000 0.062393 0.000000 0.005949
# 5 -0.005884 0.002098 0.001278 0.000000 0.025950 0.000000
# 6 0.000000 0.000000 0.000000 0.005949 0.000000 0.014887
#
#
# Mechanical properties :
#
#
# Convention : Reuss Voigt Hill
#
# Bulk Modulus (GPa) = 55.69109 66.52861 61.10985
# Shear Modulus (GPa) = 29.14858 39.63152 34.39005
#
# Velocity S-wave (km/s) = 3.68047 4.29156 3.99771
# Velocity P-wave (km/s) = 6.62886 7.44807 7.05037
#
# Compressibility (1/GPa) = 0.01795619
#
# Stress axis : x y z
#
# Youngs Moduli (GPa) = 65.08853 59.26847 126.55284
#
# Poissons Ratio (x) = 0.24576 0.46210
# Poissons Ratio (y) = 0.26990 0.41671
# Poissons Ratio (z) = 0.23766 0.19516
#
# Static dielectric constant tensor:
#      x y z
#    x 1.682660 0.000000 -0.011580 
#    y 0.000000 1.857870 0.000000 
#    z -0.011580 0.000000 1.901730 
# 
# From -- ./inp_files/16998.got.cif
#   From: 2010.05.17/outbox.cif.g08.bks.cpg/sg5_9_cif.got.tgz:16998.got - 2010.06.03 18:56:24.
