data_PCOD9126855
_publ_section_title
;
Structure prediction by ZEFSAII (Michael W. Deem and Ramdas Pophale) SiO2 
 PCOD9126855
Probable space group: C 2
;
_chemical_formula_sum "Si O2"
_cell_formula_units_Z 30
_cell_length_a 19.700787
_cell_length_b 7.247336
_cell_length_c 7.971958
_cell_angle_alpha 90.000000
_cell_angle_beta 80.341962
_cell_angle_gamma 90.000000
_cell_volume 1122.089523
_symmetry_space_group_name_H-M "C 2"
_symmetry_group_IT_number 5
_symmetry_cell_setting 'monoclinic'
loop_
_space_group_symop_operation_xyz
x,y,z
-x,y,-z
1/2+x,1/2+y,z
1/2-x,1/2+y,-z
loop_
_atom_site_type_symbol
_atom_site_label
_atom_site_fract_x
_atom_site_fract_y
_atom_site_fract_z
Si Si1 0.401153 0.128220 0.468981
Si Si2 0.568106 0.341481 0.868620
Si Si3 0.148651 0.745122 0.141670
Si Si4 0.577834 0.778021 0.954429
Si Si5 0.000000 0.301917 0.500000
Si Si6 0.715863 0.733584 0.766232
Si Si7 0.742750 0.568954 0.452760
Si Si8 0.128038 0.161145 0.267205
O O1 0.431100 0.280293 0.326165
O O2 0.392572 0.165166 0.675966
O O3 0.322896 0.103394 0.443440
O O4 0.449624 0.947686 0.426477
O O5 0.571115 0.563682 0.893919
O O6 0.500000 0.288442 0.000000
O O7 0.623265 0.231475 0.960771
O O8 0.229541 0.687910 0.112570
O O9 0.140407 0.964873 0.176477
O O10 0.644240 0.832730 0.822307
O O11 0.500000 0.849679 0.000000
O O12 0.612629 0.798698 0.122858
O O13 0.055239 0.169403 0.390608
O O14 0.707039 0.559408 0.649508
O O15 0.759741 0.872345 0.634042
O O16 0.692711 0.697092 0.360536
#
# Coordination Sequence:
#
# PCOD9126855 Si02
#       8
#     4   4   4   4   2   4   4   4
#     4  11  24  43  71 102 144 189 239 304 360 425
#     4  10  22  42  68  96 133 186 241 286 353 430
#     4   9  22  45  69 101 133 190 250 285 354 438
#     4  10  24  41  68 104 139 185 238 299 357 425
#     4  12  26  44  70 110 152 182 242 306 374 434
#     4  10  22  42  68 101 140 180 242 292 357 428
#     4  10  23  42  68 100 135 189 236 289 358 424
#     4  10  24  44  69 102 140 193 239 293 363 437
#
# _framework density 26.735835000000002
#
# number of rings (size 3 to 8) (size 9 to 14) (size 15 to 20)
#    0.000    1.867    0.000    1.600   11.200    2.667 
#    4.800    0.000    0.000    0.000    0.000    0.000 
#    0.000    0.000    0.000    0.000    0.000    0.000 
#
# Total GULP energy -83690.941916 kJ/mol
# GULP energy per Si atom -5579.396128 kJ/mol
# Density = 2.667498 g / cm^3
# Si number density = 26.735835 Si / 1000 Ang^3
#
#
#
# Elastic Constant Matrix: (Units=GPa)
#
#
# Indices 1 2 3 4 5 6 
#
# 1 172.7946 11.4980 35.8206 0.0000 -2.3991 0.0000
# 2 11.4980 47.4227 16.1314 0.0000 -6.4665 0.0000
# 3 35.8206 16.1314 82.9450 0.0000 -9.8637 0.0000
# 4 0.0000 0.0000 0.0000 20.3993 0.0000 -1.0798
# 5 -2.3991 -6.4665 -9.8637 0.0000 41.6449 0.0000
# 6 0.0000 0.0000 0.0000 -1.0798 0.0000 19.0995
#
#
#
# Elastic Compliance Matrix: (Units=1/GPa)
#
#
# Indices 1 2 3 4 5 6 
#
# 1 0.006381 -0.000691 -0.002665 0.000000 -0.000371 0.000000
# 2 -0.000691 0.022919 -0.003849 0.000000 0.002607 0.000000
# 3 -0.002665 -0.003849 0.014268 0.000000 0.002628 0.000000
# 4 0.000000 0.000000 0.000000 0.049168 0.000000 0.002780
# 5 -0.000371 0.002607 0.002628 0.000000 0.025019 0.000000
# 6 0.000000 0.000000 0.000000 0.002780 0.000000 0.052515
#
#
# Mechanical properties :
#
#
# Convention : Reuss Voigt Hill
#
# Bulk Modulus (GPa) = 34.29613 47.78469 41.04041
# Shear Modulus (GPa) = 25.72025 32.20955 28.96490
#
# Velocity S-wave (km/s) = 3.10500 3.47469 3.29503
# Velocity P-wave (km/s) = 5.07053 5.83178 5.46443
#
# Compressibility (1/GPa) = 0.02915781
#
# Stress axis : x y z
#
# Youngs Moduli (GPa) = 156.72620 43.63137 70.08542
#
# Poissons Ratio (x) = 0.03015 0.18679
# Poissons Ratio (y) = 0.10830 0.26975
# Poissons Ratio (z) = 0.41771 0.16793
#
# Static dielectric constant tensor:
#      x y z
#    x 2.216030 0.000000 0.061580 
#    y 0.000000 2.176980 0.000000 
#    z 0.061580 0.000000 2.322520 
# 
# From -- ./inp_files/28931.got.cif
#   From: 2010.05.17/outbox.cif.g08.bks.cpg/sg5_15_cif.got.tgz:28931.got - 2010.06.03 18:56:24.
