data_PCOD9126202
_publ_section_title
;
Structure prediction by ZEFSAII (Michael W. Deem and Ramdas Pophale) SiO2 
 PCOD9126202
Probable space group: C 2
;
_chemical_formula_sum "Si O2"
_cell_formula_units_Z 24
_cell_length_a 22.845285
_cell_length_b 8.184421
_cell_length_c 5.173259
_cell_angle_alpha 90.000000
_cell_angle_beta 72.199845
_cell_angle_gamma 90.000000
_cell_volume 920.967614
_symmetry_space_group_name_H-M "C 2"
_symmetry_group_IT_number 5
_symmetry_cell_setting 'monoclinic'
loop_
_space_group_symop_operation_xyz
x,y,z
-x,y,-z
1/2+x,1/2+y,z
1/2-x,1/2+y,-z
loop_
_atom_site_type_symbol
_atom_site_label
_atom_site_fract_x
_atom_site_fract_y
_atom_site_fract_z
Si Si1 0.202507 0.250000 0.794259
Si Si2 0.434750 0.417821 0.414195
Si Si3 0.617691 0.185366 0.131472
Si Si4 0.000000 0.654920 0.000000
Si Si5 0.807431 0.889667 0.319425
Si Si6 0.868846 0.372097 0.611584
Si Si7 0.000000 0.211271 0.500000
O O1 0.263475 0.340362 0.612696
O O2 0.153999 0.305089 0.633207
O O3 0.215378 0.056123 0.779615
O O4 0.175744 0.301703 0.105850
O O5 0.409005 0.358190 0.726829
O O6 0.374028 0.438871 0.333718
O O7 0.477776 0.574651 0.324780
O O8 0.472219 0.264893 0.262228
O O9 0.632912 0.067167 0.348716
O O10 0.563942 0.091345 0.039490
O O11 0.677148 0.235294 0.884938
O O12 0.938345 0.316382 0.588828
#
# Coordination Sequence:
#
# PCOD9126202 Si02
#       7
#     4   4   4   2   4   4   2
#     4  12  29  52  76 114 153 205 262 319 398 457
#     4  11  23  44  72 106 146 207 251 321 383 469
#     4  11  25  45  74 110 151 203 258 320 395 459
#     4  10  22  38  72 102 146 186 260 302 392 452
#     4  11  27  48  80 107 156 204 263 321 388 474
#     4  12  31  47  77 115 157 201 258 331 388 467
#     4  12  24  48  74 112 162 198 270 316 400 464
#
# _framework density 26.059546999999998
#
# number of rings (size 3 to 8) (size 9 to 14) (size 15 to 20)
#    0.000    0.667    3.333    2.000   14.000    0.667 
#    0.000    0.000    0.000    0.000    0.000    0.000 
#    0.000    0.000    0.000    0.000    0.000    0.000 
#
# Total GULP energy -67075.728485 kJ/mol
# GULP energy per Si atom -5589.644040 kJ/mol
# Density = 2.600023 g / cm^3
# Si number density = 26.059547 Si / 1000 Ang^3
#
#
#
# Elastic Constant Matrix: (Units=GPa)
#
#
# Indices 1 2 3 4 5 6 
#
# 1 105.7472 22.7855 20.8871 0.0000 -10.6499 0.0000
# 2 22.7855 91.5982 -3.4581 0.0000 3.5770 0.0000
# 3 20.8871 -3.4581 77.9584 0.0000 -6.4494 0.0000
# 4 0.0000 0.0000 0.0000 -2.2517 0.0000 13.9671
# 5 -10.6499 3.5770 -6.4494 0.0000 38.7508 0.0000
# 6 0.0000 0.0000 0.0000 13.9671 0.0000 27.3155
#
#
#
# Elastic Compliance Matrix: (Units=1/GPa)
#
#
# Indices 1 2 3 4 5 6 
#
# 1 0.010930 -0.002935 -0.002827 0.000000 0.002804 0.000000
# 2 -0.002935 0.011758 0.001167 0.000000 -0.001698 0.000000
# 3 -0.002827 0.001167 0.013753 0.000000 0.001404 0.000000
# 4 0.000000 0.000000 0.000000 -0.106457 0.000000 0.054434
# 5 0.002804 -0.001698 0.001404 0.000000 0.026967 0.000000
# 6 0.000000 0.000000 0.000000 0.054434 0.000000 0.008776
#
#
# Mechanical properties :
#
#
# Convention : Reuss Voigt Hill
#
# Bulk Modulus (GPa) = 36.69479 39.52586 38.11032
# Shear Modulus (GPa) = -312.44844 28.43555 -142.00645
#
# Velocity S-wave (km/s) = -10.96167 3.30688 -7.38995
# Velocity P-wave (km/s) = 12.08715 5.45720 7.62621
#
# Compressibility (1/GPa) = 0.02725183
#
# Stress axis : x y z
#
# Youngs Moduli (GPa) = 91.49421 85.05044 72.71341
#
# Poissons Ratio (x) = 0.24963 0.20553
# Poissons Ratio (y) = 0.26854 -0.08489
# Poissons Ratio (z) = 0.25861 -0.09930
#
# Static dielectric constant tensor:
#      x y z
#    x 2.164630 0.000000 0.108790 
#    y 0.000000 2.051160 0.000000 
#    z 0.108790 0.000000 2.154250 
# 
# From -- ./inp_files/10145.got.cif
#   From: 2010.05.17/outbox.cif.g08.bks.cpg/sg5_6_cif.got.tgz:10145.got - 2010.06.03 18:56:24.
