data_PCOD9126745
_publ_section_title
;
Structure prediction by ZEFSAII (Michael W. Deem and Ramdas Pophale) SiO2 
 PCOD9126745
Probable space group: C 2
;
_chemical_formula_sum "Si O2"
_cell_formula_units_Z 32
_cell_length_a 25.391767
_cell_length_b 8.937034
_cell_length_c 12.916575
_cell_angle_alpha 90.000000
_cell_angle_beta 30.968583
_cell_angle_gamma 90.000000
_cell_volume 1508.260885
_symmetry_space_group_name_H-M "C 2"
_symmetry_group_IT_number 5
_symmetry_cell_setting 'monoclinic'
loop_
_space_group_symop_operation_xyz
x,y,z
-x,y,-z
1/2+x,1/2+y,z
1/2-x,1/2+y,-z
loop_
_atom_site_type_symbol
_atom_site_label
_atom_site_fract_x
_atom_site_fract_y
_atom_site_fract_z
Si Si1 0.095939 0.186950 0.888638
Si Si2 0.907000 0.136556 0.796313
Si Si3 0.924926 0.922876 0.936701
Si Si4 0.144317 0.111019 0.350355
Si Si5 0.769120 0.513970 0.478962
Si Si6 0.750354 0.745556 0.352219
Si Si7 0.156073 0.409568 0.949339
Si Si8 0.514259 0.142259 0.848790
O O1 0.167162 0.082505 0.700328
O O2 0.164623 0.298159 0.837765
O O3 0.000000 0.271754 0.000000
O O4 0.040989 0.069879 0.058998
O O5 0.856799 0.152981 0.768519
O O6 0.025277 0.084918 0.578949
O O7 0.871033 0.995096 0.927382
O O8 0.887102 0.293365 0.890016
O O9 0.013534 0.800076 0.787641
O O10 0.845257 0.827309 0.139024
O O11 0.171674 0.234465 0.391230
O O12 0.235680 0.987783 0.205776
O O13 0.768015 0.579036 0.365386
O O14 0.772494 0.341842 0.506799
O O15 0.873127 0.575947 0.352509
O O16 0.069538 0.532689 0.063633
O O17 0.500000 0.159653 0.000000
#
# Coordination Sequence:
#
# PCOD9126745 Si02
#       8
#     4   4   4   4   4   4   4   4
#     4  10  24  40  60  95 133 176 225 267 346 420
#     4  10  26  45  72  96 132 181 239 291 353 414
#     4  10  22  42  63  94 131 175 221 287 336 412
#     4  11  24  46  71  99 132 182 236 291 355 412
#     4  11  26  37  64  95 135 183 216 281 339 423
#     4  11  24  42  63  96 136 178 227 276 348 413
#     4  11  24  42  69  97 134 180 224 292 345 416
#     4  12  22  39  61  97 133 171 221 270 344 412
#
# _framework density 21.216488999999999
#
# number of rings (size 3 to 8) (size 9 to 14) (size 15 to 20)
#    0.000    1.250    2.500    1.500   14.000    0.000 
#    0.000    0.000    0.000    1.500    0.000    0.000 
#    0.000    0.000    0.000    0.000    0.000    0.000 
#
# Total GULP energy -89105.317440 kJ/mol
# GULP energy per Si atom -5569.082340 kJ/mol
# Density = 2.116820 g / cm^3
# Si number density = 21.216489 Si / 1000 Ang^3
#
#
#
# Elastic Constant Matrix: (Units=GPa)
#
#
# Indices 1 2 3 4 5 6 
#
# 1 139.6271 59.8094 34.9202 0.0000 2.7046 0.0000
# 2 59.8094 116.5128 20.7239 0.0000 9.4720 0.0000
# 3 34.9202 20.7239 57.9694 0.0000 -9.5672 0.0000
# 4 0.0000 0.0000 0.0000 22.2444 0.0000 -3.6920
# 5 2.7046 9.4720 -9.5672 0.0000 35.6070 0.0000
# 6 0.0000 0.0000 0.0000 -3.6920 0.0000 32.2712
#
#
#
# Elastic Compliance Matrix: (Units=1/GPa)
#
#
# Indices 1 2 3 4 5 6 
#
# 1 0.010224 -0.004328 -0.004761 0.000000 -0.000904 0.000000
# 2 -0.004328 0.011427 -0.002015 0.000000 -0.003252 0.000000
# 3 -0.004761 -0.002015 0.021961 0.000000 0.006798 0.000000
# 4 0.000000 0.000000 0.000000 0.045825 0.000000 0.005243
# 5 -0.000904 -0.003252 0.006798 0.000000 0.030845 0.000000
# 6 0.000000 0.000000 0.000000 0.005243 0.000000 0.031587
#
#
# Mechanical properties :
#
#
# Convention : Reuss Voigt Hill
#
# Bulk Modulus (GPa) = 46.71919 60.55737 53.63828
# Shear Modulus (GPa) = 27.59208 31.26822 29.43015
#
# Velocity S-wave (km/s) = 3.61016 3.84314 3.72847
# Velocity P-wave (km/s) = 6.28058 6.94964 6.62356
#
# Compressibility (1/GPa) = 0.02140448
#
# Stress axis : x y z
#
# Youngs Moduli (GPa) = 97.80891 87.51055 45.53598
#
# Poissons Ratio (x) = 0.37874 0.21679
# Poissons Ratio (y) = 0.42331 0.09175
# Poissons Ratio (z) = 0.46566 0.17632
#
# Static dielectric constant tensor:
#      x y z
#    x 1.803720 0.000000 0.007630 
#    y 0.000000 1.811020 0.000000 
#    z 0.007630 0.000000 1.866700 
# 
# From -- ./inp_files/58108.got.cif
#   From: 2010.05.17/outbox.cif.g08.bks.cpg/sg5_30_cif.got.tgz:58108.got - 2010.06.03 18:56:24.
