data_PCOD9126184
_publ_section_title
;
Structure prediction by ZEFSAII (Michael W. Deem and Ramdas Pophale) SiO2 
 PCOD9126184
Probable space group: C 2
;
_chemical_formula_sum "Si O2"
_cell_formula_units_Z 28
_cell_length_a 13.571597
_cell_length_b 5.315760
_cell_length_c 20.991449
_cell_angle_alpha 90.000000
_cell_angle_beta 127.177361
_cell_angle_gamma 90.000000
_cell_volume 1206.621416
_symmetry_space_group_name_H-M "C 2"
_symmetry_group_IT_number 5
_symmetry_cell_setting 'monoclinic'
loop_
_space_group_symop_operation_xyz
x,y,z
-x,y,-z
1/2+x,1/2+y,z
1/2-x,1/2+y,-z
loop_
_atom_site_type_symbol
_atom_site_label
_atom_site_fract_x
_atom_site_fract_y
_atom_site_fract_z
Si Si1 0.803477 0.804860 0.469175
Si Si2 0.621462 0.156898 0.361143
Si Si3 0.000000 0.205535 0.500000
Si Si4 0.758426 0.225539 0.148012
Si Si5 0.669174 0.231741 0.752617
Si Si6 0.500000 0.398479 0.000000
Si Si7 0.313451 0.948369 0.365084
Si Si8 0.829877 0.106177 0.041903
O O1 0.827111 0.772894 0.552372
O O2 0.848283 0.565933 0.447492
O O3 0.666782 0.869885 0.389633
O O4 0.887737 0.029945 0.478252
O O5 0.694492 0.277968 0.330253
O O6 0.478493 0.211815 0.300021
O O7 0.942735 0.304396 0.409374
O O8 0.782049 0.001757 0.206653
O O9 0.849724 0.175602 0.123690
O O10 0.779926 0.502405 0.184641
O O11 0.616447 0.232267 0.068505
O O12 0.703900 0.157933 0.694188
O O13 0.442905 0.558533 0.037104
O O14 0.752760 0.843431 0.013634
#
# Coordination Sequence:
#
# PCOD9126184 Si02
#       8
#     4   4   2   4   4   2   4   4
#     4  11  22  42  67  94 126 190 257 302 354 418
#     4  11  25  41  68  97 136 189 251 309 359 422
#     4  10  22  38  68  94 126 182 252 314 344 420
#     4  11  27  49  76 112 147 194 233 292 371 432
#     4  12  29  47  68 105 158 187 230 307 367 429
#     4  10  24  52  86 108 142 188 244 292 342 456
#     4  11  25  42  66  99 136 194 247 297 368 430
#     4  10  22  45  79 115 142 180 237 291 346 425
#
# _framework density 23.205290000000002
#
# number of rings (size 3 to 8) (size 9 to 14) (size 15 to 20)
#    0.000    1.143    1.429    3.857   10.000    6.286 
#    0.000    4.286    0.000    0.000    0.000    0.000 
#    0.000    0.000    0.000    0.000    0.000    0.000 
#
# Total GULP energy -78156.355032 kJ/mol
# GULP energy per Si atom -5582.596788 kJ/mol
# Density = 2.315247 g / cm^3
# Si number density = 23.205290 Si / 1000 Ang^3
#
#
#
# Elastic Constant Matrix: (Units=GPa)
#
#
# Indices 1 2 3 4 5 6 
#
# 1 110.2958 -6.3664 25.1199 0.0000 0.3355 0.0000
# 2 -6.3664 25.5276 -4.7572 0.0000 6.9497 0.0001
# 3 25.1199 -4.7572 59.6399 0.0000 9.7693 0.0000
# 4 0.0000 0.0000 0.0000 31.9989 0.0000 -4.5548
# 5 0.3355 6.9497 9.7693 0.0000 43.6910 0.0000
# 6 0.0000 0.0001 0.0000 -4.5548 0.0000 13.9119
#
#
#
# Elastic Compliance Matrix: (Units=1/GPa)
#
#
# Indices 1 2 3 4 5 6 
#
# 1 0.010121 0.001565 -0.004240 0.000000 0.000621 0.000000
# 2 0.001565 0.042385 0.003974 0.000000 -0.007642 0.000000
# 3 -0.004240 0.003974 0.019689 0.000000 -0.005002 0.000000
# 4 0.000000 0.000000 0.000000 0.032779 0.000000 0.010732
# 5 0.000621 -0.007642 -0.005002 0.000000 0.025217 0.000000
# 6 0.000000 0.000000 0.000000 0.010732 0.000000 0.075395
#
#
# Mechanical properties :
#
#
# Convention : Reuss Voigt Hill
#
# Bulk Modulus (GPa) = 13.37045 24.82843 19.09944
# Shear Modulus (GPa) = 21.93770 30.01817 25.97793
#
# Velocity S-wave (km/s) = 3.07803 3.60056 3.34950
# Velocity P-wave (km/s) = 4.29030 5.29226 4.81740
#
# Compressibility (1/GPa) = 0.07479183
#
# Stress axis : x y z
#
# Youngs Moduli (GPa) = 98.80896 23.59350 50.78899
#
# Poissons Ratio (x) = -0.03692 0.21533
# Poissons Ratio (y) = -0.15461 -0.20182
# Poissons Ratio (z) = 0.41892 -0.09375
#
# Static dielectric constant tensor:
#      x y z
#    x 2.037720 0.000000 -0.040060 
#    y 0.000000 1.990570 0.000000 
#    z -0.040060 0.000000 1.906960 
# 
# From -- ./inp_files/65710.got.cif
#   From: 2010.05.17/outbox.cif.g08.bks.cpg/sg5_33_cif.got.tgz:65710.got - 2010.06.03 18:56:24.
