data_PCOD9126232
_publ_section_title
;
Structure prediction by ZEFSAII (Michael W. Deem and Ramdas Pophale) SiO2 
 PCOD9126232
Probable space group: C 2
;
_chemical_formula_sum "Si O2"
_cell_formula_units_Z 32
_cell_length_a 8.997045
_cell_length_b 23.951819
_cell_length_c 14.649226
_cell_angle_alpha 90.000000
_cell_angle_beta 29.762549
_cell_angle_gamma 90.000000
_cell_volume 1567.078167
_symmetry_space_group_name_H-M "C 2"
_symmetry_group_IT_number 5
_symmetry_cell_setting 'monoclinic'
loop_
_space_group_symop_operation_xyz
x,y,z
-x,y,-z
1/2+x,1/2+y,z
1/2-x,1/2+y,-z
loop_
_atom_site_type_symbol
_atom_site_label
_atom_site_fract_x
_atom_site_fract_y
_atom_site_fract_z
Si Si1 0.644890 0.329840 0.319488
Si Si2 0.365605 0.118723 0.802931
Si Si3 0.575126 0.935928 0.058504
Si Si4 0.221901 0.704272 0.298305
Si Si5 0.361535 0.996468 0.799567
Si Si6 0.226641 0.404782 0.295841
Si Si7 0.324187 0.288389 0.303299
Si Si8 0.606981 0.185433 0.046350
O O1 0.500000 0.337520 0.500000
O O2 0.792760 0.268913 0.242666
O O3 0.445099 0.319588 0.332324
O O4 0.877764 0.379822 0.178263
O O5 0.430686 0.170761 0.702494
O O6 0.465336 0.057960 0.715270
O O7 0.491403 0.134542 0.835367
O O8 0.000000 0.117711 0.000000
O O9 0.506989 0.979990 0.173286
O O10 0.500000 0.958818 0.000000
O O11 0.930388 0.923593 0.872405
O O12 0.000000 0.702270 0.500000
O O13 0.538010 0.677568 0.150277
O O14 0.411108 0.942833 0.709805
O O15 0.000000 0.999900 0.000000
O O16 0.258147 0.338379 0.266606
O O17 0.000000 0.412926 0.500000
O O18 0.523385 0.241609 0.148039
O O19 0.000000 0.263140 0.500000
O O20 0.500000 0.188179 0.000000
#
# Coordination Sequence:
#
# PCOD9126232 Si02
#       8
#     4   4   4   4   4   4   4   4
#     4  11  24  39  63  94 126 162 203 250 312 373
#     4   9  19  41  63  86 122 165 212 253 301 369
#     4  11  22  37  61  90 124 162 203 257 302 365
#     4  10  22  39  64  91 123 165 205 253 305 370
#     4   9  21  39  62  88 121 167 210 252 307 363
#     4  10  22  39  60  89 126 165 205 251 303 368
#     4  11  24  40  60  96 131 162 198 254 312 371
#     4  11  24  37  63  94 126 161 203 256 312 363
#
# _framework density 20.420169999999999
#
# number of rings (size 3 to 8) (size 9 to 14) (size 15 to 20)
#    0.000    1.750    2.500    0.750    7.000    2.500 
#    0.000    0.000    0.000    3.750    0.000    0.000 
#    0.000    0.000    0.000    0.000    0.000    0.000 
#
# Total GULP energy -89107.579390 kJ/mol
# GULP energy per Si atom -5569.223712 kJ/mol
# Density = 2.037369 g / cm^3
# Si number density = 20.420170 Si / 1000 Ang^3
#
#
#
# Elastic Constant Matrix: (Units=GPa)
#
#
# Indices 1 2 3 4 5 6 
#
# 1 128.6380 41.0279 22.4331 -0.0002 16.8371 -0.0001
# 2 41.0279 71.8320 4.0824 0.0000 12.5978 0.0001
# 3 22.4331 4.0824 47.4628 -0.0001 -6.8039 0.0000
# 4 -0.0002 0.0000 -0.0001 -21.6238 0.0002 4.1038
# 5 16.8371 12.5978 -6.8039 0.0002 15.4875 0.0001
# 6 -0.0001 0.0001 0.0000 4.1038 0.0001 19.5874
#
#
#
# Elastic Compliance Matrix: (Units=1/GPa)
#
#
# Indices 1 2 3 4 5 6 
#
# 1 0.012049 -0.004228 -0.007167 0.000000 -0.012808 0.000000
# 2 -0.004228 0.018289 -0.001119 0.000000 -0.010772 0.000000
# 3 -0.007167 -0.001119 0.027534 0.000000 0.020798 0.000000
# 4 0.000000 0.000000 0.000000 -0.044477 0.000001 0.009318
# 5 -0.012808 -0.010772 0.020798 0.000001 0.096391 -0.000001
# 6 0.000000 0.000000 0.000000 0.009318 -0.000001 0.049101
#
#
# Mechanical properties :
#
#
# Convention : Reuss Voigt Hill
#
# Bulk Modulus (GPa) = 30.44713 42.55774 36.50243
# Shear Modulus (GPa) = 25.65901 14.71616 20.18759
#
# Velocity S-wave (km/s) = 3.54863 2.68744 3.14763
# Velocity P-wave (km/s) = 5.63321 5.52413 5.57894
#
# Compressibility (1/GPa) = 0.03284382
#
# Stress axis : x y z
#
# Youngs Moduli (GPa) = 82.99763 54.67755 36.31832
#
# Poissons Ratio (x) = 0.23118 0.26030
# Poissons Ratio (y) = 0.35093 0.04063
# Poissons Ratio (z) = 0.59485 0.06117
#
# Static dielectric constant tensor:
#      x y z
#    x 1.797080 0.000000 -0.013780 
#    y 0.000000 1.740320 0.000000 
#    z -0.013780 0.000000 1.761110 
# 
# From -- ./inp_files/28064.got.cif
#   From: 2010.05.17/outbox.cif.g08.bks.cpg/sg5_15_cif.got.tgz:28064.got - 2010.06.03 18:56:24.
