data_PCOD9126344
_publ_section_title
;
Structure prediction by ZEFSAII (Michael W. Deem and Ramdas Pophale) SiO2 
 PCOD9126344
Probable space group: C 2
;
_chemical_formula_sum "Si O2"
_cell_formula_units_Z 28
_cell_length_a 13.652888
_cell_length_b 12.399567
_cell_length_c 9.120086
_cell_angle_alpha 90.000000
_cell_angle_beta 106.199112
_cell_angle_gamma 90.000000
_cell_volume 1482.641013
_symmetry_space_group_name_H-M "C 2"
_symmetry_group_IT_number 5
_symmetry_cell_setting 'monoclinic'
loop_
_space_group_symop_operation_xyz
x,y,z
-x,y,-z
1/2+x,1/2+y,z
1/2-x,1/2+y,-z
loop_
_atom_site_type_symbol
_atom_site_label
_atom_site_fract_x
_atom_site_fract_y
_atom_site_fract_z
Si Si1 0.608178 0.793490 0.624626
Si Si2 0.722066 0.392101 0.778822
Si Si3 0.109648 0.261322 0.968320
Si Si4 0.767998 0.086477 0.428019
Si Si5 0.888154 0.749813 0.514271
Si Si6 0.884411 0.008114 0.008487
Si Si7 0.192919 0.923862 0.321728
O O1 0.500000 0.805337 0.500000
O O2 0.599306 0.799058 0.796217
O O3 0.658913 0.677976 0.607452
O O4 0.692586 0.879450 0.606514
O O5 0.759880 0.495859 0.702532
O O6 0.674841 0.309741 0.640967
O O7 0.808709 0.331975 0.908170
O O8 0.638019 0.440785 0.854657
O O9 0.140817 0.134584 0.981416
O O10 0.000000 0.268834 0.000000
O O11 0.670270 0.144124 0.456786
O O12 0.825793 0.026491 0.584002
O O13 0.882428 0.831135 0.650730
O O14 0.000000 0.730249 0.500000
O O15 0.819602 0.955527 0.850882
O O16 0.000000 0.001901 0.000000
#
# Coordination Sequence:
#
# PCOD9126344 Si02
#       7
#     4   4   4   4   4   4   4
#     4  11  24  40  64  92 123 161 209 260 306 375
#     4  11  22  43  64  91 129 164 205 263 310 367
#     4  11  25  41  63  93 126 163 209 259 314 366
#     4  10  23  40  63  87 124 165 207 250 311 368
#     4  10  22  40  62  90 124 162 206 253 305 373
#     4  11  22  38  65  95 123 162 208 255 311 370
#     4  10  22  40  61  89 124 160 203 253 312 366
#
# _framework density 18.885217999999998
#
# number of rings (size 3 to 8) (size 9 to 14) (size 15 to 20)
#    0.000    1.429    2.857    1.714   10.000    2.857 
#    0.000    0.000    0.000    0.000    0.000    0.000 
#    0.000    0.000    0.000    0.000    0.000    0.000 
#
# Total GULP energy -78191.508183 kJ/mol
# GULP energy per Si atom -5585.107727 kJ/mol
# Density = 1.884223 g / cm^3
# Si number density = 18.885218 Si / 1000 Ang^3
#
#
#
# Elastic Constant Matrix: (Units=GPa)
#
#
# Indices 1 2 3 4 5 6 
#
# 1 96.2949 34.9986 25.3266 0.0000 -4.1506 0.0000
# 2 34.9986 73.1749 36.6647 0.0000 2.4022 0.0000
# 3 25.3266 36.6647 106.6096 0.0000 -7.8018 0.0000
# 4 0.0000 0.0000 0.0000 25.4092 0.0000 -18.2731
# 5 -4.1506 2.4022 -7.8018 0.0000 36.8112 0.0000
# 6 0.0000 0.0000 0.0000 -18.2731 0.0000 7.1897
#
#
#
# Elastic Compliance Matrix: (Units=1/GPa)
#
#
# Indices 1 2 3 4 5 6 
#
# 1 0.012771 -0.005678 -0.000964 0.000000 0.001606 0.000000
# 2 -0.005678 0.019233 -0.005489 0.000000 -0.003059 0.000000
# 3 -0.000964 -0.005489 0.011696 0.000000 0.002729 0.000000
# 4 0.000000 0.000000 0.000000 -0.047544 0.000000 -0.120836
# 5 0.001606 -0.003059 0.002729 0.000000 0.028125 0.000000
# 6 0.000000 0.000000 0.000000 -0.120836 0.000000 -0.168025
#
#
# Mechanical properties :
#
#
# Convention : Reuss Voigt Hill
#
# Bulk Modulus (GPa) = 51.44554 52.22881 51.83718
# Shear Modulus (GPa) = -44.24677 25.82131 -9.21273
#
# Velocity S-wave (km/s) = -4.84563 3.70168 -2.21108
# Velocity P-wave (km/s) = 2.00165 6.78129 4.58145
#
# Compressibility (1/GPa) = 0.01943803
#
# Stress axis : x y z
#
# Youngs Moduli (GPa) = 78.30119 51.99516 85.49597
#
# Poissons Ratio (x) = 0.29524 0.08238
# Poissons Ratio (y) = 0.44461 0.46931
# Poissons Ratio (z) = 0.07545 0.28542
#
# Static dielectric constant tensor:
#      x y z
#    x 1.740730 0.000000 0.071420 
#    y 0.000000 1.661850 0.000000 
#    z 0.071420 0.000000 1.703920 
# 
# From -- ./inp_files/23381.got.cif
#   From: 2010.05.17/outbox.cif.g08.bks.cpg/sg5_12_cif.got.tgz:23381.got - 2010.06.03 18:56:24.
