data_PCOD9126958
_publ_section_title
;
Structure prediction by ZEFSAII (Michael W. Deem and Ramdas Pophale) SiO2 
 PCOD9126958
Probable space group: C 2
;
_chemical_formula_sum "Si O2"
_cell_formula_units_Z 18
_cell_length_a 10.768115
_cell_length_b 16.916714
_cell_length_c 4.940977
_cell_angle_alpha 90.000000
_cell_angle_beta 120.722688
_cell_angle_gamma 90.000000
_cell_volume 773.731382
_symmetry_space_group_name_H-M "C 2"
_symmetry_group_IT_number 5
_symmetry_cell_setting 'monoclinic'
loop_
_space_group_symop_operation_xyz
x,y,z
-x,y,-z
1/2+x,1/2+y,z
1/2-x,1/2+y,-z
loop_
_atom_site_type_symbol
_atom_site_label
_atom_site_fract_x
_atom_site_fract_y
_atom_site_fract_z
Si Si1 0.000000 0.877950 0.500000
Si Si2 0.352493 0.497042 0.749720
Si Si3 0.842818 0.369188 0.272232
Si Si4 0.893108 0.615289 0.626737
Si Si5 0.244586 0.276864 0.284050
O O1 0.075119 0.933061 0.366294
O O2 0.121239 0.816760 0.729876
O O3 0.265779 0.444830 0.877407
O O4 0.229076 0.548397 0.468964
O O5 0.500000 0.543309 0.000000
O O6 0.789921 0.322319 0.478354
O O7 0.000000 0.405359 0.500000
O O8 0.870495 0.303687 0.067897
O O9 0.797873 0.690769 0.425173
O O10 0.000000 0.595406 0.500000
O O11 0.000000 0.629585 0.000000
#
# Coordination Sequence:
#
# PCOD9126958 Si02
#       5
#     2   4   4   4   4
#     4  10  22  42  72  98 142 190 254 280 364 430
#     4  11  25  44  73 107 148 195 242 303 365 442
#     4  11  24  43  72 104 143 186 249 299 358 434
#     4  12  28  47  74 107 152 194 244 304 372 437
#     4  11  23  44  72  99 140 195 243 292 358 436
#
# _framework density 23.263885999999999
#
# number of rings (size 3 to 8) (size 9 to 14) (size 15 to 20)
#    0.000    0.889    3.333    2.667    3.111    5.333 
#    2.000    0.000    0.000    0.000    0.000    0.000 
#    0.000    0.000    0.000    0.000    0.000    0.000 
#
# Total GULP energy -50135.715844 kJ/mol
# GULP energy per Si atom -5570.635094 kJ/mol
# Density = 2.321094 g / cm^3
# Si number density = 23.263886 Si / 1000 Ang^3
#
#
#
# Elastic Constant Matrix: (Units=GPa)
#
#
# Indices 1 2 3 4 5 6 
#
# 1 111.9980 35.7397 37.6818 0.0000 11.8937 0.0000
# 2 35.7397 89.9145 32.9781 0.0000 11.0955 0.0000
# 3 37.6818 32.9781 115.9865 0.0000 -0.3317 0.0000
# 4 0.0000 0.0000 0.0000 20.1867 0.0000 8.1986
# 5 11.8937 11.0955 -0.3317 0.0000 49.2548 0.0000
# 6 0.0000 0.0000 0.0000 8.1986 0.0000 28.9952
#
#
#
# Elastic Compliance Matrix: (Units=1/GPa)
#
#
# Indices 1 2 3 4 5 6 
#
# 1 0.011055 -0.003161 -0.002699 0.000000 -0.001976 0.000000
# 2 -0.003161 0.013725 -0.002882 0.000000 -0.002348 0.000000
# 3 -0.002699 -0.002882 0.010322 0.000000 0.001370 0.000000
# 4 0.000000 0.000000 0.000000 0.055964 0.000000 -0.015824
# 5 -0.001976 -0.002348 0.001370 0.000000 0.021318 0.000000
# 6 0.000000 0.000000 0.000000 -0.015824 0.000000 0.038963
#
#
# Mechanical properties :
#
#
# Convention : Reuss Voigt Hill
#
# Bulk Modulus (GPa) = 56.75747 58.96648 57.86197
# Shear Modulus (GPa) = 28.62003 33.78730 31.20366
#
# Velocity S-wave (km/s) = 3.51127 3.81511 3.66634
# Velocity P-wave (km/s) = 6.39445 6.69392 6.54589
#
# Compressibility (1/GPa) = 0.01761883
#
# Stress axis : x y z
#
# Youngs Moduli (GPa) = 90.45622 72.86054 96.88212
#
# Poissons Ratio (x) = 0.23029 0.26144
# Poissons Ratio (y) = 0.28590 0.27924
# Poissons Ratio (z) = 0.24410 0.21000
#
# Static dielectric constant tensor:
#      x y z
#    x 1.977820 0.000000 0.316160 
#    y 0.000000 1.897850 0.000000 
#    z 0.316160 0.000000 2.666550 
# 
# From -- ./inp_files/5086.got.cif
#   From: 2010.05.17/outbox.cif.g08.bks.cpg/sg5_3_cif.got.tgz:5086.got - 2010.06.03 18:56:24.
