data_PCOD9126492
_publ_section_title
;
Structure prediction by ZEFSAII (Michael W. Deem and Ramdas Pophale) SiO2 
 PCOD9126492
Probable space group: C 2
;
_chemical_formula_sum "Si O2"
_cell_formula_units_Z 32
_cell_length_a 14.251188
_cell_length_b 8.780136
_cell_length_c 23.337412
_cell_angle_alpha 90.000000
_cell_angle_beta 28.485792
_cell_angle_gamma 90.000000
_cell_volume 1392.738238
_symmetry_space_group_name_H-M "C 2"
_symmetry_group_IT_number 5
_symmetry_cell_setting 'monoclinic'
loop_
_space_group_symop_operation_xyz
x,y,z
-x,y,-z
1/2+x,1/2+y,z
1/2-x,1/2+y,-z
loop_
_atom_site_type_symbol
_atom_site_label
_atom_site_fract_x
_atom_site_fract_y
_atom_site_fract_z
Si Si1 0.414064 0.699140 0.608918
Si Si2 0.030629 0.516587 0.267959
Si Si3 0.760929 0.671306 0.503626
Si Si4 0.811738 0.026446 0.945741
Si Si5 0.596599 0.688835 0.706641
Si Si6 0.516046 0.210236 0.159692
Si Si7 0.146346 0.840964 0.336050
Si Si8 0.589525 0.668855 0.892119
O O1 0.500000 0.730314 0.500000
O O2 0.575982 0.739949 0.568928
O O3 0.368069 0.517418 0.639129
O O4 0.202503 0.774518 0.732635
O O5 0.012784 0.631310 0.223523
O O6 0.241304 0.547362 0.182607
O O7 0.865053 0.560715 0.402682
O O8 0.996638 0.347484 0.264281
O O9 0.678025 0.602475 0.607236
O O10 0.932158 0.786225 0.431082
O O11 0.930551 0.098531 0.829549
O O12 0.929101 0.083112 0.939358
O O13 0.830584 0.847190 0.928702
O O14 0.591952 0.086218 0.073385
O O15 0.772096 0.739426 0.655053
O O16 0.299122 0.799691 0.203466
O O17 0.500000 0.724494 0.000000
#
# Coordination Sequence:
#
# PCOD9126492 Si02
#       8
#     4   4   4   4   4   4   4   4
#     4  12  24  45  71 105 143 193 236 300 358 427
#     4  11  22  42  74  97 141 187 231 296 358 427
#     4  11  23  39  67 107 141 180 236 289 355 423
#     4  11  27  45  71 101 142 187 240 300 359 430
#     4  11  23  45  70 103 138 189 237 294 360 432
#     4  12  25  46  72 103 138 188 242 291 363 423
#     4  10  22  42  70 100 140 194 239 285 365 433
#     4  10  22  40  69 102 134 182 237 296 359 423
#
# _framework density 22.976320999999999
#
# number of rings (size 3 to 8) (size 9 to 14) (size 15 to 20)
#    0.000    1.000    3.750    2.625    3.500    3.000 
#    2.250    0.625    0.000    0.000    0.000    0.000 
#    0.000    0.000    0.000    0.000    0.000    0.000 
#
# Total GULP energy -89608.529303 kJ/mol
# GULP energy per Si atom -5600.533081 kJ/mol
# Density = 2.292403 g / cm^3
# Si number density = 22.976321 Si / 1000 Ang^3
#
#
#
# Elastic Constant Matrix: (Units=GPa)
#
#
# Indices 1 2 3 4 5 6 
#
# 1 89.6359 20.4552 53.8538 0.0000 12.5302 0.0000
# 2 20.4552 68.4625 29.8445 -0.0002 5.4072 0.0000
# 3 53.8538 29.8445 149.9620 -0.0018 24.7181 0.0000
# 4 0.0000 -0.0002 -0.0018 30.4688 0.0001 0.2096
# 5 12.5302 5.4072 24.7181 0.0001 52.2536 0.0000
# 6 0.0000 0.0000 0.0000 0.2096 0.0000 27.4954
#
#
#
# Elastic Compliance Matrix: (Units=1/GPa)
#
#
# Indices 1 2 3 4 5 6 
#
# 1 0.014596 -0.002265 -0.004612 0.000000 -0.001084 0.000000
# 2 -0.002265 0.016347 -0.002441 0.000000 0.000006 0.000000
# 3 -0.004612 -0.002441 0.009313 0.000001 -0.003047 0.000000
# 4 0.000000 0.000000 0.000001 0.032822 0.000000 -0.000250
# 5 -0.001084 0.000006 -0.003047 0.000000 0.020838 0.000000
# 6 0.000000 0.000000 0.000000 -0.000250 0.000000 0.036372
#
#
# Mechanical properties :
#
#
# Convention : Reuss Voigt Hill
#
# Bulk Modulus (GPa) = 46.25488 57.37416 51.81452
# Shear Modulus (GPa) = 32.02485 35.63735 33.83110
#
# Velocity S-wave (km/s) = 3.73744 3.94261 3.84139
# Velocity P-wave (km/s) = 6.22895 6.76393 6.50195
#
# Compressibility (1/GPa) = 0.02161934
#
# Stress axis : x y z
#
# Youngs Moduli (GPa) = 68.51387 61.17418 107.38111
#
# Poissons Ratio (x) = 0.13854 0.49526
# Poissons Ratio (y) = 0.15516 0.26211
# Poissons Ratio (z) = 0.31600 0.14932
#
# Static dielectric constant tensor:
#      x y z
#    x 1.851240 0.000000 -0.018030 
#    y 0.000000 1.824110 0.000000 
#    z -0.018030 0.000000 1.869820 
# 
# From -- ./inp_files/68771.got.cif
#   From: 2010.05.17/outbox.cif.g08.bks.cpg/sg5_35_cif.got.tgz:68771.got - 2010.06.03 18:56:24.
