data_PCOD9126391
_publ_section_title
;
Structure prediction by ZEFSAII (Michael W. Deem and Ramdas Pophale) SiO2 
 PCOD9126391
Probable space group: C 2
;
_chemical_formula_sum "Si O2"
_cell_formula_units_Z 28
_cell_length_a 19.157559
_cell_length_b 8.843115
_cell_length_c 7.210070
_cell_angle_alpha 90.000000
_cell_angle_beta 83.654842
_cell_angle_gamma 90.000000
_cell_volume 1213.993397
_symmetry_space_group_name_H-M "C 2"
_symmetry_group_IT_number 5
_symmetry_cell_setting 'monoclinic'
loop_
_space_group_symop_operation_xyz
x,y,z
-x,y,-z
1/2+x,1/2+y,z
1/2-x,1/2+y,-z
loop_
_atom_site_type_symbol
_atom_site_label
_atom_site_fract_x
_atom_site_fract_y
_atom_site_fract_z
Si Si1 0.000000 0.032460 0.000000
Si Si2 0.340554 0.792930 0.981581
Si Si3 0.535987 0.791064 0.753234
Si Si4 0.785597 0.600870 0.864499
Si Si5 0.620321 0.291007 0.931563
Si Si6 0.000000 0.546074 0.000000
Si Si7 0.723821 0.416596 0.581415
Si Si8 0.154582 0.205077 0.448643
O O1 0.996998 0.137316 0.818939
O O2 0.069766 0.933218 0.970773
O O3 0.349163 0.745655 0.765718
O O4 0.305518 0.959243 0.989640
O O5 0.405670 0.800486 0.099731
O O6 0.290868 0.662780 0.072702
O O7 0.581954 0.765031 0.558605
O O8 0.491096 0.940097 0.817711
O O9 0.780058 0.527357 0.666173
O O10 0.836709 0.738164 0.899891
O O11 0.565167 0.152871 0.925537
O O12 0.675759 0.328657 0.750265
O O13 0.778646 0.296443 0.481971
O O14 0.673193 0.528414 0.480955
#
# Coordination Sequence:
#
# PCOD9126391 Si02
#       8
#     2   4   4   4   4   2   4   4
#     4  10  22  40  64  88 128 176 226 262 302 400
#     4  11  23  38  66  99 129 169 210 279 331 385
#     4  11  22  44  65  95 128 178 225 257 334 385
#     4  11  20  38  63 101 129 163 215 266 333 391
#     4  11  20  41  65  96 129 172 228 257 329 390
#     4  10  24  36  70  90 128 190 214 272 302 404
#     4  11  24  40  65 103 134 169 210 286 338 389
#     4  11  24  39  65 101 134 164 216 277 336 392
#
# _framework density 23.064373
#
# number of rings (size 3 to 8) (size 9 to 14) (size 15 to 20)
#    0.000    1.143    7.143    0.000    4.000    0.000 
#    0.000    2.857    0.000    0.000    7.429    0.000 
#    0.000    0.000    0.000    0.000    0.000    0.000 
#
# Total GULP energy -78127.706732 kJ/mol
# GULP energy per Si atom -5580.550481 kJ/mol
# Density = 2.301188 g / cm^3
# Si number density = 23.064373 Si / 1000 Ang^3
#
#
#
# Elastic Constant Matrix: (Units=GPa)
#
#
# Indices 1 2 3 4 5 6 
#
# 1 50.9248 20.0511 -6.0478 0.0000 -12.3659 0.0000
# 2 20.0511 116.7714 24.5509 0.0000 -14.4505 0.0000
# 3 -6.0478 24.5509 69.3454 0.0000 -20.9296 0.0000
# 4 0.0000 0.0000 0.0000 39.2808 0.0000 -3.9275
# 5 -12.3659 -14.4505 -20.9296 0.0000 43.5096 0.0000
# 6 0.0000 0.0000 0.0000 -3.9275 0.0000 46.3132
#
#
#
# Elastic Compliance Matrix: (Units=1/GPa)
#
#
# Indices 1 2 3 4 5 6 
#
# 1 0.024144 -0.004412 0.006196 0.000000 0.008377 0.000000
# 2 -0.004412 0.010174 -0.003914 0.000000 0.000243 0.000000
# 3 0.006196 -0.003914 0.019286 0.000000 0.009738 0.000000
# 4 0.000000 0.000000 0.000000 0.025675 0.000000 0.002177
# 5 0.008377 0.000243 0.009738 0.000000 0.030129 0.000000
# 6 0.000000 0.000000 0.000000 0.002177 0.000000 0.021777
#
#
# Mechanical properties :
#
#
# Convention : Reuss Voigt Hill
#
# Bulk Modulus (GPa) = 20.26552 34.90555 27.58553
# Shear Modulus (GPa) = 32.91803 39.05321 35.98562
#
# Velocity S-wave (km/s) = 3.78196 4.11935 3.95425
# Velocity P-wave (km/s) = 5.27982 6.14753 5.73013
#
# Compressibility (1/GPa) = 0.04934491
#
# Stress axis : x y z
#
# Youngs Moduli (GPa) = 41.41824 98.28829 51.85201
#
# Poissons Ratio (x) = 0.43363 -0.32127
# Poissons Ratio (y) = 0.18273 0.20293
# Poissons Ratio (z) = -0.25663 0.38466
#
# Static dielectric constant tensor:
#      x y z
#    x 1.933470 0.000000 -0.008230 
#    y 0.000000 1.941850 0.000000 
#    z -0.008230 0.000000 1.867170 
# 
# From -- ./inp_files/28715.got.cif
#   From: 2010.05.17/outbox.cif.g08.bks.cpg/sg5_15_cif.got.tgz:28715.got - 2010.06.03 18:56:24.
