data_PCOD9126138
_publ_section_title
;
Structure prediction by ZEFSAII (Michael W. Deem and Ramdas Pophale) SiO2 
 PCOD9126138
Probable space group: C 2
;
_chemical_formula_sum "Si O2"
_cell_formula_units_Z 28
_cell_length_a 18.889961
_cell_length_b 18.013388
_cell_length_c 10.591744
_cell_angle_alpha 90.000000
_cell_angle_beta 23.003999
_cell_angle_gamma 90.000000
_cell_volume 1408.456231
_symmetry_space_group_name_H-M "C 2"
_symmetry_group_IT_number 5
_symmetry_cell_setting 'monoclinic'
loop_
_space_group_symop_operation_xyz
x,y,z
-x,y,-z
1/2+x,1/2+y,z
1/2-x,1/2+y,-z
loop_
_atom_site_type_symbol
_atom_site_label
_atom_site_fract_x
_atom_site_fract_y
_atom_site_fract_z
Si Si1 0.575363 0.277590 0.741908
Si Si2 0.809942 0.110859 0.755169
Si Si3 0.981496 0.234745 0.739551
Si Si4 0.187710 0.149058 0.752690
Si Si5 0.124869 0.367975 0.672636
Si Si6 0.360878 0.242306 0.843039
Si Si7 0.984525 0.532836 0.176446
O O1 0.735944 0.220984 0.444554
O O2 0.670332 0.355918 0.615412
O O3 0.443083 0.275254 0.838168
O O4 0.500000 0.251297 0.000000
O O5 0.000000 0.083323 0.500000
O O6 0.874836 0.177928 0.556652
O O7 0.679488 0.155025 0.065997
O O8 0.685772 0.049491 0.896287
O O9 0.075196 0.302780 0.656835
O O10 0.862537 0.182603 0.028538
O O11 0.838360 0.267963 0.873831
O O12 0.342381 0.088165 0.476952
O O13 0.000000 0.122794 0.000000
O O14 0.082309 0.449337 0.691561
O O15 0.000000 0.358482 0.000000
O O16 0.500000 0.254545 0.500000
O O17 0.000000 0.546007 0.000000
#
# Coordination Sequence:
#
# PCOD9126138 Si02
#       7
#     4   4   4   4   4   4   4
#     4  12  22  37  65  94 129 163 217 266 319 373
#     4  10  22  38  64  94 124 165 218 270 314 381
#     4  11  20  38  66  95 121 164 218 264 313 383
#     4  12  21  36  67  90 126 167 219 255 318 378
#     4  11  22  40  59  90 130 168 208 269 323 379
#     4  11  20  35  63  99 123 160 218 265 313 377
#     4  11  24  39  60  92 132 171 212 265 327 381
#
# _framework density 19.879922000000001
#
# number of rings (size 3 to 8) (size 9 to 14) (size 15 to 20)
#    0.000    0.857    5.714    2.143    0.000    0.571 
#    0.000    3.571    0.000   19.714    0.000    0.000 
#    0.000    0.000    0.000    0.000    0.000    0.000 
#
# Total GULP energy -78105.013775 kJ/mol
# GULP energy per Si atom -5578.929555 kJ/mol
# Density = 1.983467 g / cm^3
# Si number density = 19.879922 Si / 1000 Ang^3
#
#
#
# Elastic Constant Matrix: (Units=GPa)
#
#
# Indices 1 2 3 4 5 6 
#
# 1 140.1731 44.7909 50.8162 0.0037 -29.4408 -0.0006
# 2 44.7909 95.8430 43.5223 0.0142 -20.1987 -0.0035
# 3 50.8162 43.5223 101.0089 0.0188 -4.7409 -0.0035
# 4 0.0037 0.0142 0.0188 24.8069 -0.0039 -6.2115
# 5 -29.4408 -20.1987 -4.7409 -0.0039 53.7991 0.0017
# 6 -0.0006 -0.0035 -0.0035 -6.2115 0.0017 17.0275
#
#
#
# Elastic Compliance Matrix: (Units=1/GPa)
#
#
# Indices 1 2 3 4 5 6 
#
# 1 0.010174 -0.001969 -0.004060 0.000003 0.004471 0.000000
# 2 -0.001969 0.014478 -0.005064 -0.000003 0.003912 0.000000
# 3 -0.004060 -0.005064 0.013989 -0.000008 -0.002891 -0.000001
# 4 0.000003 -0.000003 -0.000008 0.044364 0.000003 0.016184
# 5 0.004471 0.003912 -0.002891 0.000003 0.022248 -0.000001
# 6 0.000000 0.000000 -0.000001 0.016184 -0.000001 0.064632
#
#
# Mechanical properties :
#
#
# Convention : Reuss Voigt Hill
#
# Bulk Modulus (GPa) = 60.77273 68.36485 64.56879
# Shear Modulus (GPa) = 25.30920 32.31974 28.81447
#
# Velocity S-wave (km/s) = 3.57193 4.03643 3.81126
# Velocity P-wave (km/s) = 6.90274 7.49582 7.20538
#
# Compressibility (1/GPa) = 0.01645475
#
# Stress axis : x y z
#
# Youngs Moduli (GPa) = 98.28913 69.07093 71.48393
#
# Poissons Ratio (x) = 0.13598 0.29025
# Poissons Ratio (y) = 0.19350 0.36200
# Poissons Ratio (z) = 0.39909 0.34978
#
# Static dielectric constant tensor:
#      x y z
#    x 1.796380 0.000000 -0.003180 
#    y 0.000000 1.679300 0.000000 
#    z -0.003180 0.000000 1.749290 
# 
# From -- ./inp_files/46625.got.cif
#   From: 2010.05.17/outbox.cif.g08.bks.cpg/sg5_24_cif.got.tgz:46625.got - 2010.06.03 18:56:24.
