data_PCOD9126551
_publ_section_title
;
Structure prediction by ZEFSAII (Michael W. Deem and Ramdas Pophale) SiO2 
 PCOD9126551
Probable space group: C 2
;
_chemical_formula_sum "Si O2"
_cell_formula_units_Z 30
_cell_length_a 8.183905
_cell_length_b 10.256219
_cell_length_c 15.345065
_cell_angle_alpha 90.000000
_cell_angle_beta 105.845056
_cell_angle_gamma 90.000000
_cell_volume 1239.062708
_symmetry_space_group_name_H-M "C 2"
_symmetry_group_IT_number 5
_symmetry_cell_setting 'monoclinic'
loop_
_space_group_symop_operation_xyz
x,y,z
-x,y,-z
1/2+x,1/2+y,z
1/2-x,1/2+y,-z
loop_
_atom_site_type_symbol
_atom_site_label
_atom_site_fract_x
_atom_site_fract_y
_atom_site_fract_z
Si Si1 0.359187 0.940560 0.545054
Si Si2 0.447428 0.958359 0.166724
Si Si3 0.000000 0.978102 0.500000
Si Si4 0.200123 0.805521 0.027178
Si Si5 0.892971 0.106126 0.302501
Si Si6 0.046768 0.665182 0.323733
Si Si7 0.726442 0.027527 0.097920
Si Si8 0.812463 0.272393 0.708747
O O1 0.500000 0.891292 0.500000
O O2 0.359544 0.861634 0.633739
O O3 0.407633 0.088996 0.579855
O O4 0.169052 0.915366 0.484047
O O5 0.271535 0.892505 0.117714
O O6 0.580024 0.839358 0.199503
O O7 0.456415 0.056610 0.248165
O O8 0.529212 0.035842 0.098450
O O9 0.923178 0.048638 0.403591
O O10 0.272816 0.659005 0.050896
O O11 0.000000 0.799271 0.000000
O O12 0.246666 0.893663 0.950287
O O13 0.725988 0.198489 0.301488
O O14 0.823090 0.033190 0.206023
O O15 0.081855 0.144846 0.299985
O O16 0.890050 0.763396 0.313258
#
# Coordination Sequence:
#
# PCOD9126551 Si02
#       8
#     4   4   2   4   4   4   4   4
#     4  10  22  41  61 102 144 186 245 311 366 444
#     4  10  23  45  69 101 144 182 246 310 364 451
#     4  10  22  44  70 100 146 192 246 310 376 440
#     4  12  26  44  72 109 143 195 250 305 380 453
#     4  10  22  44  72 105 144 193 250 305 371 454
#     4   9  22  42  69  99 140 190 241 306 371 438
#     4  11  26  49  71 105 153 190 249 315 372 448
#     4  11  22  41  71 101 141 194 243 306 378 434
#
# _framework density 24.211846999999999
#
# number of rings (size 3 to 8) (size 9 to 14) (size 15 to 20)
#    0.000    1.600    1.333    2.800    2.800    5.333 
#    3.600    2.667    0.000    0.000    0.000    0.000 
#    0.000    0.000    0.000    0.000    0.000    0.000 
#
# Total GULP energy -83555.912793 kJ/mol
# GULP energy per Si atom -5570.394186 kJ/mol
# Density = 2.415674 g / cm^3
# Si number density = 24.211847 Si / 1000 Ang^3
#
#
#
# Elastic Constant Matrix: (Units=GPa)
#
#
# Indices 1 2 3 4 5 6 
#
# 1 134.8813 14.5954 39.7874 0.0000 9.6714 0.0000
# 2 14.5954 62.0185 35.1829 0.0000 -10.2557 0.0000
# 3 39.7874 35.1829 104.9740 0.0000 -0.3273 0.0000
# 4 0.0000 0.0000 0.0000 14.8071 0.0000 -7.9194
# 5 9.6714 -10.2557 -0.3273 0.0000 40.4732 0.0000
# 6 0.0000 0.0000 0.0000 -7.9194 0.0000 24.7705
#
#
#
# Elastic Compliance Matrix: (Units=1/GPa)
#
#
# Indices 1 2 3 4 5 6 
#
# 1 0.008537 -0.000665 -0.003020 0.000000 -0.002233 0.000000
# 2 -0.000665 0.021024 -0.006777 0.000000 0.005431 0.000000
# 3 -0.003020 -0.006777 0.012939 0.000000 -0.000891 0.000000
# 4 0.000000 0.000000 0.000000 0.081465 0.000000 0.026045
# 5 -0.002233 0.005431 -0.000891 0.000000 0.026610 0.000000
# 6 0.000000 0.000000 0.000000 0.026045 0.000000 0.048698
#
#
# Mechanical properties :
#
#
# Convention : Reuss Voigt Hill
#
# Bulk Modulus (GPa) = 46.34864 53.44502 49.89683
# Shear Modulus (GPa) = 21.98877 30.16404 26.07640
#
# Velocity S-wave (km/s) = 3.01688 3.53347 3.28534
# Velocity P-wave (km/s) = 5.59642 6.22648 5.91984
#
# Compressibility (1/GPa) = 0.02157561
#
# Stress axis : x y z
#
# Youngs Moduli (GPa) = 117.14059 47.56564 77.28392
#
# Poissons Ratio (x) = 0.03164 0.23337
# Poissons Ratio (y) = 0.07793 0.52376
# Poissons Ratio (z) = 0.35372 0.32236
#
# Static dielectric constant tensor:
#      x y z
#    x 2.023620 0.000000 -0.012390 
#    y 0.000000 2.087710 0.000000 
#    z -0.012390 0.000000 2.036160 
# 
# From -- ./inp_files/50534.got.cif
#   From: 2010.05.17/outbox.cif.g08.bks.cpg/sg5_26_cif.got.tgz:50534.got - 2010.06.03 18:56:24.
