data_PCOD9126136
_publ_section_title
;
Structure prediction by ZEFSAII (Michael W. Deem and Ramdas Pophale) SiO2 
 PCOD9126136
Probable space group: C 2
;
_chemical_formula_sum "Si O2"
_cell_formula_units_Z 26
_cell_length_a 5.093112
_cell_length_b 13.465498
_cell_length_c 18.504864
_cell_angle_alpha 90.000000
_cell_angle_beta 82.287438
_cell_angle_gamma 90.000000
_cell_volume 1257.607015
_symmetry_space_group_name_H-M "C 2"
_symmetry_group_IT_number 5
_symmetry_cell_setting 'monoclinic'
loop_
_space_group_symop_operation_xyz
x,y,z
-x,y,-z
1/2+x,1/2+y,z
1/2-x,1/2+y,-z
loop_
_atom_site_type_symbol
_atom_site_label
_atom_site_fract_x
_atom_site_fract_y
_atom_site_fract_z
Si Si1 0.997687 0.731940 0.316499
Si Si2 0.451935 0.264669 0.851625
Si Si3 0.558530 0.638379 0.616469
Si Si4 0.936140 0.359022 0.918235
Si Si5 0.908763 0.907584 0.420373
Si Si6 0.500000 0.781471 0.500000
Si Si7 0.278519 0.083116 0.948803
O O1 0.959619 0.752349 0.233813
O O2 0.254955 0.666231 0.323738
O O3 0.741493 0.674445 0.357903
O O4 0.042875 0.835864 0.357061
O O5 0.702415 0.293698 0.892132
O O6 0.315602 0.163944 0.885395
O O7 0.215606 0.344869 0.867655
O O8 0.574763 0.522115 0.599741
O O9 0.661673 0.702646 0.543420
O O10 0.834521 0.471897 0.919681
O O11 0.000000 0.334316 0.000000
O O12 0.620308 0.857487 0.437329
O O13 0.000000 0.894823 0.500000
O O14 0.500000 0.105665 0.000000
O O15 0.000000 0.086856 0.000000
#
# Coordination Sequence:
#
# PCOD9126136 Si02
#       7
#     4   4   4   4   4   2   4
#     4  11  27  43  61  98 133 168 218 260 321 399
#     4  12  24  42  66  92 137 176 205 264 326 381
#     4  11  24  41  64  91 126 163 214 268 326 377
#     4  11  23  41  68  98 125 166 221 264 310 378
#     4  11  23  40  68  91 125 169 218 274 327 370
#     4  10  22  38  64  94 120 152 218 272 320 382
#     4  11  23  39  64  97 127 164 218 265 308 373
#
# _framework density 20.674185000000001
#
# number of rings (size 3 to 8) (size 9 to 14) (size 15 to 20)
#    0.000    0.923    2.308    5.538    2.154    2.462 
#    0.000    0.000    0.000    0.000    0.000    0.000 
#    0.000    0.000    0.000    0.000    0.000    0.000 
#
# Total GULP energy -72594.279663 kJ/mol
# GULP energy per Si atom -5584.175359 kJ/mol
# Density = 2.062713 g / cm^3
# Si number density = 20.674185 Si / 1000 Ang^3
#
#
#
# Elastic Constant Matrix: (Units=GPa)
#
#
# Indices 1 2 3 4 5 6 
#
# 1 104.2864 37.3294 21.8304 0.0000 8.4689 0.0000
# 2 37.3294 165.0907 71.7186 0.0000 5.3576 0.0000
# 3 21.8304 71.7186 105.5934 0.0000 6.9505 0.0000
# 4 0.0000 0.0000 0.0000 20.3927 0.0000 -6.8330
# 5 8.4689 5.3576 6.9505 0.0000 29.1883 0.0000
# 6 0.0000 0.0000 0.0000 -6.8330 0.0000 27.9107
#
#
#
# Elastic Compliance Matrix: (Units=1/GPa)
#
#
# Indices 1 2 3 4 5 6 
#
# 1 0.010665 -0.002048 -0.000645 0.000000 -0.002565 0.000000
# 2 -0.002048 0.008987 -0.005700 0.000000 0.000302 0.000000
# 3 -0.000645 -0.005700 0.013607 0.000000 -0.002007 0.000000
# 4 0.000000 0.000000 0.000000 0.053419 0.000000 0.013078
# 5 -0.002565 0.000302 -0.002007 0.000000 0.035427 0.000000
# 6 0.000000 0.000000 0.000000 0.013078 0.000000 0.039030
#
#
# Mechanical properties :
#
#
# Convention : Reuss Voigt Hill
#
# Bulk Modulus (GPa) = 60.70650 70.74747 65.72698
# Shear Modulus (GPa) = 27.26070 31.77114 29.51592
#
# Velocity S-wave (km/s) = 3.63517 3.92440 3.78255
# Velocity P-wave (km/s) = 6.85904 7.40466 7.13707
#
# Compressibility (1/GPa) = 0.01647270
#
# Stress axis : x y z
#
# Youngs Moduli (GPa) = 93.76080 111.27275 73.48948
#
# Poissons Ratio (x) = 0.22790 0.04740
# Poissons Ratio (y) = 0.19204 0.41891
# Poissons Ratio (z) = 0.06048 0.63429
#
# Static dielectric constant tensor:
#      x y z
#    x 1.820400 0.000000 -0.017940 
#    y 0.000000 1.724540 0.000000 
#    z -0.017940 0.000000 1.736330 
# 
# From -- ./inp_files/58703.got.cif
#   From: 2010.05.17/outbox.cif.g08.bks.cpg/sg5_30_cif.got.tgz:58703.got - 2010.06.03 18:56:24.
