data_PCOD9126754
_publ_section_title
;
Structure prediction by ZEFSAII (Michael W. Deem and Ramdas Pophale) SiO2 
 PCOD9126754
Probable space group: C 2
;
_chemical_formula_sum "Si O2"
_cell_formula_units_Z 28
_cell_length_a 7.468285
_cell_length_b 13.464346
_cell_length_c 14.426725
_cell_angle_alpha 90.000000
_cell_angle_beta 70.051336
_cell_angle_gamma 90.000000
_cell_volume 1363.644443
_symmetry_space_group_name_H-M "C 2"
_symmetry_group_IT_number 5
_symmetry_cell_setting 'monoclinic'
loop_
_space_group_symop_operation_xyz
x,y,z
-x,y,-z
1/2+x,1/2+y,z
1/2-x,1/2+y,-z
loop_
_atom_site_type_symbol
_atom_site_label
_atom_site_fract_x
_atom_site_fract_y
_atom_site_fract_z
Si Si1 0.036474 0.674500 0.726458
Si Si2 0.701873 0.275911 0.086355
Si Si3 0.428323 0.771645 0.660393
Si Si4 0.910493 0.212660 0.877180
Si Si5 0.669627 0.990562 0.298615
Si Si6 0.687637 0.176973 0.405102
Si Si7 0.032317 0.986392 0.104901
O O1 0.246520 0.707477 0.662369
O O2 0.888118 0.722676 0.678843
O O3 0.971616 0.714413 0.837674
O O4 0.995235 0.557668 0.720149
O O5 0.662706 0.392339 0.105863
O O6 0.890592 0.237426 0.105880
O O7 0.744491 0.256532 0.970954
O O8 0.426354 0.756405 0.772315
O O9 0.397810 0.887397 0.648393
O O10 0.630535 0.733295 0.588868
O O11 0.889556 0.093595 0.878235
O O12 0.833524 0.973017 0.194236
O O13 0.745714 0.065482 0.364363
O O14 0.500000 0.172914 0.500000
O O15 0.000000 0.989736 0.000000
#
# Coordination Sequence:
#
# PCOD9126754 Si02
#       7
#     4   4   4   4   4   4   4
#     4  10  22  42  63  99 130 163 221 267 312 405
#     4  11  21  37  63  94 134 177 215 262 315 383
#     4  12  22  42  72  96 129 180 207 268 344 379
#     4  11  22  40  63  92 139 175 218 265 321 389
#     4  10  22  43  64  96 128 170 215 267 323 393
#     4  10  24  50  65  95 136 163 216 291 329 381
#     4  12  20  38  66  91 137 180 212 270 319 379
#
# _framework density 20.533211999999999
#
# number of rings (size 3 to 8) (size 9 to 14) (size 15 to 20)
#    0.857    0.286    7.143    0.857    0.000    1.714 
#    5.143    1.429    0.000    0.000    0.000    0.000 
#    0.000    0.000    0.000    0.000    0.000    0.000 
#
# Total GULP energy -78135.303878 kJ/mol
# GULP energy per Si atom -5581.093134 kJ/mol
# Density = 2.048648 g / cm^3
# Si number density = 20.533212 Si / 1000 Ang^3
#
#
#
# Elastic Constant Matrix: (Units=GPa)
#
#
# Indices 1 2 3 4 5 6 
#
# 1 72.5529 26.2743 9.2467 0.0000 -29.7606 0.0000
# 2 26.2743 126.1058 8.4859 0.0000 -23.6550 0.0000
# 3 9.2467 8.4859 73.8173 0.0000 -29.9961 0.0000
# 4 0.0000 0.0000 0.0000 1.7628 0.0000 -15.6434
# 5 -29.7606 -23.6550 -29.9961 0.0000 34.4446 0.0000
# 6 0.0000 0.0000 0.0000 -15.6434 0.0000 2.2078
#
#
#
# Elastic Compliance Matrix: (Units=1/GPa)
#
#
# Indices 1 2 3 4 5 6 
#
# 1 0.024397 -0.000366 0.008434 0.000000 0.028173 0.000000
# 2 -0.000366 0.009370 0.002252 0.000000 0.008080 0.000000
# 3 0.008434 0.002252 0.024486 0.000000 0.030158 0.000000
# 4 0.000000 0.000000 0.000000 -0.009168 0.000000 -0.064958
# 5 0.028173 0.008080 0.030158 0.000000 0.085186 0.000000
# 6 0.000000 0.000000 0.000000 -0.064958 0.000000 -0.007320
#
#
# Mechanical properties :
#
#
# Convention : Reuss Voigt Hill
#
# Bulk Modulus (GPa) = 12.67526 40.05442 26.36484
# Shear Modulus (GPa) = 37.70485 22.91434 30.30960
#
# Velocity S-wave (km/s) = 4.28984 3.34423 3.84621
# Velocity P-wave (km/s) = 5.54287 5.87038 5.70897
#
# Compressibility (1/GPa) = 0.07889385
#
# Stress axis : x y z
#
# Youngs Moduli (GPa) = 40.98883 106.72125 40.83905
#
# Poissons Ratio (x) = 0.03906 -0.34444
# Poissons Ratio (y) = 0.01500 -0.09197
# Poissons Ratio (z) = -0.34571 -0.24034
#
# Static dielectric constant tensor:
#      x y z
#    x 1.791010 0.000000 0.028750 
#    y 0.000000 1.701590 0.000000 
#    z 0.028750 0.000000 1.776200 
# 
# From -- ./inp_files/50415.got.cif
#   From: 2010.05.17/outbox.cif.g08.bks.cpg/sg5_26_cif.got.tgz:50415.got - 2010.06.03 18:56:24.
