data_PCOD9126105
_publ_section_title
;
Structure prediction by ZEFSAII (Michael W. Deem and Ramdas Pophale) SiO2 
 PCOD9126105
Probable space group: C 2
;
_chemical_formula_sum "Si O2"
_cell_formula_units_Z 22
_cell_length_a 13.216812
_cell_length_b 4.754300
_cell_length_c 16.357363
_cell_angle_alpha 90.000000
_cell_angle_beta 126.494863
_cell_angle_gamma 90.000000
_cell_volume 826.293086
_symmetry_space_group_name_H-M "C 2"
_symmetry_group_IT_number 5
_symmetry_cell_setting 'monoclinic'
loop_
_space_group_symop_operation_xyz
x,y,z
-x,y,-z
1/2+x,1/2+y,z
1/2-x,1/2+y,-z
loop_
_atom_site_type_symbol
_atom_site_label
_atom_site_fract_x
_atom_site_fract_y
_atom_site_fract_z
Si Si1 0.161698 0.392590 0.702914
Si Si2 0.264927 0.273721 0.061205
Si Si3 0.500000 0.575161 0.500000
Si Si4 0.326229 0.892052 0.812436
Si Si5 0.003232 0.115713 0.237156
Si Si6 0.167950 0.813178 0.445521
O O1 0.203752 0.713854 0.722998
O O2 0.062867 0.315426 0.726832
O O3 0.103073 0.274091 0.592108
O O4 0.287560 0.215051 0.784499
O O5 0.167923 0.317601 0.088964
O O6 0.272562 0.954690 0.036134
O O7 0.396756 0.402621 0.154109
O O8 0.564526 0.382591 0.463401
O O9 0.437605 0.792199 0.808352
O O10 0.388232 0.435597 0.665020
O O11 0.290042 0.992377 0.532208
#
# Coordination Sequence:
#
# PCOD9126105 Si02
#       6
#     4   4   2   4   4   4
#     4  10  23  39  62  96 130 168 215 255 306 379
#     4  11  25  46  67  94 126 162 217 269 318 385
#     4  10  22  38  62  92 134 174 208 260 308 358
#     4  11  23  43  66  91 126 166 209 263 322 377
#     4  10  24  43  68  94 131 171 207 263 321 368
#     4  11  24  40  64  99 132 169 216 253 305 383
#
# _framework density 26.624936999999999
#
# number of rings (size 3 to 8) (size 9 to 14) (size 15 to 20)
#    0.000    1.455    0.000    4.364    0.000   16.727 
#    0.000    5.455    0.000    0.000    0.000    0.000 
#    0.000    0.000    0.000    0.000    0.000    0.000 
#
# Total GULP energy -61837.474357 kJ/mol
# GULP energy per Si atom -5621.588578 kJ/mol
# Density = 2.656434 g / cm^3
# Si number density = 26.624937 Si / 1000 Ang^3
#
#
#
# Elastic Constant Matrix: (Units=GPa)
#
#
# Indices 1 2 3 4 5 6 
#
# 1 140.7022 9.3179 28.6871 0.0000 -25.9024 0.0000
# 2 9.3179 91.8647 12.2342 0.0000 1.6640 0.0000
# 3 28.6871 12.2342 82.5829 0.0000 -7.7576 0.0000
# 4 0.0000 0.0000 0.0000 45.9852 0.0000 0.8074
# 5 -25.9024 1.6640 -7.7576 0.0000 51.9863 0.0000
# 6 0.0000 0.0000 0.0000 0.8074 0.0000 41.2310
#
#
#
# Elastic Compliance Matrix: (Units=1/GPa)
#
#
# Indices 1 2 3 4 5 6 
#
# 1 0.008348 -0.000589 -0.002455 0.000000 0.003812 0.000000
# 2 -0.000589 0.011165 -0.001532 0.000000 -0.000879 0.000000
# 3 -0.002455 -0.001532 0.013264 0.000000 0.000805 0.000000
# 4 0.000000 0.000000 0.000000 0.021754 0.000000 -0.000426
# 5 0.003812 -0.000879 0.000805 0.000000 0.021284 0.000000
# 6 0.000000 0.000000 0.000000 -0.000426 0.000000 0.024262
#
#
# Mechanical properties :
#
#
# Convention : Reuss Voigt Hill
#
# Bulk Modulus (GPa) = 42.32506 46.18091 44.25298
# Shear Modulus (GPa) = 42.69698 45.50121 44.09910
#
# Velocity S-wave (km/s) = 4.00890 4.13845 4.07419
# Velocity P-wave (km/s) = 6.11225 6.34180 6.22808
#
# Compressibility (1/GPa) = 0.02362667
#
# Stress axis : x y z
#
# Youngs Moduli (GPa) = 119.78216 89.56337 75.39000
#
# Poissons Ratio (x) = 0.05275 0.18506
# Poissons Ratio (y) = 0.07054 0.11551
# Poissons Ratio (z) = 0.29403 0.13722
#
# Static dielectric constant tensor:
#      x y z
#    x 2.058270 0.000000 0.009260 
#    y 0.000000 1.967690 0.000000 
#    z 0.009260 0.000000 2.083480 
# 
# From -- ./inp_files/59995.got.cif
#   From: 2010.05.17/outbox.cif.g08.bks.cpg/sg5_30_cif.got.tgz:59995.got - 2010.06.03 18:56:24.
