data_PCOD9126857
_publ_section_title
;
Structure prediction by ZEFSAII (Michael W. Deem and Ramdas Pophale) SiO2 
 PCOD9126857
Probable space group: C 2
;
_chemical_formula_sum "Si O2"
_cell_formula_units_Z 18
_cell_length_a 21.898089
_cell_length_b 6.765865
_cell_length_c 8.919234
_cell_angle_alpha 90.000000
_cell_angle_beta 145.825425
_cell_angle_gamma 90.000000
_cell_volume 742.290895
_symmetry_space_group_name_H-M "C 2"
_symmetry_group_IT_number 5
_symmetry_cell_setting 'monoclinic'
loop_
_space_group_symop_operation_xyz
x,y,z
-x,y,-z
1/2+x,1/2+y,z
1/2-x,1/2+y,-z
loop_
_atom_site_type_symbol
_atom_site_label
_atom_site_fract_x
_atom_site_fract_y
_atom_site_fract_z
Si Si1 0.500000 0.053741 0.500000
Si Si2 0.535091 0.383111 0.821262
Si Si3 0.101884 0.223367 0.542408
Si Si4 0.232039 0.469574 0.592347
Si Si5 0.799621 0.904394 0.408878
O O1 0.524214 0.200078 0.685866
O O2 0.594517 0.899953 0.644550
O O3 0.509386 0.595991 0.689699
O O4 0.428616 0.381794 0.710553
O O5 0.652635 0.377839 0.129257
O O6 0.132560 0.338314 0.450239
O O7 0.191998 0.048023 0.718393
O O8 0.234456 0.680377 0.679179
O O9 0.234007 0.488349 0.416835
#
# Coordination Sequence:
#
# PCOD9126857 Si02
#       5
#     2   4   4   4   4
#     4  12  22  50  64  96 146 176 232 272 314 416
#     4  10  25  42  67  97 135 180 220 274 336 386
#     4  10  23  42  66  96 135 177 223 275 321 410
#     4  12  21  45  71  98 136 175 217 285 349 385
#     4  10  22  42  68 104 133 164 228 279 333 408
#
# _framework density 24.249254000000001
#
# number of rings (size 3 to 8) (size 9 to 14) (size 15 to 20)
#    1.333    0.000    4.444    1.333    0.000    1.778 
#    8.000    0.000    0.000    0.000    0.000    0.000 
#    0.000    0.000    0.000    0.000    0.000    0.000 
#
# Total GULP energy -50114.723213 kJ/mol
# GULP energy per Si atom -5568.302579 kJ/mol
# Density = 2.419406 g / cm^3
# Si number density = 24.249254 Si / 1000 Ang^3
#
#
#
# Elastic Constant Matrix: (Units=GPa)
#
#
# Indices 1 2 3 4 5 6 
#
# 1 89.8123 68.8934 8.8628 0.0000 11.9547 0.0000
# 2 68.8934 195.7730 34.3581 0.0000 5.1906 0.0000
# 3 8.8628 34.3581 54.0956 0.0000 6.9351 0.0000
# 4 0.0000 0.0000 0.0000 12.1260 0.0000 13.9770
# 5 11.9547 5.1906 6.9351 0.0000 10.9997 0.0000
# 6 0.0000 0.0000 0.0000 13.9770 0.0000 9.1743
#
#
#
# Elastic Compliance Matrix: (Units=1/GPa)
#
#
# Indices 1 2 3 4 5 6 
#
# 1 0.018391 -0.006602 0.003637 0.000000 -0.019165 0.000000
# 2 -0.006602 0.008121 -0.004901 0.000000 0.006433 0.000000
# 3 0.003637 -0.004901 0.023078 0.000000 -0.016191 0.000000
# 4 0.000000 0.000000 0.000000 -0.109074 0.000000 0.166175
# 5 -0.019165 0.006433 -0.016191 0.000000 0.118913 0.000000
# 6 0.000000 0.000000 0.000000 0.166175 0.000000 -0.144168
#
#
# Mechanical properties :
#
#
# Convention : Reuss Voigt Hill
#
# Bulk Modulus (GPa) = 29.53482 62.65662 46.09572
# Shear Modulus (GPa) = -86.62199 21.63110 -32.49545
#
# Velocity S-wave (km/s) = -5.98323 2.98993 -3.66465
# Velocity P-wave (km/s) = 5.96036 6.14933 1.06965
#
# Compressibility (1/GPa) = 0.03385834
#
# Stress axis : x y z
#
# Youngs Moduli (GPa) = 54.37533 123.14120 43.33066
#
# Poissons Ratio (x) = 0.81297 -0.15760
# Poissons Ratio (y) = 0.35898 0.21236
# Poissons Ratio (z) = -0.19777 0.60350
#
# Static dielectric constant tensor:
#      x y z
#    x 2.066320 0.000000 -0.043370 
#    y 0.000000 1.983140 0.000000 
#    z -0.043370 0.000000 1.901220 
# 
# From -- ./inp_files/47792.got.cif
#   From: 2010.05.17/outbox.cif.g08.bks.cpg/sg5_24_cif.got.tgz:47792.got - 2010.06.03 18:56:24.
