data_PCOD9126212
_publ_section_title
;
Structure prediction by ZEFSAII (Michael W. Deem and Ramdas Pophale) SiO2 
 PCOD9126212
Probable space group: C 2
;
_chemical_formula_sum "Si O2"
_cell_formula_units_Z 26
_cell_length_a 9.655281
_cell_length_b 14.797150
_cell_length_c 16.917786
_cell_angle_alpha 90.000000
_cell_angle_beta 151.467512
_cell_angle_gamma 90.000000
_cell_volume 1154.523191
_symmetry_space_group_name_H-M "C 2"
_symmetry_group_IT_number 5
_symmetry_cell_setting 'monoclinic'
loop_
_space_group_symop_operation_xyz
x,y,z
-x,y,-z
1/2+x,1/2+y,z
1/2-x,1/2+y,-z
loop_
_atom_site_type_symbol
_atom_site_label
_atom_site_fract_x
_atom_site_fract_y
_atom_site_fract_z
Si Si1 0.911841 0.286970 0.541914
Si Si2 0.212395 0.843239 0.756900
Si Si3 0.500000 0.446381 0.500000
Si Si4 0.198176 0.161358 0.378578
Si Si5 0.000000 0.483201 0.000000
Si Si6 0.500000 0.702971 0.000000
Si Si7 0.475034 0.997783 0.616886
Si Si8 0.110161 0.083011 0.925054
O O1 0.566659 0.283815 0.367078
O O2 0.980792 0.221682 0.649250
O O3 0.984796 0.392878 0.592988
O O4 0.000000 0.256314 0.500000
O O5 0.172456 0.886919 0.651691
O O6 0.239489 0.923502 0.833925
O O7 0.454882 0.773471 0.905249
O O8 0.755069 0.497561 0.581028
O O9 0.500000 0.205568 0.500000
O O10 0.004908 0.143707 0.205535
O O11 0.314377 0.068288 0.477099
O O12 0.130001 0.531134 0.987922
O O13 0.298750 0.633326 0.948704
O O14 0.810073 0.028343 0.794671
#
# Coordination Sequence:
#
# PCOD9126212 Si02
#       8
#     4   4   2   4   2   2   4   4
#     4  11  22  38  69 100 130 165 226 283 330 386
#     4  10  23  43  65  93 128 177 215 275 334 390
#     4  10  22  38  78  98 122 166 238 272 332 390
#     4  10  22  41  64  97 137 171 215 282 338 387
#     4  11  24  44  68  87 138 176 222 255 338 405
#     4  11  26  42  66  89 144 172 220 269 336 395
#     4  10  22  40  69  97 137 169 224 276 334 387
#     4  11  24  43  63  95 135 181 213 269 334 399
#
# _framework density 22.520119999999999
#
# number of rings (size 3 to 8) (size 9 to 14) (size 15 to 20)
#    0.000    1.538    0.000    6.000   11.846    1.231 
#    0.000    0.000    0.000    0.000    0.000    0.000 
#    0.000    0.000    0.000    0.000    0.000    0.000 
#
# Total GULP energy -72378.184934 kJ/mol
# GULP energy per Si atom -5567.552687 kJ/mol
# Density = 2.246886 g / cm^3
# Si number density = 22.520120 Si / 1000 Ang^3
#
#
#
# Elastic Constant Matrix: (Units=GPa)
#
#
# Indices 1 2 3 4 5 6 
#
# 1 165.4353 41.1810 5.5991 0.0038 -22.5795 -0.0005
# 2 41.1810 82.3141 12.6507 0.0028 -17.6871 -0.0021
# 3 5.5991 12.6507 31.4417 0.0098 -16.0816 0.0052
# 4 0.0038 0.0028 0.0098 8.0519 0.0053 -13.6752
# 5 -22.5795 -17.6871 -16.0816 0.0053 30.2042 0.0038
# 6 -0.0005 -0.0021 0.0052 -13.6752 0.0038 15.4425
#
#
#
# Elastic Compliance Matrix: (Units=1/GPa)
#
#
# Indices 1 2 3 4 5 6 
#
# 1 0.007402 -0.002988 0.002500 0.000025 0.005115 0.000020
# 2 -0.002988 0.015193 -0.002986 0.000001 0.005073 0.000003
# 3 0.002500 -0.002986 0.044831 0.000212 0.023990 0.000166
# 4 0.000025 0.000001 0.000212 -0.246407 0.000203 -0.218208
# 5 0.005115 0.005073 0.023990 0.000203 0.052675 0.000160
# 6 0.000020 0.000003 0.000166 -0.218208 0.000160 -0.128480
#
#
# Mechanical properties :
#
#
# Convention : Reuss Voigt Hill
#
# Bulk Modulus (GPa) = 16.53509 44.22806 30.38158
# Shear Modulus (GPa) = -21.96074 25.39042 1.71484
#
# Velocity S-wave (km/s) = -3.12614 3.36140 0.87357
# Velocity P-wave (km/s) = 2.38161 5.89469 3.81283
#
# Compressibility (1/GPa) = 0.06047744
#
# Stress axis : x y z
#
# Youngs Moduli (GPa) = 135.09834 65.82176 22.30581
#
# Poissons Ratio (x) = 0.19670 -0.05577
# Poissons Ratio (y) = 0.40373 0.06661
# Poissons Ratio (z) = -0.33779 0.19655
#
# Static dielectric constant tensor:
#      x y z
#    x 1.911180 0.000000 -0.032350 
#    y 0.000000 1.927600 0.000000 
#    z -0.032350 0.000000 1.805880 
# 
# From -- ./inp_files/51053.got.cif
#   From: 2010.05.17/outbox.cif.g08.bks.cpg/sg5_26_cif.got.tgz:51053.got - 2010.06.03 18:56:24.
