data_PCOD9126813
_publ_section_title
;
Structure prediction by ZEFSAII (Michael W. Deem and Ramdas Pophale) SiO2 
 PCOD9126813
Probable space group: C 2
;
_chemical_formula_sum "Si O2"
_cell_formula_units_Z 26
_cell_length_a 7.972446
_cell_length_b 16.204960
_cell_length_c 12.402627
_cell_angle_alpha 90.000000
_cell_angle_beta 49.057409
_cell_angle_gamma 90.000000
_cell_volume 1210.350030
_symmetry_space_group_name_H-M "C 2"
_symmetry_group_IT_number 5
_symmetry_cell_setting 'monoclinic'
loop_
_space_group_symop_operation_xyz
x,y,z
-x,y,-z
1/2+x,1/2+y,z
1/2-x,1/2+y,-z
loop_
_atom_site_type_symbol
_atom_site_label
_atom_site_fract_x
_atom_site_fract_y
_atom_site_fract_z
Si Si1 0.261172 0.204130 0.911752
Si Si2 0.849719 0.966143 0.277695
Si Si3 0.219040 0.377039 0.981796
Si Si4 0.408374 0.243321 0.425987
Si Si5 0.868962 0.527274 0.825844
Si Si6 0.210363 0.068635 0.483321
Si Si7 0.000000 0.345398 0.500000
O O1 0.277841 0.282183 0.985779
O O2 0.402689 0.233584 0.746312
O O3 0.347600 0.112317 0.902495
O O4 0.000000 0.195339 0.000000
O O5 0.639410 0.904743 0.362687
O O6 0.072510 0.915258 0.168707
O O7 0.808092 0.029848 0.197959
O O8 0.848229 0.010118 0.393078
O O9 0.175579 0.442978 0.093253
O O10 0.000000 0.374609 0.000000
O O11 0.500000 0.278261 0.500000
O O12 0.321811 0.150805 0.482952
O O13 0.193717 0.293071 0.474964
O O14 0.110652 0.528153 0.671207
O O15 0.000000 0.091070 0.500000
#
# Coordination Sequence:
#
# PCOD9126813 Si02
#       7
#     4   4   4   4   4   4   2
#     4  10  22  42  66  95 131 175 231 274 342 415
#     4  12  23  44  66 100 139 176 230 283 346 416
#     4  11  24  42  65  95 134 177 231 288 338 410
#     4  11  24  44  71 100 138 182 229 289 346 413
#     4  11  23  43  67  95 134 184 223 286 347 405
#     4  11  22  41  72 102 135 181 229 284 349 414
#     4  12  24  42  64 104 138 174 228 288 332 424
#
# _framework density 21.481390000000001
#
# number of rings (size 3 to 8) (size 9 to 14) (size 15 to 20)
#    0.000    0.923    3.846    4.154    0.000    3.077 
#    0.000    1.538    0.000    0.000    0.000    0.000 
#    0.000    0.000    0.000    0.000    0.000    0.000 
#
# Total GULP energy -72627.450546 kJ/mol
# GULP energy per Si atom -5586.726965 kJ/mol
# Density = 2.143250 g / cm^3
# Si number density = 21.481390 Si / 1000 Ang^3
#
#
#
# Elastic Constant Matrix: (Units=GPa)
#
#
# Indices 1 2 3 4 5 6 
#
# 1 96.0087 27.6719 35.3245 0.0000 -14.8138 0.0000
# 2 27.6719 116.0655 37.3233 0.0000 14.7845 0.0000
# 3 35.3245 37.3233 54.0588 0.0000 -16.8322 0.0000
# 4 0.0000 0.0000 0.0000 32.6479 0.0000 -10.8497
# 5 -14.8138 14.7845 -16.8322 0.0000 31.7429 0.0000
# 6 0.0000 0.0000 0.0000 -10.8497 0.0000 9.4271
#
#
#
# Elastic Compliance Matrix: (Units=1/GPa)
#
#
# Indices 1 2 3 4 5 6 
#
# 1 0.013968 -0.001546 -0.006954 0.000000 0.003551 0.000000
# 2 -0.001546 0.015799 -0.014869 0.000000 -0.015965 0.000000
# 3 -0.006954 -0.014869 0.041267 0.000000 0.025563 0.000000
# 4 0.000000 0.000000 0.000000 0.049601 0.000000 0.057086
# 5 0.003551 -0.015965 0.025563 0.000000 0.054151 0.000000
# 6 0.000000 0.000000 0.000000 0.057086 0.000000 0.171777
#
#
# Mechanical properties :
#
#
# Convention : Reuss Voigt Hill
#
# Bulk Modulus (GPa) = 41.15740 51.86358 46.51049
# Shear Modulus (GPa) = 12.45637 25.81781 19.13709
#
# Velocity S-wave (km/s) = 2.41066 3.47056 2.98798
# Velocity P-wave (km/s) = 5.19129 6.34473 5.79677
#
# Compressibility (1/GPa) = 0.02429697
#
# Stress axis : x y z
#
# Youngs Moduli (GPa) = 71.59263 63.29325 24.23222
#
# Poissons Ratio (x) = 0.09788 0.16850
# Poissons Ratio (y) = 0.11071 0.36030
# Poissons Ratio (z) = 0.49784 0.94109
#
# Static dielectric constant tensor:
#      x y z
#    x 1.800410 0.000000 0.023890 
#    y 0.000000 1.836820 0.000000 
#    z 0.023890 0.000000 1.796640 
# 
# From -- ./inp_files/51071.got.cif
#   From: 2010.05.17/outbox.cif.g08.bks.cpg/sg5_26_cif.got.tgz:51071.got - 2010.06.03 18:56:24.
