data_PCOD9126588
_publ_section_title
;
Structure prediction by ZEFSAII (Michael W. Deem and Ramdas Pophale) SiO2 
 PCOD9126588
Probable space group: C 2
;
_chemical_formula_sum "Si O2"
_cell_formula_units_Z 30
_cell_length_a 9.926083
_cell_length_b 28.032401
_cell_length_c 13.040265
_cell_angle_alpha 90.000000
_cell_angle_beta 25.852648
_cell_angle_gamma 90.000000
_cell_volume 1582.228035
_symmetry_space_group_name_H-M "C 2"
_symmetry_group_IT_number 5
_symmetry_cell_setting 'monoclinic'
loop_
_space_group_symop_operation_xyz
x,y,z
-x,y,-z
1/2+x,1/2+y,z
1/2-x,1/2+y,-z
loop_
_atom_site_type_symbol
_atom_site_label
_atom_site_fract_x
_atom_site_fract_y
_atom_site_fract_z
Si Si1 0.847711 0.026980 0.796667
Si Si2 0.763402 0.061941 0.080293
Si Si3 0.608331 0.201958 0.534167
Si Si4 0.136057 0.365886 0.286577
Si Si5 0.844700 0.119887 0.507328
Si Si6 0.000000 0.259467 0.000000
Si Si7 0.554001 0.975051 0.583674
Si Si8 0.337078 0.802713 0.314184
O O1 0.956821 0.073227 0.658256
O O2 0.500000 0.014879 0.000000
O O3 0.881030 0.044517 0.890706
O O4 0.092104 0.983843 0.623226
O O5 0.494552 0.099117 0.241930
O O6 0.631266 0.015017 0.227138
O O7 0.000000 0.083487 0.000000
O O8 0.500000 0.181350 0.500000
O O9 0.800367 0.161399 0.456957
O O10 0.297543 0.224750 0.795184
O O11 0.808235 0.249056 0.377127
O O12 0.000000 0.356443 0.500000
O O13 0.063575 0.421755 0.318630
O O14 0.950509 0.335680 0.328305
O O15 0.500000 0.358566 0.000000
O O16 0.000000 0.141656 0.500000
O O17 0.969260 0.293922 0.922194
O O18 0.500000 0.984656 0.500000
O O19 0.000000 0.816704 0.500000
#
# Coordination Sequence:
#
# PCOD9126588 Si02
#       8
#     4   4   4   4   4   2   4   4
#     4  11  23  42  60  86 130 168 212 269 329 382
#     4  11  22  37  64  85 119 171 212 256 323 393
#     4   9  21  38  62  89 124 167 221 263 321 400
#     4  11  26  44  71 103 139 171 223 280 335 399
#     4  11  24  38  55  93 130 161 214 274 328 384
#     4   8  18  40  68  86 128 168 220 266 322 408
#     4  10  22  41  64  92 124 166 216 267 319 394
#     4   9  21  44  67  95 129 171 219 269 334 403
#
# _framework density 18.960604
#
# number of rings (size 3 to 8) (size 9 to 14) (size 15 to 20)
#    0.000    2.133    2.667    0.400    8.400    1.600 
#    2.400    0.000    0.000    0.000    0.000    0.000 
#    0.000    0.000    0.000    0.000    0.000    0.000 
#
# Total GULP energy -83503.990090 kJ/mol
# GULP energy per Si atom -5566.932673 kJ/mol
# Density = 1.891745 g / cm^3
# Si number density = 18.960604 Si / 1000 Ang^3
#
#
#
# Elastic Constant Matrix: (Units=GPa)
#
#
# Indices 1 2 3 4 5 6 
#
# 1 130.5892 51.6668 37.1538 -0.0002 -13.3935 0.0002
# 2 51.6668 57.8700 8.2015 -0.0001 -5.2314 0.0001
# 3 37.1538 8.2015 64.4839 -0.0009 -2.5523 0.0008
# 4 -0.0002 -0.0001 -0.0009 -3.0904 0.0003 -1.8108
# 5 -13.3935 -5.2314 -2.5523 0.0003 30.4802 -0.0002
# 6 0.0002 0.0001 0.0008 -1.8108 -0.0002 45.9389
#
#
#
# Elastic Compliance Matrix: (Units=1/GPa)
#
#
# Indices 1 2 3 4 5 6 
#
# 1 0.014633 -0.011755 -0.006784 0.000002 0.003844 0.000000
# 2 -0.011755 0.027290 0.003294 -0.000001 -0.000206 0.000000
# 3 -0.006784 0.003294 0.018965 -0.000005 -0.000828 -0.000001
# 4 0.000002 -0.000001 -0.000005 -0.316278 0.000003 -0.012467
# 5 0.003844 -0.000206 -0.000828 0.000003 0.034393 0.000000
# 6 0.000000 0.000000 -0.000001 -0.012467 0.000000 0.021277
#
#
# Mechanical properties :
#
#
# Convention : Reuss Voigt Hill
#
# Bulk Modulus (GPa) = 32.89770 49.66527 41.28149
# Shear Modulus (GPa) = -31.42712 25.06048 -3.18332
#
# Velocity S-wave (km/s) = -4.07565 3.63948 -1.29713
# Velocity P-wave (km/s) = 2.18167 6.62660 4.42449
#
# Compressibility (1/GPa) = 0.03039726
#
# Stress axis : x y z
#
# Youngs Moduli (GPa) = 68.33927 36.64350 52.72968
#
# Poissons Ratio (x) = 0.43076 0.35771
# Poissons Ratio (y) = 0.80336 -0.17369
# Poissons Ratio (z) = 0.46360 -0.12071
#
# Static dielectric constant tensor:
#      x y z
#    x 1.529110 0.000000 -0.016650 
#    y 0.000000 1.623770 0.000000 
#    z -0.016650 0.000000 1.734070 
# 
# From -- ./inp_files/3921.got.cif
#   From: 2010.05.17/outbox.cif.g08.bks.cpg/sg5_2_cif.got.tgz:3921.got - 2010.06.03 18:56:24.
