data_PCOD9126720
_publ_section_title
;
Structure prediction by ZEFSAII (Michael W. Deem and Ramdas Pophale) SiO2 
 PCOD9126720
Probable space group: C 2
;
_chemical_formula_sum "Si O2"
_cell_formula_units_Z 28
_cell_length_a 10.588988
_cell_length_b 8.958909
_cell_length_c 22.097754
_cell_angle_alpha 90.000000
_cell_angle_beta 135.997173
_cell_angle_gamma 90.000000
_cell_volume 1456.301101
_symmetry_space_group_name_H-M "C 2"
_symmetry_group_IT_number 5
_symmetry_cell_setting 'monoclinic'
loop_
_space_group_symop_operation_xyz
x,y,z
-x,y,-z
1/2+x,1/2+y,z
1/2-x,1/2+y,-z
loop_
_atom_site_type_symbol
_atom_site_label
_atom_site_fract_x
_atom_site_fract_y
_atom_site_fract_z
Si Si1 0.709861 0.251120 0.877616
Si Si2 0.544617 0.811974 0.698839
Si Si3 0.924227 0.749466 0.878260
Si Si4 0.838328 0.670158 0.397434
Si Si5 0.160223 0.311588 0.601786
Si Si6 0.500000 0.501694 0.000000
Si Si7 0.500000 0.001501 0.000000
Si Si8 0.543808 0.171015 0.698308
O O1 0.517944 0.253725 0.845353
O O2 0.825567 0.395113 0.935989
O O3 0.678552 0.237958 0.795256
O O4 0.825649 0.109011 0.939818
O O5 0.707319 0.749442 0.796457
O O6 0.349145 0.748713 0.649301
O O7 0.594982 0.773073 0.646936
O O8 0.546077 0.991523 0.704724
O O9 0.995134 0.608386 0.940260
O O10 0.985135 0.894685 0.936964
O O11 0.811320 0.490859 0.390376
O O12 0.897833 0.710074 0.349724
O O13 0.000000 0.707961 0.500000
O O14 0.344015 0.231198 0.644940
O O15 0.000000 0.273940 0.500000
#
# Coordination Sequence:
#
# PCOD9126720 Si02
#       8
#     4   4   4   4   4   2   2   4
#     4  11  22  42  62  90 123 160 209 252 306 364
#     4  11  23  39  64  93 127 162 205 257 306 369
#     4  11  22  41  61  91 123 160 207 251 311 362
#     4  10  24  43  63  93 128 164 205 253 310 368
#     4  10  22  42  65  90 123 162 204 257 311 367
#     4  10  22  42  60  86 126 160 194 264 306 366
#     4  10  26  38  62  92 118 166 206 250 312 366
#     4  11  23  39  64  94 124 163 206 255 307 366
#
# _framework density 19.226794999999999
#
# number of rings (size 3 to 8) (size 9 to 14) (size 15 to 20)
#    0.000    1.429    2.857    1.714    2.000    2.857 
#   10.286    0.000    0.000    0.000    0.000    0.000 
#    0.000    0.000    0.000    0.000    0.000    0.000 
#
# Total GULP energy -78244.045712 kJ/mol
# GULP energy per Si atom -5588.860408 kJ/mol
# Density = 1.918303 g / cm^3
# Si number density = 19.226795 Si / 1000 Ang^3
#
#
#
# Elastic Constant Matrix: (Units=GPa)
#
#
# Indices 1 2 3 4 5 6 
#
# 1 139.3851 44.6675 70.7652 0.0000 2.4475 0.0000
# 2 44.6675 72.7763 50.0210 0.0000 0.2251 0.0000
# 3 70.7652 50.0210 156.0106 0.0000 -1.4482 0.0000
# 4 0.0000 0.0000 0.0000 18.2715 0.0000 3.8402
# 5 2.4475 0.2251 -1.4482 0.0000 37.7649 0.0000
# 6 0.0000 0.0000 0.0000 3.8402 0.0000 19.0266
#
#
#
# Elastic Compliance Matrix: (Units=1/GPa)
#
#
# Indices 1 2 3 4 5 6 
#
# 1 0.010146 -0.003921 -0.003352 0.000000 -0.000763 0.000000
# 2 -0.003921 0.019144 -0.004360 0.000000 -0.000027 0.000000
# 3 -0.003352 -0.004360 0.009334 0.000000 0.000601 0.000000
# 4 0.000000 0.000000 0.000000 0.057155 0.000000 -0.011536
# 5 -0.000763 -0.000027 0.000601 0.000000 0.026552 0.000000
# 6 0.000000 0.000000 0.000000 -0.011536 0.000000 0.054886
#
#
# Mechanical properties :
#
#
# Convention : Reuss Voigt Hill
#
# Bulk Modulus (GPa) = 65.11221 77.67547 71.39384
# Shear Modulus (GPa) = 24.31882 28.52716 26.42299
#
# Velocity S-wave (km/s) = 3.56032 3.85609 3.71115
# Velocity P-wave (km/s) = 7.13022 7.76616 7.45497
#
# Compressibility (1/GPa) = 0.01535810
#
# Stress axis : x y z
#
# Youngs Moduli (GPa) = 98.55967 52.23584 107.13808
#
# Poissons Ratio (x) = 0.20482 0.35914
# Poissons Ratio (y) = 0.38645 0.46710
# Poissons Ratio (z) = 0.33038 0.22774
#
# Static dielectric constant tensor:
#      x y z
#    x 1.638820 0.000000 -0.011890 
#    y 0.000000 1.649500 0.000000 
#    z -0.011890 0.000000 1.655350 
# 
# From -- ./inp_files/52141.got.cif
#   From: 2010.05.17/outbox.cif.g08.bks.cpg/sg5_27_cif.got.tgz:52141.got - 2010.06.03 18:56:24.
