data_PCOD9126346
_publ_section_title
;
Structure prediction by ZEFSAII (Michael W. Deem and Ramdas Pophale) SiO2 
 PCOD9126346
Probable space group: C 2
;
_chemical_formula_sum "Si O2"
_cell_formula_units_Z 30
_cell_length_a 15.230877
_cell_length_b 5.309450
_cell_length_c 16.539100
_cell_angle_alpha 90.000000
_cell_angle_beta 65.632797
_cell_angle_gamma 90.000000
_cell_volume 1218.334512
_symmetry_space_group_name_H-M "C 2"
_symmetry_group_IT_number 5
_symmetry_cell_setting 'monoclinic'
loop_
_space_group_symop_operation_xyz
x,y,z
-x,y,-z
1/2+x,1/2+y,z
1/2-x,1/2+y,-z
loop_
_atom_site_type_symbol
_atom_site_label
_atom_site_fract_x
_atom_site_fract_y
_atom_site_fract_z
Si Si1 0.973872 0.424900 0.787190
Si Si2 0.972488 0.922397 0.876841
Si Si3 0.034427 0.647990 0.376917
Si Si4 0.500000 0.733903 0.500000
Si Si5 0.704747 0.424966 0.789940
Si Si6 0.786320 0.008239 0.029689
Si Si7 0.135233 0.883850 0.485289
Si Si8 0.704127 0.918871 0.689959
O O1 0.938153 0.578512 0.722721
O O2 0.089021 0.413478 0.729999
O O3 0.953259 0.627710 0.865198
O O4 0.945536 0.137767 0.819323
O O5 0.902306 0.996328 0.976227
O O6 0.087574 0.938306 0.841129
O O7 0.919291 0.696652 0.433732
O O8 0.063193 0.409412 0.418053
O O9 0.080911 0.864991 0.416176
O O10 0.583486 0.637929 0.530181
O O11 0.734627 0.670931 0.728296
O O12 0.729346 0.171741 0.730882
O O13 0.741699 0.441398 0.867835
O O14 0.746702 0.785206 0.986601
O O15 0.243615 0.897084 0.416978
#
# Coordination Sequence:
#
# PCOD9126346 Si02
#       8
#     4   4   4   2   4   4   4   4
#     4  10  22  40  61  91 118 157 208 249 296 360
#     4  10  23  43  64  85 125 165 197 242 309 373
#     4   9  20  36  56  83 118 159 202 245 305 361
#     4   8  18  36  52  78 112 160 196 232 306 360
#     4  10  23  43  64  85 125 165 197 242 309 373
#     4  12  25  42  63 100 124 152 206 256 301 358
#     4   9  20  36  56  83 118 159 202 245 305 361
#     4  10  22  40  61  91 118 157 208 249 296 360
#
# _framework density 24.623778999999999
#
# number of rings (size 3 to 8) (size 9 to 14) (size 15 to 20)
#    0.000    2.400    0.000    2.000    7.467    3.200 
#    2.400    5.333    0.000    0.000    0.000    0.000 
#    0.000    0.000    0.000    0.000    0.000    0.000 
#
# Total GULP energy -83553.568938 kJ/mol
# GULP energy per Si atom -5570.237929 kJ/mol
# Density = 2.456773 g / cm^3
# Si number density = 24.623779 Si / 1000 Ang^3
#
#
#
# Elastic Constant Matrix: (Units=GPa)
#
#
# Indices 1 2 3 4 5 6 
#
# 1 49.7235 5.2840 6.3900 0.0000 -13.7170 -0.0002
# 2 5.2840 130.1509 5.6246 -0.0017 -3.1440 0.0020
# 3 6.3900 5.6246 71.9164 0.0006 -28.3570 -0.0002
# 4 0.0000 -0.0017 0.0006 18.4785 0.0002 -10.0258
# 5 -13.7170 -3.1440 -28.3570 0.0002 39.1980 -0.0007
# 6 -0.0002 0.0020 -0.0002 -10.0258 -0.0007 21.4707
#
#
#
# Elastic Compliance Matrix: (Units=1/GPa)
#
#
# Indices 1 2 3 4 5 6 
#
# 1 0.022457 -0.000764 0.001593 0.000000 0.008950 0.000001
# 2 -0.000764 0.007737 -0.000557 0.000000 -0.000050 -0.000001
# 3 0.001593 -0.000557 0.019600 -0.000001 0.014692 0.000001
# 4 0.000000 0.000000 -0.000001 0.072480 0.000000 0.033845
# 5 0.008950 -0.000050 0.014692 0.000000 0.039268 0.000002
# 6 0.000001 -0.000001 0.000001 0.033845 0.000002 0.062379
#
#
# Mechanical properties :
#
#
# Convention : Reuss Voigt Hill
#
# Bulk Modulus (GPa) = 19.86545 31.82088 25.84317
# Shear Modulus (GPa) = 20.81975 31.46227 26.14101
#
# Velocity S-wave (km/s) = 2.91093 3.57840 3.26178
# Velocity P-wave (km/s) = 4.40262 5.47943 4.97027
#
# Compressibility (1/GPa) = 0.05033864
#
# Stress axis : x y z
#
# Youngs Moduli (GPa) = 44.53029 129.24426 51.01978
#
# Poissons Ratio (x) = 0.09879 -0.08130
# Poissons Ratio (y) = 0.03404 0.02841
# Poissons Ratio (z) = -0.07096 0.07197
#
# Static dielectric constant tensor:
#      x y z
#    x 2.210180 0.000000 0.010470 
#    y 0.000000 2.018520 0.000000 
#    z 0.010470 0.000000 2.042900 
# 
# From -- ./inp_files/62048.got.cif
#   From: 2010.05.17/outbox.cif.g08.bks.cpg/sg5_32_cif.got.tgz:62048.got - 2010.06.03 18:56:24.
