data_PCOD9126631
_publ_section_title
;
Structure prediction by ZEFSAII (Michael W. Deem and Ramdas Pophale) SiO2 
 PCOD9126631
Probable space group: C 2
;
_chemical_formula_sum "Si O2"
_cell_formula_units_Z 22
_cell_length_a 8.471160
_cell_length_b 24.345244
_cell_length_c 7.649943
_cell_angle_alpha 90.000000
_cell_angle_beta 142.256658
_cell_angle_gamma 90.000000
_cell_volume 965.729755
_symmetry_space_group_name_H-M "C 2"
_symmetry_group_IT_number 5
_symmetry_cell_setting 'monoclinic'
loop_
_space_group_symop_operation_xyz
x,y,z
-x,y,-z
1/2+x,1/2+y,z
1/2-x,1/2+y,-z
loop_
_atom_site_type_symbol
_atom_site_label
_atom_site_fract_x
_atom_site_fract_y
_atom_site_fract_z
Si Si1 0.560475 0.745730 0.856542
Si Si2 0.000000 0.027397 0.000000
Si Si3 0.924177 0.360415 0.631119
Si Si4 0.000000 0.880317 0.500000
Si Si5 0.838700 0.464675 0.010699
Si Si6 0.500000 0.100671 0.500000
Si Si7 0.422731 0.185452 0.744266
O O1 0.562930 0.811642 0.855757
O O2 0.347476 0.716289 0.542701
O O3 0.500000 0.726403 0.000000
O O4 0.849277 0.729326 0.067509
O O5 0.128092 0.993940 0.949539
O O6 0.757060 0.063790 0.727641
O O7 0.640397 0.351058 0.462273
O O8 0.000000 0.348396 0.500000
O O9 0.989102 0.424879 0.715601
O O10 0.798979 0.919629 0.229381
O O11 0.000000 0.497447 0.000000
O O12 0.473875 0.139404 0.644633
O O13 0.500000 0.159902 0.000000
#
# Coordination Sequence:
#
# PCOD9126631 Si02
#       7
#     4   2   4   2   4   2   4
#     4  12  24  45  75 109 151 197 242 299 377 447
#     4  12  28  48  80 104 142 202 244 314 380 434
#     4  11  24  40  67 108 147 197 241 290 363 457
#     4  10  22  41  66  96 150 192 233 304 358 420
#     4  10  24  44  69 103 149 188 244 305 362 442
#     4  12  28  51  76 110 144 194 259 314 386 424
#     4  12  26  50  76 107 149 190 247 321 371 445
#
# _framework density 22.7807
#
# number of rings (size 3 to 8) (size 9 to 14) (size 15 to 20)
#    0.000    0.727    1.818    5.455   11.455    0.727 
#    1.636    0.000    0.000    0.000    0.000    0.000 
#    0.000    0.000    0.000    0.000    0.000    0.000 
#
# Total GULP energy -61310.899152 kJ/mol
# GULP energy per Si atom -5573.718105 kJ/mol
# Density = 2.272885 g / cm^3
# Si number density = 22.780700 Si / 1000 Ang^3
#
#
#
# Elastic Constant Matrix: (Units=GPa)
#
#
# Indices 1 2 3 4 5 6 
#
# 1 200.0453 52.5037 56.6359 0.0000 -5.4223 0.0000
# 2 52.5037 86.5756 32.9754 0.0000 10.5972 0.0000
# 3 56.6359 32.9754 115.0981 0.0000 8.2206 0.0000
# 4 0.0000 0.0000 0.0000 22.0665 0.0000 27.1749
# 5 -5.4223 10.5972 8.2206 0.0000 52.1781 0.0000
# 6 0.0000 0.0000 0.0000 27.1749 0.0000 -2.4524
#
#
#
# Elastic Compliance Matrix: (Units=1/GPa)
#
#
# Indices 1 2 3 4 5 6 
#
# 1 0.006596 -0.003288 -0.002428 0.000000 0.001736 0.000000
# 2 -0.003288 0.014830 -0.002418 0.000000 -0.002973 0.000000
# 3 -0.002428 -0.002418 0.010679 0.000000 -0.001444 0.000000
# 4 0.000000 0.000000 0.000000 0.003094 0.000000 0.034286
# 5 0.001736 -0.002973 -0.001444 0.000000 0.020177 0.000000
# 6 0.000000 0.000000 0.000000 0.034286 0.000000 -0.027841
#
#
# Mechanical properties :
#
#
# Convention : Reuss Voigt Hill
#
# Bulk Modulus (GPa) = 63.14615 76.21654 69.68135
# Shear Modulus (GPa) = 101.87102 31.66537 66.76820
#
# Velocity S-wave (km/s) = 6.69442 3.73233 5.41966
# Velocity P-wave (km/s) = 9.35590 7.21824 8.35571
#
# Compressibility (1/GPa) = 0.01583628
#
# Stress axis : x y z
#
# Youngs Moduli (GPa) = 151.60192 67.43253 93.64338
#
# Poissons Ratio (x) = 0.22172 0.22734
# Poissons Ratio (y) = 0.49848 0.22647
# Poissons Ratio (z) = 0.36805 0.16308
#
# Static dielectric constant tensor:
#      x y z
#    x 2.015400 0.000000 -0.049070 
#    y 0.000000 1.827760 0.000000 
#    z -0.049070 0.000000 1.980590 
# 
# From -- ./inp_files/16950.got.cif
#   From: 2010.05.17/outbox.cif.g08.bks.cpg/sg5_9_cif.got.tgz:16950.got - 2010.06.03 18:56:24.
