data_PCOD9126400
_publ_section_title
;
Structure prediction by ZEFSAII (Michael W. Deem and Ramdas Pophale) SiO2 
 PCOD9126400
Probable space group: C 2
;
_chemical_formula_sum "Si O2"
_cell_formula_units_Z 30
_cell_length_a 8.242345
_cell_length_b 12.262120
_cell_length_c 16.136803
_cell_angle_alpha 90.000000
_cell_angle_beta 53.558079
_cell_angle_gamma 90.000000
_cell_volume 1312.012520
_symmetry_space_group_name_H-M "C 2"
_symmetry_group_IT_number 5
_symmetry_cell_setting 'monoclinic'
loop_
_space_group_symop_operation_xyz
x,y,z
-x,y,-z
1/2+x,1/2+y,z
1/2-x,1/2+y,-z
loop_
_atom_site_type_symbol
_atom_site_label
_atom_site_fract_x
_atom_site_fract_y
_atom_site_fract_z
Si Si1 0.682403 0.620950 0.581034
Si Si2 0.806485 0.163726 0.797047
Si Si3 0.762258 0.515780 0.042188
Si Si4 0.129297 0.327960 0.083770
Si Si5 0.039746 0.908069 0.393753
Si Si6 0.018978 0.672497 0.361295
Si Si7 0.551104 0.031065 0.763916
Si Si8 0.500000 0.662347 0.000000
O O1 0.484640 0.682256 0.677029
O O2 0.626101 0.494889 0.584360
O O3 0.788055 0.662421 0.464867
O O4 0.839548 0.637419 0.606570
O O5 0.770410 0.257318 0.874749
O O6 0.613537 0.130402 0.803927
O O7 0.855668 0.058795 0.840907
O O8 0.736292 0.389176 0.025921
O O9 0.671768 0.586005 0.991298
O O10 0.000000 0.529293 0.000000
O O11 0.039410 0.432580 0.156864
O O12 0.972661 0.247913 0.084709
O O13 0.055214 0.800032 0.334026
O O14 0.000000 0.870554 0.500000
O O15 0.243793 0.977498 0.332424
O O16 0.064800 0.587706 0.274977
#
# Coordination Sequence:
#
# PCOD9126400 Si02
#       8
#     4   4   4   4   4   4   4   2
#     4  10  22  40  64  95 129 165 225 266 316 397
#     4  10  23  41  66  97 129 168 220 270 324 397
#     4  11  22  46  68 101 134 173 226 276 338 407
#     4  11  22  43  70  93 134 176 214 278 340 385
#     4  11  21  39  62  88 124 175 208 263 335 369
#     4  11  23  40  65  95 131 173 214 267 323 391
#     4  11  23  40  65  95 131 169 219 268 317 401
#     4  10  24  44  72  98 134 178 214 286 338 392
#
# _framework density 22.865635000000001
#
# number of rings (size 3 to 8) (size 9 to 14) (size 15 to 20)
#    0.000    1.333    4.667    0.800    0.000    4.267 
#    4.800    8.000    2.933    0.000    0.000    0.000 
#    0.000    0.000    0.000    0.000    0.000    0.000 
#
# Total GULP energy -83631.912297 kJ/mol
# GULP energy per Si atom -5575.460820 kJ/mol
# Density = 2.281359 g / cm^3
# Si number density = 22.865635 Si / 1000 Ang^3
#
#
#
# Elastic Constant Matrix: (Units=GPa)
#
#
# Indices 1 2 3 4 5 6 
#
# 1 61.7192 52.6823 7.6230 0.0000 14.7576 0.0000
# 2 52.6823 118.0904 2.5200 0.0000 10.3102 0.0000
# 3 7.6230 2.5200 33.1952 0.0000 6.5579 0.0000
# 4 0.0000 0.0000 0.0000 40.1043 0.0000 12.1908
# 5 14.7576 10.3102 6.5579 0.0000 24.8600 0.0000
# 6 0.0000 0.0000 0.0000 12.1908 0.0000 45.8763
#
#
#
# Elastic Compliance Matrix: (Units=1/GPa)
#
#
# Indices 1 2 3 4 5 6 
#
# 1 0.029897 -0.012237 -0.003622 0.000000 -0.011717 0.000000
# 2 -0.012237 0.013795 0.001538 0.000000 0.001137 0.000000
# 3 -0.003622 0.001538 0.032220 0.000000 -0.006987 0.000000
# 4 0.000000 0.000000 0.000000 0.027126 0.000000 -0.007208
# 5 -0.011717 0.001137 -0.006987 0.000000 0.048552 0.000000
# 6 0.000000 0.000000 0.000000 -0.007208 0.000000 0.023713
#
#
# Mechanical properties :
#
#
# Convention : Reuss Voigt Hill
#
# Bulk Modulus (GPa) = 21.15479 37.62838 29.39158
# Shear Modulus (GPa) = 22.75803 32.18010 27.46907
#
# Velocity S-wave (km/s) = 3.15825 3.75554 3.46977
# Velocity P-wave (km/s) = 4.75092 5.94117 5.37907
#
# Compressibility (1/GPa) = 0.04727062
#
# Stress axis : x y z
#
# Youngs Moduli (GPa) = 33.44829 72.48879 31.03645
#
# Poissons Ratio (x) = 0.88706 0.11241
# Poissons Ratio (y) = 0.40932 -0.04774
# Poissons Ratio (z) = 0.12114 -0.11151
#
# Static dielectric constant tensor:
#      x y z
#    x 1.849130 0.000000 -0.024990 
#    y 0.000000 1.864270 0.000000 
#    z -0.024990 0.000000 1.985290 
# 
# From -- ./inp_files/59561.got.cif
#   From: 2010.05.17/outbox.cif.g08.bks.cpg/sg5_30_cif.got.tgz:59561.got - 2010.06.03 18:56:24.
