data_PCOD9126832
_publ_section_title
;
Structure prediction by ZEFSAII (Michael W. Deem and Ramdas Pophale) SiO2 
 PCOD9126832
Probable space group: C 2
;
_chemical_formula_sum "Si O2"
_cell_formula_units_Z 30
_cell_length_a 26.612318
_cell_length_b 9.711511
_cell_length_c 14.458202
_cell_angle_alpha 90.000000
_cell_angle_beta 21.386888
_cell_angle_gamma 90.000000
_cell_volume 1362.624957
_symmetry_space_group_name_H-M "C 2"
_symmetry_group_IT_number 5
_symmetry_cell_setting 'monoclinic'
loop_
_space_group_symop_operation_xyz
x,y,z
-x,y,-z
1/2+x,1/2+y,z
1/2-x,1/2+y,-z
loop_
_atom_site_type_symbol
_atom_site_label
_atom_site_fract_x
_atom_site_fract_y
_atom_site_fract_z
Si Si1 0.989669 0.032900 0.796417
Si Si2 0.088838 0.110113 0.429378
Si Si3 0.837095 0.835986 0.795828
Si Si4 0.686606 0.309631 0.945553
Si Si5 0.465696 0.093182 0.255552
Si Si6 0.231983 0.832867 0.408921
Si Si7 0.000000 0.468758 0.000000
Si Si8 0.108683 0.320853 0.047874
O O1 0.016478 0.036620 0.639273
O O2 0.973994 0.190377 0.849956
O O3 0.109523 0.942499 0.637115
O O4 0.847300 0.949720 0.048900
O O5 0.000000 0.176015 0.500000
O O6 0.167193 0.991422 0.237585
O O7 0.181836 0.227260 0.313265
O O8 0.805061 0.827913 0.958601
O O9 0.000000 0.792207 0.500000
O O10 0.707549 0.770974 0.962487
O O11 0.560034 0.207453 0.142666
O O12 0.321174 0.175552 0.496378
O O13 0.505126 0.949400 0.238988
O O14 0.509617 0.061788 0.074747
O O15 0.364654 0.873835 0.241104
O O16 0.282184 0.861070 0.218246
#
# Coordination Sequence:
#
# PCOD9126832 Si02
#       8
#     4   4   4   4   4   4   2   4
#     4  11  22  38  62  88 125 166 206 262 317 374
#     4  11  19  36  55  84 125 174 215 257 302 365
#     4  11  19  35  60  85 125 176 211 255 305 364
#     4  11  21  37  62  91 126 168 217 257 308 372
#     4  10  22  42  67  94 127 165 214 267 320 386
#     4  10  22  43  64  95 124 159 209 264 323 393
#     4  10  22  42  70  94 122 168 208 270 340 378
#     4  11  22  39  64  91 128 171 210 260 320 374
#
# _framework density 22.016328000000001
#
# number of rings (size 3 to 8) (size 9 to 14) (size 15 to 20)
#    0.000    1.333    5.333    2.400    0.000    3.200 
#    0.000    3.333    0.000    1.600    0.000    0.000 
#    0.000    0.000    0.000    0.000    0.000    0.000 
#
# Total GULP energy -83585.952703 kJ/mol
# GULP energy per Si atom -5572.396847 kJ/mol
# Density = 2.196622 g / cm^3
# Si number density = 22.016328 Si / 1000 Ang^3
#
#
#
# Elastic Constant Matrix: (Units=GPa)
#
#
# Indices 1 2 3 4 5 6 
#
# 1 54.1576 -0.7769 -2.5187 0.0000 -2.7562 0.0000
# 2 -0.7769 116.9426 37.4307 0.0000 -18.2553 0.0000
# 3 -2.5187 37.4307 55.0151 0.0000 -14.0519 0.0000
# 4 0.0000 0.0000 0.0000 42.5579 0.0000 2.3438
# 5 -2.7562 -18.2553 -14.0519 0.0000 16.5648 0.0000
# 6 0.0000 0.0000 0.0000 2.3438 0.0000 0.5772
#
#
#
# Elastic Compliance Matrix: (Units=1/GPa)
#
#
# Indices 1 2 3 4 5 6 
#
# 1 0.018822 0.000295 0.001971 0.000000 0.005129 0.000000
# 2 0.000295 0.011680 -0.005915 0.000000 0.007904 0.000000
# 3 0.001971 -0.005915 0.026439 0.000000 0.016238 0.000000
# 4 0.000000 0.000000 0.000000 0.030265 0.000000 -0.122887
# 5 0.005129 0.007904 0.016238 0.000000 0.083707 0.000001
# 6 0.000000 0.000000 0.000000 -0.122887 0.000001 2.231355
#
#
# Mechanical properties :
#
#
# Convention : Reuss Voigt Hill
#
# Bulk Modulus (GPa) = 20.14392 32.70952 26.42672
# Shear Modulus (GPa) = 2.06091 24.73867 13.39979
#
# Velocity S-wave (km/s) = 0.96856 3.35573 2.46972
# Velocity P-wave (km/s) = 3.22804 5.46843 4.49021
#
# Compressibility (1/GPa) = 0.04964278
#
# Stress axis : x y z
#
# Youngs Moduli (GPa) = 53.13069 85.61573 37.82356
#
# Poissons Ratio (x) = -0.02523 -0.07455
# Poissons Ratio (y) = -0.01566 0.22371
# Poissons Ratio (z) = -0.10472 0.50637
#
# Static dielectric constant tensor:
#      x y z
#    x 1.813500 0.000000 -0.061510 
#    y 0.000000 1.811650 0.000000 
#    z -0.061510 0.000000 1.895010 
# 
# From -- ./inp_files/63800.got.cif
#   From: 2010.05.17/outbox.cif.g08.bks.cpg/sg5_32_cif.got.tgz:63800.got - 2010.06.03 18:56:24.
