data_PCOD9126571
_publ_section_title
;
Structure prediction by ZEFSAII (Michael W. Deem and Ramdas Pophale) SiO2 
 PCOD9126571
Probable space group: C 2
;
_chemical_formula_sum "Si O2"
_cell_formula_units_Z 24
_cell_length_a 22.841691
_cell_length_b 5.070992
_cell_length_c 9.888237
_cell_angle_alpha 90.000000
_cell_angle_beta 78.280135
_cell_angle_gamma 90.000000
_cell_volume 1121.476962
_symmetry_space_group_name_H-M "C 2"
_symmetry_group_IT_number 5
_symmetry_cell_setting 'monoclinic'
loop_
_space_group_symop_operation_xyz
x,y,z
-x,y,-z
1/2+x,1/2+y,z
1/2-x,1/2+y,-z
loop_
_atom_site_type_symbol
_atom_site_label
_atom_site_fract_x
_atom_site_fract_y
_atom_site_fract_z
Si Si1 0.553611 0.538730 0.870937
Si Si2 0.182439 0.213294 0.918504
Si Si3 0.453113 0.733927 0.412627
Si Si4 0.894722 0.737916 0.381845
Si Si5 0.717421 0.555248 0.481371
Si Si6 0.260800 0.711526 0.820485
O O1 0.614048 0.662212 0.906951
O O2 0.528831 0.706739 0.753728
O O3 0.577447 0.278487 0.780239
O O4 0.500000 0.496127 0.000000
O O5 0.227877 0.993798 0.836194
O O6 0.208050 0.497912 0.866035
O O7 0.194076 0.192433 0.074389
O O8 0.500000 0.827304 0.500000
O O9 0.433415 0.437592 0.457007
O O10 0.399680 0.944343 0.431649
O O11 0.832049 0.884098 0.418258
O O12 0.732057 0.827026 0.549705
O O13 0.705770 0.643079 0.333547
#
# Coordination Sequence:
#
# PCOD9126571 Si02
#       6
#     4   4   4   4   4   4
#     4  10  24  42  68  93 126 172 214 265 317 384
#     4  10  22  41  64  91 128 165 210 263 310 376
#     4  10  23  43  63  90 125 170 211 266 319 369
#     4  10  23  40  64  92 126 165 209 263 318 375
#     4  12  23  37  65  96 129 165 208 259 321 386
#     4  10  22  41  63  92 127 167 208 259 316 377
#
# _framework density 21.400352000000002
#
# number of rings (size 3 to 8) (size 9 to 14) (size 15 to 20)
#    1.000    0.667    0.000    4.500    4.667    2.000 
#    0.000    1.667    0.000    0.000    0.000    0.000 
#    0.000    0.000    0.000    0.000    0.000    0.000 
#
# Total GULP energy -66872.223494 kJ/mol
# GULP energy per Si atom -5572.685291 kJ/mol
# Density = 2.135164 g / cm^3
# Si number density = 21.400352 Si / 1000 Ang^3
#
#
#
# Elastic Constant Matrix: (Units=GPa)
#
#
# Indices 1 2 3 4 5 6 
#
# 1 101.8656 -1.1390 40.7877 0.0000 10.6291 0.0000
# 2 -1.1390 86.2876 13.8136 0.0000 3.8805 0.0000
# 3 40.7877 13.8136 120.8045 0.0000 10.9497 0.0000
# 4 0.0000 0.0000 0.0000 8.8062 0.0000 -8.2589
# 5 10.6291 3.8805 10.9497 0.0000 33.7176 0.0000
# 6 0.0000 0.0000 0.0000 -8.2589 0.0000 18.6000
#
#
#
# Elastic Compliance Matrix: (Units=1/GPa)
#
#
# Indices 1 2 3 4 5 6 
#
# 1 0.011608 0.000874 -0.003790 0.000000 -0.002529 0.000000
# 2 0.000874 0.011901 -0.001552 0.000000 -0.001141 0.000000
# 3 -0.003790 -0.001552 0.009902 0.000000 -0.001842 0.000000
# 4 0.000000 0.000000 0.000000 0.194590 0.000000 0.086404
# 5 -0.002529 -0.001141 -0.001842 0.000000 0.031185 0.000000
# 6 0.000000 0.000000 0.000000 0.086404 0.000000 0.092129
#
#
# Mechanical properties :
#
#
# Convention : Reuss Voigt Hill
#
# Bulk Modulus (GPa) = 40.86089 46.20912 43.53500
# Shear Modulus (GPa) = 13.57185 29.25780 21.41482
#
# Velocity S-wave (km/s) = 2.52104 3.70153 3.16678
# Velocity P-wave (km/s) = 5.25445 6.31728 5.81022
#
# Compressibility (1/GPa) = 0.02447328
#
# Stress axis : x y z
#
# Youngs Moduli (GPa) = 86.14716 84.03001 100.99034
#
# Poissons Ratio (x) = -0.07342 0.38275
# Poissons Ratio (y) = -0.07527 0.15677
# Poissons Ratio (z) = 0.32649 0.13044
#
# Static dielectric constant tensor:
#      x y z
#    x 2.104400 0.000000 0.012870 
#    y 0.000000 1.767260 0.000000 
#    z 0.012870 0.000000 1.778530 
# 
# From -- ./inp_files/30246.got.cif
#   From: 2010.05.17/outbox.cif.g08.bks.cpg/sg5_16_cif.got.tgz:30246.got - 2010.06.03 18:56:24.
