data_PCOD9126511
_publ_section_title
;
Structure prediction by ZEFSAII (Michael W. Deem and Ramdas Pophale) SiO2 
 PCOD9126511
Probable space group: C 2
;
_chemical_formula_sum "Si O2"
_cell_formula_units_Z 18
_cell_length_a 8.528303
_cell_length_b 17.110960
_cell_length_c 6.564614
_cell_angle_alpha 90.000000
_cell_angle_beta 120.897845
_cell_angle_gamma 90.000000
_cell_volume 822.008121
_symmetry_space_group_name_H-M "C 2"
_symmetry_group_IT_number 5
_symmetry_cell_setting 'monoclinic'
loop_
_space_group_symop_operation_xyz
x,y,z
-x,y,-z
1/2+x,1/2+y,z
1/2-x,1/2+y,-z
loop_
_atom_site_type_symbol
_atom_site_label
_atom_site_fract_x
_atom_site_fract_y
_atom_site_fract_z
Si Si1 0.500000 0.484110 0.000000
Si Si2 0.712739 0.056193 0.037918
Si Si3 0.500000 0.113942 0.500000
Si Si4 0.682820 0.862884 0.733795
Si Si5 0.500000 0.913051 0.000000
Si Si6 0.278876 0.690668 0.379877
O O1 0.579205 0.539390 0.880569
O O2 0.337536 0.427525 0.825186
O O3 0.698932 0.134905 0.152653
O O4 0.655725 0.980338 0.134450
O O5 0.596448 0.065652 0.749842
O O6 0.666123 0.163902 0.506221
O O7 0.500000 0.889777 0.500000
O O8 0.752056 0.781827 0.688860
O O9 0.602286 0.857903 0.908216
O O10 0.500000 0.682309 0.500000
#
# Coordination Sequence:
#
# PCOD9126511 Si02
#       6
#     2   4   2   4   2   4
#     4  10  24  40  70  98 134 180 226 280 346 416
#     4  11  23  43  69 101 133 184 232 284 344 408
#     4  12  24  42  76  98 142 180 240 290 340 404
#     4  10  25  46  65 101 143 178 226 284 349 418
#     4  10  22  40  70  94 138 180 212 292 334 406
#     4  11  25  45  70 102 138 184 235 285 346 419
#
# _framework density 21.897594000000002
#
# number of rings (size 3 to 8) (size 9 to 14) (size 15 to 20)
#    0.000    1.333    2.222    1.333    9.333    6.222 
#    8.000    0.000    0.000    0.000    0.000    0.000 
#    0.000    0.000    0.000    0.000    0.000    0.000 
#
# Total GULP energy -50107.636760 kJ/mol
# GULP energy per Si atom -5567.515196 kJ/mol
# Density = 2.184775 g / cm^3
# Si number density = 21.897594 Si / 1000 Ang^3
#
#
#
# Elastic Constant Matrix: (Units=GPa)
#
#
# Indices 1 2 3 4 5 6 
#
# 1 176.7660 48.0646 14.2794 0.0000 -16.2707 0.0000
# 2 48.0646 84.3793 38.4222 0.0000 -1.9663 0.0000
# 3 14.2794 38.4222 53.3000 0.0000 -3.4257 0.0000
# 4 0.0000 0.0000 0.0000 -9.2630 0.0000 -16.5098
# 5 -16.2707 -1.9663 -3.4257 0.0000 26.0591 0.0000
# 6 0.0000 0.0000 0.0000 -16.5098 0.0000 60.9408
#
#
#
# Elastic Compliance Matrix: (Units=1/GPa)
#
#
# Indices 1 2 3 4 5 6 
#
# 1 0.007234 -0.004859 0.001847 0.000000 0.004393 0.000000
# 2 -0.004859 0.020910 -0.013983 0.000000 -0.003294 0.000000
# 3 0.001847 -0.013983 0.028595 0.000000 0.003857 0.000000
# 4 0.000000 0.000000 0.000000 -0.072803 0.000000 -0.019723
# 5 0.004393 -0.003294 0.003857 0.000000 0.041375 0.000000
# 6 0.000000 0.000000 0.000000 -0.019723 0.000000 0.011066
#
#
# Mechanical properties :
#
#
# Convention : Reuss Voigt Hill
#
# Bulk Modulus (GPa) = 43.96007 57.33085 50.64546
# Shear Modulus (GPa) = 64.14470 29.79266 46.96868
#
# Velocity S-wave (km/s) = 5.41818 3.69256 4.63636
# Velocity P-wave (km/s) = 7.69812 6.66470 7.19997
#
# Compressibility (1/GPa) = 0.02274792
#
# Stress axis : x y z
#
# Youngs Moduli (GPa) = 138.24419 47.82511 34.97174
#
# Poissons Ratio (x) = 0.23239 -0.06460
# Poissons Ratio (y) = 0.67176 0.48901
# Poissons Ratio (z) = -0.25537 0.66873
#
# Static dielectric constant tensor:
#      x y z
#    x 1.895820 0.000000 0.014250 
#    y 0.000000 1.760050 0.000000 
#    z 0.014250 0.000000 1.839840 
# 
# From -- ./inp_files/2316.got.cif
#   From: 2010.05.17/outbox.cif.g08.bks.cpg/sg5_2_cif.got.tgz:2316.got - 2010.06.03 18:56:24.
