data_PCOD9126630
_publ_section_title
;
Structure prediction by ZEFSAII (Michael W. Deem and Ramdas Pophale) SiO2 
 PCOD9126630
Probable space group: C 2
;
_chemical_formula_sum "Si O2"
_cell_formula_units_Z 14
_cell_length_a 4.847992
_cell_length_b 17.208169
_cell_length_c 6.557025
_cell_angle_alpha 90.000000
_cell_angle_beta 107.335528
_cell_angle_gamma 90.000000
_cell_volume 522.172514
_symmetry_space_group_name_H-M "C 2"
_symmetry_group_IT_number 5
_symmetry_cell_setting 'monoclinic'
loop_
_space_group_symop_operation_xyz
x,y,z
-x,y,-z
1/2+x,1/2+y,z
1/2-x,1/2+y,-z
loop_
_atom_site_type_symbol
_atom_site_label
_atom_site_fract_x
_atom_site_fract_y
_atom_site_fract_z
Si Si1 0.500000 0.472190 0.500000
Si Si2 0.578607 0.240471 0.255959
Si Si3 0.077111 0.342744 0.255207
Si Si4 0.313976 0.592606 0.153601
O O1 0.233694 0.417055 0.381085
O O2 0.510339 0.527687 0.304851
O O3 0.290450 0.267076 0.306158
O O4 0.728569 0.157111 0.306433
O O5 0.789745 0.314056 0.301503
O O6 0.500000 0.234695 0.000000
O O7 0.000000 0.356612 0.000000
O O8 0.500000 0.622714 0.000000
O O9 0.000000 0.564151 0.000000
#
# Coordination Sequence:
#
# PCOD9126630 Si02
#       4
#     2   4   4   4
#     4  12  28  42  68 102 142 180 212 272 348 406
#     4   9  19  42  69  91 125 172 223 275 319 377
#     4  10  22  41  66  96 129 170 221 273 325 387
#     4  11  25  46  69  98 135 177 225 276 331 397
#
# _framework density 26.811062
#
# number of rings (size 3 to 8) (size 9 to 14) (size 15 to 20)
#    0.000    1.714    0.000    5.143    0.000   12.571 
#    0.000    0.000    0.000    0.000    0.000    0.000 
#    0.000    0.000    0.000    0.000    0.000    0.000 
#
# Total GULP energy -39174.752898 kJ/mol
# GULP energy per Si atom -5596.393271 kJ/mol
# Density = 2.675004 g / cm^3
# Si number density = 26.811062 Si / 1000 Ang^3
#
#
#
# Elastic Constant Matrix: (Units=GPa)
#
#
# Indices 1 2 3 4 5 6 
#
# 1 140.8425 30.0880 17.4863 0.0000 -17.4838 0.0000
# 2 30.0880 145.3553 55.7900 0.0000 -2.2785 0.0000
# 3 17.4863 55.7900 145.7297 0.0000 21.4264 0.0000
# 4 0.0000 0.0000 0.0000 65.1000 0.0000 7.0623
# 5 -17.4838 -2.2785 21.4264 0.0000 42.4598 0.0000
# 6 0.0000 0.0000 0.0000 7.0623 0.0000 22.9436
#
#
#
# Elastic Compliance Matrix: (Units=1/GPa)
#
#
# Indices 1 2 3 4 5 6 
#
# 1 0.007947 -0.001183 -0.001050 0.000000 0.003739 0.000000
# 2 -0.001183 0.008427 -0.003326 0.000000 0.001643 0.000000
# 3 -0.001050 -0.003326 0.009020 0.000000 -0.005163 0.000000
# 4 0.000000 0.000000 0.000000 0.015892 0.000000 -0.004892
# 5 0.003739 0.001643 -0.005163 0.000000 0.027785 0.000000
# 6 0.000000 0.000000 0.000000 -0.004892 0.000000 0.045091
#
#
# Mechanical properties :
#
#
# Convention : Reuss Voigt Hill
#
# Bulk Modulus (GPa) = 70.04807 70.96180 70.50494
# Shear Modulus (GPa) = 38.44989 48.00489 43.22739
#
# Velocity S-wave (km/s) = 3.79107 4.23601 4.01970
# Velocity P-wave (km/s) = 6.73396 7.10280 6.92084
#
# Compressibility (1/GPa) = 0.01427591
#
# Stress axis : x y z
#
# Youngs Moduli (GPa) = 125.82590 118.66828 110.86086
#
# Poissons Ratio (x) = 0.14043 0.11644
# Poissons Ratio (y) = 0.14890 0.36869
# Poissons Ratio (z) = 0.13216 0.39465
#
# Static dielectric constant tensor:
#      x y z
#    x 2.015940 0.000000 0.007500 
#    y 0.000000 2.151110 0.000000 
#    z 0.007500 0.000000 2.264100 
# 
# From -- ./inp_files/11649.got.cif
#   From: 2010.05.17/outbox.cif.g08.bks.cpg/sg5_6_cif.got.tgz:11649.got - 2010.06.03 18:56:24.
