data_PCOD9126308
_publ_section_title
;
Structure prediction by ZEFSAII (Michael W. Deem and Ramdas Pophale) SiO2 
 PCOD9126308
Probable space group: C 2
;
_chemical_formula_sum "Si O2"
_cell_formula_units_Z 28
_cell_length_a 6.215180
_cell_length_b 16.972684
_cell_length_c 16.006352
_cell_angle_alpha 90.000000
_cell_angle_beta 126.158300
_cell_angle_gamma 90.000000
_cell_volume 1363.263902
_symmetry_space_group_name_H-M "C 2"
_symmetry_group_IT_number 5
_symmetry_cell_setting 'monoclinic'
loop_
_space_group_symop_operation_xyz
x,y,z
-x,y,-z
1/2+x,1/2+y,z
1/2-x,1/2+y,-z
loop_
_atom_site_type_symbol
_atom_site_label
_atom_site_fract_x
_atom_site_fract_y
_atom_site_fract_z
Si Si1 0.227709 0.725120 0.883457
Si Si2 0.128044 0.009243 0.736138
Si Si3 0.701034 0.055960 0.403515
Si Si4 0.288219 0.649998 0.727743
Si Si5 0.457513 0.879947 0.891128
Si Si6 0.380938 0.901629 0.387449
Si Si7 0.677878 0.791041 0.790021
O O1 0.239146 0.660005 0.815124
O O2 0.245740 0.808963 0.839731
O O3 0.942197 0.736375 0.860812
O O4 0.500000 0.718562 0.000000
O O5 0.345900 0.962454 0.837481
O O6 0.901239 0.944989 0.659872
O O7 0.268698 0.044725 0.688092
O O8 0.981102 0.077147 0.753248
O O9 0.493489 0.125223 0.376931
O O10 0.000000 0.071888 0.500000
O O11 0.581207 0.974021 0.410850
O O12 0.432692 0.729350 0.731044
O O13 0.666123 0.847657 0.869639
O O14 0.500000 0.885373 0.000000
O O15 0.500000 0.864492 0.500000
O O16 0.346498 0.844298 0.299439
#
# Coordination Sequence:
#
# PCOD9126308 Si02
#       7
#     4   4   4   4   4   4   4
#     4  10  22  44  67  96 131 184 224 271 342 397
#     4  11  21  43  64  98 134 168 226 276 328 405
#     4  11  22  42  71  94 134 182 224 271 341 400
#     4  10  25  41  66  97 135 181 216 278 338 395
#     4  10  22  39  69 101 126 174 223 276 341 389
#     4  11  22  39  72  98 124 180 225 278 336 391
#     4  11  22  45  69  97 141 169 227 285 328 408
#
# _framework density 20.538943
#
# number of rings (size 3 to 8) (size 9 to 14) (size 15 to 20)
#    0.000    1.429    4.286    0.857    0.000    5.143 
#    5.143    4.286    3.143    0.000    0.000    0.000 
#    0.000    0.000    0.000    0.000    0.000    0.000 
#
# Total GULP energy -78008.307604 kJ/mol
# GULP energy per Si atom -5572.021972 kJ/mol
# Density = 2.049220 g / cm^3
# Si number density = 20.538943 Si / 1000 Ang^3
#
#
#
# Elastic Constant Matrix: (Units=GPa)
#
#
# Indices 1 2 3 4 5 6 
#
# 1 94.3370 23.4414 46.9235 0.0000 2.8925 0.0000
# 2 23.4414 56.8667 42.8812 0.0000 1.8079 0.0000
# 3 46.9235 42.8812 106.8863 0.0000 -9.7932 0.0000
# 4 0.0000 0.0000 0.0000 36.6209 0.0000 -30.9738
# 5 2.8925 1.8079 -9.7932 0.0000 33.8547 0.0000
# 6 0.0000 0.0000 0.0000 -30.9738 0.0000 92.7024
#
#
#
# Elastic Compliance Matrix: (Units=1/GPa)
#
#
# Indices 1 2 3 4 5 6 
#
# 1 0.013913 -0.001211 -0.005881 0.000000 -0.002825 0.000000
# 2 -0.001211 0.025969 -0.010277 0.000000 -0.004256 0.000000
# 3 -0.005881 -0.010277 0.016597 0.000000 0.005852 0.000000
# 4 0.000000 0.000000 0.000000 0.038063 0.000000 0.012718
# 5 -0.002825 -0.004256 0.005852 0.000000 0.031699 0.000000
# 6 0.000000 0.000000 0.000000 0.012718 0.000000 0.015036
#
#
# Mechanical properties :
#
#
# Convention : Reuss Voigt Hill
#
# Bulk Modulus (GPa) = 45.99511 53.84246 49.91879
# Shear Modulus (GPa) = 27.28340 42.29186 34.78763
#
# Velocity S-wave (km/s) = 3.64864 4.54266 4.11997
# Velocity P-wave (km/s) = 6.33978 7.33390 6.85488
#
# Compressibility (1/GPa) = 0.02174144
#
# Stress axis : x y z
#
# Youngs Moduli (GPa) = 71.87534 38.50796 60.25342
#
# Poissons Ratio (x) = 0.04662 0.35435
# Poissons Ratio (y) = 0.08702 0.61921
# Poissons Ratio (z) = 0.42270 0.39573
#
# Static dielectric constant tensor:
#      x y z
#    x 1.801200 0.000000 -0.006130 
#    y 0.000000 1.718910 0.000000 
#    z -0.006130 0.000000 1.713950 
# 
# From -- ./inp_files/33907.got.cif
#   From: 2010.05.17/outbox.cif.g08.bks.cpg/sg5_17_cif.got.tgz:33907.got - 2010.06.03 18:56:24.
