data_PCOD9126660
_publ_section_title
;
Structure prediction by ZEFSAII (Michael W. Deem and Ramdas Pophale) SiO2 
 PCOD9126660
Probable space group: C 2
;
_chemical_formula_sum "Si O2"
_cell_formula_units_Z 22
_cell_length_a 8.171487
_cell_length_b 21.402620
_cell_length_c 5.304497
_cell_angle_alpha 90.000000
_cell_angle_beta 85.687713
_cell_angle_gamma 90.000000
_cell_volume 925.083693
_symmetry_space_group_name_H-M "C 2"
_symmetry_group_IT_number 5
_symmetry_cell_setting 'monoclinic'
loop_
_space_group_symop_operation_xyz
x,y,z
-x,y,-z
1/2+x,1/2+y,z
1/2-x,1/2+y,-z
loop_
_atom_site_type_symbol
_atom_site_label
_atom_site_fract_x
_atom_site_fract_y
_atom_site_fract_z
Si Si1 0.723093 0.108270 0.835214
Si Si2 0.000000 0.252308 0.000000
Si Si3 0.000000 0.544778 0.500000
Si Si4 0.174228 0.736607 0.117320
Si Si5 0.000000 0.806531 0.500000
Si Si6 0.312542 0.980168 0.909032
Si Si7 0.500000 0.391039 0.000000
Si Si8 0.500000 0.669444 0.500000
O O1 0.554321 0.090552 0.716295
O O2 0.848660 0.126668 0.600315
O O3 0.718649 0.166575 0.024445
O O4 0.762453 0.043807 0.966311
O O5 0.180000 0.281291 0.004999
O O6 0.025563 0.212778 0.741155
O O7 0.855941 0.499707 0.616270
O O8 0.144033 0.757413 0.408439
O O9 0.000000 0.744143 0.000000
O O10 0.005261 0.851218 0.740749
O O11 0.500000 0.967248 0.000000
O O12 0.170850 0.930091 0.970538
#
# Coordination Sequence:
#
# PCOD9126660 Si02
#       8
#     4   2   2   4   2   4   2   2
#     4  10  24  39  71 115 155 198 235 315 393 462
#     4  10  26  43  64 106 144 195 250 286 372 444
#     4  10  22  41  68 123 147 197 244 294 418 438
#     4  11  25  48  74 109 156 196 250 311 378 462
#     4  12  30  54  78 114 142 220 260 314 374 436
#     4  10  25  47  75 116 146 199 252 321 385 449
#     4  12  30  55  80 106 154 203 276 308 368 450
#     4  10  24  37  62 107 153 199 230 286 366 474
#
# _framework density 23.781634
#
# number of rings (size 3 to 8) (size 9 to 14) (size 15 to 20)
#    0.000    1.455    0.909    1.636   20.364    1.455 
#    1.636    1.818    0.000    0.000    0.000    0.000 
#    0.000    0.000    0.000    0.000    0.000    0.000 
#
# Total GULP energy -61311.608907 kJ/mol
# GULP energy per Si atom -5573.782628 kJ/mol
# Density = 2.372751 g / cm^3
# Si number density = 23.781634 Si / 1000 Ang^3
#
#
#
# Elastic Constant Matrix: (Units=GPa)
#
#
# Indices 1 2 3 4 5 6 
#
# 1 126.7578 41.3307 48.2401 0.0000 -35.7059 0.0000
# 2 41.3307 121.4127 77.6113 0.0000 -12.1078 0.0000
# 3 48.2401 77.6113 183.0447 0.0000 -25.4009 0.0000
# 4 0.0000 0.0000 0.0000 46.2819 0.0000 -11.4631
# 5 -35.7059 -12.1078 -25.4009 0.0000 53.6057 0.0000
# 6 0.0000 0.0000 0.0000 -11.4631 0.0000 5.4759
#
#
#
# Elastic Compliance Matrix: (Units=1/GPa)
#
#
# Indices 1 2 3 4 5 6 
#
# 1 0.010791 -0.002452 -0.000946 0.000000 0.006186 0.000000
# 2 -0.002452 0.011860 -0.004536 0.000000 -0.001104 0.000000
# 3 -0.000946 -0.004536 0.007927 0.000000 0.002102 0.000000
# 4 0.000000 0.000000 0.000000 0.044872 0.000000 0.093933
# 5 0.006186 -0.001104 0.002102 0.000000 0.023522 0.000000
# 6 0.000000 0.000000 0.000000 0.093933 0.000000 0.379253
#
#
# Mechanical properties :
#
#
# Convention : Reuss Voigt Hill
#
# Bulk Modulus (GPa) = 67.97423 85.06441 76.51932
# Shear Modulus (GPa) = 10.02012 38.67491 24.34752
#
# Velocity S-wave (km/s) = 2.05488 4.03706 3.20315
# Velocity P-wave (km/s) = 5.85446 7.58795 6.77686
#
# Compressibility (1/GPa) = 0.01471146
#
# Stress axis : x y z
#
# Youngs Moduli (GPa) = 92.67058 84.31405 126.14669
#
# Poissons Ratio (x) = 0.20673 0.11932
# Poissons Ratio (y) = 0.22722 0.57218
# Poissons Ratio (z) = 0.08766 0.38243
#
# Static dielectric constant tensor:
#      x y z
#    x 2.229070 0.000000 -0.048410 
#    y 0.000000 1.894790 0.000000 
#    z -0.048410 0.000000 1.968960 
# 
# From -- ./inp_files/3371.got.cif
#   From: 2010.05.17/outbox.cif.g08.bks.cpg/sg5_2_cif.got.tgz:3371.got - 2010.06.03 18:56:24.
