data_PCOD9126841
_publ_section_title
;
Structure prediction by ZEFSAII (Michael W. Deem and Ramdas Pophale) SiO2 
 PCOD9126841
Probable space group: C 2
;
_chemical_formula_sum "Si O2"
_cell_formula_units_Z 20
_cell_length_a 17.009551
_cell_length_b 5.318228
_cell_length_c 9.928196
_cell_angle_alpha 90.000000
_cell_angle_beta 75.542727
_cell_angle_gamma 90.000000
_cell_volume 869.671752
_symmetry_space_group_name_H-M "C 2"
_symmetry_group_IT_number 5
_symmetry_cell_setting 'monoclinic'
loop_
_space_group_symop_operation_xyz
x,y,z
-x,y,-z
1/2+x,1/2+y,z
1/2-x,1/2+y,-z
loop_
_atom_site_type_symbol
_atom_site_label
_atom_site_fract_x
_atom_site_fract_y
_atom_site_fract_z
Si Si1 0.173860 0.110600 0.993248
Si Si2 0.078649 0.730889 0.385995
Si Si3 0.802570 0.501450 0.461789
Si Si4 0.929507 0.611624 0.920633
Si Si5 0.255439 0.442048 0.774431
O O1 0.117214 0.351657 0.036660
O O2 0.121002 0.862275 0.023192
O O3 0.232361 0.101565 0.097238
O O4 0.227560 0.167476 0.838731
O O5 0.122699 0.532589 0.468979
O O6 0.053270 0.633054 0.248367
O O7 0.153981 0.921277 0.326589
O O8 0.000000 0.829043 0.500000
O O9 0.738469 0.726487 0.518385
O O10 0.813314 0.539591 0.296974
O O11 0.000000 0.609851 0.000000
#
# Coordination Sequence:
#
# PCOD9126841 Si02
#       5
#     4   4   4   4   4
#     4  11  23  42  72 101 134 181 233 291 332 413
#     4  10  23  44  66 103 140 182 222 284 343 410
#     4  10  22  42  67  96 134 178 228 277 337 407
#     4  11  25  45  69 101 142 181 231 283 350 406
#     4  10  22  43  71 106 132 183 232 287 342 408
#
# _framework density 22.997181999999999
#
# number of rings (size 3 to 8) (size 9 to 14) (size 15 to 20)
#    0.000    1.600    0.000    4.200    2.800    4.800 
#    7.200   12.000    0.000    0.000    0.000    0.000 
#    0.000    0.000    0.000    0.000    0.000    0.000 
#
# Total GULP energy -55792.444560 kJ/mol
# GULP energy per Si atom -5579.244456 kJ/mol
# Density = 2.294484 g / cm^3
# Si number density = 22.997182 Si / 1000 Ang^3
#
#
#
# Elastic Constant Matrix: (Units=GPa)
#
#
# Indices 1 2 3 4 5 6 
#
# 1 118.1498 42.5679 96.8703 0.0000 32.1611 0.0000
# 2 42.5679 115.4066 32.7474 0.0000 -1.0295 0.0000
# 3 96.8703 32.7474 128.8744 0.0000 22.4223 0.0000
# 4 0.0000 0.0000 0.0000 34.8200 0.0000 8.0739
# 5 32.1611 -1.0295 22.4223 0.0000 67.0472 0.0000
# 6 0.0000 0.0000 0.0000 8.0739 0.0000 25.1830
#
#
#
# Elastic Compliance Matrix: (Units=1/GPa)
#
#
# Indices 1 2 3 4 5 6 
#
# 1 0.026302 -0.004842 -0.017341 0.000000 -0.006892 0.000000
# 2 -0.004842 0.010293 0.000629 0.000000 0.002270 0.000000
# 3 -0.017341 0.000629 0.020370 0.000000 0.001515 0.000000
# 4 0.000000 0.000000 0.000000 0.031026 0.000000 -0.009947
# 5 -0.006892 0.002270 0.001515 0.000000 0.017749 0.000000
# 6 0.000000 0.000000 0.000000 -0.009947 0.000000 0.042898
#
#
# Mechanical properties :
#
#
# Convention : Reuss Voigt Hill
#
# Bulk Modulus (GPa) = 72.16232 78.53357 75.34795
# Shear Modulus (GPa) = 25.46283 38.09306 31.77795
#
# Velocity S-wave (km/s) = 3.33109 4.07433 3.72132
# Velocity P-wave (km/s) = 6.80013 7.50713 7.16236
#
# Compressibility (1/GPa) = 0.01385765
#
# Stress axis : x y z
#
# Youngs Moduli (GPa) = 38.01986 97.15523 49.09101
#
# Poissons Ratio (x) = 0.47047 0.85128
# Poissons Ratio (y) = 0.18411 -0.03090
# Poissons Ratio (z) = 0.65929 -0.06116
#
# Static dielectric constant tensor:
#      x y z
#    x 1.888850 0.000000 0.006710 
#    y 0.000000 1.924270 0.000000 
#    z 0.006710 0.000000 2.012080 
# 
# From -- ./inp_files/28283.got.cif
#   From: 2010.05.17/outbox.cif.g08.bks.cpg/sg5_15_cif.got.tgz:28283.got - 2010.06.03 18:56:24.
