data_PCOD9126295
_publ_section_title
;
Structure prediction by ZEFSAII (Michael W. Deem and Ramdas Pophale) SiO2 
 PCOD9126295
Probable space group: C 2
;
_chemical_formula_sum "Si O2"
_cell_formula_units_Z 24
_cell_length_a 9.582421
_cell_length_b 10.169859
_cell_length_c 11.876711
_cell_angle_alpha 90.000000
_cell_angle_beta 114.888002
_cell_angle_gamma 90.000000
_cell_volume 1049.921750
_symmetry_space_group_name_H-M "C 2"
_symmetry_group_IT_number 5
_symmetry_cell_setting 'monoclinic'
loop_
_space_group_symop_operation_xyz
x,y,z
-x,y,-z
1/2+x,1/2+y,z
1/2-x,1/2+y,-z
loop_
_atom_site_type_symbol
_atom_site_label
_atom_site_fract_x
_atom_site_fract_y
_atom_site_fract_z
Si Si1 0.645747 0.125000 0.774709
Si Si2 0.815283 0.723502 0.621297
Si Si3 0.523341 0.903264 0.140406
Si Si4 0.813396 0.025085 0.608678
Si Si5 0.677374 0.535029 0.748630
Si Si6 0.875314 0.134749 0.036957
O O1 0.500533 0.212291 0.689229
O O2 0.750939 0.079359 0.706656
O O3 0.573686 0.996609 0.810959
O O4 0.746013 0.187706 0.908812
O O5 0.756290 0.620690 0.508602
O O6 0.747004 0.666022 0.714575
O O7 0.765071 0.872433 0.581619
O O8 0.461261 0.756156 0.124431
O O9 0.700238 0.921576 0.239618
O O10 0.500000 0.940451 0.000000
O O11 0.998512 0.024322 0.659113
O O12 0.685104 0.545330 0.885543
O O13 0.000000 0.063996 0.000000
#
# Coordination Sequence:
#
# PCOD9126295 Si02
#       6
#     4   4   4   4   4   4
#     4  11  24  45  70 105 142 182 233 291 349 424
#     4  11  29  47  72 102 139 189 245 297 349 412
#     4  10  22  39  67 102 143 177 223 272 347 422
#     4  12  27  49  72 101 140 189 245 296 351 412
#     4  11  24  45  70 102 141 182 230 287 351 419
#     4  11  22  40  69 105 139 180 218 279 353 423
#
# _framework density 22.858847000000001
#
# number of rings (size 3 to 8) (size 9 to 14) (size 15 to 20)
#    0.000    1.000    3.333    2.000    4.667    8.000 
#    0.000    0.000    0.000    0.000    0.000    0.000 
#    0.000    0.000    0.000    0.000    0.000    0.000 
#
# Total GULP energy -67123.725686 kJ/mol
# GULP energy per Si atom -5593.643807 kJ/mol
# Density = 2.280682 g / cm^3
# Si number density = 22.858847 Si / 1000 Ang^3
#
#
#
# Elastic Constant Matrix: (Units=GPa)
#
#
# Indices 1 2 3 4 5 6 
#
# 1 124.0352 26.2465 28.2545 0.0000 8.5119 0.0000
# 2 26.2465 100.3324 22.1782 0.0000 0.3078 0.0000
# 3 28.2545 22.1782 89.0255 0.0000 12.3827 0.0000
# 4 0.0000 0.0000 0.0000 37.5746 0.0000 0.6557
# 5 8.5119 0.3078 12.3827 0.0000 37.4894 0.0000
# 6 0.0000 0.0000 0.0000 0.6557 0.0000 26.6869
#
#
#
# Elastic Compliance Matrix: (Units=1/GPa)
#
#
# Indices 1 2 3 4 5 6 
#
# 1 0.009055 -0.001873 -0.002226 0.000000 -0.001305 0.000000
# 2 -0.001873 0.010959 -0.002287 0.000000 0.001091 0.000000
# 3 -0.002226 -0.002287 0.013035 0.000000 -0.003781 0.000000
# 4 0.000000 0.000000 0.000000 0.026625 0.000000 -0.000654
# 5 -0.001305 0.001091 -0.003781 0.000000 0.028211 0.000000
# 6 0.000000 0.000000 0.000000 -0.000654 0.000000 0.037488
#
#
# Mechanical properties :
#
#
# Convention : Reuss Voigt Hill
#
# Bulk Modulus (GPa) = 49.31673 51.86128 50.58900
# Shear Modulus (GPa) = 34.50570 36.13110 35.31840
#
# Velocity S-wave (km/s) = 3.88946 3.98001 3.93500
# Velocity P-wave (km/s) = 6.46466 6.62250 6.54406
#
# Compressibility (1/GPa) = 0.02027710
#
# Stress axis : x y z
#
# Youngs Moduli (GPa) = 110.43491 91.24857 76.71690
#
# Poissons Ratio (x) = 0.17089 0.17075
# Poissons Ratio (y) = 0.20682 0.17549
# Poissons Ratio (z) = 0.24580 0.20873
#
# Static dielectric constant tensor:
#      x y z
#    x 1.869070 0.000000 0.028840 
#    y 0.000000 1.828970 0.000000 
#    z 0.028840 0.000000 1.853120 
# 
# From -- ./inp_files/35490.got.cif
#   From: 2010.05.17/outbox.cif.g08.bks.cpg/sg5_18_cif.got.tgz:35490.got - 2010.06.03 18:56:24.
