data_PCOD9126992
_publ_section_title
;
Structure prediction by ZEFSAII (Michael W. Deem and Ramdas Pophale) SiO2 
 PCOD9126992
Probable space group: C 2
;
_chemical_formula_sum "Si O2"
_cell_formula_units_Z 22
_cell_length_a 9.567175
_cell_length_b 8.670166
_cell_length_c 19.431650
_cell_angle_alpha 90.000000
_cell_angle_beta 138.931876
_cell_angle_gamma 90.000000
_cell_volume 1058.905078
_symmetry_space_group_name_H-M "C 2"
_symmetry_group_IT_number 5
_symmetry_cell_setting 'monoclinic'
loop_
_space_group_symop_operation_xyz
x,y,z
-x,y,-z
1/2+x,1/2+y,z
1/2-x,1/2+y,-z
loop_
_atom_site_type_symbol
_atom_site_label
_atom_site_fract_x
_atom_site_fract_y
_atom_site_fract_z
Si Si1 0.486121 0.201390 0.153221
Si Si2 0.404387 0.693399 0.220777
Si Si3 0.210482 0.900273 0.034417
Si Si4 0.459770 0.361223 0.691118
Si Si5 0.370510 0.285422 0.390456
Si Si6 0.500000 0.981781 0.500000
O O1 0.723376 0.211776 0.210774
O O2 0.497092 0.226026 0.238907
O O3 0.374729 0.040336 0.093473
O O4 0.356360 0.333589 0.064106
O O5 0.311957 0.760436 0.115949
O O6 0.470547 0.515780 0.243449
O O7 0.624038 0.780147 0.318415
O O8 0.000000 0.947947 0.000000
O O9 0.593287 0.350462 0.671099
O O10 0.213321 0.382315 0.577839
O O11 0.500000 0.366046 0.500000
O O12 0.465279 0.108960 0.426305
#
# Coordination Sequence:
#
# PCOD9126992 Si02
#       6
#     4   4   4   4   4   2
#     4  11  24  40  69  96 126 170 213 257 319 379
#     4  10  22  43  62  94 130 166 207 263 313 373
#     4  10  23  42  63  98 133 163 206 267 316 379
#     4  11  22  40  66  94 123 172 215 260 312 376
#     4   9  21  42  60  91 132 168 205 266 314 367
#     4   8  22  38  58  90 134 162 210 272 306 362
#
# _framework density 20.776177000000001
#
# number of rings (size 3 to 8) (size 9 to 14) (size 15 to 20)
#    0.545    1.455    0.000    2.182    2.545    8.727 
#    3.273    0.000    0.000    0.000    0.000    0.000 
#    0.000    0.000    0.000    0.000    0.000    0.000 
#
# Total GULP energy -61380.250784 kJ/mol
# GULP energy per Si atom -5580.022799 kJ/mol
# Density = 2.072889 g / cm^3
# Si number density = 20.776177 Si / 1000 Ang^3
#
#
#
# Elastic Constant Matrix: (Units=GPa)
#
#
# Indices 1 2 3 4 5 6 
#
# 1 84.0958 33.5902 67.0793 0.0000 0.1077 0.0000
# 2 33.5902 53.2893 31.9489 0.0000 7.3735 0.0000
# 3 67.0793 31.9489 122.5349 0.0000 13.6903 0.0000
# 4 0.0000 0.0000 0.0000 24.4237 0.0000 -1.1480
# 5 0.1077 7.3735 13.6903 0.0000 33.6054 0.0000
# 6 0.0000 0.0000 0.0000 -1.1480 0.0000 19.8001
#
#
#
# Elastic Compliance Matrix: (Units=1/GPa)
#
#
# Indices 1 2 3 4 5 6 
#
# 1 0.025511 -0.009731 -0.012214 0.000000 0.007029 0.000000
# 2 -0.009731 0.026179 -0.000902 0.000000 -0.005346 0.000000
# 3 -0.012214 -0.000902 0.015774 0.000000 -0.006189 0.000000
# 4 0.000000 0.000000 0.000000 0.041056 0.000000 0.002380
# 5 0.007029 -0.005346 -0.006189 0.000000 0.033429 0.000000
# 6 0.000000 0.000000 0.000000 0.002380 0.000000 0.050643
#
#
# Mechanical properties :
#
#
# Convention : Reuss Voigt Hill
#
# Bulk Modulus (GPa) = 45.93076 58.35076 52.14076
# Shear Modulus (GPa) = 20.36314 24.05261 22.20787
#
# Velocity S-wave (km/s) = 3.13408 3.40619 3.27297
# Velocity P-wave (km/s) = 5.93734 6.60423 6.27965
#
# Compressibility (1/GPa) = 0.02177190
#
# Stress axis : x y z
#
# Youngs Moduli (GPa) = 39.19823 38.19804 63.39640
#
# Poissons Ratio (x) = 0.37169 0.77432
# Poissons Ratio (y) = 0.38143 0.05717
# Poissons Ratio (z) = 0.47876 0.03444
#
# Static dielectric constant tensor:
#      x y z
#    x 1.716220 0.000000 0.004240 
#    y 0.000000 1.754980 0.000000 
#    z 0.004240 0.000000 1.747590 
# 
# From -- ./inp_files/64358.got.cif
#   From: 2010.05.17/outbox.cif.g08.bks.cpg/sg5_33_cif.got.tgz:64358.got - 2010.06.03 18:56:24.
