data_PCOD9126978
_publ_section_title
;
Structure prediction by ZEFSAII (Michael W. Deem and Ramdas Pophale) SiO2 
 PCOD9126978
Probable space group: C 2
;
_chemical_formula_sum "Si O2"
_cell_formula_units_Z 20
_cell_length_a 7.573950
_cell_length_b 21.934364
_cell_length_c 5.702666
_cell_angle_alpha 90.000000
_cell_angle_beta 58.717748
_cell_angle_gamma 90.000000
_cell_volume 809.651871
_symmetry_space_group_name_H-M "C 2"
_symmetry_group_IT_number 5
_symmetry_cell_setting 'monoclinic'
loop_
_space_group_symop_operation_xyz
x,y,z
-x,y,-z
1/2+x,1/2+y,z
1/2-x,1/2+y,-z
loop_
_atom_site_type_symbol
_atom_site_label
_atom_site_fract_x
_atom_site_fract_y
_atom_site_fract_z
Si Si1 0.255292 0.915980 0.947983
Si Si2 0.216957 0.728368 0.492049
Si Si3 0.500000 0.639305 0.000000
Si Si4 0.805137 0.549087 0.794831
Si Si5 0.500000 0.149231 0.000000
Si Si6 0.771879 0.370581 0.437940
O O1 0.176927 0.901187 0.737956
O O2 0.495367 0.895841 0.752187
O O3 0.245899 0.988992 0.976857
O O4 0.184721 0.883413 0.236653
O O5 0.388330 0.691003 0.237833
O O6 0.164776 0.693137 0.765917
O O7 0.273894 0.798548 0.482599
O O8 0.000000 0.725773 0.500000
O O9 0.372779 0.582961 0.226225
O O10 0.000000 0.533146 0.500000
O O11 0.872833 0.605396 0.914792
#
# Coordination Sequence:
#
# PCOD9126978 Si02
#       6
#     4   4   2   4   2   4
#     4  10  22  44  72 106 143 190 245 312 368 445
#     4  12  27  48  71 106 152 193 254 313 370 452
#     4  12  24  48  70 106 148 196 244 310 382 444
#     4  12  24  47  73 105 152 192 247 312 377 448
#     4  12  24  46  78 104 150 198 244 320 380 438
#     4  10  22  42  74  99 141 198 239 299 381 429
#
# _framework density 24.701975000000001
#
# number of rings (size 3 to 8) (size 9 to 14) (size 15 to 20)
#    0.000    0.800    6.000    2.400    2.800    4.000 
#    3.600    0.000    0.000    0.000    0.000    0.000 
#    0.000    0.000    0.000    0.000    0.000    0.000 
#
# Total GULP energy -55717.876379 kJ/mol
# GULP energy per Si atom -5571.787638 kJ/mol
# Density = 2.464575 g / cm^3
# Si number density = 24.701975 Si / 1000 Ang^3
#
#
#
# Elastic Constant Matrix: (Units=GPa)
#
#
# Indices 1 2 3 4 5 6 
#
# 1 72.9795 6.6371 6.2234 0.0000 16.5486 0.0000
# 2 6.6371 239.7613 71.8965 0.0000 -0.0231 0.0000
# 3 6.2234 71.8965 196.5220 0.0000 -7.0030 0.0000
# 4 0.0000 0.0000 0.0000 120.9497 0.0000 -23.6129
# 5 16.5486 -0.0231 -7.0030 0.0000 29.6085 0.0000
# 6 0.0000 0.0000 0.0000 -23.6129 0.0000 50.6969
#
#
#
# Elastic Compliance Matrix: (Units=1/GPa)
#
#
# Indices 1 2 3 4 5 6 
#
# 1 0.015832 -0.000216 -0.000744 0.000000 -0.009025 0.000000
# 2 -0.000216 0.004693 -0.001720 0.000000 -0.000282 0.000000
# 3 -0.000744 -0.001720 0.005805 0.000000 0.001787 0.000000
# 4 0.000000 0.000000 0.000000 0.009095 0.000000 0.004236
# 5 -0.009025 -0.000282 0.001787 0.000000 0.039241 0.000000
# 6 0.000000 0.000000 0.000000 0.004236 0.000000 0.021698
#
#
# Mechanical properties :
#
#
# Convention : Reuss Voigt Hill
#
# Bulk Modulus (GPa) = 47.68792 75.41964 61.55378
# Shear Modulus (GPa) = 45.99265 68.55141 57.27203
#
# Velocity S-wave (km/s) = 4.31966 5.27367 4.82033
# Velocity P-wave (km/s) = 6.65030 8.22680 7.48020
#
# Compressibility (1/GPa) = 0.02096967
#
# Stress axis : x y z
#
# Youngs Moduli (GPa) = 63.16310 213.10481 172.26601
#
# Poissons Ratio (x) = 0.04604 0.12815
# Poissons Ratio (y) = 0.01365 0.29629
# Poissons Ratio (z) = 0.04699 0.36653
#
# Static dielectric constant tensor:
#      x y z
#    x 1.573630 0.000000 -0.445410 
#    y 0.000000 1.842160 0.000000 
#    z -0.445410 0.000000 1.999350 
# 
# From -- ./inp_files/2827.got.cif
#   From: 2010.05.17/outbox.cif.g08.bks.cpg/sg5_2_cif.got.tgz:2827.got - 2010.06.03 18:56:24.
