data_PCOD9126154
_publ_section_title
;
Structure prediction by ZEFSAII (Michael W. Deem and Ramdas Pophale) SiO2 
 PCOD9126154
Probable space group: C 2
;
_chemical_formula_sum "Si O2"
_cell_formula_units_Z 28
_cell_length_a 13.393930
_cell_length_b 5.163404
_cell_length_c 19.231287
_cell_angle_alpha 90.000000
_cell_angle_beta 60.804316
_cell_angle_gamma 90.000000
_cell_volume 1161.037482
_symmetry_space_group_name_H-M "C 2"
_symmetry_group_IT_number 5
_symmetry_cell_setting 'monoclinic'
loop_
_space_group_symop_operation_xyz
x,y,z
-x,y,-z
1/2+x,1/2+y,z
1/2-x,1/2+y,-z
loop_
_atom_site_type_symbol
_atom_site_label
_atom_site_fract_x
_atom_site_fract_y
_atom_site_fract_z
Si Si1 0.000000 0.970011 0.000000
Si Si2 0.148861 0.727595 0.640396
Si Si3 0.641551 0.563831 0.525398
Si Si4 0.464982 0.908808 0.633787
Si Si5 0.000000 0.614350 0.500000
Si Si6 0.757734 0.124214 0.750685
Si Si7 0.821744 0.758542 0.956348
Si Si8 0.224404 0.127922 0.851200
O O1 0.937418 0.804625 0.960514
O O2 0.101917 0.137452 0.931580
O O3 0.244708 0.600295 0.556712
O O4 0.146203 0.014718 0.606929
O O5 0.028960 0.579243 0.668276
O O6 0.186361 0.692800 0.706267
O O7 0.559954 0.813076 0.543686
O O8 0.574850 0.318575 0.521327
O O9 0.390399 0.676707 0.687060
O O10 0.398819 0.057741 0.596249
O O11 0.732657 0.341509 0.817237
O O12 0.734478 0.842015 0.788383
O O13 0.822727 0.679736 0.875196
O O14 0.748379 0.528119 0.016069
#
# Coordination Sequence:
#
# PCOD9126154 Si02
#       8
#     2   4   4   4   2   4   4   4
#     4  10  24  50  86 108 144 190 246 292 360 434
#     4  11  25  40  69  99 137 190 254 301 361 426
#     4  11  22  42  66  95 129 186 261 304 346 431
#     4  11  25  41  64  94 137 190 237 311 367 426
#     4  10  22  38  66  92 120 186 242 310 366 410
#     4  12  29  45  68 105 156 188 234 301 379 429
#     4  10  22  44  78 114 143 177 238 293 347 436
#     4  11  27  47  74 110 145 192 235 298 362 450
#
# _framework density 24.11636
#
# number of rings (size 3 to 8) (size 9 to 14) (size 15 to 20)
#    0.000    1.143    1.429    3.857   10.000    7.429 
#    0.000    0.000    0.000    0.000    0.000    0.000 
#    0.000    0.000    0.000    0.000    0.000    0.000 
#
# Total GULP energy -78162.069599 kJ/mol
# GULP energy per Si atom -5583.004971 kJ/mol
# Density = 2.406147 g / cm^3
# Si number density = 24.116360 Si / 1000 Ang^3
#
#
#
# Elastic Constant Matrix: (Units=GPa)
#
#
# Indices 1 2 3 4 5 6 
#
# 1 119.9703 -7.0483 32.6833 -0.0001 27.4186 -0.0001
# 2 -7.0483 36.9955 -3.2850 0.0000 -11.7089 0.0001
# 3 32.6833 -3.2850 76.5782 0.0000 8.8854 0.0001
# 4 -0.0001 0.0000 0.0000 37.0812 -0.0001 -4.9918
# 5 27.4186 -11.7089 8.8854 -0.0001 48.5761 0.0000
# 6 -0.0001 0.0001 0.0001 -4.9918 0.0000 -3.3954
#
#
#
# Elastic Compliance Matrix: (Units=1/GPa)
#
#
# Indices 1 2 3 4 5 6 
#
# 1 0.010607 0.000005 -0.003915 0.000000 -0.005269 0.000000
# 2 0.000005 0.029278 0.000445 0.000000 0.006973 0.000001
# 3 -0.003915 0.000445 0.014794 0.000000 -0.000389 0.000000
# 4 0.000000 0.000000 0.000000 0.022512 0.000000 -0.033097
# 5 -0.005269 0.006973 -0.000389 0.000000 0.025312 0.000000
# 6 0.000000 0.000001 0.000000 -0.033097 0.000000 -0.245858
#
#
# Mechanical properties :
#
#
# Convention : Reuss Voigt Hill
#
# Bulk Modulus (GPa) = 20.94354 30.91602 25.92978
# Shear Modulus (GPa) = -41.49080 30.53198 -5.47941
#
# Velocity S-wave (km/s) = -4.15232 3.56199 -1.50897
# Velocity P-wave (km/s) = 3.77966 5.45567 2.78196
#
# Compressibility (1/GPa) = 0.04774742
#
# Stress axis : x y z
#
# Youngs Moduli (GPa) = 94.28061 34.15577 67.59612
#
# Poissons Ratio (x) = -0.00018 0.26465
# Poissons Ratio (y) = -0.00051 -0.03005
# Poissons Ratio (z) = 0.36913 -0.01518
#
# Static dielectric constant tensor:
#      x y z
#    x 2.167670 0.000000 0.036650 
#    y 0.000000 2.044650 0.000000 
#    z 0.036650 0.000000 2.034720 
# 
# From -- ./inp_files/61191.got.cif
#   From: 2010.05.17/outbox.cif.g08.bks.cpg/sg5_31_cif.got.tgz:61191.got - 2010.06.03 18:56:24.
