data_PCOD9126130
_publ_section_title
;
Structure prediction by ZEFSAII (Michael W. Deem and Ramdas Pophale) SiO2 
 PCOD9126130
Probable space group: C 2
;
_chemical_formula_sum "Si O2"
_cell_formula_units_Z 26
_cell_length_a 29.073808
_cell_length_b 4.958004
_cell_length_c 22.019234
_cell_angle_alpha 90.000000
_cell_angle_beta 160.950522
_cell_angle_gamma 90.000000
_cell_volume 1035.954249
_symmetry_space_group_name_H-M "C 2"
_symmetry_group_IT_number 5
_symmetry_cell_setting 'monoclinic'
loop_
_space_group_symop_operation_xyz
x,y,z
-x,y,-z
1/2+x,1/2+y,z
1/2-x,1/2+y,-z
loop_
_atom_site_type_symbol
_atom_site_label
_atom_site_fract_x
_atom_site_fract_y
_atom_site_fract_z
Si Si1 0.288239 0.254480 0.513675
Si Si2 0.928126 0.133603 0.534974
Si Si3 0.500000 0.366617 0.500000
Si Si4 0.205136 0.396611 0.915194
Si Si5 0.751635 0.138264 0.666402
Si Si6 0.402709 0.186587 0.057815
Si Si7 0.315601 0.672895 0.876811
O O1 0.268962 0.570084 0.502487
O O2 0.205714 0.156121 0.350512
O O3 0.454569 0.198749 0.725609
O O4 0.798844 0.341765 0.376851
O O5 0.048098 0.287277 0.721180
O O6 0.985932 0.060251 0.540672
O O7 0.878606 0.848946 0.498629
O O8 0.644906 0.192286 0.676781
O O9 0.279697 0.289688 0.948206
O O10 0.218237 0.716569 0.937405
O O11 0.837088 0.236092 0.832195
O O12 0.388062 0.392717 0.983765
O O13 0.379880 0.893948 0.001808
#
# Coordination Sequence:
#
# PCOD9126130 Si02
#       7
#     4   4   2   4   4   4   4
#     4  12  27  51  75  95 129 183 240 299 364 408
#     4  11  22  38  63  97 140 180 218 248 327 415
#     4  10  22  38  64 102 142 202 206 252 328 432
#     4  12  24  37  59  94 136 176 214 266 320 402
#     4  11  25  44  69 100 138 182 222 285 344 409
#     4  12  25  44  68 103 134 179 234 286 339 396
#     4  11  24  41  69 102 146 177 225 273 332 411
#
# _framework density 25.097635
#
# number of rings (size 3 to 8) (size 9 to 14) (size 15 to 20)
#    0.000    0.615    1.538    7.385    4.308    1.231 
#    0.000    4.615    0.000    0.000    0.000    0.000 
#    0.000    0.000    0.000    0.000    0.000    0.000 
#
# Total GULP energy -72742.840274 kJ/mol
# GULP energy per Si atom -5595.603098 kJ/mol
# Density = 2.504051 g / cm^3
# Si number density = 25.097635 Si / 1000 Ang^3
#
#
#
# Elastic Constant Matrix: (Units=GPa)
#
#
# Indices 1 2 3 4 5 6 
#
# 1 75.4718 -4.6608 2.9448 0.0010 -23.7153 0.0003
# 2 -4.6608 80.6378 1.3680 0.0082 2.1270 -0.0009
# 3 2.9448 1.3680 46.1111 0.0016 -11.4840 0.0001
# 4 0.0010 0.0082 0.0016 38.3164 -0.0005 -5.0982
# 5 -23.7153 2.1270 -11.4840 -0.0005 30.6781 -0.0006
# 6 0.0003 -0.0009 0.0001 -5.0982 -0.0006 30.7054
#
#
#
# Elastic Compliance Matrix: (Units=1/GPa)
#
#
# Indices 1 2 3 4 5 6 
#
# 1 0.017792 0.000600 0.002493 -0.000001 0.014645 0.000000
# 2 0.000600 0.012461 -0.000560 -0.000003 -0.000610 0.000000
# 3 0.002493 -0.000560 0.024299 -0.000001 0.011063 0.000000
# 4 -0.000001 -0.000003 -0.000001 0.026688 0.000000 0.004431
# 5 0.014645 -0.000610 0.011063 0.000000 0.048101 0.000001
# 6 0.000000 0.000000 0.000000 0.004431 0.000001 0.033303
#
#
# Mechanical properties :
#
#
# Convention : Reuss Voigt Hill
#
# Bulk Modulus (GPa) = 16.77320 22.39163 19.58241
# Shear Modulus (GPa) = 28.17669 33.44455 30.81062
#
# Velocity S-wave (km/s) = 3.35428 3.65441 3.50756
# Velocity P-wave (km/s) = 4.65825 5.17179 4.92172
#
# Compressibility (1/GPa) = 0.05961891
#
# Stress axis : x y z
#
# Youngs Moduli (GPa) = 56.20586 80.24789 41.15352
#
# Poissons Ratio (x) = -0.04813 -0.10261
# Poissons Ratio (y) = -0.03371 0.02304
# Poissons Ratio (z) = -0.14015 0.04493
#
# Static dielectric constant tensor:
#      x y z
#    x 2.096750 0.000000 -0.010740 
#    y 0.000000 1.920800 0.000000 
#    z -0.010740 0.000000 2.042490 
# 
# From -- ./inp_files/43776.got.cif
#   From: 2010.05.17/outbox.cif.g08.bks.cpg/sg5_22_cif.got.tgz:43776.got - 2010.06.03 18:56:24.
