data_PCOD9126585
_publ_section_title
;
Structure prediction by ZEFSAII (Michael W. Deem and Ramdas Pophale) SiO2 
 PCOD9126585
Probable space group: C 2
;
_chemical_formula_sum "Si O2"
_cell_formula_units_Z 30
_cell_length_a 5.899862
_cell_length_b 27.624997
_cell_length_c 9.741744
_cell_angle_alpha 90.000000
_cell_angle_beta 105.979272
_cell_angle_gamma 90.000000
_cell_volume 1526.396861
_symmetry_space_group_name_H-M "C 2"
_symmetry_group_IT_number 5
_symmetry_cell_setting 'monoclinic'
loop_
_space_group_symop_operation_xyz
x,y,z
-x,y,-z
1/2+x,1/2+y,z
1/2-x,1/2+y,-z
loop_
_atom_site_type_symbol
_atom_site_label
_atom_site_fract_x
_atom_site_fract_y
_atom_site_fract_z
Si Si1 0.312208 0.091050 0.860817
Si Si2 0.000000 0.160185 0.000000
Si Si3 0.901475 0.454161 0.340282
Si Si4 0.282321 0.253266 0.579377
Si Si5 0.479506 0.507873 0.147873
Si Si6 0.802447 0.412157 0.857593
Si Si7 0.030582 0.686505 0.841003
Si Si8 0.584825 0.361429 0.358051
O O1 0.457074 0.130421 0.797400
O O2 0.164198 0.045810 0.782776
O O3 0.500000 0.069448 0.000000
O O4 0.139663 0.126297 0.917421
O O5 0.186843 0.190205 0.121547
O O6 0.731847 0.494289 0.248323
O O7 0.753994 0.405838 0.351092
O O8 0.000000 0.472386 0.500000
O O9 0.087853 0.435945 0.260543
O O10 0.500000 0.248499 0.500000
O O11 0.375593 0.220131 0.719328
O O12 0.294640 0.309367 0.627875
O O13 0.000000 0.243024 0.500000
O O14 0.345287 0.456960 0.106355
O O15 0.500000 0.529908 0.000000
O O16 0.635122 0.368619 0.781560
O O17 0.000000 0.397909 0.000000
O O18 0.000000 0.695741 0.000000
O O19 0.500000 0.367862 0.500000
#
# Coordination Sequence:
#
# PCOD9126585 Si02
#       8
#     4   2   4   4   4   4   4   4
#     4   9  18  33  61  88 120 163 211 260 321 385
#     4   8  16  34  64  86 120 158 208 252 334 374
#     4  11  22  38  62  81 131 168 205 259 327 386
#     4  11  26  45  71  98 132 176 225 271 339 405
#     4  11  21  33  59  92 121 164 219 263 310 390
#     4  11  22  38  59  92 128 160 213 271 319 373
#     4   9  21  40  66  95 127 163 216 277 328 398
#     4  10  22  41  64  89 119 176 215 255 321 412
#
# _framework density 19.654128
#
# number of rings (size 3 to 8) (size 9 to 14) (size 15 to 20)
#    0.000    2.133    3.333    0.800    5.600    0.000 
#    3.600    0.000    5.867    0.000    0.000    0.000 
#    0.000    0.000    0.000    0.000    0.000    0.000 
#
# Total GULP energy -83535.367713 kJ/mol
# GULP energy per Si atom -5569.024514 kJ/mol
# Density = 1.960939 g / cm^3
# Si number density = 19.654128 Si / 1000 Ang^3
#
#
#
# Elastic Constant Matrix: (Units=GPa)
#
#
# Indices 1 2 3 4 5 6 
#
# 1 88.6878 19.4194 37.7108 0.0000 25.4070 0.0000
# 2 19.4194 70.6166 34.8485 0.0000 15.5901 0.0000
# 3 37.7108 34.8485 102.9033 0.0000 28.8840 0.0000
# 4 0.0000 0.0000 0.0000 11.3150 0.0000 4.5263
# 5 25.4070 15.5901 28.8840 0.0000 36.8260 0.0000
# 6 0.0000 0.0000 0.0000 4.5263 0.0000 24.1278
#
#
#
# Elastic Compliance Matrix: (Units=1/GPa)
#
#
# Indices 1 2 3 4 5 6 
#
# 1 0.014928 -0.000945 -0.003042 0.000000 -0.007513 0.000000
# 2 -0.000945 0.017409 -0.004698 0.000000 -0.003033 0.000000
# 3 -0.003042 -0.004698 0.014460 0.000000 -0.007254 0.000000
# 4 0.000000 0.000000 0.000000 0.095549 0.000000 -0.017925
# 5 -0.007513 -0.003033 -0.007254 0.000000 0.039312 0.000000
# 6 0.000000 0.000000 0.000000 -0.017925 0.000000 0.044809
#
#
# Mechanical properties :
#
#
# Convention : Reuss Voigt Hill
#
# Bulk Modulus (GPa) = 33.98239 49.57390 41.77814
# Shear Modulus (GPa) = 19.71261 25.80236 22.75749
#
# Velocity S-wave (km/s) = 3.17041 3.62722 3.40648
# Velocity P-wave (km/s) = 5.54344 6.54371 6.06424
#
# Compressibility (1/GPa) = 0.02942701
#
# Stress axis : x y z
#
# Youngs Moduli (GPa) = 66.98704 57.44202 69.15862
#
# Poissons Ratio (x) = 0.05431 0.21035
# Poissons Ratio (y) = 0.06334 0.32489
# Poissons Ratio (z) = 0.20375 0.26985
#
# Static dielectric constant tensor:
#      x y z
#    x 1.818670 0.000000 -0.001130 
#    y 0.000000 1.674680 0.000000 
#    z -0.001130 0.000000 1.673700 
# 
# From -- ./inp_files/13365.got.cif
#   From: 2010.05.17/outbox.cif.g08.bks.cpg/sg5_7_cif.got.tgz:13365.got - 2010.06.03 18:56:24.
