data_PCOD9126239
_publ_section_title
;
Structure prediction by ZEFSAII (Michael W. Deem and Ramdas Pophale) SiO2 
 PCOD9126239
Probable space group: C 2
;
_chemical_formula_sum "Si O2"
_cell_formula_units_Z 32
_cell_length_a 14.681151
_cell_length_b 8.586824
_cell_length_c 11.632021
_cell_angle_alpha 90.000000
_cell_angle_beta 83.965389
_cell_angle_gamma 90.000000
_cell_volume 1458.258578
_symmetry_space_group_name_H-M "C 2"
_symmetry_group_IT_number 5
_symmetry_cell_setting 'monoclinic'
loop_
_space_group_symop_operation_xyz
x,y,z
-x,y,-z
1/2+x,1/2+y,z
1/2-x,1/2+y,-z
loop_
_atom_site_type_symbol
_atom_site_label
_atom_site_fract_x
_atom_site_fract_y
_atom_site_fract_z
Si Si1 0.769876 0.911060 0.513049
Si Si2 0.066162 0.551126 0.077534
Si Si3 0.245911 0.735222 0.078838
Si Si4 0.312048 0.491843 0.256541
Si Si5 0.845385 0.294190 0.828838
Si Si6 0.646517 0.464328 0.257951
Si Si7 0.528304 0.283963 0.761004
Si Si8 0.396994 0.106969 0.457890
O O1 0.797008 0.979830 0.632889
O O2 0.823518 0.743648 0.506224
O O3 0.808252 0.000497 0.395017
O O4 0.660103 0.945775 0.520157
O O5 0.164276 0.627970 0.036534
O O6 0.085288 0.437799 0.181595
O O7 0.004320 0.693662 0.124357
O O8 0.000000 0.461319 0.000000
O O9 0.286083 0.637475 0.181002
O O10 0.203017 0.886869 0.145424
O O11 0.313860 0.774535 0.966196
O O12 0.241582 0.354198 0.231054
O O13 0.411169 0.429647 0.212699
O O14 0.883280 0.134483 0.777080
O O15 0.561382 0.349633 0.290260
O O16 0.582613 0.163739 0.674204
O O17 0.500000 0.104126 0.500000
#
# Coordination Sequence:
#
# PCOD9126239 Si02
#       8
#     4   4   4   4   4   4   4   4
#     4  11  23  41  70  99 132 176 223 279 332 407
#     4  10  22  39  61  88 124 164 217 272 325 396
#     4  10  22  40  64  87 126 173 216 271 335 393
#     4  10  22  40  65  93 123 169 220 266 337 401
#     4  11  23  38  59  90 126 167 216 272 329 402
#     4  11  21  39  63  94 131 169 217 276 336 392
#     4  10  22  40  64  91 126 169 215 271 335 398
#     4  11  23  43  68  94 134 174 222 272 339 401
#
# _framework density 21.943981999999998
#
# number of rings (size 3 to 8) (size 9 to 14) (size 15 to 20)
#    0.000    1.500    1.250    4.500    3.500    3.000 
#    0.000    3.750    0.000    0.000    0.000    0.000 
#    0.000    0.000    0.000    0.000    0.000    0.000 
#
# Total GULP energy -89199.972992 kJ/mol
# GULP energy per Si atom -5574.998312 kJ/mol
# Density = 2.189404 g / cm^3
# Si number density = 21.943982 Si / 1000 Ang^3
#
#
#
# Elastic Constant Matrix: (Units=GPa)
#
#
# Indices 1 2 3 4 5 6 
#
# 1 93.4536 22.7195 25.1074 0.0000 8.3401 0.0000
# 2 22.7195 48.0896 19.2224 0.0000 -10.3509 0.0000
# 3 25.1074 19.2224 52.6247 0.0000 11.2707 0.0000
# 4 0.0000 0.0000 0.0000 -49.0155 0.0000 0.3339
# 5 8.3401 -10.3509 11.2707 0.0000 30.2537 0.0000
# 6 0.0000 0.0000 0.0000 0.3339 0.0000 37.8216
#
#
#
# Elastic Compliance Matrix: (Units=1/GPa)
#
#
# Indices 1 2 3 4 5 6 
#
# 1 0.013446 -0.006047 -0.003227 0.000000 -0.004573 0.000000
# 2 -0.006047 0.032526 -0.012754 0.000000 0.017547 0.000000
# 3 -0.003227 -0.012754 0.028194 0.000000 -0.013978 0.000000
# 4 0.000000 0.000000 0.000000 -0.020400 0.000000 0.000180
# 5 -0.004573 0.017547 -0.013978 0.000000 0.045525 0.000000
# 6 0.000000 0.000000 0.000000 0.000180 0.000000 0.026438
#
#
# Mechanical properties :
#
#
# Convention : Reuss Voigt Hill
#
# Bulk Modulus (GPa) = 33.21054 36.47405 34.84229
# Shear Modulus (GPa) = 27.80544 12.28652 20.04598
#
# Velocity S-wave (km/s) = 3.56351 2.36880 3.02571
# Velocity P-wave (km/s) = 5.66556 4.91316 5.30272
#
# Compressibility (1/GPa) = 0.03011093
#
# Stress axis : x y z
#
# Youngs Moduli (GPa) = 74.37391 30.74452 35.46824
#
# Poissons Ratio (x) = 0.18591 0.11445
# Poissons Ratio (y) = 0.44973 0.45236
# Poissons Ratio (z) = 0.23998 0.39211
#
# Static dielectric constant tensor:
#      x y z
#    x 1.904060 0.000000 0.060580 
#    y 0.000000 1.822160 0.000000 
#    z 0.060580 0.000000 1.855580 
# 
# From -- ./inp_files/41954.got.cif
#   From: 2010.05.17/outbox.cif.g08.bks.cpg/sg5_21_cif.got.tgz:41954.got - 2010.06.03 18:56:24.
