data_PCOD9126027
_publ_section_title
;
Structure prediction by ZEFSAII (Michael W. Deem and Ramdas Pophale) SiO2 
 PCOD9126027
Probable space group: C 2
;
_chemical_formula_sum "Si O2"
_cell_formula_units_Z 30
_cell_length_a 12.770305
_cell_length_b 17.635571
_cell_length_c 6.441065
_cell_angle_alpha 90.000000
_cell_angle_beta 67.138017
_cell_angle_gamma 90.000000
_cell_volume 1336.648264
_symmetry_space_group_name_H-M "C 2"
_symmetry_group_IT_number 5
_symmetry_cell_setting 'monoclinic'
loop_
_space_group_symop_operation_xyz
x,y,z
-x,y,-z
1/2+x,1/2+y,z
1/2-x,1/2+y,-z
loop_
_atom_site_type_symbol
_atom_site_label
_atom_site_fract_x
_atom_site_fract_y
_atom_site_fract_z
Si Si1 0.299404 0.324460 0.972575
Si Si2 0.317752 0.876911 0.544194
Si Si3 0.828566 0.954718 0.678011
Si Si4 0.633610 0.173470 0.872163
Si Si5 0.803266 0.549606 0.895091
Si Si6 0.190495 0.094330 0.572241
Si Si7 0.000000 0.493031 0.500000
Si Si8 0.118076 0.250058 0.797043
O O1 0.377027 0.388297 0.794728
O O2 0.221409 0.279389 0.865231
O O3 0.216367 0.368917 0.192361
O O4 0.356041 0.262654 0.082771
O O5 0.215682 0.904898 0.478808
O O6 0.413538 0.939702 0.446199
O O7 0.366444 0.798801 0.422456
O O8 0.869542 0.033758 0.537109
O O9 0.731251 0.991204 0.899844
O O10 0.699298 0.137397 0.620638
O O11 0.500000 0.154890 0.000000
O O12 0.703789 0.131968 0.999718
O O13 0.729428 0.546754 0.743799
O O14 0.930321 0.539845 0.718439
O O15 0.119164 0.163176 0.722003
O O16 0.000000 0.267559 0.000000
#
# Coordination Sequence:
#
# PCOD9126027 Si02
#       8
#     4   4   4   4   4   4   2   4
#     4  11  21  43  62  94 132 170 212 270 318 387
#     4  11  22  37  57  92 130 162 206 264 326 386
#     4  10  22  37  62  87 124 172 208 254 326 370
#     4  11  24  39  65  95 128 170 217 262 327 386
#     4  11  22  37  57  92 130 162 206 264 326 386
#     4  11  21  43  62  94 132 170 212 270 318 387
#     4  12  20  34  60  92 128 162 204 258 336 400
#     4  11  24  39  65  95 128 170 217 262 327 386
#
# _framework density 22.444199999999999
#
# number of rings (size 3 to 8) (size 9 to 14) (size 15 to 20)
#    0.000    1.067    5.333    1.600    3.733    0.000 
#    0.000    0.000    0.000    4.800    0.000    0.000 
#    0.000    0.000    0.000    0.000    0.000    0.000 
#
# Total GULP energy -83531.638360 kJ/mol
# GULP energy per Si atom -5568.775891 kJ/mol
# Density = 2.239312 g / cm^3
# Si number density = 22.444200 Si / 1000 Ang^3
#
#
#
# Elastic Constant Matrix: (Units=GPa)
#
#
# Indices 1 2 3 4 5 6 
#
# 1 17.4730 -3.8624 5.5926 0.0000 0.5791 0.0000
# 2 -3.8624 110.2630 21.9584 0.0000 11.3887 0.0000
# 3 5.5926 21.9584 84.7234 0.0000 19.1218 0.0000
# 4 0.0000 0.0000 0.0000 32.1440 0.0000 23.3250
# 5 0.5791 11.3887 19.1218 0.0000 9.7811 0.0000
# 6 0.0000 0.0000 0.0000 23.3250 0.0000 12.9780
#
#
#
# Elastic Compliance Matrix: (Units=1/GPa)
#
#
# Indices 1 2 3 4 5 6 
#
# 1 0.059492 0.002765 -0.005588 0.000000 0.004182 0.000000
# 2 0.002765 0.010438 -0.000193 0.000000 -0.011940 0.000000
# 3 -0.005588 -0.000193 0.021649 0.000000 -0.041768 0.000000
# 4 0.000000 0.000000 0.000000 -0.102277 0.000000 0.183819
# 5 0.004182 -0.011940 -0.041768 0.000000 0.197548 0.000000
# 6 0.000000 0.000000 0.000000 0.183819 0.000000 -0.253319
#
#
# Mechanical properties :
#
#
# Convention : Reuss Voigt Hill
#
# Bulk Modulus (GPa) = 11.68947 28.87073 20.28010
# Shear Modulus (GPa) = -156.63496 23.56533 -66.53481
#
# Velocity S-wave (km/s) = -8.36302 3.24381 -5.45059
# Velocity P-wave (km/s) = 9.38264 5.18855 5.52779
#
# Compressibility (1/GPa) = 0.08554706
#
# Stress axis : x y z
#
# Youngs Moduli (GPa) = 16.80892 95.80639 46.19193
#
# Poissons Ratio (x) = -0.26487 0.25810
# Poissons Ratio (y) = -0.04647 0.00891
# Poissons Ratio (z) = 0.09392 0.01848
#
# Static dielectric constant tensor:
#      x y z
#    x 1.862490 0.000000 0.001000 
#    y 0.000000 1.901950 0.000000 
#    z 0.001000 0.000000 1.805840 
# 
# From -- ./inp_files/7291.got.cif
#   From: 2010.05.17/outbox.cif.g08.bks.cpg/sg5_4_cif.got.tgz:7291.got - 2010.06.03 18:56:24.
