data_PCOD9126988
_publ_section_title
;
Structure prediction by ZEFSAII (Michael W. Deem and Ramdas Pophale) SiO2 
 PCOD9126988
Probable space group: C 2
;
_chemical_formula_sum "Si O2"
_cell_formula_units_Z 26
_cell_length_a 10.264952
_cell_length_b 7.965476
_cell_length_c 22.223168
_cell_angle_alpha 90.000000
_cell_angle_beta 139.564670
_cell_angle_gamma 90.000000
_cell_volume 1178.540324
_symmetry_space_group_name_H-M "C 2"
_symmetry_group_IT_number 5
_symmetry_cell_setting 'monoclinic'
loop_
_space_group_symop_operation_xyz
x,y,z
-x,y,-z
1/2+x,1/2+y,z
1/2-x,1/2+y,-z
loop_
_atom_site_type_symbol
_atom_site_label
_atom_site_fract_x
_atom_site_fract_y
_atom_site_fract_z
Si Si1 0.184229 0.895260 0.523578
Si Si2 0.000000 0.833230 0.000000
Si Si3 0.580638 0.799165 0.718715
Si Si4 0.793991 0.094976 0.842327
Si Si5 0.232575 0.287099 0.574649
Si Si6 0.581981 0.667678 0.852789
Si Si7 0.457493 0.291667 0.780678
O O1 0.383253 0.789638 0.609779
O O2 0.158691 0.875605 0.443342
O O3 0.000000 0.834933 0.500000
O O4 0.219632 0.088716 0.554626
O O5 0.807578 0.720637 0.947746
O O6 0.933121 0.956446 0.922952
O O7 0.538884 0.743148 0.771879
O O8 0.780187 0.718012 0.760333
O O9 0.646748 0.994430 0.745774
O O10 0.649522 0.174519 0.840733
O O11 0.927855 0.222101 0.850863
O O12 0.352226 0.314436 0.678535
O O13 0.000000 0.345851 0.500000
O O14 0.541485 0.469729 0.832468
#
# Coordination Sequence:
#
# PCOD9126988 Si02
#       7
#     4   2   4   4   4   4   4
#     4  11  25  38  62  93 130 177 223 264 316 368
#     4  10  24  46  66  94 134 158 208 274 328 392
#     4  10  22  43  60  94 137 163 215 268 317 373
#     4  10  23  43  67  93 126 170 209 263 323 393
#     4  11  24  42  61  93 134 178 219 265 310 373
#     4  10  25  41  69  97 124 168 208 270 325 391
#     4  11  23  40  66  96 131 172 219 261 322 375
#
# _framework density 22.061188000000001
#
# number of rings (size 3 to 8) (size 9 to 14) (size 15 to 20)
#    0.000    1.538    3.077    0.000    4.308    8.615 
#    0.000    0.000    0.000    0.000    0.000    0.000 
#    0.000    0.000    0.000    0.000    0.000    0.000 
#
# Total GULP energy -72624.956808 kJ/mol
# GULP energy per Si atom -5586.535139 kJ/mol
# Density = 2.201098 g / cm^3
# Si number density = 22.061188 Si / 1000 Ang^3
#
#
#
# Elastic Constant Matrix: (Units=GPa)
#
#
# Indices 1 2 3 4 5 6 
#
# 1 161.3145 34.9540 27.9346 0.0000 8.0291 0.0000
# 2 34.9540 37.8128 18.7432 0.0000 14.8126 0.0000
# 3 27.9346 18.7432 86.9379 0.0000 4.4621 0.0000
# 4 0.0000 0.0000 0.0000 25.7500 0.0000 -6.6312
# 5 8.0291 14.8126 4.4621 0.0000 24.8442 0.0000
# 6 0.0000 0.0000 0.0000 -6.6312 0.0000 23.0715
#
#
#
# Elastic Compliance Matrix: (Units=1/GPa)
#
#
# Indices 1 2 3 4 5 6 
#
# 1 0.007931 -0.007700 -0.001002 0.000000 0.002207 0.000000
# 2 -0.007700 0.045969 -0.006215 0.000000 -0.023803 0.000000
# 3 -0.001002 -0.006215 0.013078 0.000000 0.001680 0.000000
# 4 0.000000 0.000000 0.000000 0.041939 0.000000 0.012054
# 5 0.002207 -0.023803 0.001680 0.000000 0.053427 0.000000
# 6 0.000000 0.000000 0.000000 0.012054 0.000000 0.046808
#
#
# Mechanical properties :
#
#
# Convention : Reuss Voigt Hill
#
# Bulk Modulus (GPa) = 26.92133 49.92543 38.42338
# Shear Modulus (GPa) = 19.89133 28.36204 24.12668
#
# Velocity S-wave (km/s) = 3.00600 3.58943 3.31059
# Velocity P-wave (km/s) = 4.92722 6.31334 5.66285
#
# Compressibility (1/GPa) = 0.03714527
#
# Stress axis : x y z
#
# Youngs Moduli (GPa) = 126.08688 21.75402 76.46463
#
# Poissons Ratio (x) = 0.16750 0.07659
# Poissons Ratio (y) = 0.97082 0.47521
# Poissons Ratio (z) = 0.12630 0.13520
#
# Static dielectric constant tensor:
#      x y z
#    x 1.876840 0.000000 -0.001240 
#    y 0.000000 1.821040 0.000000 
#    z -0.001240 0.000000 1.801260 
# 
# From -- ./inp_files/59335.got.cif
#   From: 2010.05.17/outbox.cif.g08.bks.cpg/sg5_30_cif.got.tgz:59335.got - 2010.06.03 18:56:24.
