data_PCOD9126950
_publ_section_title
;
Structure prediction by ZEFSAII (Michael W. Deem and Ramdas Pophale) SiO2 
 PCOD9126950
Probable space group: C 2
;
_chemical_formula_sum "Si O2"
_cell_formula_units_Z 18
_cell_length_a 18.639168
_cell_length_b 5.153333
_cell_length_c 8.439072
_cell_angle_alpha 90.000000
_cell_angle_beta 132.391838
_cell_angle_gamma 90.000000
_cell_volume 598.673647
_symmetry_space_group_name_H-M "C 2"
_symmetry_group_IT_number 5
_symmetry_cell_setting 'monoclinic'
loop_
_space_group_symop_operation_xyz
x,y,z
-x,y,-z
1/2+x,1/2+y,z
1/2-x,1/2+y,-z
loop_
_atom_site_type_symbol
_atom_site_label
_atom_site_fract_x
_atom_site_fract_y
_atom_site_fract_z
Si Si1 0.244891 0.670800 0.104793
Si Si2 0.966263 0.204694 0.140841
Si Si3 0.632088 0.015106 0.213397
Si Si4 0.000000 0.462277 0.500000
Si Si5 0.875574 0.830745 0.526602
O O1 0.149225 0.680835 0.076717
O O2 0.318524 0.561466 0.351658
O O3 0.246929 0.441008 0.976312
O O4 0.950059 0.275597 0.297983
O O5 0.039654 0.434144 0.188541
O O6 0.872516 0.240579 0.891840
O O7 0.035798 0.960047 0.244824
O O8 0.686530 0.175215 0.433854
O O9 0.920230 0.647871 0.458760
#
# Coordination Sequence:
#
# PCOD9126950 Si02
#       5
#     4   4   4   2   4
#     4  12  31  50  80 115 159 207 262 321 392 462
#     4  10  23  44  74 105 150 194 258 315 385 454
#     4  10  26  46  73 109 152 198 265 307 396 456
#     4  10  22  42  72 110 146 194 260 308 392 454
#     4  11  26  45  80 108 157 203 253 326 392 461
#
# _framework density 30.066462999999999
#
# number of rings (size 3 to 8) (size 9 to 14) (size 15 to 20)
#    0.000    1.333    0.000    2.000   18.667    7.111 
#    0.000    0.000    0.000    0.000    0.000    0.000 
#    0.000    0.000    0.000    0.000    0.000    0.000 
#
# Total GULP energy -50160.071333 kJ/mol
# GULP energy per Si atom -5573.341259 kJ/mol
# Density = 2.999803 g / cm^3
# Si number density = 30.066463 Si / 1000 Ang^3
#
#
#
# Elastic Constant Matrix: (Units=GPa)
#
#
# Indices 1 2 3 4 5 6 
#
# 1 136.3229 43.8665 52.8953 0.0000 -41.6659 0.0000
# 2 43.8665 194.9018 70.1859 0.0000 -12.1791 0.0000
# 3 52.8953 70.1859 196.4837 0.0000 -9.7520 0.0000
# 4 0.0000 0.0000 0.0000 53.1690 0.0000 -7.1453
# 5 -41.6659 -12.1791 -9.7520 0.0000 64.4122 0.0000
# 6 0.0000 0.0000 0.0000 -7.1453 0.0000 52.0037
#
#
#
# Elastic Compliance Matrix: (Units=1/GPa)
#
#
# Indices 1 2 3 4 5 6 
#
# 1 0.010422 -0.001215 -0.002064 0.000000 0.006200 0.000000
# 2 -0.001215 0.006071 -0.001837 0.000000 0.000084 0.000000
# 3 -0.002064 -0.001837 0.006265 0.000000 -0.000734 0.000000
# 4 0.000000 0.000000 0.000000 0.019162 0.000000 0.002633
# 5 0.006200 0.000084 -0.000734 0.000000 0.019440 0.000000
# 6 0.000000 0.000000 0.000000 0.002633 0.000000 0.019591
#
#
# Mechanical properties :
#
#
# Convention : Reuss Voigt Hill
#
# Bulk Modulus (GPa) = 79.83763 95.73377 87.78570
# Shear Modulus (GPa) = 52.43318 57.96769 55.20044
#
# Velocity S-wave (km/s) = 4.18054 4.39565 4.28944
# Velocity P-wave (km/s) = 7.06498 7.59422 7.33437
#
# Compressibility (1/GPa) = 0.01252542
#
# Stress axis : x y z
#
# Youngs Moduli (GPa) = 95.94894 164.71303 159.61563
#
# Poissons Ratio (x) = 0.20013 0.32945
# Poissons Ratio (y) = 0.11658 0.29328
# Poissons Ratio (z) = 0.19804 0.30265
#
# Static dielectric constant tensor:
#      x y z
#    x 2.641010 0.000000 0.277310 
#    y 0.000000 2.276880 0.000000 
#    z 0.277310 0.000000 2.726260 
# 
# From -- ./inp_files/28204.got.cif
#   From: 2010.05.17/outbox.cif.g08.bks.cpg/sg5_15_cif.got.tgz:28204.got - 2010.06.03 18:56:24.
