data_PCOD9126806
_publ_section_title
;
Structure prediction by ZEFSAII (Michael W. Deem and Ramdas Pophale) SiO2 
 PCOD9126806
Probable space group: C 2
;
_chemical_formula_sum "Si O2"
_cell_formula_units_Z 24
_cell_length_a 11.340362
_cell_length_b 7.211456
_cell_length_c 22.068184
_cell_angle_alpha 90.000000
_cell_angle_beta 147.277055
_cell_angle_gamma 90.000000
_cell_volume 975.605536
_symmetry_space_group_name_H-M "C 2"
_symmetry_group_IT_number 5
_symmetry_cell_setting 'monoclinic'
loop_
_space_group_symop_operation_xyz
x,y,z
-x,y,-z
1/2+x,1/2+y,z
1/2-x,1/2+y,-z
loop_
_atom_site_type_symbol
_atom_site_label
_atom_site_fract_x
_atom_site_fract_y
_atom_site_fract_z
Si Si1 0.399904 0.713330 0.119994
Si Si2 0.473813 0.055510 0.901664
Si Si3 0.381846 0.937284 0.695072
Si Si4 0.926498 0.941100 0.330860
Si Si5 0.151315 0.683485 0.511141
Si Si6 0.368383 0.473159 0.879282
O O1 0.538735 0.742609 0.239812
O O2 0.525263 0.607795 0.122426
O O3 0.391514 0.924863 0.088724
O O4 0.175530 0.602708 0.034557
O O5 0.392355 0.268379 0.859616
O O6 0.241984 0.948914 0.798218
O O7 0.244236 0.878747 0.577792
O O8 0.615845 0.023283 0.782136
O O9 0.223151 0.021296 0.677797
O O10 0.141552 0.058297 0.412089
O O11 0.008266 0.742754 0.391431
O O12 0.000000 0.607054 0.500000
O O13 0.500000 0.478908 0.000000
#
# Coordination Sequence:
#
# PCOD9126806 Si02
#       6
#     4   4   4   4   4   4
#     4  11  23  41  68 104 143 184 228 278 349 429
#     4  11  21  40  68 101 139 181 223 283 344 412
#     4  10  22  42  68  93 136 180 223 288 344 398
#     4  10  22  43  68  94 134 175 229 287 340 404
#     4  10  22  42  66  92 130 176 228 287 340 398
#     4  12  22  41  69 101 145 185 223 284 351 416
#
# _framework density 24.600107000000001
#
# number of rings (size 3 to 8) (size 9 to 14) (size 15 to 20)
#    0.000    1.333    5.000    1.000    0.000    4.667 
#    0.000    5.833    3.667    0.000    0.000    0.000 
#    0.000    0.000    0.000    0.000    0.000    0.000 
#
# Total GULP energy -66816.384465 kJ/mol
# GULP energy per Si atom -5568.032039 kJ/mol
# Density = 2.454412 g / cm^3
# Si number density = 24.600107 Si / 1000 Ang^3
#
#
#
# Elastic Constant Matrix: (Units=GPa)
#
#
# Indices 1 2 3 4 5 6 
#
# 1 149.0420 52.3032 62.3118 0.0000 40.3652 0.0000
# 2 52.3032 72.4959 31.8668 0.0000 4.7105 0.0000
# 3 62.3118 31.8668 178.2418 -0.0001 26.1595 0.0001
# 4 0.0000 0.0000 -0.0001 33.8610 -0.0001 -5.4109
# 5 40.3652 4.7105 26.1595 -0.0001 60.5663 0.0001
# 6 0.0000 0.0000 0.0001 -5.4109 0.0001 28.1329
#
#
#
# Elastic Compliance Matrix: (Units=1/GPa)
#
#
# Indices 1 2 3 4 5 6 
#
# 1 0.011802 -0.007269 -0.001874 0.000000 -0.006491 0.000000
# 2 -0.007269 0.019448 -0.001521 0.000000 0.003989 0.000000
# 3 -0.001874 -0.001521 0.006766 0.000000 -0.001555 0.000000
# 4 0.000000 0.000000 0.000000 0.030469 0.000000 0.005860
# 5 -0.006491 0.003989 -0.001555 0.000000 0.021198 0.000000
# 6 0.000000 0.000000 0.000000 0.005860 0.000000 0.036673
#
#
# Mechanical properties :
#
#
# Convention : Reuss Voigt Hill
#
# Bulk Modulus (GPa) = 59.92608 76.97147 68.44877
# Shear Modulus (GPa) = 32.62744 41.39855 37.01299
#
# Velocity S-wave (km/s) = 3.64581 4.10672 3.88311
# Velocity P-wave (km/s) = 6.49119 7.33784 6.92746
#
# Compressibility (1/GPa) = 0.01668723
#
# Stress axis : x y z
#
# Youngs Moduli (GPa) = 84.73349 51.41963 147.80797
#
# Poissons Ratio (x) = 0.37378 0.27692
# Poissons Ratio (y) = 0.61595 0.22484
# Poissons Ratio (z) = 0.15875 0.07822
#
# Static dielectric constant tensor:
#      x y z
#    x 2.022570 0.000000 0.009660 
#    y 0.000000 1.931890 0.000000 
#    z 0.009660 0.000000 2.002310 
# 
# From -- ./inp_files/68311.got.cif
#   From: 2010.05.17/outbox.cif.g08.bks.cpg/sg5_35_cif.got.tgz:68311.got - 2010.06.03 18:56:24.
