data_PCOD9126926
_publ_section_title
;
Structure prediction by ZEFSAII (Michael W. Deem and Ramdas Pophale) SiO2 
 PCOD9126926
Probable space group: C 2
;
_chemical_formula_sum "Si O2"
_cell_formula_units_Z 28
_cell_length_a 5.238712
_cell_length_b 30.592484
_cell_length_c 8.341694
_cell_angle_alpha 90.000000
_cell_angle_beta 59.339122
_cell_angle_gamma 90.000000
_cell_volume 1149.987972
_symmetry_space_group_name_H-M "C 2"
_symmetry_group_IT_number 5
_symmetry_cell_setting 'monoclinic'
loop_
_space_group_symop_operation_xyz
x,y,z
-x,y,-z
1/2+x,1/2+y,z
1/2-x,1/2+y,-z
loop_
_atom_site_type_symbol
_atom_site_label
_atom_site_fract_x
_atom_site_fract_y
_atom_site_fract_z
Si Si1 0.902605 0.866610 0.213317
Si Si2 0.826315 0.964182 0.225807
Si Si3 0.959149 0.141964 0.184806
Si Si4 0.179800 0.317461 0.695129
Si Si5 0.000000 0.710132 0.000000
Si Si6 0.170881 0.517684 0.775247
Si Si7 0.346439 0.228789 0.719390
Si Si8 0.000000 0.090635 0.500000
O O1 0.824415 0.915487 0.296734
O O2 0.603164 0.837365 0.304142
O O3 0.197120 0.848397 0.204527
O O4 0.000000 0.870094 0.000000
O O5 0.512723 0.983901 0.274220
O O6 0.014905 0.996762 0.275851
O O7 0.000000 0.962549 0.000000
O O8 0.226452 0.176899 0.113812
O O9 0.702181 0.177102 0.241059
O O10 0.921621 0.117115 0.363299
O O11 0.000000 0.117033 0.000000
O O12 0.500000 0.315286 0.500000
O O13 0.110455 0.267982 0.773876
O O14 0.009723 0.739405 0.156390
O O15 0.231469 0.560639 0.651354
O O16 0.000000 0.526347 0.000000
O O17 0.500000 0.229392 0.500000
#
# Coordination Sequence:
#
# PCOD9126926 Si02
#       8
#     4   4   4   4   2   4   4   2
#     4  11  23  42  73 103 138 189 241 295 353 434
#     4   9  20  45  70  98 141 185 230 288 369 430
#     4  10  24  45  68 101 142 187 234 301 364 433
#     4  11  25  42  63 106 148 186 234 299 355 420
#     4  10  22  42  70  98 132 196 226 300 354 432
#     4  10  23  45  72 103 144 186 235 305 364 442
#     4  10  23  43  67  96 144 192 241 290 364 431
#     4  12  26  46  72 110 136 188 248 304 372 446
#
# _framework density 24.34808
#
# number of rings (size 3 to 8) (size 9 to 14) (size 15 to 20)
#    0.000    1.714    0.000    2.571    4.000    6.857 
#   18.000    0.000    0.000    0.000    0.000    0.000 
#    0.000    0.000    0.000    0.000    0.000    0.000 
#
# Total GULP energy -78100.407333 kJ/mol
# GULP energy per Si atom -5578.600524 kJ/mol
# Density = 2.429266 g / cm^3
# Si number density = 24.348080 Si / 1000 Ang^3
#
#
#
# Elastic Constant Matrix: (Units=GPa)
#
#
# Indices 1 2 3 4 5 6 
#
# 1 99.0177 22.8221 42.7331 0.0000 21.2281 0.0000
# 2 22.8221 108.4245 47.7433 0.0000 23.9818 0.0000
# 3 42.7331 47.7433 142.9150 0.0000 23.1853 0.0000
# 4 0.0000 0.0000 0.0000 25.5557 0.0000 -11.2157
# 5 21.2281 23.9818 23.1853 0.0000 31.6582 0.0000
# 6 0.0000 0.0000 0.0000 -11.2157 0.0000 36.7708
#
#
#
# Elastic Compliance Matrix: (Units=1/GPa)
#
#
# Indices 1 2 3 4 5 6 
#
# 1 0.012672 -0.000035 -0.002727 0.000000 -0.006474 0.000000
# 2 -0.000035 0.012045 -0.002879 0.000000 -0.006992 0.000000
# 3 -0.002727 -0.002879 0.009219 0.000000 -0.002742 0.000000
# 4 0.000000 0.000000 0.000000 0.045178 0.000000 0.013780
# 5 -0.006474 -0.006992 -0.002742 0.000000 0.043233 0.000000
# 6 0.000000 0.000000 0.000000 0.013780 0.000000 0.031399
#
#
# Mechanical properties :
#
#
# Convention : Reuss Voigt Hill
#
# Bulk Modulus (GPa) = 44.14177 64.10602 54.12390
# Shear Modulus (GPa) = 28.97226 34.60087 31.78656
#
# Velocity S-wave (km/s) = 3.45326 3.77383 3.61710
# Velocity P-wave (km/s) = 5.83685 6.73611 6.30254
#
# Compressibility (1/GPa) = 0.02265428
#
# Stress axis : x y z
#
# Youngs Moduli (GPa) = 78.91389 83.02465 108.46790
#
# Poissons Ratio (x) = 0.00287 0.29583
# Poissons Ratio (y) = 0.00272 0.31228
# Poissons Ratio (z) = 0.21522 0.23903
#
# Static dielectric constant tensor:
#      x y z
#    x 1.018610 0.000000 0.482910 
#    y 0.000000 1.953390 0.000000 
#    z 0.482910 0.000000 1.634750 
# 
# From -- ./inp_files/13331.got.cif
#   From: 2010.05.17/outbox.cif.g08.bks.cpg/sg5_7_cif.got.tgz:13331.got - 2010.06.03 18:56:24.
