data_PCOD9126448
_publ_section_title
;
Structure prediction by ZEFSAII (Michael W. Deem and Ramdas Pophale) SiO2 
 PCOD9126448
Probable space group: C 2
;
_chemical_formula_sum "Si O2"
_cell_formula_units_Z 28
_cell_length_a 14.958234
_cell_length_b 9.447968
_cell_length_c 8.077089
_cell_angle_alpha 90.000000
_cell_angle_beta 71.403016
_cell_angle_gamma 90.000000
_cell_volume 1081.891047
_symmetry_space_group_name_H-M "C 2"
_symmetry_group_IT_number 5
_symmetry_cell_setting 'monoclinic'
loop_
_space_group_symop_operation_xyz
x,y,z
-x,y,-z
1/2+x,1/2+y,z
1/2-x,1/2+y,-z
loop_
_atom_site_type_symbol
_atom_site_label
_atom_site_fract_x
_atom_site_fract_y
_atom_site_fract_z
Si Si1 0.397649 0.258730 0.644578
Si Si2 0.096121 0.654916 0.988366
Si Si3 0.080419 0.198814 0.358714
Si Si4 0.557740 0.756316 0.804749
Si Si5 0.291661 0.514398 0.888375
Si Si6 0.237147 0.292205 0.528439
Si Si7 0.854108 0.948108 0.204351
O O1 0.500000 0.273951 0.500000
O O2 0.405305 0.179011 0.813697
O O3 0.343453 0.401326 0.739438
O O4 0.321275 0.198850 0.558379
O O5 0.192206 0.574958 0.893339
O O6 0.095460 0.801842 0.881528
O O7 0.000000 0.579653 0.000000
O O8 0.166759 0.230741 0.429220
O O9 0.000000 0.105378 0.500000
O O10 0.005631 0.304404 0.316355
O O11 0.131896 0.139259 0.167185
O O12 0.661210 0.820246 0.717281
O O13 0.581054 0.585022 0.800291
O O14 0.500000 0.788095 0.000000
O O15 0.288651 0.470557 0.081450
O O16 0.293841 0.415575 0.402749
#
# Coordination Sequence:
#
# PCOD9126448 Si02
#       7
#     4   4   4   4   4   4   4
#     4  11  26  43  72 105 135 185 241 289 346 420
#     4  11  24  45  69 103 141 186 232 293 354 418
#     4  10  22  40  67 101 140 179 226 294 348 399
#     4  11  23  42  74 102 137 183 235 287 350 416
#     4  11  23  42  70 102 143 180 236 295 350 410
#     4  11  25  42  66 107 148 176 229 300 355 406
#     4  11  23  41  71 104 138 183 237 290 345 419
#
# _framework density 25.880611999999999
#
# number of rings (size 3 to 8) (size 9 to 14) (size 15 to 20)
#    0.000    1.143    2.857    2.571    8.000    0.000 
#    0.000    5.000    0.000    2.571    0.000    0.000 
#    0.000    0.000    0.000    0.000    0.000    0.000 
#
# Total GULP energy -78156.136813 kJ/mol
# GULP energy per Si atom -5582.581201 kJ/mol
# Density = 2.582171 g / cm^3
# Si number density = 25.880612 Si / 1000 Ang^3
#
#
#
# Elastic Constant Matrix: (Units=GPa)
#
#
# Indices 1 2 3 4 5 6 
#
# 1 223.3695 46.1724 83.5574 0.0000 -23.5548 0.0000
# 2 46.1724 81.2572 47.1674 0.0000 -3.0239 0.0000
# 3 83.5574 47.1674 203.9803 0.0000 -27.5182 0.0000
# 4 0.0000 0.0000 0.0000 18.9264 0.0000 6.7150
# 5 -23.5548 -3.0239 -27.5182 0.0000 53.8911 0.0000
# 6 0.0000 0.0000 0.0000 6.7150 0.0000 -24.4222
#
#
#
# Elastic Compliance Matrix: (Units=1/GPa)
#
#
# Indices 1 2 3 4 5 6 
#
# 1 0.005707 -0.002252 -0.001609 0.000000 0.001547 0.000000
# 2 -0.002252 0.015148 -0.002791 0.000000 -0.001559 0.000000
# 3 -0.001609 -0.002791 0.006541 0.000000 0.002481 0.000000
# 4 0.000000 0.000000 0.000000 0.048140 0.000000 0.013236
# 5 0.001547 -0.001559 0.002481 0.000000 0.020411 0.000000
# 6 0.000000 0.000000 0.000000 0.013236 0.000000 -0.037307
#
#
# Mechanical properties :
#
#
# Convention : Reuss Voigt Hill
#
# Bulk Modulus (GPa) = 70.94930 95.82238 83.38584
# Shear Modulus (GPa) = 65.23967 31.79307 48.51637
#
# Velocity S-wave (km/s) = 5.02620 3.50873 4.33439
# Velocity P-wave (km/s) = 7.82030 7.31574 7.57223
#
# Compressibility (1/GPa) = 0.01409457
#
# Stress axis : x y z
#
# Youngs Moduli (GPa) = 175.21886 66.01548 152.87537
#
# Poissons Ratio (x) = 0.14865 0.24590
# Poissons Ratio (y) = 0.39454 0.42663
# Poissons Ratio (z) = 0.28184 0.18423
#
# Static dielectric constant tensor:
#      x y z
#    x 2.041210 0.000000 0.058580 
#    y 0.000000 2.136300 0.000000 
#    z 0.058580 0.000000 2.093040 
# 
# From -- ./inp_files/23767.got.cif
#   From: 2010.05.17/outbox.cif.g08.bks.cpg/sg5_12_cif.got.tgz:23767.got - 2010.06.03 18:56:24.
