data_PCOD9126013
_publ_section_title
;
Structure prediction by ZEFSAII (Michael W. Deem and Ramdas Pophale) SiO2 
 PCOD9126013
Probable space group: C 2
;
_chemical_formula_sum "Si O2"
_cell_formula_units_Z 18
_cell_length_a 4.994687
_cell_length_b 23.230559
_cell_length_c 6.857706
_cell_angle_alpha 90.000000
_cell_angle_beta 70.965741
_cell_angle_gamma 90.000000
_cell_volume 752.189669
_symmetry_space_group_name_H-M "C 2"
_symmetry_group_IT_number 5
_symmetry_cell_setting 'monoclinic'
loop_
_space_group_symop_operation_xyz
x,y,z
-x,y,-z
1/2+x,1/2+y,z
1/2-x,1/2+y,-z
loop_
_atom_site_type_symbol
_atom_site_label
_atom_site_fract_x
_atom_site_fract_y
_atom_site_fract_z
Si Si1 0.686688 0.098210 0.654571
Si Si2 0.500000 0.879074 0.000000
Si Si3 0.904289 0.209633 0.747228
Si Si4 0.175802 0.471992 0.652003
Si Si5 0.590392 0.282974 0.251687
O O1 0.500000 0.112041 0.500000
O O2 0.735802 0.149490 0.799505
O O3 0.000000 0.088198 0.500000
O O4 0.625374 0.035461 0.756703
O O5 0.474340 0.922681 0.186652
O O6 0.241410 0.836692 0.116319
O O7 0.686390 0.262058 0.794737
O O8 0.000000 0.206707 0.500000
O O9 0.185786 0.229066 0.794355
O O10 0.500000 0.460658 0.500000
O O11 0.000000 0.476446 0.500000
O O12 0.500000 0.294632 0.500000
#
# Coordination Sequence:
#
# PCOD9126013 Si02
#       5
#     4   2   4   4   4
#     4   9  16  33  62  90 118 155 199 252 315 370
#     4  12  26  44  64  90 128 174 214 256 304 366
#     4   9  17  34  60  89 118 154 196 249 312 366
#     4  10  24  43  65  93 124 164 212 260 310 368
#     4  10  22  37  59  89 122 159 202 249 303 365
#
# _framework density 23.930137999999999
#
# number of rings (size 3 to 8) (size 9 to 14) (size 15 to 20)
#    0.000    2.222    0.000    4.000    0.000    8.000 
#    0.000    2.222    0.000    0.000    0.000    0.000 
#    0.000    0.000    0.000    0.000    0.000    0.000 
#
# Total GULP energy -50149.783673 kJ/mol
# GULP energy per Si atom -5572.198186 kJ/mol
# Density = 2.387567 g / cm^3
# Si number density = 23.930138 Si / 1000 Ang^3
#
#
#
# Elastic Constant Matrix: (Units=GPa)
#
#
# Indices 1 2 3 4 5 6 
#
# 1 121.4191 15.3791 -2.7233 0.0000 -9.8556 0.0000
# 2 15.3791 184.4490 42.2689 0.0000 -4.4826 0.0000
# 3 -2.7233 42.2689 114.3184 0.0000 -28.8682 0.0000
# 4 0.0000 0.0000 0.0000 33.2998 0.0000 38.2506
# 5 -9.8556 -4.4826 -28.8682 0.0000 21.2558 0.0000
# 6 0.0000 0.0000 0.0000 38.2506 0.0000 -0.4353
#
#
#
# Elastic Compliance Matrix: (Units=1/GPa)
#
#
# Indices 1 2 3 4 5 6 
#
# 1 0.009031 -0.001145 0.002489 0.000000 0.007326 0.000000
# 2 -0.001145 0.006167 -0.003216 0.000000 -0.003598 0.000000
# 3 0.002489 -0.003216 0.015396 0.000000 0.021386 0.000000
# 4 0.000000 0.000000 0.000000 0.000295 0.000000 0.025887
# 5 0.007326 -0.003598 0.021386 0.000000 0.078729 0.000000
# 6 0.000000 0.000000 0.000000 0.025887 0.000000 -0.022536
#
#
# Mechanical properties :
#
#
# Convention : Reuss Voigt Hill
#
# Bulk Modulus (GPa) = 37.24541 58.89288 48.06915
# Shear Modulus (GPa) = 50.11191 35.17485 42.64338
#
# Velocity S-wave (km/s) = 4.58109 3.83808 4.22595
# Velocity P-wave (km/s) = 6.60150 6.65620 6.62891
#
# Compressibility (1/GPa) = 0.02684894
#
# Stress axis : x y z
#
# Youngs Moduli (GPa) = 110.72418 162.16414 64.95025
#
# Poissons Ratio (x) = 0.18572 -0.16163
# Poissons Ratio (y) = 0.12681 0.20888
# Poissons Ratio (z) = -0.27555 0.52153
#
# Static dielectric constant tensor:
#      x y z
#    x 1.874080 0.000000 -0.058090 
#    y 0.000000 2.066730 0.000000 
#    z -0.058090 0.000000 2.012060 
# 
# From -- ./inp_files/12401.got.cif
#   From: 2010.05.17/outbox.cif.g08.bks.cpg/sg5_7_cif.got.tgz:12401.got - 2010.06.03 18:56:24.
