data_PCOD9126816
_publ_section_title
;
Structure prediction by ZEFSAII (Michael W. Deem and Ramdas Pophale) SiO2 
 PCOD9126816
Probable space group: C 2
;
_chemical_formula_sum "Si O2"
_cell_formula_units_Z 26
_cell_length_a 23.936007
_cell_length_b 6.614310
_cell_length_c 7.778805
_cell_angle_alpha 90.000000
_cell_angle_beta 83.845984
_cell_angle_gamma 90.000000
_cell_volume 1224.444754
_symmetry_space_group_name_H-M "C 2"
_symmetry_group_IT_number 5
_symmetry_cell_setting 'monoclinic'
loop_
_space_group_symop_operation_xyz
x,y,z
-x,y,-z
1/2+x,1/2+y,z
1/2-x,1/2+y,-z
loop_
_atom_site_type_symbol
_atom_site_label
_atom_site_fract_x
_atom_site_fract_y
_atom_site_fract_z
Si Si1 0.000000 0.664690 0.000000
Si Si2 0.300045 0.369134 0.578508
Si Si3 0.051773 0.354123 0.243931
Si Si4 0.729306 0.535977 0.781208
Si Si5 0.512522 0.452170 0.735169
Si Si6 0.077979 0.732018 0.414770
Si Si7 0.678672 0.709037 0.146642
O O1 0.035499 0.508775 0.100268
O O2 0.962488 0.828915 0.114309
O O3 0.295207 0.412967 0.375983
O O4 0.250216 0.239013 0.677923
O O5 0.356146 0.240582 0.594343
O O6 0.306941 0.566568 0.694970
O O7 0.002654 0.186090 0.264530
O O8 0.058069 0.500345 0.408292
O O9 0.113073 0.264629 0.184699
O O10 0.780706 0.404073 0.843718
O O11 0.691858 0.600019 0.958981
O O12 0.551757 0.370227 0.572211
O O13 0.450870 0.349553 0.733642
#
# Coordination Sequence:
#
# PCOD9126816 Si02
#       7
#     2   4   4   4   4   4   4
#     4  10  24  42  62 102 140 174 240 290 346 446
#     4  12  24  46  69 105 143 188 241 297 353 430
#     4  11  23  45  71  97 142 187 231 297 367 416
#     4  12  26  44  73 105 145 191 239 296 357 427
#     4  10  22  42  66  96 135 185 225 297 350 427
#     4  10  23  42  68  96 136 179 239 290 354 428
#     4  12  25  46  73 103 147 191 236 300 361 417
#
# _framework density 21.234113000000001
#
# number of rings (size 3 to 8) (size 9 to 14) (size 15 to 20)
#    0.000    0.923    6.154    0.462    0.000    7.385 
#    8.308    0.000    0.000    0.000    0.000    0.000 
#    0.000    0.000    0.000    0.000    0.000    0.000 
#
# Total GULP energy -72382.680768 kJ/mol
# GULP energy per Si atom -5567.898521 kJ/mol
# Density = 2.118578 g / cm^3
# Si number density = 21.234113 Si / 1000 Ang^3
#
#
#
# Elastic Constant Matrix: (Units=GPa)
#
#
# Indices 1 2 3 4 5 6 
#
# 1 44.9941 20.7133 19.7391 0.0000 -14.9862 0.0000
# 2 20.7133 133.8439 41.6505 0.0000 -11.3492 0.0000
# 3 19.7391 41.6505 116.4145 0.0000 -2.7744 0.0000
# 4 0.0000 0.0000 0.0000 38.3728 0.0000 10.0435
# 5 -14.9862 -11.3492 -2.7744 0.0000 22.9024 0.0000
# 6 0.0000 0.0000 0.0000 10.0435 0.0000 36.2425
#
#
#
# Elastic Compliance Matrix: (Units=1/GPa)
#
#
# Indices 1 2 3 4 5 6 
#
# 1 0.031267 -0.001934 -0.004157 0.000000 0.018997 0.000000
# 2 -0.001934 0.008873 -0.002780 0.000000 0.002794 0.000000
# 3 -0.004157 -0.002780 0.010221 0.000000 -0.002859 0.000000
# 4 0.000000 0.000000 0.000000 0.028098 0.000000 -0.007787
# 5 0.018997 0.002794 -0.002859 0.000000 0.057133 0.000000
# 6 0.000000 0.000000 0.000000 -0.007787 0.000000 0.029750
#
#
# Mechanical properties :
#
#
# Convention : Reuss Voigt Hill
#
# Bulk Modulus (GPa) = 30.65734 51.05095 40.85415
# Shear Modulus (GPa) = 25.77907 33.71352 29.74629
#
# Velocity S-wave (km/s) = 3.48809 3.98892 3.74688
# Velocity P-wave (km/s) = 5.53999 6.73123 6.16445
#
# Compressibility (1/GPa) = 0.03261862
#
# Stress axis : x y z
#
# Youngs Moduli (GPa) = 31.98306 112.70448 97.83544
#
# Poissons Ratio (x) = 0.21801 0.40667
# Poissons Ratio (y) = 0.06187 0.27197
# Poissons Ratio (z) = 0.13294 0.31331
#
# Static dielectric constant tensor:
#      x y z
#    x 1.797540 0.000000 0.084130 
#    y 0.000000 1.809650 0.000000 
#    z 0.084130 0.000000 1.777980 
# 
# From -- ./inp_files/31362.got.cif
#   From: 2010.05.17/outbox.cif.g08.bks.cpg/sg5_16_cif.got.tgz:31362.got - 2010.06.03 18:56:24.
