data_PCOD9126747
_publ_section_title
;
Structure prediction by ZEFSAII (Michael W. Deem and Ramdas Pophale) SiO2 
 PCOD9126747
Probable space group: C 2
;
_chemical_formula_sum "Si O2"
_cell_formula_units_Z 28
_cell_length_a 14.273333
_cell_length_b 10.069600
_cell_length_c 11.324622
_cell_angle_alpha 90.000000
_cell_angle_beta 118.726977
_cell_angle_gamma 90.000000
_cell_volume 1427.319789
_symmetry_space_group_name_H-M "C 2"
_symmetry_group_IT_number 5
_symmetry_cell_setting 'monoclinic'
loop_
_space_group_symop_operation_xyz
x,y,z
-x,y,-z
1/2+x,1/2+y,z
1/2-x,1/2+y,-z
loop_
_atom_site_type_symbol
_atom_site_label
_atom_site_fract_x
_atom_site_fract_y
_atom_site_fract_z
Si Si1 0.000000 0.018510 0.000000
Si Si2 0.000000 0.151164 0.500000
Si Si3 0.914614 0.735320 0.689040
Si Si4 0.058877 0.054332 0.289940
Si Si5 0.206601 0.308625 0.676829
Si Si6 0.223181 0.913310 0.047736
Si Si7 0.657460 0.180310 0.845218
Si Si8 0.294762 0.114873 0.395703
O O1 0.009594 0.090949 0.132187
O O2 0.110704 0.938436 0.049229
O O3 0.996586 0.077894 0.372781
O O4 0.105549 0.236647 0.564953
O O5 0.812379 0.722615 0.712668
O O6 0.874256 0.677346 0.539474
O O7 0.029640 0.673531 0.789225
O O8 0.929376 0.894538 0.701103
O O9 0.171675 0.131850 0.359656
O O10 0.203230 0.335547 0.814291
O O11 0.201827 0.455282 0.615947
O O12 0.278743 0.055414 0.060187
O O13 0.198598 0.818961 0.923473
O O14 0.680457 0.171899 0.719050
#
# Coordination Sequence:
#
# PCOD9126747 Si02
#       8
#     2   2   4   4   4   4   4   4
#     4  12  20  46  64  88 136 184 216 250 350 406
#     4  12  26  40  64 104 130 166 232 278 320 386
#     4  11  21  41  66  91 124 173 218 267 326 396
#     4  11  24  41  68  94 131 178 216 273 327 399
#     4  10  23  41  63  90 130 173 211 273 337 388
#     4  11  23  41  66  95 127 178 224 266 333 395
#     4  11  23  39  68  96 130 173 222 270 326 409
#     4  10  22  42  63  95 127 170 217 269 337 386
#
# _framework density 19.617187999999999
#
# number of rings (size 3 to 8) (size 9 to 14) (size 15 to 20)
#    0.000    1.143    7.143    0.429    8.000    0.000 
#    0.000    0.000    0.000    7.714    0.000    0.000 
#    0.000    0.000    0.000    0.000    0.000    0.000 
#
# Total GULP energy -78015.478326 kJ/mol
# GULP energy per Si atom -5572.534166 kJ/mol
# Density = 1.957254 g / cm^3
# Si number density = 19.617188 Si / 1000 Ang^3
#
#
#
# Elastic Constant Matrix: (Units=GPa)
#
#
# Indices 1 2 3 4 5 6 
#
# 1 94.2912 46.8979 37.6545 0.0000 -1.6566 0.0000
# 2 46.8979 53.7168 40.2342 0.0000 5.5479 0.0000
# 3 37.6545 40.2342 103.6644 0.0000 8.0248 0.0000
# 4 0.0000 0.0000 0.0000 17.5076 0.0000 -0.0946
# 5 -1.6566 5.5479 8.0248 0.0000 30.7504 0.0000
# 6 0.0000 0.0000 0.0000 -0.0946 0.0000 11.9762
#
#
#
# Elastic Compliance Matrix: (Units=1/GPa)
#
#
# Indices 1 2 3 4 5 6 
#
# 1 0.019308 -0.016633 -0.000889 0.000000 0.004273 0.000000
# 2 -0.016633 0.040710 -0.009309 0.000000 -0.005812 0.000000
# 3 -0.000889 -0.009309 0.013733 0.000000 -0.001952 0.000000
# 4 0.000000 0.000000 0.000000 0.057121 0.000000 0.000451
# 5 0.004273 -0.005812 -0.001952 0.000000 0.034308 0.000000
# 6 0.000000 0.000000 0.000000 0.000451 0.000000 0.083503
#
#
# Mechanical properties :
#
#
# Convention : Reuss Voigt Hill
#
# Bulk Modulus (GPa) = 49.77360 55.69397 52.73379
# Shear Modulus (GPa) = 16.17907 20.50587 18.34247
#
# Velocity S-wave (km/s) = 2.87494 3.23662 3.06113
# Velocity P-wave (km/s) = 6.03721 6.51304 6.27963
#
# Compressibility (1/GPa) = 0.02009097
#
# Stress axis : x y z
#
# Youngs Moduli (GPa) = 51.79163 24.56376 72.81512
#
# Poissons Ratio (x) = 0.40857 0.06470
# Poissons Ratio (y) = 0.86144 0.67783
# Poissons Ratio (z) = 0.04602 0.22866
#
# Static dielectric constant tensor:
#      x y z
#    x 1.755000 0.000000 -0.014010 
#    y 0.000000 1.666990 0.000000 
#    z -0.014010 0.000000 1.745640 
# 
# From -- ./inp_files/41855.got.cif
#   From: 2010.05.17/outbox.cif.g08.bks.cpg/sg5_21_cif.got.tgz:41855.got - 2010.06.03 18:56:24.
