data_PCOD9126648
_publ_section_title
;
Structure prediction by ZEFSAII (Michael W. Deem and Ramdas Pophale) SiO2 
 PCOD9126648
Probable space group: C 2
;
_chemical_formula_sum "Si O2"
_cell_formula_units_Z 14
_cell_length_a 10.902803
_cell_length_b 9.355270
_cell_length_c 6.437032
_cell_angle_alpha 90.000000
_cell_angle_beta 126.710964
_cell_angle_gamma 90.000000
_cell_volume 526.345678
_symmetry_space_group_name_H-M "C 2"
_symmetry_group_IT_number 5
_symmetry_cell_setting 'monoclinic'
loop_
_space_group_symop_operation_xyz
x,y,z
-x,y,-z
1/2+x,1/2+y,z
1/2-x,1/2+y,-z
loop_
_atom_site_type_symbol
_atom_site_label
_atom_site_fract_x
_atom_site_fract_y
_atom_site_fract_z
Si Si1 0.500000 0.420890 0.000000
Si Si2 0.768188 0.433735 0.009073
Si Si3 0.861203 0.732026 0.484732
Si Si4 0.829086 0.164624 0.337591
O O1 0.637887 0.498707 0.028049
O O2 0.435716 0.323867 0.747450
O O3 0.711377 0.335296 0.760751
O O4 0.805312 0.577549 0.919936
O O5 0.845796 0.319342 0.241624
O O6 0.726628 0.660300 0.481565
O O7 0.000000 0.652835 0.500000
O O8 0.000000 0.100192 0.500000
#
# Coordination Sequence:
#
# PCOD9126648 Si02
#       4
#     2   4   4   4
#     4   8  16  36  64  90 122 176 220 256 322 394
#     4  10  22  41  67  96 134 176 221 274 332 394
#     4   9  19  39  64  94 132 174 218 269 329 393
#     4  11  24  43  69 101 133 174 224 276 332 395
#
# _framework density 26.598492
#
# number of rings (size 3 to 8) (size 9 to 14) (size 15 to 20)
#    0.000    2.286    0.000    2.571    0.000    8.000 
#    0.000   27.143    0.000    0.000    0.000    0.000 
#    0.000    0.000    0.000    0.000    0.000    0.000 
#
# Total GULP energy -38985.423868 kJ/mol
# GULP energy per Si atom -5569.346267 kJ/mol
# Density = 2.653795 g / cm^3
# Si number density = 26.598492 Si / 1000 Ang^3
#
#
#
# Elastic Constant Matrix: (Units=GPa)
#
#
# Indices 1 2 3 4 5 6 
#
# 1 164.5845 16.6771 43.0879 0.0000 -49.4566 0.0000
# 2 16.6771 90.6251 44.9968 0.0000 -7.0049 0.0000
# 3 43.0879 44.9968 175.9896 0.0000 -39.4243 0.0000
# 4 0.0000 0.0000 0.0000 64.5857 0.0000 -15.8829
# 5 -49.4566 -7.0049 -39.4243 0.0000 42.9190 0.0000
# 6 0.0000 0.0000 0.0000 -15.8829 0.0000 18.1594
#
#
#
# Elastic Compliance Matrix: (Units=1/GPa)
#
#
# Indices 1 2 3 4 5 6 
#
# 1 0.009392 -0.001102 0.000461 0.000000 0.011067 0.000000
# 2 -0.001102 0.012813 -0.003553 0.000000 -0.002443 0.000000
# 3 0.000461 -0.003553 0.008142 0.000000 0.007431 0.000000
# 4 0.000000 0.000000 0.000000 0.019726 0.000000 0.017253
# 5 0.011067 -0.002443 0.007431 0.000000 0.042480 0.000000
# 6 0.000000 0.000000 0.000000 0.017253 0.000000 0.070158
#
#
# Mechanical properties :
#
#
# Convention : Reuss Voigt Hill
#
# Bulk Modulus (GPa) = 45.53852 71.19145 58.36498
# Shear Modulus (GPa) = 28.02386 46.89532 37.45959
#
# Velocity S-wave (km/s) = 3.24942 4.20346 3.75685
# Velocity P-wave (km/s) = 5.58894 7.09804 6.38821
#
# Compressibility (1/GPa) = 0.02195943
#
# Stress axis : x y z
#
# Youngs Moduli (GPa) = 106.46984 78.04721 122.81420
#
# Poissons Ratio (x) = 0.08601 -0.05667
# Poissons Ratio (y) = 0.11734 0.43640
# Poissons Ratio (z) = -0.04912 0.27733
#
# Static dielectric constant tensor:
#      x y z
#    x 2.157280 0.000000 0.077880 
#    y 0.000000 2.130000 0.000000 
#    z 0.077880 0.000000 2.107220 
# 
# From -- ./inp_files/4193.got.cif
#   From: 2010.05.17/outbox.cif.g08.bks.cpg/sg5_3_cif.got.tgz:4193.got - 2010.06.03 18:56:24.
