data_PCOD9126962
_publ_section_title
;
Structure prediction by ZEFSAII (Michael W. Deem and Ramdas Pophale) SiO2 
 PCOD9126962
Probable space group: C 2
;
_chemical_formula_sum "Si O2"
_cell_formula_units_Z 26
_cell_length_a 14.948560
_cell_length_b 13.891424
_cell_length_c 9.139293
_cell_angle_alpha 90.000000
_cell_angle_beta 39.827568
_cell_angle_gamma 90.000000
_cell_volume 1215.524778
_symmetry_space_group_name_H-M "C 2"
_symmetry_group_IT_number 5
_symmetry_cell_setting 'monoclinic'
loop_
_space_group_symop_operation_xyz
x,y,z
-x,y,-z
1/2+x,1/2+y,z
1/2-x,1/2+y,-z
loop_
_atom_site_type_symbol
_atom_site_label
_atom_site_fract_x
_atom_site_fract_y
_atom_site_fract_z
Si Si1 0.803580 0.452000 0.113636
Si Si2 0.872784 0.421154 0.350085
Si Si3 0.895420 0.089034 0.524863
Si Si4 0.341048 0.083351 0.633965
Si Si5 0.000000 0.817053 0.000000
Si Si6 0.873325 0.958714 0.916398
Si Si7 0.738964 0.222211 0.512065
O O1 0.790133 0.425815 0.300307
O O2 0.732743 0.556579 0.210725
O O3 0.715965 0.402463 0.095478
O O4 0.965072 0.442641 0.878830
O O5 0.833771 0.498602 0.520573
O O6 0.841248 0.311077 0.421420
O O7 0.824098 0.136863 0.478226
O O8 0.000000 0.146895 0.500000
O O9 0.994300 0.004492 0.334830
O O10 0.500000 0.087549 0.500000
O O11 0.299700 0.182825 0.601752
O O12 0.226568 0.043596 0.893313
O O13 0.899936 0.750468 0.224328
O O14 0.079777 0.887883 0.012985
#
# Coordination Sequence:
#
# PCOD9126962 Si02
#       7
#     4   4   4   4   2   4   4
#     4  10  22  42  73  95 135 183 230 279 349 415
#     4  11  23  44  71 100 138 182 227 288 348 414
#     4  10  23  41  68 101 137 181 230 284 350 414
#     4  12  25  45  74 103 139 186 237 288 350 416
#     4  12  26  40  68 100 144 188 228 294 346 426
#     4  11  23  45  71  98 137 187 236 285 348 420
#     4  12  27  42  68 107 142 179 236 291 355 413
#
# _framework density 21.389938000000001
#
# number of rings (size 3 to 8) (size 9 to 14) (size 15 to 20)
#    0.000    0.923    4.615    1.846    2.154    5.538 
#    0.000    0.000    0.000    0.000    0.000    0.000 
#    0.000    0.000    0.000    0.000    0.000    0.000 
#
# Total GULP energy -72379.105362 kJ/mol
# GULP energy per Si atom -5567.623489 kJ/mol
# Density = 2.134125 g / cm^3
# Si number density = 21.389938 Si / 1000 Ang^3
#
#
#
# Elastic Constant Matrix: (Units=GPa)
#
#
# Indices 1 2 3 4 5 6 
#
# 1 152.8396 13.6781 19.1585 0.0000 -5.5890 0.0000
# 2 13.6781 38.3917 14.6161 0.0000 -12.2233 0.0000
# 3 19.1585 14.6161 109.5907 0.0000 -16.6848 0.0000
# 4 0.0000 0.0000 0.0000 84.2842 0.0000 -27.1420
# 5 -5.5890 -12.2233 -16.6848 0.0000 37.5349 0.0000
# 6 0.0000 0.0000 0.0000 -27.1420 0.0000 30.2764
#
#
#
# Elastic Compliance Matrix: (Units=1/GPa)
#
#
# Indices 1 2 3 4 5 6 
#
# 1 0.006845 -0.002111 -0.000927 0.000000 -0.000081 0.000000
# 2 -0.002111 0.030426 -0.002390 0.000000 0.008531 0.000000
# 3 -0.000927 -0.002390 0.010153 0.000000 0.003597 0.000000
# 4 0.000000 0.000000 0.000000 0.016680 0.000000 0.014953
# 5 -0.000081 0.008531 0.003597 0.000000 0.031007 0.000000
# 6 0.000000 0.000000 0.000000 0.014953 0.000000 0.046434
#
#
# Mechanical properties :
#
#
# Convention : Reuss Voigt Hill
#
# Bulk Modulus (GPa) = 27.34709 43.96968 35.65839
# Shear Modulus (GPa) = 30.37833 47.31041 38.84437
#
# Velocity S-wave (km/s) = 3.77266 4.70809 4.26609
# Velocity P-wave (km/s) = 5.63827 7.08207 6.40101
#
# Compressibility (1/GPa) = 0.03656696
#
# Stress axis : x y z
#
# Youngs Moduli (GPa) = 146.09092 32.86704 98.48979
#
# Poissons Ratio (x) = 0.06939 0.09133
# Poissons Ratio (y) = 0.30845 0.23538
# Poissons Ratio (z) = 0.13547 0.07855
#
# Static dielectric constant tensor:
#      x y z
#    x 1.809100 0.000000 -0.004230 
#    y 0.000000 1.850780 0.000000 
#    z -0.004230 0.000000 1.749090 
# 
# From -- ./inp_files/24796.got.cif
#   From: 2010.05.17/outbox.cif.g08.bks.cpg/sg5_13_cif.got.tgz:24796.got - 2010.06.03 18:56:24.
