data_PCOD9126330
_publ_section_title
;
Structure prediction by ZEFSAII (Michael W. Deem and Ramdas Pophale) SiO2 
 PCOD9126330
Probable space group: C 2
;
_chemical_formula_sum "Si O2"
_cell_formula_units_Z 26
_cell_length_a 13.045684
_cell_length_b 4.886548
_cell_length_c 20.668952
_cell_angle_alpha 90.000000
_cell_angle_beta 124.978688
_cell_angle_gamma 90.000000
_cell_volume 1079.605450
_symmetry_space_group_name_H-M "C 2"
_symmetry_group_IT_number 5
_symmetry_cell_setting 'monoclinic'
loop_
_space_group_symop_operation_xyz
x,y,z
-x,y,-z
1/2+x,1/2+y,z
1/2-x,1/2+y,-z
loop_
_atom_site_type_symbol
_atom_site_label
_atom_site_fract_x
_atom_site_fract_y
_atom_site_fract_z
Si Si1 0.409858 0.481790 0.365277
Si Si2 0.813509 0.862053 0.195883
Si Si3 0.000000 0.143774 0.000000
Si Si4 0.820087 0.815841 0.546152
Si Si5 0.654988 0.363708 0.165859
Si Si6 0.760585 0.472358 0.963223
Si Si7 0.743575 0.479964 0.334016
O O1 0.407233 0.438242 0.286505
O O2 0.547597 0.398801 0.436844
O O3 0.363580 0.783887 0.364598
O O4 0.301181 0.282483 0.352536
O O5 0.775912 0.545579 0.187988
O O6 0.837616 0.934670 0.130441
O O7 0.691281 0.047840 0.169945
O O8 0.049908 0.964144 0.078437
O O9 0.111393 0.336934 0.015117
O O10 0.787971 0.498859 0.525974
O O11 0.813420 0.899836 0.618517
O O12 0.649195 0.430229 0.239882
O O13 0.774303 0.785078 0.988213
#
# Coordination Sequence:
#
# PCOD9126330 Si02
#       7
#     4   4   2   4   4   4   4
#     4  10  22  42  65  85 121 161 190 249 302 343
#     4   9  19  38  58  84 117 154 203 243 288 358
#     4  10  22  40  60  88 126 156 198 260 296 332
#     4  12  26  41  63  96 122 151 202 247 294 366
#     4   9  19  36  62  86 117 160 199 243 295 350
#     4  11  23  37  57  87 119 158 203 246 299 355
#     4  10  22  42  63  89 121 161 202 237 298 362
#
# _framework density 24.082874
#
# number of rings (size 3 to 8) (size 9 to 14) (size 15 to 20)
#    0.000    1.846    0.000    3.692    0.000   10.462 
#    0.000    6.154    0.000    0.000    0.000    0.000 
#    0.000    0.000    0.000    0.000    0.000    0.000 
#
# Total GULP energy -72735.819294 kJ/mol
# GULP energy per Si atom -5595.063023 kJ/mol
# Density = 2.402806 g / cm^3
# Si number density = 24.082874 Si / 1000 Ang^3
#
#
#
# Elastic Constant Matrix: (Units=GPa)
#
#
# Indices 1 2 3 4 5 6 
#
# 1 65.4929 -5.5819 34.4328 0.0000 0.6671 0.0000
# 2 -5.5819 75.0624 -2.6297 0.0001 -0.8205 0.0000
# 3 34.4328 -2.6297 74.9694 0.0000 -15.3510 0.0000
# 4 0.0000 0.0001 0.0000 35.8715 0.0000 -7.0724
# 5 0.6671 -0.8205 -15.3510 0.0000 49.1993 0.0000
# 6 0.0000 0.0000 0.0000 -7.0724 0.0000 21.1221
#
#
#
# Elastic Compliance Matrix: (Units=1/GPa)
#
#
# Indices 1 2 3 4 5 6 
#
# 1 0.020766 0.001149 -0.010203 0.000000 -0.003446 0.000000
# 2 0.001149 0.013409 -0.000016 0.000000 0.000203 0.000000
# 3 -0.010203 -0.000016 0.019285 0.000000 0.006155 0.000000
# 4 0.000000 0.000000 0.000000 0.029848 0.000000 0.009994
# 5 -0.003446 0.000203 0.006155 0.000000 0.022296 0.000000
# 6 0.000000 0.000000 0.000000 0.009994 0.000000 0.050690
#
#
# Mechanical properties :
#
#
# Convention : Reuss Voigt Hill
#
# Bulk Modulus (GPa) = 28.31191 29.77411 29.04301
# Shear Modulus (GPa) = 26.85184 33.85882 30.35533
#
# Velocity S-wave (km/s) = 3.34275 3.75364 3.55414
# Velocity P-wave (km/s) = 5.16529 5.58359 5.37850
#
# Compressibility (1/GPa) = 0.03532082
#
# Stress axis : x y z
#
# Youngs Moduli (GPa) = 48.15555 74.57478 51.85461
#
# Poissons Ratio (x) = -0.08570 0.52907
# Poissons Ratio (y) = -0.05534 0.00082
# Poissons Ratio (z) = 0.49133 0.00118
#
# Static dielectric constant tensor:
#      x y z
#    x 1.923860 0.000000 -0.023570 
#    y 0.000000 1.820190 0.000000 
#    z -0.023570 0.000000 1.969420 
# 
# From -- ./inp_files/64999.got.cif
#   From: 2010.05.17/outbox.cif.g08.bks.cpg/sg5_33_cif.got.tgz:64999.got - 2010.06.03 18:56:24.
