data_PCOD9126931
_publ_section_title
;
Structure prediction by ZEFSAII (Michael W. Deem and Ramdas Pophale) SiO2 
 PCOD9126931
Probable space group: C 2
;
_chemical_formula_sum "Si O2"
_cell_formula_units_Z 22
_cell_length_a 5.411798
_cell_length_b 24.824178
_cell_length_c 7.967060
_cell_angle_alpha 90.000000
_cell_angle_beta 115.811556
_cell_angle_gamma 90.000000
_cell_volume 963.537213
_symmetry_space_group_name_H-M "C 2"
_symmetry_group_IT_number 5
_symmetry_cell_setting 'monoclinic'
loop_
_space_group_symop_operation_xyz
x,y,z
-x,y,-z
1/2+x,1/2+y,z
1/2-x,1/2+y,-z
loop_
_atom_site_type_symbol
_atom_site_label
_atom_site_fract_x
_atom_site_fract_y
_atom_site_fract_z
Si Si1 0.182725 0.548060 0.385109
Si Si2 0.000000 0.212414 0.000000
Si Si3 0.147265 0.880810 0.226840
Si Si4 0.532723 0.262691 0.310628
Si Si5 0.257459 0.159746 0.791864
Si Si6 0.363442 0.936056 0.780922
O O1 0.500000 0.532369 0.500000
O O2 0.207671 0.605317 0.299665
O O3 0.077618 0.498500 0.243064
O O4 0.000000 0.552201 0.500000
O O5 0.995392 0.172374 0.159904
O O6 0.254709 0.251107 0.120355
O O7 0.455084 0.902497 0.296400
O O8 0.149107 0.819516 0.286931
O O9 0.951127 0.917062 0.288914
O O10 0.000000 0.882564 0.000000
O O11 0.500000 0.263973 0.500000
O O12 0.716390 0.211464 0.317407
O O13 0.500000 0.160642 0.000000
O O14 0.500000 0.924614 0.000000
#
# Coordination Sequence:
#
# PCOD9126931 Si02
#       6
#     4   2   4   4   4   4
#     4  12  27  44  70 101 143 180 233 300 352 423
#     4  10  24  44  70 100 148 182 244 284 358 432
#     4  10  22  42  71 100 135 184 234 284 346 420
#     4  11  25  42  69 105 142 186 233 294 357 426
#     4  10  24  44  68  99 136 187 235 290 350 427
#     4  10  23  45  70  96 135 185 232 282 346 419
#
# _framework density 22.832536999999999
#
# number of rings (size 3 to 8) (size 9 to 14) (size 15 to 20)
#    0.000    1.455    0.000    3.818   14.000    2.182 
#    4.909    0.000    0.000    0.000    0.000    0.000 
#    0.000    0.000    0.000    0.000    0.000    0.000 
#
# Total GULP energy -61467.759812 kJ/mol
# GULP energy per Si atom -5587.978165 kJ/mol
# Density = 2.278057 g / cm^3
# Si number density = 22.832537 Si / 1000 Ang^3
#
#
#
# Elastic Constant Matrix: (Units=GPa)
#
#
# Indices 1 2 3 4 5 6 
#
# 1 139.0692 68.3732 37.2472 0.0000 -35.6301 0.0000
# 2 68.3732 184.3209 20.5268 0.0000 -42.8950 0.0000
# 3 37.2472 20.5268 74.1356 0.0000 -25.3045 0.0000
# 4 0.0000 0.0000 0.0000 -36.9283 0.0000 6.0364
# 5 -35.6301 -42.8950 -25.3045 0.0000 39.9327 0.0000
# 6 0.0000 0.0000 0.0000 6.0364 0.0000 39.7673
#
#
#
# Elastic Compliance Matrix: (Units=1/GPa)
#
#
# Indices 1 2 3 4 5 6 
#
# 1 0.010392 -0.002402 -0.002899 0.000000 0.004855 0.000000
# 2 -0.002402 0.007829 0.001503 0.000000 0.007219 0.000000
# 3 -0.002899 0.001503 0.018116 0.000000 0.010508 0.000000
# 4 0.000000 0.000000 0.000000 -0.026424 0.000000 0.004011
# 5 0.004855 0.007219 0.010508 0.000000 0.043787 0.000000
# 6 0.000000 0.000000 0.000000 0.004011 0.000000 0.024537
#
#
# Mechanical properties :
#
#
# Convention : Reuss Voigt Hill
#
# Bulk Modulus (GPa) = 34.79372 72.20223 53.49797
# Shear Modulus (GPa) = 52.40377 26.64625 39.52501
#
# Velocity S-wave (km/s) = 4.79595 3.41989 4.16514
# Velocity P-wave (km/s) = 6.77790 6.87643 6.82735
#
# Compressibility (1/GPa) = 0.02874082
#
# Stress axis : x y z
#
# Youngs Moduli (GPa) = 96.22821 127.73029 55.20104
#
# Poissons Ratio (x) = 0.30683 0.16002
# Poissons Ratio (y) = 0.23116 -0.08298
# Poissons Ratio (z) = 0.27896 -0.19201
#
# Static dielectric constant tensor:
#      x y z
#    x 1.999410 0.000000 -0.043420 
#    y 0.000000 1.802610 0.000000 
#    z -0.043420 0.000000 1.879480 
# 
# From -- ./inp_files/12576.got.cif
#   From: 2010.05.17/outbox.cif.g08.bks.cpg/sg5_7_cif.got.tgz:12576.got - 2010.06.03 18:56:24.
