data_PCOD9126791
_publ_section_title
;
Structure prediction by ZEFSAII (Michael W. Deem and Ramdas Pophale) SiO2 
 PCOD9126791
Probable space group: C 2
;
_chemical_formula_sum "Si O2"
_cell_formula_units_Z 32
_cell_length_a 22.429797
_cell_length_b 11.961225
_cell_length_c 5.252916
_cell_angle_alpha 90.000000
_cell_angle_beta 97.099183
_cell_angle_gamma 90.000000
_cell_volume 1398.489466
_symmetry_space_group_name_H-M "C 2"
_symmetry_group_IT_number 5
_symmetry_cell_setting 'monoclinic'
loop_
_space_group_symop_operation_xyz
x,y,z
-x,y,-z
1/2+x,1/2+y,z
1/2-x,1/2+y,-z
loop_
_atom_site_type_symbol
_atom_site_label
_atom_site_fract_x
_atom_site_fract_y
_atom_site_fract_z
Si Si1 0.366402 0.030670 0.498066
Si Si2 0.571171 0.700011 0.000069
Si Si3 0.660658 0.368127 0.966914
Si Si4 0.256187 0.976879 0.703262
Si Si5 0.958540 0.975999 0.231201
Si Si6 0.429705 0.955461 0.029740
Si Si7 0.209734 0.655079 0.899888
Si Si8 0.175157 0.094277 0.295352
O O1 0.307816 0.951135 0.526104
O O2 0.412079 0.999714 0.297753
O O3 0.332516 0.139491 0.369669
O O4 0.401356 0.024965 0.781473
O O5 0.574003 0.598181 0.798473
O O6 0.592306 0.826017 0.970941
O O7 0.500000 0.709330 0.000000
O O8 0.610633 0.651271 0.252503
O O9 0.711733 0.383208 0.777575
O O10 0.594551 0.385499 0.817659
O O11 0.678667 0.245369 0.065321
O O12 0.668452 0.469695 0.169367
O O13 0.210868 0.071479 0.570866
O O14 0.288782 0.034938 0.958330
O O15 0.000000 0.965882 0.500000
O O16 0.000000 0.967699 0.000000
O O17 0.500000 0.954627 0.000000
O O18 0.279028 0.666491 0.852862
#
# Coordination Sequence:
#
# PCOD9126791 Si02
#       8
#     4   4   4   4   4   4   4   4
#     4  11  23  45  66  95 139 170 221 276 332 386
#     4   9  21  39  65  98 131 174 213 268 333 400
#     4  10  23  41  68  97 132 176 226 269 341 404
#     4  10  22  42  66 100 133 172 220 279 340 395
#     4  10  23  44  67  96 138 173 218 281 326 393
#     4  11  24  44  69  99 134 178 224 268 334 404
#     4  10  22  43  64  97 132 180 216 281 333 398
#     4   9  21  38  60 100 133 168 219 273 332 395
#
# _framework density 22.881830000000001
#
# number of rings (size 3 to 8) (size 9 to 14) (size 15 to 20)
#    0.000    2.000    1.250    0.375    7.000    5.000 
#    9.000    1.875    0.000    0.000    0.000    0.000 
#    0.000    0.000    0.000    0.000    0.000    0.000 
#
# Total GULP energy -89159.768087 kJ/mol
# GULP energy per Si atom -5572.485505 kJ/mol
# Density = 2.282975 g / cm^3
# Si number density = 22.881830 Si / 1000 Ang^3
#
#
#
# Elastic Constant Matrix: (Units=GPa)
#
#
# Indices 1 2 3 4 5 6 
#
# 1 103.7720 16.6359 39.5969 0.0000 -6.4680 0.0000
# 2 16.6359 48.8804 3.0747 0.0000 3.0334 0.0000
# 3 39.5969 3.0747 112.9471 0.0000 -1.4482 0.0000
# 4 0.0000 0.0000 0.0000 13.6065 0.0000 5.1510
# 5 -6.4680 3.0334 -1.4482 0.0000 38.8436 0.0000
# 6 0.0000 0.0000 0.0000 5.1510 0.0000 30.8451
#
#
#
# Elastic Compliance Matrix: (Units=1/GPa)
#
#
# Indices 1 2 3 4 5 6 
#
# 1 0.011950 -0.003945 -0.004054 0.000000 0.002147 0.000000
# 2 -0.003945 0.021898 0.000757 0.000000 -0.002339 0.000000
# 3 -0.004054 0.000757 0.010250 0.000000 -0.000352 0.000000
# 4 0.000000 0.000000 0.000000 0.078454 0.000000 -0.013101
# 5 0.002147 -0.002339 -0.000352 0.000000 0.026271 0.000000
# 6 0.000000 0.000000 0.000000 -0.013101 0.000000 0.034608
#
#
# Mechanical properties :
#
#
# Convention : Reuss Voigt Hill
#
# Bulk Modulus (GPa) = 33.76912 42.69050 38.22981
# Shear Modulus (GPa) = 24.06301 30.41183 27.23742
#
# Velocity S-wave (km/s) = 3.24639 3.64961 3.45389
# Velocity P-wave (km/s) = 5.37049 6.03796 5.71398
#
# Compressibility (1/GPa) = 0.02961286
#
# Stress axis : x y z
#
# Youngs Moduli (GPa) = 83.68303 45.66559 97.56111
#
# Poissons Ratio (x) = 0.18016 0.39556
# Poissons Ratio (y) = 0.33015 -0.07385
# Poissons Ratio (z) = 0.33929 -0.03457
#
# Static dielectric constant tensor:
#      x y z
#    x 1.902700 0.000000 -0.033470 
#    y 0.000000 1.913600 0.000000 
#    z -0.033470 0.000000 1.882270 
# 
# From -- ./inp_files/10390.got.cif
#   From: 2010.05.17/outbox.cif.g08.bks.cpg/sg5_6_cif.got.tgz:10390.got - 2010.06.03 18:56:24.
