data_PCOD9126924
_publ_section_title
;
Structure prediction by ZEFSAII (Michael W. Deem and Ramdas Pophale) SiO2 
 PCOD9126924
Probable space group: C 2
;
_chemical_formula_sum "Si O2"
_cell_formula_units_Z 26
_cell_length_a 21.365908
_cell_length_b 8.146416
_cell_length_c 11.279598
_cell_angle_alpha 90.000000
_cell_angle_beta 144.690557
_cell_angle_gamma 90.000000
_cell_volume 1134.758596
_symmetry_space_group_name_H-M "C 2"
_symmetry_group_IT_number 5
_symmetry_cell_setting 'monoclinic'
loop_
_space_group_symop_operation_xyz
x,y,z
-x,y,-z
1/2+x,1/2+y,z
1/2-x,1/2+y,-z
loop_
_atom_site_type_symbol
_atom_site_label
_atom_site_fract_x
_atom_site_fract_y
_atom_site_fract_z
Si Si1 0.892414 0.760340 0.941227
Si Si2 0.500000 0.934768 0.500000
Si Si3 0.318858 0.927848 0.733256
Si Si4 0.688914 0.566847 0.328989
Si Si5 0.927471 0.663560 0.596551
Si Si6 0.789008 0.217774 0.139988
Si Si7 0.192749 0.861967 0.766470
O O1 0.882836 0.598924 0.842692
O O2 0.791121 0.751655 0.874748
O O3 0.877769 0.932897 0.849755
O O4 0.997475 0.732568 0.184137
O O5 0.391242 0.833635 0.310302
O O6 0.483743 0.031051 0.598747
O O7 0.358236 0.753565 0.738678
O O8 0.291537 0.882591 0.826556
O O9 0.214066 0.983582 0.494653
O O10 0.810673 0.594917 0.461671
O O11 0.902944 0.805574 0.464618
O O12 0.829401 0.033310 0.208299
O O13 0.724671 0.238212 0.918290
#
# Coordination Sequence:
#
# PCOD9126924 Si02
#       7
#     4   2   4   4   4   4   4
#     4  11  23  44  68  98 136 186 223 298 340 416
#     4  12  22  40  62 104 132 182 230 288 344 432
#     4  10  22  42  70  97 135 181 234 276 354 404
#     4  11  22  44  72  95 138 189 226 291 343 411
#     4  11  24  43  68  99 139 179 239 277 359 415
#     4  11  23  41  68  92 137 174 232 283 355 405
#     4  10  23  43  64  99 130 183 223 289 344 423
#
# _framework density 22.912362999999999
#
# number of rings (size 3 to 8) (size 9 to 14) (size 15 to 20)
#    0.000    1.231    3.077    3.692    2.154    2.462 
#    2.769    0.000    6.769    0.000    0.000    0.000 
#    0.000    0.000    0.000    0.000    0.000    0.000 
#
# Total GULP energy -72653.129681 kJ/mol
# GULP energy per Si atom -5588.702283 kJ/mol
# Density = 2.286021 g / cm^3
# Si number density = 22.912363 Si / 1000 Ang^3
#
#
#
# Elastic Constant Matrix: (Units=GPa)
#
#
# Indices 1 2 3 4 5 6 
#
# 1 81.8442 20.2659 22.7647 0.0000 5.1335 0.0000
# 2 20.2659 176.7908 90.5290 0.0000 -14.7597 0.0000
# 3 22.7647 90.5290 180.2180 0.0000 -16.5738 0.0000
# 4 0.0000 0.0000 0.0000 46.9491 0.0000 -15.7775
# 5 5.1335 -14.7597 -16.5738 0.0000 40.1306 0.0000
# 6 0.0000 0.0000 0.0000 -15.7775 0.0000 15.6683
#
#
#
# Elastic Compliance Matrix: (Units=1/GPa)
#
#
# Indices 1 2 3 4 5 6 
#
# 1 0.013014 -0.001003 -0.001380 0.000000 -0.002603 0.000000
# 2 -0.001003 0.007755 -0.003633 0.000000 0.001480 0.000000
# 3 -0.001380 -0.003633 0.007735 0.000000 0.002035 0.000000
# 4 0.000000 0.000000 0.000000 0.032194 0.000000 0.032418
# 5 -0.002603 0.001480 0.002035 0.000000 0.026636 0.000000
# 6 0.000000 0.000000 0.000000 0.032418 0.000000 0.096467
#
#
# Mechanical properties :
#
#
# Convention : Reuss Voigt Hill
#
# Bulk Modulus (GPa) = 60.70286 78.44133 69.57210
# Shear Modulus (GPa) = 24.83570 40.90250 32.86910
#
# Velocity S-wave (km/s) = 3.29590 4.22971 3.79166
# Velocity P-wave (km/s) = 6.40585 7.62651 7.04268
#
# Compressibility (1/GPa) = 0.01647369
#
# Stress axis : x y z
#
# Youngs Moduli (GPa) = 76.84256 128.94561 129.27990
#
# Poissons Ratio (x) = 0.12929 0.17835
# Poissons Ratio (y) = 0.07705 0.46966
# Poissons Ratio (z) = 0.10601 0.46845
#
# Static dielectric constant tensor:
#      x y z
#    x 1.892560 0.000000 0.002280 
#    y 0.000000 1.889400 0.000000 
#    z 0.002280 0.000000 1.808350 
# 
# From -- ./inp_files/41561.got.cif
#   From: 2010.05.17/outbox.cif.g08.bks.cpg/sg5_21_cif.got.tgz:41561.got - 2010.06.03 18:56:24.
