data_PCOD9126690
_publ_section_title
;
Structure prediction by ZEFSAII (Michael W. Deem and Ramdas Pophale) SiO2 
 PCOD9126690
Probable space group: C 2
;
_chemical_formula_sum "Si O2"
_cell_formula_units_Z 26
_cell_length_a 12.106985
_cell_length_b 6.925169
_cell_length_c 15.224694
_cell_angle_alpha 90.000000
_cell_angle_beta 121.314886
_cell_angle_gamma 90.000000
_cell_volume 1090.529633
_symmetry_space_group_name_H-M "C 2"
_symmetry_group_IT_number 5
_symmetry_cell_setting 'monoclinic'
loop_
_space_group_symop_operation_xyz
x,y,z
-x,y,-z
1/2+x,1/2+y,z
1/2-x,1/2+y,-z
loop_
_atom_site_type_symbol
_atom_site_label
_atom_site_fract_x
_atom_site_fract_y
_atom_site_fract_z
Si Si1 0.809015 0.003190 0.380051
Si Si2 0.961207 0.794116 0.628558
Si Si3 0.283975 0.649270 0.552979
Si Si4 0.500000 0.881494 0.000000
Si Si5 0.684871 0.694844 0.935618
Si Si6 0.673002 0.202914 0.162401
Si Si7 0.578283 0.289822 0.854884
O O1 0.841043 0.140603 0.476696
O O2 0.746359 0.131051 0.278649
O O3 0.714672 0.835175 0.382520
O O4 0.928689 0.892117 0.385134
O O5 0.870038 0.651160 0.534879
O O6 0.030535 0.707994 0.742473
O O7 0.860891 0.963159 0.620723
O O8 0.573370 0.766796 0.953601
O O9 0.393993 0.015210 0.909043
O O10 0.738448 0.808378 0.872623
O O11 0.639028 0.499688 0.870122
O O12 0.812881 0.671406 0.048598
O O13 0.547748 0.321347 0.138128
#
# Coordination Sequence:
#
# PCOD9126690 Si02
#       7
#     4   4   4   2   4   4   4
#     4  11  23  44  70  97 138 185 230 297 350 408
#     4  11  23  46  67 101 141 179 236 292 347 417
#     4  10  22  41  70  95 135 184 229 283 349 407
#     4  12  26  42  70 102 142 186 234 286 358 430
#     4  12  25  45  70 103 140 190 230 294 354 428
#     4  12  24  45  69 100 144 184 237 298 351 424
#     4  12  24  46  71 102 145 187 239 294 358 425
#
# _framework density 23.841626000000002
#
# number of rings (size 3 to 8) (size 9 to 14) (size 15 to 20)
#    0.000    0.615    6.154    1.846    4.308    0.000 
#    0.000   12.308    0.000    0.000    0.000    0.000 
#    0.000    0.000    0.000    0.000    0.000    0.000 
#
# Total GULP energy -72509.882979 kJ/mol
# GULP energy per Si atom -5577.683306 kJ/mol
# Density = 2.378736 g / cm^3
# Si number density = 23.841626 Si / 1000 Ang^3
#
#
#
# Elastic Constant Matrix: (Units=GPa)
#
#
# Indices 1 2 3 4 5 6 
#
# 1 175.6194 29.2354 21.9510 0.0000 -16.2434 0.0000
# 2 29.2354 37.2618 4.7567 0.0000 -1.8251 0.0000
# 3 21.9510 4.7567 111.6256 0.0000 -15.7984 0.0000
# 4 0.0000 0.0000 0.0000 36.0876 0.0000 -2.5956
# 5 -16.2434 -1.8251 -15.7984 0.0000 33.5881 0.0000
# 6 0.0000 0.0000 0.0000 -2.5956 0.0000 48.4034
#
#
#
# Elastic Compliance Matrix: (Units=1/GPa)
#
#
# Indices 1 2 3 4 5 6 
#
# 1 0.006902 -0.005186 -0.000754 0.000000 0.002701 0.000000
# 2 -0.005186 0.030912 -0.000444 0.000000 -0.001037 0.000000
# 3 -0.000754 -0.000444 0.009718 0.000000 0.004182 0.000000
# 4 0.000000 0.000000 0.000000 0.027818 0.000000 0.001492
# 5 0.002701 -0.001037 0.004182 0.000000 0.032989 0.000000
# 6 0.000000 0.000000 0.000000 0.001492 0.000000 0.020740
#
#
# Mechanical properties :
#
#
# Convention : Reuss Voigt Hill
#
# Bulk Modulus (GPa) = 28.76664 48.48809 38.62737
# Shear Modulus (GPa) = 32.58715 41.52006 37.05360
#
# Velocity S-wave (km/s) = 3.70106 4.17765 3.94656
# Velocity P-wave (km/s) = 5.50960 6.60697 6.08308
#
# Compressibility (1/GPa) = 0.03476249
#
# Stress axis : x y z
#
# Youngs Moduli (GPa) = 144.89424 32.34964 102.90640
#
# Poissons Ratio (x) = 0.16778 0.07758
# Poissons Ratio (y) = 0.75148 0.04571
# Poissons Ratio (z) = 0.10923 0.01437
#
# Static dielectric constant tensor:
#      x y z
#    x 1.976530 0.000000 0.000780 
#    y 0.000000 1.950480 0.000000 
#    z 0.000780 0.000000 1.912880 
# 
# From -- ./inp_files/52339.got.cif
#   From: 2010.05.17/outbox.cif.g08.bks.cpg/sg5_27_cif.got.tgz:52339.got - 2010.06.03 18:56:24.
