data_PCOD9126989
_publ_section_title
;
Structure prediction by ZEFSAII (Michael W. Deem and Ramdas Pophale) SiO2 
 PCOD9126989
Probable space group: C 2
;
_chemical_formula_sum "Si O2"
_cell_formula_units_Z 26
_cell_length_a 10.115084
_cell_length_b 8.683502
_cell_length_c 19.161965
_cell_angle_alpha 90.000000
_cell_angle_beta 133.148780
_cell_angle_gamma 90.000000
_cell_volume 1227.941109
_symmetry_space_group_name_H-M "C 2"
_symmetry_group_IT_number 5
_symmetry_cell_setting 'monoclinic'
loop_
_space_group_symop_operation_xyz
x,y,z
-x,y,-z
1/2+x,1/2+y,z
1/2-x,1/2+y,-z
loop_
_atom_site_type_symbol
_atom_site_label
_atom_site_fract_x
_atom_site_fract_y
_atom_site_fract_z
Si Si1 0.971392 0.241630 0.850761
Si Si2 0.243283 0.171033 0.840735
Si Si3 0.387002 0.390379 0.787666
Si Si4 0.000000 0.422446 0.000000
Si Si5 0.127887 0.751780 0.480662
Si Si6 0.085224 0.893782 0.719039
Si Si7 0.015214 0.397743 0.423709
O O1 0.774578 0.315355 0.767195
O O2 0.116279 0.275668 0.842698
O O3 0.944453 0.057806 0.836593
O O4 0.037075 0.313548 0.947250
O O5 0.387099 0.269036 0.850010
O O6 0.122381 0.074226 0.742617
O O7 0.339433 0.038740 0.921096
O O8 0.512698 0.340535 0.768465
O O9 0.182293 0.399667 0.683102
O O10 0.091316 0.572526 0.451937
O O11 0.338257 0.793734 0.563722
O O12 0.000000 0.791154 0.500000
O O13 0.059836 0.851050 0.390700
O O14 0.000000 0.349303 0.500000
#
# Coordination Sequence:
#
# PCOD9126989 Si02
#       7
#     4   4   4   2   4   4   4
#     4  10  23  44  67  91 130 167 203 268 323 388
#     4  10  25  40  70  95 127 162 216 264 319 395
#     4  11  23  40  66  96 129 173 218 260 319 375
#     4  10  24  46  64  98 130 158 208 270 330 390
#     4  11  25  39  63  91 134 174 221 264 314 367
#     4  10  22  43  60  95 133 168 211 268 315 373
#     4  11  24  41  60  92 133 176 218 265 308 374
#
# _framework density 21.173653999999999
#
# number of rings (size 3 to 8) (size 9 to 14) (size 15 to 20)
#    0.000    1.538    3.077    0.000    4.308    9.846 
#    0.000    0.000    0.000    0.000    0.000    0.000 
#    0.000    0.000    0.000    0.000    0.000    0.000 
#
# Total GULP energy -72647.364468 kJ/mol
# GULP energy per Si atom -5588.258805 kJ/mol
# Density = 2.112546 g / cm^3
# Si number density = 21.173654 Si / 1000 Ang^3
#
#
#
# Elastic Constant Matrix: (Units=GPa)
#
#
# Indices 1 2 3 4 5 6 
#
# 1 113.9325 33.7949 22.6189 0.0000 7.2836 0.0000
# 2 33.7949 35.9539 29.0539 0.0000 -8.2609 0.0000
# 3 22.6189 29.0539 75.9762 0.0000 1.8714 0.0000
# 4 0.0000 0.0000 0.0000 35.5282 0.0000 5.6978
# 5 7.2836 -8.2609 1.8714 0.0000 23.1336 0.0000
# 6 0.0000 0.0000 0.0000 5.6978 0.0000 28.6910
#
#
#
# Elastic Compliance Matrix: (Units=1/GPa)
#
#
# Indices 1 2 3 4 5 6 
#
# 1 0.014462 -0.018801 0.003168 0.000000 -0.011523 0.000000
# 2 -0.018801 0.071273 -0.022476 0.000000 0.033189 0.000000
# 3 0.003168 -0.022476 0.021078 0.000000 -0.010729 0.000000
# 4 0.000000 0.000000 0.000000 0.029073 0.000000 -0.005774
# 5 -0.011523 0.033189 -0.010729 0.000000 0.059575 0.000000
# 6 0.000000 0.000000 0.000000 -0.005774 0.000000 0.036001
#
#
# Mechanical properties :
#
#
# Convention : Reuss Voigt Hill
#
# Bulk Modulus (GPa) = 32.68425 44.08868 38.38647
# Shear Modulus (GPa) = 15.72936 26.83024 21.27980
#
# Velocity S-wave (km/s) = 2.72853 3.56357 3.17363
# Velocity P-wave (km/s) = 5.03947 6.14814 5.62121
#
# Compressibility (1/GPa) = 0.03059577
#
# Stress axis : x y z
#
# Youngs Moduli (GPa) = 69.14861 14.03048 47.44277
#
# Poissons Ratio (x) = 0.26379 -0.15030
# Poissons Ratio (y) = 1.30006 1.06631
# Poissons Ratio (z) = -0.21907 0.31535
#
# Static dielectric constant tensor:
#      x y z
#    x 1.763600 0.000000 0.010780 
#    y 0.000000 1.739480 0.000000 
#    z 0.010780 0.000000 1.788560 
# 
# From -- ./inp_files/59307.got.cif
#   From: 2010.05.17/outbox.cif.g08.bks.cpg/sg5_30_cif.got.tgz:59307.got - 2010.06.03 18:56:24.
