data_PCOD9126101
_publ_section_title
;
Structure prediction by ZEFSAII (Michael W. Deem and Ramdas Pophale) SiO2 
 PCOD9126101
Probable space group: C 2
;
_chemical_formula_sum "Si O2"
_cell_formula_units_Z 26
_cell_length_a 11.923412
_cell_length_b 7.752599
_cell_length_c 14.235700
_cell_angle_alpha 90.000000
_cell_angle_beta 131.182646
_cell_angle_gamma 90.000000
_cell_volume 990.373957
_symmetry_space_group_name_H-M "C 2"
_symmetry_group_IT_number 5
_symmetry_cell_setting 'monoclinic'
loop_
_space_group_symop_operation_xyz
x,y,z
-x,y,-z
1/2+x,1/2+y,z
1/2-x,1/2+y,-z
loop_
_atom_site_type_symbol
_atom_site_label
_atom_site_fract_x
_atom_site_fract_y
_atom_site_fract_z
Si Si1 0.963022 0.608480 0.579047
Si Si2 0.799825 0.975572 0.458655
Si Si3 0.100174 0.809978 0.811221
Si Si4 0.210829 0.743972 0.255090
Si Si5 0.575566 0.785923 0.943917
Si Si6 0.535285 0.677423 0.713985
Si Si7 0.000000 0.616536 0.000000
O O1 0.871625 0.786945 0.499631
O O2 0.856725 0.479076 0.575387
O O3 0.000000 0.534000 0.500000
O O4 0.088352 0.680800 0.717310
O O5 0.765827 0.074595 0.343091
O O6 0.903825 0.098971 0.578808
O O7 0.129292 0.001109 0.788637
O O8 0.929621 0.815322 0.760125
O O9 0.245593 0.761327 0.952367
O O10 0.368628 0.805362 0.299089
O O11 0.128465 0.729943 0.110599
O O12 0.506334 0.736904 0.805349
O O13 0.500000 0.712316 0.000000
O O14 0.542985 0.988738 0.939524
#
# Coordination Sequence:
#
# PCOD9126101 Si02
#       7
#     4   4   4   4   4   4   2
#     4  10  22  40  66  91 131 174 212 268 328 383
#     4  10  23  38  70  97 127 174 216 270 325 392
#     4  10  22  40  61  93 123 166 218 262 323 382
#     4  11  21  41  65  93 124 167 219 259 327 384
#     4  10  23  38  60  90 124 169 211 264 316 377
#     4  11  21  42  61  95 133 163 216 268 319 383
#     4  10  22  38  62  88 120 168 216 254 318 376
#
# _framework density 26.25271
#
# number of rings (size 3 to 8) (size 9 to 14) (size 15 to 20)
#    0.462    1.231    1.538    3.231    4.308    0.000 
#    4.154    5.385    0.000    0.000    0.000    0.000 
#    0.000    0.000    0.000    0.000    0.000    0.000 
#
# Total GULP energy -72546.622584 kJ/mol
# GULP energy per Si atom -5580.509430 kJ/mol
# Density = 2.619296 g / cm^3
# Si number density = 26.252710 Si / 1000 Ang^3
#
#
#
# Elastic Constant Matrix: (Units=GPa)
#
#
# Indices 1 2 3 4 5 6 
#
# 1 154.3765 0.5013 38.5010 0.0000 -23.7674 0.0000
# 2 0.5013 52.4250 13.4582 0.0000 -10.5929 0.0000
# 3 38.5010 13.4582 145.5962 0.0000 -2.7697 0.0000
# 4 0.0000 0.0000 0.0000 33.2400 0.0000 1.2658
# 5 -23.7674 -10.5929 -2.7697 0.0000 47.5141 0.0000
# 6 0.0000 0.0000 0.0000 1.2658 0.0000 2.8651
#
#
#
# Elastic Compliance Matrix: (Units=1/GPa)
#
#
# Indices 1 2 3 4 5 6 
#
# 1 0.007594 0.001253 -0.002049 0.000000 0.003959 0.000000
# 2 0.001253 0.020644 -0.002143 0.000000 0.005104 0.000000
# 3 -0.002049 -0.002143 0.007588 0.000000 -0.001060 0.000000
# 4 0.000000 0.000000 0.000000 0.030599 0.000000 -0.013519
# 5 0.003959 0.005104 -0.001060 0.000000 0.024103 0.000000
# 6 0.000000 0.000000 0.000000 -0.013519 0.000000 0.354994
#
#
# Mechanical properties :
#
#
# Convention : Reuss Voigt Hill
#
# Bulk Modulus (GPa) = 33.38879 50.81317 42.10098
# Shear Modulus (GPa) = 10.83701 36.71968 23.77834
#
# Velocity S-wave (km/s) = 2.03394 3.74398 3.01283
# Velocity P-wave (km/s) = 4.27337 6.17149 5.30796
#
# Compressibility (1/GPa) = 0.02995018
#
# Stress axis : x y z
#
# Youngs Moduli (GPa) = 131.68318 48.43949 131.78824
#
# Poissons Ratio (x) = -0.06070 0.26999
# Poissons Ratio (y) = -0.16502 0.28236
# Poissons Ratio (z) = 0.26977 0.10378
#
# Static dielectric constant tensor:
#      x y z
#    x 2.306570 0.000000 0.137530 
#    y 0.000000 2.094300 0.000000 
#    z 0.137530 0.000000 2.030130 
# 
# From -- ./inp_files/52625.got.cif
#   From: 2010.05.17/outbox.cif.g08.bks.cpg/sg5_27_cif.got.tgz:52625.got - 2010.06.03 18:56:24.
