data_PCOD9126547
_publ_section_title
;
Structure prediction by ZEFSAII (Michael W. Deem and Ramdas Pophale) SiO2 
 PCOD9126547
Probable space group: C 2
;
_chemical_formula_sum "Si O2"
_cell_formula_units_Z 30
_cell_length_a 10.007177
_cell_length_b 10.235972
_cell_length_c 16.881245
_cell_angle_alpha 90.000000
_cell_angle_beta 61.423594
_cell_angle_gamma 90.000000
_cell_volume 1518.548604
_symmetry_space_group_name_H-M "C 2"
_symmetry_group_IT_number 5
_symmetry_cell_setting 'monoclinic'
loop_
_space_group_symop_operation_xyz
x,y,z
-x,y,-z
1/2+x,1/2+y,z
1/2-x,1/2+y,-z
loop_
_atom_site_type_symbol
_atom_site_label
_atom_site_fract_x
_atom_site_fract_y
_atom_site_fract_z
Si Si1 0.901861 0.049230 0.828461
Si Si2 0.323114 0.818112 0.788141
Si Si3 0.344510 0.848550 0.091760
Si Si4 0.518911 0.406152 0.357974
Si Si5 0.500000 0.596936 0.500000
Si Si6 0.642115 0.914005 0.726856
Si Si7 0.365516 0.555145 0.100385
Si Si8 0.201361 0.709398 0.661755
O O1 0.815124 0.184865 0.840176
O O2 0.047988 0.071287 0.840576
O O3 0.789362 0.943133 0.898662
O O4 0.947549 0.992949 0.729772
O O5 0.502077 0.844766 0.723624
O O6 0.236778 0.793627 0.730288
O O7 0.253336 0.939289 0.855464
O O8 0.375564 0.887585 0.174292
O O9 0.296415 0.696799 0.100111
O O10 0.500000 0.863181 0.000000
O O11 0.448465 0.500864 0.443610
O O12 0.687094 0.365494 0.341023
O O13 0.416177 0.286290 0.360042
O O14 0.359562 0.680601 0.572127
O O15 0.640772 0.067833 0.706950
O O16 0.500000 0.526484 0.000000
#
# Coordination Sequence:
#
# PCOD9126547 Si02
#       8
#     4   4   4   4   2   4   4   4
#     4  11  22  42  64  89 130 175 214 269 325 375
#     4  12  23  40  67  96 127 173 222 265 323 384
#     4  10  22  41  59  88 131 171 215 271 315 372
#     4  10  22  45  66  92 134 167 206 269 328 387
#     4  10  22  42  66 100 128 162 216 270 322 398
#     4  10  23  39  64  94 125 171 217 260 322 385
#     4  11  26  39  60  99 135 172 221 273 317 377
#     4  11  23  44  68  96 127 169 211 270 327 388
#
# _framework density 19.755704999999999
#
# number of rings (size 3 to 8) (size 9 to 14) (size 15 to 20)
#    0.000    1.333    6.667    0.000    5.600    2.667 
#    0.000    0.000    0.000    0.000    0.000    0.000 
#    0.000    0.000    0.000    0.000    0.000    0.000 
#
# Total GULP energy -83790.113613 kJ/mol
# GULP energy per Si atom -5586.007574 kJ/mol
# Density = 1.971074 g / cm^3
# Si number density = 19.755705 Si / 1000 Ang^3
#
#
#
# Elastic Constant Matrix: (Units=GPa)
#
#
# Indices 1 2 3 4 5 6 
#
# 1 70.7379 46.3844 -10.3775 0.0000 -2.2389 0.0000
# 2 46.3844 135.7219 36.5052 0.0000 -24.8434 0.0000
# 3 -10.3775 36.5052 61.1320 0.0000 -9.8530 0.0000
# 4 0.0000 0.0000 0.0000 16.6258 0.0000 -11.2775
# 5 -2.2389 -24.8434 -9.8530 0.0000 17.3377 0.0000
# 6 0.0000 0.0000 0.0000 -11.2775 0.0000 34.2621
#
#
#
# Elastic Compliance Matrix: (Units=1/GPa)
#
#
# Indices 1 2 3 4 5 6 
#
# 1 0.023339 -0.012265 0.009840 0.000000 -0.008968 0.000000
# 2 -0.012265 0.017422 -0.009596 0.000000 0.017927 0.000000
# 3 0.009840 -0.009596 0.023940 0.000000 0.001125 0.000000
# 4 0.000000 0.000000 0.000000 0.077437 0.000000 0.025489
# 5 -0.008968 0.017927 0.001125 0.000000 0.082847 0.000000
# 6 0.000000 0.000000 0.000000 0.025489 0.000000 0.037576
#
#
# Mechanical properties :
#
#
# Convention : Reuss Voigt Hill
#
# Bulk Modulus (GPa) = 24.59421 45.84621 35.22021
# Shear Modulus (GPa) = 16.65802 26.65043 21.65422
#
# Velocity S-wave (km/s) = 2.90694 3.67686 3.31433
# Velocity P-wave (km/s) = 4.87271 6.42516 5.70201
#
# Compressibility (1/GPa) = 0.04065998
#
# Stress axis : x y z
#
# Youngs Moduli (GPa) = 42.84750 57.39828 41.77056
#
# Poissons Ratio (x) = 0.70396 -0.41103
# Poissons Ratio (y) = 0.52550 0.40084
# Poissons Ratio (z) = -0.42163 0.55081
#
# Static dielectric constant tensor:
#      x y z
#    x 1.707780 0.000000 0.004170 
#    y 0.000000 1.696120 0.000000 
#    z 0.004170 0.000000 1.687670 
# 
# From -- ./inp_files/60296.got.cif
#   From: 2010.05.17/outbox.cif.g08.bks.cpg/sg5_31_cif.got.tgz:60296.got - 2010.06.03 18:56:24.
