data_PCOD9126685
_publ_section_title
;
Structure prediction by ZEFSAII (Michael W. Deem and Ramdas Pophale) SiO2 
 PCOD9126685
Probable space group: C 2
;
_chemical_formula_sum "Si O2"
_cell_formula_units_Z 20
_cell_length_a 5.161679
_cell_length_b 28.799821
_cell_length_c 5.171749
_cell_angle_alpha 90.000000
_cell_angle_beta 87.130500
_cell_angle_gamma 90.000000
_cell_volume 767.844605
_symmetry_space_group_name_H-M "C 2"
_symmetry_group_IT_number 5
_symmetry_cell_setting 'monoclinic'
loop_
_space_group_symop_operation_xyz
x,y,z
-x,y,-z
1/2+x,1/2+y,z
1/2-x,1/2+y,-z
loop_
_atom_site_type_symbol
_atom_site_label
_atom_site_fract_x
_atom_site_fract_y
_atom_site_fract_z
Si Si1 0.500000 0.271791 0.000000
Si Si2 0.270406 0.846347 0.329603
Si Si3 0.500000 0.121503 0.500000
Si Si4 0.682451 0.446645 0.240109
Si Si5 0.755597 0.212231 0.341784
Si Si6 0.316615 0.548286 0.760593
O O1 0.302718 0.311629 0.894034
O O2 0.283913 0.230798 0.942249
O O3 0.500000 0.828727 0.500000
O O4 0.340645 0.899029 0.247598
O O5 0.000000 0.848627 0.500000
O O6 0.708945 0.157334 0.370944
O O7 0.614851 0.088816 0.715107
O O8 0.500000 0.447648 0.500000
O O9 0.814122 0.497111 0.227032
O O10 0.500000 0.443283 0.000000
O O11 0.500000 0.235315 0.500000
O O12 0.000000 0.224796 0.500000
O O13 0.500000 0.549291 0.500000
O O14 0.500000 0.553710 0.000000
#
# Coordination Sequence:
#
# PCOD9126685 Si02
#       6
#     2   4   2   4   4   4
#     4  12  24  46  74  98 142 184 238 292 368 418
#     4  11  25  43  68 103 143 184 237 292 357 431
#     4  10  24  42  68 100 138 184 244 292 366 418
#     4   9  19  41  65 104 143 190 235 290 353 431
#     4  10  25  44  65 100 136 178 237 292 354 423
#     4  10  22  41  70 100 146 187 238 292 359 428
#
# _framework density 26.046937
#
# number of rings (size 3 to 8) (size 9 to 14) (size 15 to 20)
#    0.600    1.200    1.000    1.800    1.400    7.200 
#    0.000    0.000    0.000    0.000    0.000    0.000 
#    0.000    0.000    0.000    0.000    0.000    0.000 
#
# Total GULP energy -55760.939421 kJ/mol
# GULP energy per Si atom -5576.093942 kJ/mol
# Density = 2.598765 g / cm^3
# Si number density = 26.046937 Si / 1000 Ang^3
#
#
#
# Elastic Constant Matrix: (Units=GPa)
#
#
# Indices 1 2 3 4 5 6 
#
# 1 142.8785 44.5837 63.9118 0.0000 42.5576 0.0000
# 2 44.5837 262.0798 49.7328 0.0000 58.0979 0.0000
# 3 63.9118 49.7328 163.7775 0.0000 37.6947 0.0000
# 4 0.0000 0.0000 0.0000 18.0592 0.0000 39.0470
# 5 42.5576 58.0979 37.6947 0.0000 78.5485 0.0000
# 6 0.0000 0.0000 0.0000 39.0470 0.0000 17.8914
#
#
#
# Elastic Compliance Matrix: (Units=1/GPa)
#
#
# Indices 1 2 3 4 5 6 
#
# 1 0.009377 -0.000286 -0.002756 0.000000 -0.003546 0.000000
# 2 -0.000286 0.004642 -0.000611 0.000000 -0.002985 0.000000
# 3 -0.002756 -0.000611 0.007778 0.000000 -0.001788 0.000000
# 4 0.000000 0.000000 0.000000 -0.014890 0.000000 0.032497
# 5 -0.003546 -0.002985 -0.001788 0.000000 0.017718 0.000000
# 6 0.000000 0.000000 0.000000 0.032497 0.000000 -0.015030
#
#
# Mechanical properties :
#
#
# Convention : Reuss Voigt Hill
#
# Bulk Modulus (GPa) = 69.00657 98.35471 83.68064
# Shear Modulus (GPa) = 230.06230 50.26698 140.16464
#
# Velocity S-wave (km/s) = 9.40839 4.39778 7.34365
# Velocity P-wave (km/s) = 12.02391 7.97683 10.20305
#
# Compressibility (1/GPa) = 0.01449137
#
# Stress axis : x y z
#
# Youngs Moduli (GPa) = 106.63824 215.42470 128.56141
#
# Poissons Ratio (x) = 0.06162 0.35436
# Poissons Ratio (y) = 0.03050 0.07854
# Poissons Ratio (z) = 0.29393 0.13160
#
# Static dielectric constant tensor:
#      x y z
#    x 1.985070 0.000000 -0.418450 
#    y 0.000000 2.042550 0.000000 
#    z -0.418450 0.000000 1.732300 
# 
# From -- ./inp_files/1191.got.cif
#   From: 2010.05.17/outbox.cif.g08.bks.cpg/sg5_1_cif.got.tgz:1191.got - 2010.06.03 18:56:24.
