data_PCOD9126371
_publ_section_title
;
Structure prediction by ZEFSAII (Michael W. Deem and Ramdas Pophale) SiO2 
 PCOD9126371
Probable space group: C 2
;
_chemical_formula_sum "Si O2"
_cell_formula_units_Z 22
_cell_length_a 8.463937
_cell_length_b 29.152220
_cell_length_c 5.088102
_cell_angle_alpha 90.000000
_cell_angle_beta 56.436489
_cell_angle_gamma 90.000000
_cell_volume 1046.134283
_symmetry_space_group_name_H-M "C 2"
_symmetry_group_IT_number 5
_symmetry_cell_setting 'monoclinic'
loop_
_space_group_symop_operation_xyz
x,y,z
-x,y,-z
1/2+x,1/2+y,z
1/2-x,1/2+y,-z
loop_
_atom_site_type_symbol
_atom_site_label
_atom_site_fract_x
_atom_site_fract_y
_atom_site_fract_z
Si Si1 0.225783 0.737040 0.298141
Si Si2 0.293175 0.027095 0.112461
Si Si3 0.225900 0.679308 0.790153
Si Si4 0.500000 0.820410 0.000000
Si Si5 0.500000 0.885222 0.500000
Si Si6 0.000000 0.099154 0.500000
Si Si7 0.715060 0.466906 0.700985
O O1 0.274009 0.719317 0.542668
O O2 0.324229 0.785314 0.163838
O O3 0.000000 0.741693 0.500000
O O4 0.278528 0.698480 0.030662
O O5 0.127728 0.064262 0.211492
O O6 0.229533 0.993845 0.411230
O O7 0.500000 0.046825 0.000000
O O8 0.315051 0.997418 0.832469
O O9 0.335781 0.635179 0.576565
O O10 0.000000 0.670952 0.000000
O O11 0.522978 0.852833 0.228919
O O12 0.323285 0.918718 0.600654
O O13 0.500000 0.461696 0.000000
#
# Coordination Sequence:
#
# PCOD9126371 Si02
#       7
#     4   4   4   2   2   2   4
#     4  10  22  42  66  90 133 168 207 261 327 387
#     4  12  24  42  66  92 130 170 224 272 322 380
#     4  10  22  40  62  95 131 172 209 265 319 379
#     4  12  24  40  66 102 118 172 208 272 326 398
#     4  12  26  41  68  92 136 156 224 275 330 382
#     4  12  24  39  66  98 130 172 228 265 312 390
#     4  12  24  46  66  91 124 177 217 270 334 389
#
# _framework density 21.029803999999999
#
# number of rings (size 3 to 8) (size 9 to 14) (size 15 to 20)
#    0.000    0.727    3.636    3.818    0.000    4.364 
#    0.000    3.636    0.000    0.000    0.000    0.000 
#    0.000    0.000    0.000    0.000    0.000    0.000 
#
# Total GULP energy -61421.440088 kJ/mol
# GULP energy per Si atom -5583.767281 kJ/mol
# Density = 2.098194 g / cm^3
# Si number density = 21.029804 Si / 1000 Ang^3
#
#
#
# Elastic Constant Matrix: (Units=GPa)
#
#
# Indices 1 2 3 4 5 6 
#
# 1 61.6492 26.1807 46.1480 0.0000 -4.3230 0.0000
# 2 26.1807 130.5107 57.9357 0.0000 -2.4568 0.0000
# 3 46.1480 57.9357 119.9806 0.0000 -1.6970 0.0000
# 4 0.0000 0.0000 0.0000 10.0950 0.0000 11.0488
# 5 -4.3230 -2.4568 -1.6970 0.0000 54.4868 0.0000
# 6 0.0000 0.0000 0.0000 11.0488 0.0000 87.4364
#
#
#
# Elastic Compliance Matrix: (Units=1/GPa)
#
#
# Indices 1 2 3 4 5 6 
#
# 1 0.022982 -0.000849 -0.008408 0.000000 0.001523 0.000000
# 2 -0.000849 0.009789 -0.004397 0.000000 0.000237 0.000000
# 3 -0.008408 -0.004397 0.013686 0.000000 -0.000439 0.000000
# 4 0.000000 0.000000 0.000000 0.114958 0.000000 -0.014527
# 5 0.001523 0.000237 -0.000439 0.000000 0.018471 0.000000
# 6 0.000000 0.000000 0.000000 -0.014527 0.000000 0.013273
#
#
# Mechanical properties :
#
#
# Convention : Reuss Voigt Hill
#
# Bulk Modulus (GPa) = 52.22330 63.62995 57.92662
# Shear Modulus (GPa) = 22.04111 42.52872 32.28491
#
# Velocity S-wave (km/s) = 3.24093 4.50189 3.92241
# Velocity P-wave (km/s) = 6.23633 7.57267 6.93675
#
# Compressibility (1/GPa) = 0.01914854
#
# Stress axis : x y z
#
# Youngs Moduli (GPa) = 43.51207 102.15727 73.06970
#
# Poissons Ratio (x) = 0.08674 0.61437
# Poissons Ratio (y) = 0.03695 0.32128
# Poissons Ratio (z) = 0.36585 0.44917
#
# Static dielectric constant tensor:
#      x y z
#    x 1.792740 0.000000 -0.040920 
#    y 0.000000 1.714040 0.000000 
#    z -0.040920 0.000000 1.743790 
# 
# From -- ./inp_files/3578.got.cif
#   From: 2010.05.17/outbox.cif.g08.bks.cpg/sg5_2_cif.got.tgz:3578.got - 2010.06.03 18:56:24.
