data_PCOD9126845
_publ_section_title
;
Structure prediction by ZEFSAII (Michael W. Deem and Ramdas Pophale) SiO2 
 PCOD9126845
Probable space group: C 2
;
_chemical_formula_sum "Si O2"
_cell_formula_units_Z 30
_cell_length_a 20.883193
_cell_length_b 9.863947
_cell_length_c 10.867453
_cell_angle_alpha 90.000000
_cell_angle_beta 139.243975
_cell_angle_gamma 90.000000
_cell_volume 1461.442616
_symmetry_space_group_name_H-M "C 2"
_symmetry_group_IT_number 5
_symmetry_cell_setting 'monoclinic'
loop_
_space_group_symop_operation_xyz
x,y,z
-x,y,-z
1/2+x,1/2+y,z
1/2-x,1/2+y,-z
loop_
_atom_site_type_symbol
_atom_site_label
_atom_site_fract_x
_atom_site_fract_y
_atom_site_fract_z
Si Si1 0.035233 0.520130 0.847269
Si Si2 0.580667 0.798312 0.422305
Si Si3 0.330404 0.472284 0.102563
Si Si4 0.841474 0.664254 0.152895
Si Si5 0.159740 0.527608 0.270410
Si Si6 0.213602 0.233623 0.418469
Si Si7 0.500000 0.599783 0.500000
Si Si8 0.771661 0.533747 0.283638
O O1 0.064532 0.636779 0.794537
O O2 0.018535 0.384431 0.743144
O O3 0.932615 0.536736 0.770088
O O4 0.115561 0.510428 0.070909
O O5 0.608008 0.729762 0.331802
O O6 0.566899 0.694449 0.511674
O O7 0.668107 0.904347 0.580619
O O8 0.309831 0.318199 0.104793
O O9 0.432572 0.513694 0.310523
O O10 0.245140 0.570580 0.028321
O O11 0.317055 0.491034 0.936160
O O12 0.846427 0.611961 0.300175
O O13 0.222692 0.391678 0.392785
O O14 0.217057 0.667105 0.376310
O O15 0.232832 0.134298 0.331897
#
# Coordination Sequence:
#
# PCOD9126845 Si02
#       8
#     4   4   4   4   4   4   2   4
#     4  10  22  42  67  99 127 181 227 277 332 399
#     4  11  24  44  69 100 137 182 226 282 339 408
#     4  10  26  44  67 103 130 180 217 285 344 406
#     4  10  24  42  73  92 140 175 224 283 342 404
#     4  10  24  40  69  95 134 174 235 273 337 403
#     4  11  22  42  63  98 132 176 224 271 331 404
#     4  12  26  44  68 102 138 164 240 280 346 404
#     4  10  23  42  66  99 133 180 225 263 347 401
#
# _framework density 20.527660000000001
#
# number of rings (size 3 to 8) (size 9 to 14) (size 15 to 20)
#    0.800    0.800    2.667    1.600    9.333    1.067 
#    2.400    0.000    0.000    1.600    0.000    0.000 
#    0.000    0.000    0.000    0.000    0.000    0.000 
#
# Total GULP energy -83598.879278 kJ/mol
# GULP energy per Si atom -5573.258619 kJ/mol
# Density = 2.048094 g / cm^3
# Si number density = 20.527660 Si / 1000 Ang^3
#
#
#
# Elastic Constant Matrix: (Units=GPa)
#
#
# Indices 1 2 3 4 5 6 
#
# 1 77.4205 44.1248 16.9903 0.0000 -15.3316 0.0000
# 2 44.1248 133.9590 47.0423 0.0000 4.1761 0.0000
# 3 16.9903 47.0423 111.5257 0.0000 -6.3511 0.0000
# 4 0.0000 0.0000 0.0000 27.6075 0.0000 1.7856
# 5 -15.3316 4.1761 -6.3511 0.0000 21.3431 0.0000
# 6 0.0000 0.0000 0.0000 1.7856 0.0000 34.8768
#
#
#
# Elastic Compliance Matrix: (Units=1/GPa)
#
#
# Indices 1 2 3 4 5 6 
#
# 1 0.020205 -0.007522 0.001023 0.000000 0.016290 0.000000
# 2 -0.007522 0.011739 -0.004317 0.000000 -0.008985 0.000000
# 3 0.001023 -0.004317 0.010907 0.000000 0.004825 0.000000
# 4 0.000000 0.000000 0.000000 0.036342 0.000000 -0.001861
# 5 0.016290 -0.008985 0.004825 0.000000 0.061749 0.000000
# 6 0.000000 0.000000 0.000000 -0.001861 0.000000 0.028768
#
#
# Mechanical properties :
#
#
# Convention : Reuss Voigt Hill
#
# Bulk Modulus (GPa) = 47.13276 59.91331 53.52304
# Shear Modulus (GPa) = 25.19949 31.08200 28.14075
#
# Velocity S-wave (km/s) = 3.50749 3.89543 3.70654
# Velocity P-wave (km/s) = 6.27804 7.03438 6.66695
#
# Compressibility (1/GPa) = 0.02121666
#
# Stress axis : x y z
#
# Youngs Moduli (GPa) = 49.49182 85.18635 91.68773
#
# Poissons Ratio (x) = 0.64080 -0.09375
# Poissons Ratio (y) = 0.37230 0.39584
# Poissons Ratio (z) = -0.05061 0.36777
#
# Static dielectric constant tensor:
#      x y z
#    x 1.740820 0.000000 -0.011580 
#    y 0.000000 1.725400 0.000000 
#    z -0.011580 0.000000 1.765140 
# 
# From -- ./inp_files/47318.got.cif
#   From: 2010.05.17/outbox.cif.g08.bks.cpg/sg5_24_cif.got.tgz:47318.got - 2010.06.03 18:56:24.
