data_PCOD9126852
_publ_section_title
;
Structure prediction by ZEFSAII (Michael W. Deem and Ramdas Pophale) SiO2 
 PCOD9126852
Probable space group: C 2
;
_chemical_formula_sum "Si O2"
_cell_formula_units_Z 22
_cell_length_a 12.526893
_cell_length_b 13.123470
_cell_length_c 14.919213
_cell_angle_alpha 90.000000
_cell_angle_beta 156.315549
_cell_angle_gamma 90.000000
_cell_volume 985.233126
_symmetry_space_group_name_H-M "C 2"
_symmetry_group_IT_number 5
_symmetry_cell_setting 'monoclinic'
loop_
_space_group_symop_operation_xyz
x,y,z
-x,y,-z
1/2+x,1/2+y,z
1/2-x,1/2+y,-z
loop_
_atom_site_type_symbol
_atom_site_label
_atom_site_fract_x
_atom_site_fract_y
_atom_site_fract_z
Si Si1 0.775262 0.095440 0.156417
Si Si2 0.713845 0.134256 0.738449
Si Si3 0.500000 0.948554 0.500000
Si Si4 0.976962 0.610134 0.210107
Si Si5 0.625268 0.424278 0.501232
Si Si6 0.833507 0.282394 0.511354
O O1 0.230995 0.101289 0.955825
O O2 0.950508 0.192731 0.318064
O O3 0.899116 0.986127 0.274325
O O4 0.500000 0.103133 0.000000
O O5 0.500000 0.180819 0.500000
O O6 0.742573 0.023342 0.714059
O O7 0.556293 0.112657 0.709347
O O8 0.000000 0.174526 0.000000
O O9 0.429714 0.877001 0.528059
O O10 0.155272 0.513472 0.319779
O O11 0.098167 0.721047 0.281546
O O12 0.500000 0.398411 0.500000
O O13 0.737761 0.329817 0.531780
#
# Coordination Sequence:
#
# PCOD9126852 Si02
#       6
#     4   4   2   4   4   4
#     4  11  24  43  73  99 137 183 240 291 359 428
#     4  10  24  43  72  99 138 183 235 291 361 420
#     4  10  22  42  68 100 136 172 236 290 354 412
#     4  11  24  44  69  98 136 188 231 295 358 431
#     4  11  23  46  68  96 142 183 230 289 365 429
#     4  11  25  42  68 104 137 177 240 296 355 429
#
# _framework density 22.329740999999999
#
# number of rings (size 3 to 8) (size 9 to 14) (size 15 to 20)
#    0.545    0.727    3.636    1.091   10.182    4.364 
#    0.000    0.000    0.000    0.000    0.000    0.000 
#    0.000    0.000    0.000    0.000    0.000    0.000 
#
# Total GULP energy -61267.828517 kJ/mol
# GULP energy per Si atom -5569.802592 kJ/mol
# Density = 2.227892 g / cm^3
# Si number density = 22.329741 Si / 1000 Ang^3
#
#
#
# Elastic Constant Matrix: (Units=GPa)
#
#
# Indices 1 2 3 4 5 6 
#
# 1 105.1674 5.7070 19.5340 -0.0067 -8.4613 -0.0106
# 2 5.7070 81.8060 3.7758 0.0221 7.3209 0.0929
# 3 19.5340 3.7758 77.2437 0.0581 -16.1267 0.1166
# 4 -0.0067 0.0221 0.0581 0.0120 0.0233 22.6046
# 5 -8.4613 7.3209 -16.1267 0.0233 39.4729 0.0263
# 6 -0.0106 0.0929 0.1166 22.6046 0.0263 57.9376
#
#
#
# Elastic Compliance Matrix: (Units=1/GPa)
#
#
# Indices 1 2 3 4 5 6 
#
# 1 0.010072 -0.000724 -0.002223 -0.000003 0.001385 0.000008
# 2 -0.000724 0.012583 -0.001040 -0.000026 -0.002914 -0.000007
# 3 -0.002223 -0.001040 0.014759 0.000032 0.005746 -0.000044
# 4 -0.000003 -0.000026 0.000032 -0.113542 0.000055 0.044299
# 5 0.001385 -0.002914 0.005746 0.000055 0.028519 -0.000041
# 6 0.000008 -0.000007 -0.000044 0.044299 -0.000041 -0.000023
#
#
# Mechanical properties :
#
#
# Convention : Reuss Voigt Hill
#
# Bulk Modulus (GPa) = 33.96696 35.80563 34.88630
# Shear Modulus (GPa) = -167.53135 35.16452 -66.18341
#
# Velocity S-wave (km/s) = -8.67116 3.97266 -5.45009
# Velocity P-wave (km/s) = 9.21995 6.09200 4.89362
#
# Compressibility (1/GPa) = 0.02944037
#
# Stress axis : x y z
#
# Youngs Moduli (GPa) = 99.28303 79.47002 67.75690
#
# Poissons Ratio (x) = 0.05754 0.15059
# Poissons Ratio (y) = 0.07189 0.07049
# Poissons Ratio (z) = 0.22066 0.08267
#
# Static dielectric constant tensor:
#      x y z
#    x 1.859190 -0.000020 0.009620 
#    y -0.000020 1.795380 -0.000080 
#    z 0.009620 -0.000080 1.827130 
# 
# From -- ./inp_files/53097.got.cif
#   From: 2010.05.17/outbox.cif.g08.bks.cpg/sg5_27_cif.got.tgz:53097.got - 2010.06.03 18:56:24.
