data_PCOD9126683
_publ_section_title
;
Structure prediction by ZEFSAII (Michael W. Deem and Ramdas Pophale) SiO2 
 PCOD9126683
Probable space group: C 2
;
_chemical_formula_sum "Si O2"
_cell_formula_units_Z 28
_cell_length_a 20.597221
_cell_length_b 8.001745
_cell_length_c 15.988845
_cell_angle_alpha 90.000000
_cell_angle_beta 29.101772
_cell_angle_gamma 90.000000
_cell_volume 1281.652900
_symmetry_space_group_name_H-M "C 2"
_symmetry_group_IT_number 5
_symmetry_cell_setting 'monoclinic'
loop_
_space_group_symop_operation_xyz
x,y,z
-x,y,-z
1/2+x,1/2+y,z
1/2-x,1/2+y,-z
loop_
_atom_site_type_symbol
_atom_site_label
_atom_site_fract_x
_atom_site_fract_y
_atom_site_fract_z
Si Si1 0.075278 0.431240 0.667770
Si Si2 0.367899 0.382105 0.947502
Si Si3 0.707345 0.271713 0.788616
Si Si4 0.898927 0.580754 0.536946
Si Si5 0.154434 0.923698 0.348977
Si Si6 0.138028 0.769977 0.685970
Si Si7 0.703257 0.765418 0.972807
O O1 0.040304 0.516675 0.617882
O O2 0.111728 0.581374 0.688294
O O3 0.209749 0.323308 0.503745
O O4 0.945760 0.333371 0.843761
O O5 0.528644 0.381436 0.760392
O O6 0.295434 0.302931 0.949355
O O7 0.339600 0.275246 0.062836
O O8 0.311314 0.567649 0.023234
O O9 0.797837 0.436576 0.677505
O O10 0.614572 0.287792 0.811756
O O11 0.784279 0.096850 0.689431
O O12 0.838343 0.766444 0.595607
O O13 0.000000 0.596782 0.500000
O O14 0.231063 0.856881 0.180410
O O15 0.000000 0.955939 0.500000
#
# Coordination Sequence:
#
# PCOD9126683 Si02
#       7
#     4   4   4   4   4   4   4
#     4  11  25  45  71 107 143 195 238 308 360 444
#     4  12  25  46  71 106 148 185 250 306 365 436
#     4  11  23  45  67 102 143 194 237 295 359 441
#     4  10  22  41  70 100 144 184 236 301 363 424
#     4  11  25  42  73 109 141 190 242 301 370 435
#     4  11  26  43  71 100 149 190 239 296 371 435
#     4  12  26  46  75 107 142 191 245 310 368 425
#
# _framework density 21.846788
#
# number of rings (size 3 to 8) (size 9 to 14) (size 15 to 20)
#    0.000    0.857    1.429    5.143    8.000    3.429 
#    0.000    0.000    0.000    0.000    0.000    0.000 
#    0.000    0.000    0.000    0.000    0.000    0.000 
#
# Total GULP energy -78308.830795 kJ/mol
# GULP energy per Si atom -5593.487914 kJ/mol
# Density = 2.179706 g / cm^3
# Si number density = 21.846788 Si / 1000 Ang^3
#
#
#
# Elastic Constant Matrix: (Units=GPa)
#
#
# Indices 1 2 3 4 5 6 
#
# 1 78.1776 29.2675 26.5609 0.0005 -17.2468 0.0007
# 2 29.2675 128.3412 22.6126 0.0016 -18.6204 0.0020
# 3 26.5609 22.6126 106.6221 0.0012 -10.0397 0.0015
# 4 0.0005 0.0016 0.0012 95.2681 0.0003 60.4099
# 5 -17.2468 -18.6204 -10.0397 0.0003 34.8437 0.0005
# 6 0.0007 0.0020 0.0015 60.4099 0.0005 95.9725
#
#
#
# Elastic Compliance Matrix: (Units=1/GPa)
#
#
# Indices 1 2 3 4 5 6 
#
# 1 0.015923 -0.002269 -0.002937 0.000000 0.005823 0.000000
# 2 -0.002269 0.008980 -0.001021 0.000000 0.003382 0.000000
# 3 -0.002937 -0.001021 0.010422 0.000000 0.001003 0.000000
# 4 0.000000 0.000000 0.000000 0.017469 0.000000 -0.010996
# 5 0.005823 0.003382 0.001003 0.000000 0.033678 0.000000
# 6 0.000000 0.000000 0.000000 -0.010996 0.000000 0.017341
#
#
# Mechanical properties :
#
#
# Convention : Reuss Voigt Hill
#
# Bulk Modulus (GPa) = 43.72410 52.22478 47.97444
# Shear Modulus (GPa) = 40.35824 60.86351 50.61087
#
# Velocity S-wave (km/s) = 4.30272 5.28391 4.81836
# Velocity P-wave (km/s) = 6.68894 7.82197 7.27754
#
# Compressibility (1/GPa) = 0.02287068
#
# Stress axis : x y z
#
# Youngs Moduli (GPa) = 62.80101 111.36353 95.95457
#
# Poissons Ratio (x) = 0.25267 0.28184
# Poissons Ratio (y) = 0.14249 0.09795
# Poissons Ratio (z) = 0.18446 0.11368
#
# Static dielectric constant tensor:
#      x y z
#    x 1.790920 0.000000 0.013530 
#    y 0.000000 1.784750 0.000000 
#    z 0.013530 0.000000 1.829910 
# 
# From -- ./inp_files/62712.got.cif
#   From: 2010.05.17/outbox.cif.g08.bks.cpg/sg5_32_cif.got.tgz:62712.got - 2010.06.03 18:56:24.
