data_PCOD9126967
_publ_section_title
;
Structure prediction by ZEFSAII (Michael W. Deem and Ramdas Pophale) SiO2 
 PCOD9126967
Probable space group: C 2
;
_chemical_formula_sum "Si O2"
_cell_formula_units_Z 16
_cell_length_a 18.621057
_cell_length_b 6.455667
_cell_length_c 8.662326
_cell_angle_alpha 90.000000
_cell_angle_beta 43.842749
_cell_angle_gamma 90.000000
_cell_volume 721.296058
_symmetry_space_group_name_H-M "C 2"
_symmetry_group_IT_number 5
_symmetry_cell_setting 'monoclinic'
loop_
_space_group_symop_operation_xyz
x,y,z
-x,y,-z
1/2+x,1/2+y,z
1/2-x,1/2+y,-z
loop_
_atom_site_type_symbol
_atom_site_label
_atom_site_fract_x
_atom_site_fract_y
_atom_site_fract_z
Si Si1 0.614302 0.905440 0.043667
Si Si2 0.500000 0.099664 0.500000
Si Si3 0.814702 0.794180 0.272327
Si Si4 0.000000 0.119039 0.000000
Si Si5 0.196942 0.656731 0.360584
O O1 0.574734 0.973558 0.270658
O O2 0.523390 0.771140 0.105755
O O3 0.718236 0.768061 0.877667
O O4 0.640225 0.105371 0.897476
O O5 0.581847 0.214260 0.483878
O O6 0.785762 0.725096 0.489163
O O7 0.721022 0.911156 0.330789
O O8 0.902357 0.968298 0.159059
#
# Coordination Sequence:
#
# PCOD9126967 Si02
#       5
#     4   2   4   2   4
#     4  11  25  45  70 106 147 185 240 288 359 428
#     4  12  28  44  70 108 152 188 224 298 366 424
#     4  11  22  46  74 101 137 188 249 292 340 426
#     4  10  22  42  74 104 130 192 240 292 350 416
#     4  11  25  45  74 104 141 190 240 295 351 419
#
# _framework density 22.182293999999999
#
# number of rings (size 3 to 8) (size 9 to 14) (size 15 to 20)
#    0.000    1.000    2.500    3.750    7.000    0.000 
#    0.000    6.250    0.000    0.000    0.000    0.000 
#    0.000    0.000    0.000    0.000    0.000    0.000 
#
# Total GULP energy -44722.282180 kJ/mol
# GULP energy per Si atom -5590.285272 kJ/mol
# Density = 2.213181 g / cm^3
# Si number density = 22.182294 Si / 1000 Ang^3
#
#
#
# Elastic Constant Matrix: (Units=GPa)
#
#
# Indices 1 2 3 4 5 6 
#
# 1 99.7328 12.7606 16.1003 0.0000 -23.8145 0.0000
# 2 12.7606 79.2568 16.4181 0.0000 -4.0716 0.0000
# 3 16.1003 16.4181 124.8229 0.0000 10.1727 0.0000
# 4 0.0000 0.0000 0.0000 30.1666 0.0000 -7.0267
# 5 -23.8145 -4.0716 10.1727 0.0000 30.1813 0.0000
# 6 0.0000 0.0000 0.0000 -7.0267 0.0000 3.5043
#
#
#
# Elastic Compliance Matrix: (Units=1/GPa)
#
#
# Indices 1 2 3 4 5 6 
#
# 1 0.013215 -0.001044 -0.002473 0.000000 0.011120 0.000000
# 2 -0.001044 0.013223 -0.001730 0.000000 0.001543 0.000000
# 3 -0.002473 -0.001730 0.008983 0.000000 -0.005213 0.000000
# 4 0.000000 0.000000 0.000000 0.062201 0.000000 0.124723
# 5 0.011120 0.001543 -0.005213 0.000000 0.043873 0.000000
# 6 0.000000 0.000000 0.000000 0.124723 0.000000 0.535454
#
#
# Mechanical properties :
#
#
# Convention : Reuss Voigt Hill
#
# Bulk Modulus (GPa) = 40.12014 43.81895 41.96955
# Shear Modulus (GPa) = 7.18647 30.00602 18.59624
#
# Velocity S-wave (km/s) = 1.80188 3.68190 2.89855
# Velocity P-wave (km/s) = 4.73865 6.15403 5.49213
#
# Compressibility (1/GPa) = 0.02492514
#
# Stress axis : x y z
#
# Youngs Moduli (GPa) = 75.67186 75.62567 111.32367
#
# Poissons Ratio (x) = 0.07895 0.27536
# Poissons Ratio (y) = 0.07900 0.19263
# Poissons Ratio (z) = 0.18717 0.13086
#
# Static dielectric constant tensor:
#      x y z
#    x 1.881210 0.000000 -0.004040 
#    y 0.000000 1.842810 0.000000 
#    z -0.004040 0.000000 1.791480 
# 
# From -- ./inp_files/17760.got.cif
#   From: 2010.05.17/outbox.cif.g08.bks.cpg/sg5_9_cif.got.tgz:17760.got - 2010.06.03 18:56:24.
