data_PCOD9126372
_publ_section_title
;
Structure prediction by ZEFSAII (Michael W. Deem and Ramdas Pophale) SiO2 
 PCOD9126372
Probable space group: C 2
;
_chemical_formula_sum "Si O2"
_cell_formula_units_Z 26
_cell_length_a 18.225146
_cell_length_b 12.197354
_cell_length_c 11.157095
_cell_angle_alpha 90.000000
_cell_angle_beta 28.774689
_cell_angle_gamma 90.000000
_cell_volume 1193.888165
_symmetry_space_group_name_H-M "C 2"
_symmetry_group_IT_number 5
_symmetry_cell_setting 'monoclinic'
loop_
_space_group_symop_operation_xyz
x,y,z
-x,y,-z
1/2+x,1/2+y,z
1/2-x,1/2+y,-z
loop_
_atom_site_type_symbol
_atom_site_label
_atom_site_fract_x
_atom_site_fract_y
_atom_site_fract_z
Si Si1 0.500000 0.160650 0.500000
Si Si2 0.215495 0.591364 0.981799
Si Si3 0.899406 0.383245 0.947637
Si Si4 0.090951 0.192734 0.744879
Si Si5 0.435523 0.487153 0.836820
Si Si6 0.322626 0.829329 0.789683
Si Si7 0.169181 0.794665 0.461906
O O1 0.623041 0.102100 0.239297
O O2 0.591384 0.230105 0.465662
O O3 0.109292 0.513293 0.054236
O O4 0.371874 0.531781 0.799979
O O5 0.255648 0.707674 0.865698
O O6 0.818558 0.342134 0.940656
O O7 0.048228 0.307891 0.741967
O O8 0.809881 0.354772 0.196208
O O9 0.266017 0.209767 0.532886
O O10 0.021719 0.091406 0.770267
O O11 0.000000 0.181680 0.000000
O O12 0.554933 0.388517 0.664661
O O13 0.286875 0.424391 0.106311
O O14 0.500000 0.839108 0.500000
#
# Coordination Sequence:
#
# PCOD9126372 Si02
#       7
#     2   4   4   4   4   4   4
#     4  12  20  42  66  98 124 176 230 284 326 414
#     4  11  22  36  68  93 133 169 225 278 339 390
#     4  10  22  40  62  98 128 178 223 273 335 400
#     4  10  22  45  66  92 138 181 226 277 340 408
#     4  11  23  42  63 102 131 178 226 277 334 399
#     4  11  23  40  64 101 138 171 223 284 338 394
#     4  11  22  42  70  94 134 179 230 272 336 408
#
# _framework density 21.777584000000001
#
# number of rings (size 3 to 8) (size 9 to 14) (size 15 to 20)
#    0.000    1.231    4.615    1.846    6.462    1.231 
#    2.769    0.000    0.000    0.000    0.000    0.000 
#    0.000    0.000    0.000    0.000    0.000    0.000 
#
# Total GULP energy -72428.720421 kJ/mol
# GULP energy per Si atom -5571.440032 kJ/mol
# Density = 2.172802 g / cm^3
# Si number density = 21.777584 Si / 1000 Ang^3
#
#
#
# Elastic Constant Matrix: (Units=GPa)
#
#
# Indices 1 2 3 4 5 6 
#
# 1 76.0092 38.8447 16.0343 0.0000 -22.6139 0.0000
# 2 38.8447 126.9171 54.0792 0.0000 -20.4029 0.0000
# 3 16.0343 54.0792 95.7451 0.0000 -16.0867 0.0000
# 4 0.0000 0.0000 0.0000 8.4213 0.0000 -18.5725
# 5 -22.6139 -20.4029 -16.0867 0.0000 21.3204 0.0000
# 6 0.0000 0.0000 0.0000 -18.5725 0.0000 24.8685
#
#
#
# Elastic Compliance Matrix: (Units=1/GPa)
#
#
# Indices 1 2 3 4 5 6 
#
# 1 0.020611 -0.004072 0.002137 0.000000 0.019578 0.000000
# 2 -0.004072 0.011978 -0.005592 0.000000 0.002925 0.000000
# 3 0.002137 -0.005592 0.014575 0.000000 0.007912 0.000000
# 4 0.000000 0.000000 0.000000 -0.183512 0.000000 -0.137052
# 5 0.019578 0.002925 0.007912 0.000000 0.076438 0.000000
# 6 0.000000 0.000000 0.000000 -0.137052 0.000000 -0.062143
#
#
# Mechanical properties :
#
#
# Convention : Reuss Voigt Hill
#
# Bulk Modulus (GPa) = 31.14248 57.39865 44.27056
# Shear Modulus (GPa) = -51.92263 23.56957 -14.17653
#
# Velocity S-wave (km/s) = -4.88815 3.29338 -2.55418
# Velocity P-wave (km/s) = 4.18657 6.39342 3.41675
#
# Compressibility (1/GPa) = 0.03211048
#
# Stress axis : x y z
#
# Youngs Moduli (GPa) = 48.51794 83.48304 68.61267
#
# Poissons Ratio (x) = 0.33992 -0.14666
# Poissons Ratio (y) = 0.19755 0.38371
# Poissons Ratio (z) = -0.10371 0.46688
#
# Static dielectric constant tensor:
#      x y z
#    x 1.905640 0.000000 -0.098080 
#    y 0.000000 1.867270 0.000000 
#    z -0.098080 0.000000 1.907240 
# 
# From -- ./inp_files/44663.got.cif
#   From: 2010.05.17/outbox.cif.g08.bks.cpg/sg5_23_cif.got.tgz:44663.got - 2010.06.03 18:56:24.
