data_PCOD9126342
_publ_section_title
;
Structure prediction by ZEFSAII (Michael W. Deem and Ramdas Pophale) SiO2 
 PCOD9126342
Probable space group: C 2
;
_chemical_formula_sum "Si O2"
_cell_formula_units_Z 22
_cell_length_a 12.125491
_cell_length_b 14.767823
_cell_length_c 10.153992
_cell_angle_alpha 90.000000
_cell_angle_beta 148.258644
_cell_angle_gamma 90.000000
_cell_volume 956.553063
_symmetry_space_group_name_H-M "C 2"
_symmetry_group_IT_number 5
_symmetry_cell_setting 'monoclinic'
loop_
_space_group_symop_operation_xyz
x,y,z
-x,y,-z
1/2+x,1/2+y,z
1/2-x,1/2+y,-z
loop_
_atom_site_type_symbol
_atom_site_label
_atom_site_fract_x
_atom_site_fract_y
_atom_site_fract_z
Si Si1 0.000000 0.466190 0.000000
Si Si2 0.915306 0.782504 0.777287
Si Si3 0.301987 0.126381 0.194331
Si Si4 0.848917 0.597094 0.641041
Si Si5 0.811193 0.823864 0.200401
Si Si6 0.765961 0.471558 0.314990
O O1 0.151414 0.532850 0.234163
O O2 0.140028 0.401624 0.048545
O O3 0.772331 0.700589 0.575435
O O4 0.814999 0.874837 0.725591
O O5 0.078339 0.814433 0.830165
O O6 0.000000 0.740160 0.000000
O O7 0.500000 0.132461 0.500000
O O8 0.409409 0.113205 0.161816
O O9 0.204018 0.224759 0.108619
O O10 0.182247 0.035225 0.111307
O O11 0.756976 0.536778 0.431734
O O12 0.000000 0.834674 0.500000
O O13 0.000000 0.452596 0.500000
#
# Coordination Sequence:
#
# PCOD9126342 Si02
#       6
#     2   4   4   4   4   4
#     4  12  22  36  62  86 122 164 204 246 308 368
#     4  11  22  39  62  92 124 154 200 262 308 353
#     4   7  15  35  59  79 113 155 193 241 300 355
#     4   9  19  36  58  84 122 160 190 250 315 357
#     4  10  22  40  61  88 123 165 204 247 305 375
#     4   9  19  37  65  83 117 160 202 242 307 372
#
# _framework density 22.999244999999998
#
# number of rings (size 3 to 8) (size 9 to 14) (size 15 to 20)
#    0.000    2.909    0.909    2.182    5.091    0.000 
#    1.636    2.727    0.000    0.000    0.000    0.000 
#    0.000    0.000    0.000    0.000    0.000    0.000 
#
# Total GULP energy -61247.733844 kJ/mol
# GULP energy per Si atom -5567.975804 kJ/mol
# Density = 2.294690 g / cm^3
# Si number density = 22.999245 Si / 1000 Ang^3
#
#
#
# Elastic Constant Matrix: (Units=GPa)
#
#
# Indices 1 2 3 4 5 6 
#
# 1 107.4621 38.9067 21.7667 0.0000 -5.4743 0.0000
# 2 38.9067 213.6389 15.2901 0.0000 13.0704 0.0000
# 3 21.7667 15.2901 39.9729 0.0000 -0.1497 0.0000
# 4 0.0000 0.0000 0.0000 9.8234 0.0000 -2.9289
# 5 -5.4743 13.0704 -0.1497 0.0000 26.2977 0.0000
# 6 0.0000 0.0000 0.0000 -2.9289 0.0000 32.6014
#
#
#
# Elastic Compliance Matrix: (Units=1/GPa)
#
#
# Indices 1 2 3 4 5 6 
#
# 1 0.011236 -0.001858 -0.005396 0.000000 0.003231 0.000000
# 2 -0.001858 0.005276 -0.001018 0.000000 -0.003015 0.000000
# 3 -0.005396 -0.001018 0.028343 0.000000 -0.000456 0.000000
# 4 0.000000 0.000000 0.000000 0.104599 0.000000 0.009397
# 5 0.003231 -0.003015 -0.000456 0.000000 0.040195 0.000000
# 6 0.000000 0.000000 0.000000 0.009397 0.000000 0.031518
#
#
# Mechanical properties :
#
#
# Convention : Reuss Voigt Hill
#
# Bulk Modulus (GPa) = 35.32032 57.00010 46.16021
# Shear Modulus (GPa) = 20.23092 32.75186 26.49139
#
# Velocity S-wave (km/s) = 2.96908 3.77774 3.39756
# Velocity P-wave (km/s) = 5.21003 6.62312 5.95861
#
# Compressibility (1/GPa) = 0.02831231
#
# Stress axis : x y z
#
# Youngs Moduli (GPa) = 89.00202 189.52226 35.28243
#
# Poissons Ratio (x) = 0.35208 0.19037
# Poissons Ratio (y) = 0.16534 0.03592
# Poissons Ratio (z) = 0.48022 0.19293
#
# Static dielectric constant tensor:
#      x y z
#    x 1.909840 0.000000 0.003020 
#    y 0.000000 1.899130 0.000000 
#    z 0.003020 0.000000 1.990760 
# 
# From -- ./inp_files/39545.got.cif
#   From: 2010.05.17/outbox.cif.g08.bks.cpg/sg5_20_cif.got.tgz:39545.got - 2010.06.03 18:56:24.
