data_PCOD9126918
_publ_section_title
;
Structure prediction by ZEFSAII (Michael W. Deem and Ramdas Pophale) SiO2 
 PCOD9126918
Probable space group: C 2
;
_chemical_formula_sum "Si O2"
_cell_formula_units_Z 26
_cell_length_a 19.898212
_cell_length_b 7.799712
_cell_length_c 14.396853
_cell_angle_alpha 90.000000
_cell_angle_beta 148.401964
_cell_angle_gamma 90.000000
_cell_volume 1170.726900
_symmetry_space_group_name_H-M "C 2"
_symmetry_group_IT_number 5
_symmetry_cell_setting 'monoclinic'
loop_
_space_group_symop_operation_xyz
x,y,z
-x,y,-z
1/2+x,1/2+y,z
1/2-x,1/2+y,-z
loop_
_atom_site_type_symbol
_atom_site_label
_atom_site_fract_x
_atom_site_fract_y
_atom_site_fract_z
Si Si1 0.200126 0.772430 0.138197
Si Si2 0.280429 0.889628 0.776522
Si Si3 0.500000 0.452548 0.500000
Si Si4 0.903221 0.205196 0.226861
Si Si5 0.652283 0.910860 0.510778
Si Si6 0.724175 0.735978 0.414294
Si Si7 0.060765 0.096868 0.933954
O O1 0.174732 0.575569 0.135256
O O2 0.277057 0.763951 0.131908
O O3 0.292954 0.858560 0.324784
O O4 0.083732 0.903479 0.993227
O O5 0.279740 0.889672 0.664280
O O6 0.368845 0.735692 0.917584
O O7 0.134488 0.858986 0.640140
O O8 0.473301 0.572045 0.379009
O O9 0.004309 0.357921 0.331659
O O10 0.881579 0.123291 0.101136
O O11 0.730786 0.802690 0.526060
O O12 0.671150 0.105713 0.501748
O O13 0.588271 0.639773 0.246483
#
# Coordination Sequence:
#
# PCOD9126918 Si02
#       7
#     4   4   2   4   4   4   4
#     4  11  23  44  71  96 135 179 218 285 341 391
#     4  11  23  45  67 101 129 179 223 279 334 406
#     4  10  22  42  70  94 134 172 224 282 330 392
#     4  10  22  43  68 101 134 172 229 285 325 411
#     4  11  21  43  69  94 136 178 223 279 332 390
#     4  11  25  44  66 102 138 179 229 280 328 415
#     4  11  26  45  65 100 143 171 228 281 339 401
#
# _framework density 22.208424999999998
#
# number of rings (size 3 to 8) (size 9 to 14) (size 15 to 20)
#    0.000    1.231    4.615    1.385    6.462    1.231 
#   11.077    0.000    0.000    0.000    0.000    0.000 
#    0.000    0.000    0.000    0.000    0.000    0.000 
#
# Total GULP energy -72710.048745 kJ/mol
# GULP energy per Si atom -5593.080673 kJ/mol
# Density = 2.215788 g / cm^3
# Si number density = 22.208425 Si / 1000 Ang^3
#
#
#
# Elastic Constant Matrix: (Units=GPa)
#
#
# Indices 1 2 3 4 5 6 
#
# 1 86.1774 23.6989 -16.0746 0.0000 -9.4557 0.0000
# 2 23.6989 92.7443 3.8346 0.0000 8.3871 0.0000
# 3 -16.0746 3.8346 18.6193 0.0000 5.3388 0.0000
# 4 0.0000 0.0000 0.0000 30.1023 0.0000 5.4588
# 5 -9.4557 8.3871 5.3388 0.0000 30.1011 0.0000
# 6 0.0000 0.0000 0.0000 5.4588 0.0000 29.8577
#
#
#
# Elastic Compliance Matrix: (Units=1/GPa)
#
#
# Indices 1 2 3 4 5 6 
#
# 1 0.015969 -0.005006 0.013674 0.000000 0.003986 0.000000
# 2 -0.005006 0.012669 -0.005761 0.000000 -0.004081 0.000000
# 3 0.013674 -0.005761 0.068491 0.000000 -0.006247 0.000000
# 4 0.000000 0.000000 0.000000 0.034359 0.000000 -0.006282
# 5 0.003986 -0.004081 -0.006247 0.000000 0.036718 0.000000
# 6 0.000000 0.000000 0.000000 -0.006282 0.000000 0.034641
#
#
# Mechanical properties :
#
#
# Convention : Reuss Voigt Hill
#
# Bulk Modulus (GPa) = 9.71417 24.49543 17.10480
# Shear Modulus (GPa) = 21.61255 30.41768 26.01511
#
# Velocity S-wave (km/s) = 3.12295 3.70489 3.42630
# Velocity P-wave (km/s) = 4.16981 5.41806 4.83439
#
# Compressibility (1/GPa) = 0.10294244
#
# Stress axis : x y z
#
# Youngs Moduli (GPa) = 62.62240 78.93390 14.60047
#
# Poissons Ratio (x) = 0.39517 -0.19965
# Poissons Ratio (y) = 0.31351 0.08412
# Poissons Ratio (z) = -0.85632 0.45475
#
# Static dielectric constant tensor:
#      x y z
#    x 1.816340 0.000000 -0.010830 
#    y 0.000000 1.811990 0.000000 
#    z -0.010830 0.000000 1.796490 
# 
# From -- ./inp_files/56842.got.cif
#   From: 2010.05.17/outbox.cif.g08.bks.cpg/sg5_29_cif.got.tgz:56842.got - 2010.06.03 18:56:24.
