data_PCOD9126504
_publ_section_title
;
Structure prediction by ZEFSAII (Michael W. Deem and Ramdas Pophale) SiO2 
 PCOD9126504
Probable space group: C 2
;
_chemical_formula_sum "Si O2"
_cell_formula_units_Z 18
_cell_length_a 16.637060
_cell_length_b 6.719676
_cell_length_c 7.235332
_cell_angle_alpha 90.000000
_cell_angle_beta 84.817787
_cell_angle_gamma 90.000000
_cell_volume 805.572362
_symmetry_space_group_name_H-M "C 2"
_symmetry_group_IT_number 5
_symmetry_cell_setting 'monoclinic'
loop_
_space_group_symop_operation_xyz
x,y,z
-x,y,-z
1/2+x,1/2+y,z
1/2-x,1/2+y,-z
loop_
_atom_site_type_symbol
_atom_site_label
_atom_site_fract_x
_atom_site_fract_y
_atom_site_fract_z
Si Si1 0.858523 0.465620 0.078511
Si Si2 0.413163 0.120650 0.444161
Si Si3 0.060955 0.085083 0.121077
Si Si4 0.193074 0.780638 0.219544
Si Si5 0.500000 0.743619 0.500000
O O1 0.900823 0.601567 0.227249
O O2 0.784874 0.350601 0.193248
O O3 0.914104 0.294031 0.978675
O O4 0.824223 0.600340 0.919118
O O5 0.500000 0.202641 0.500000
O O6 0.341624 0.222893 0.571916
O O7 0.423143 0.890232 0.504934
O O8 0.009668 0.123649 0.314090
O O9 0.139471 0.962860 0.156061
O O10 0.000000 0.971384 0.000000
#
# Coordination Sequence:
#
# PCOD9126504 Si02
#       5
#     4   4   4   4   2
#     4  12  25  50  69 103 150 187 238 298 352 430
#     4  10  24  46  71  99 142 184 234 297 347 413
#     4  12  25  44  75 102 140 192 239 291 356 427
#     4  12  28  43  72 107 142 192 239 291 365 420
#     4  10  22  40  70 100 134 170 242 286 340 408
#
# _framework density 22.344362
#
# number of rings (size 3 to 8) (size 9 to 14) (size 15 to 20)
#    0.667    0.000    6.667    0.000    4.667    3.556 
#    0.000    0.000    0.000    0.000    0.000    0.000 
#    0.000    0.000    0.000    0.000    0.000    0.000 
#
# Total GULP energy -50293.320848 kJ/mol
# GULP energy per Si atom -5588.146761 kJ/mol
# Density = 2.229351 g / cm^3
# Si number density = 22.344362 Si / 1000 Ang^3
#
#
#
# Elastic Constant Matrix: (Units=GPa)
#
#
# Indices 1 2 3 4 5 6 
#
# 1 86.5028 31.7867 42.0640 0.0000 -13.6913 0.0000
# 2 31.7867 74.1398 37.0057 0.0000 -11.2955 0.0000
# 3 42.0640 37.0057 126.5568 0.0000 -16.2218 0.0000
# 4 0.0000 0.0000 0.0000 27.2009 0.0000 -17.3596
# 5 -13.6913 -11.2955 -16.2218 0.0000 36.7646 0.0000
# 6 0.0000 0.0000 0.0000 -17.3596 0.0000 15.2383
#
#
#
# Elastic Compliance Matrix: (Units=1/GPa)
#
#
# Indices 1 2 3 4 5 6 
#
# 1 0.015299 -0.004416 -0.003431 0.000000 0.002827 0.000000
# 2 -0.004416 0.017382 -0.003330 0.000000 0.002227 0.000000
# 3 -0.003431 -0.003330 0.010303 0.000000 0.002245 0.000000
# 4 0.000000 0.000000 0.000000 0.134685 0.000000 0.153435
# 5 0.002827 0.002227 0.002245 0.000000 0.029928 0.000000
# 6 0.000000 0.000000 0.000000 0.153435 0.000000 0.240419
#
#
# Mechanical properties :
#
#
# Convention : Reuss Voigt Hill
#
# Bulk Modulus (GPa) = 48.47022 56.54579 52.50801
# Shear Modulus (GPa) = 10.47674 27.59697 19.03686
#
# Velocity S-wave (km/s) = 2.16770 3.51818 2.92203
# Velocity P-wave (km/s) = 5.29195 6.47031 5.91057
#
# Compressibility (1/GPa) = 0.02063122
#
# Stress axis : x y z
#
# Youngs Moduli (GPa) = 65.36366 57.52921 97.05462
#
# Poissons Ratio (x) = 0.25404 0.33304
# Poissons Ratio (y) = 0.28864 0.32315
# Poissons Ratio (z) = 0.22429 0.19154
#
# Static dielectric constant tensor:
#      x y z
#    x 1.834060 0.000000 0.054420 
#    y 0.000000 1.825910 0.000000 
#    z 0.054420 0.000000 1.845040 
# 
# From -- ./inp_files/7934.got.cif
#   From: 2010.05.17/outbox.cif.g08.bks.cpg/sg5_4_cif.got.tgz:7934.got - 2010.06.03 18:56:24.
