data_PCOD9126982
_publ_section_title
;
Structure prediction by ZEFSAII (Michael W. Deem and Ramdas Pophale) SiO2 
 PCOD9126982
Probable space group: C 2
;
_chemical_formula_sum "Si O2"
_cell_formula_units_Z 28
_cell_length_a 14.252378
_cell_length_b 8.330125
_cell_length_c 8.888330
_cell_angle_alpha 90.000000
_cell_angle_beta 108.366305
_cell_angle_gamma 90.000000
_cell_volume 1001.505564
_symmetry_space_group_name_H-M "C 2"
_symmetry_group_IT_number 5
_symmetry_cell_setting 'monoclinic'
loop_
_space_group_symop_operation_xyz
x,y,z
-x,y,-z
1/2+x,1/2+y,z
1/2-x,1/2+y,-z
loop_
_atom_site_type_symbol
_atom_site_label
_atom_site_fract_x
_atom_site_fract_y
_atom_site_fract_z
Si Si1 0.129902 0.602460 0.046323
Si Si2 0.120829 0.396374 0.641358
Si Si3 0.844494 0.186459 0.625060
Si Si4 0.719360 0.439954 0.080188
Si Si5 0.152992 0.873736 0.565078
Si Si6 0.561054 0.576887 0.787973
Si Si7 0.029882 0.633046 0.283623
O O1 0.193337 0.468964 0.995191
O O2 0.047891 0.676681 0.889972
O O3 0.195806 0.756922 0.094962
O O4 0.100976 0.545310 0.198020
O O5 0.118724 0.325026 0.474260
O O6 0.226725 0.474533 0.735390
O O7 0.098267 0.241824 0.733004
O O8 0.042796 0.529515 0.651503
O O9 0.751328 0.274505 0.654994
O O10 0.816353 0.039099 0.500144
O O11 0.555904 0.612287 0.247039
O O12 0.625342 0.532686 0.966681
O O13 0.907789 0.759926 0.585203
O O14 0.088687 0.937811 0.676523
#
# Coordination Sequence:
#
# PCOD9126982 Si02
#       7
#     4   4   4   4   4   4   4
#     4  10  22  42  76 105 151 198 263 329 399 485
#     4  10  22  45  81 110 154 211 265 335 411 484
#     4  11  26  50  75 118 163 210 268 339 410 493
#     4  11  21  44  74 109 149 201 256 332 403 475
#     4  11  25  48  74 113 165 209 268 332 409 492
#     4  11  25  48  77 116 167 206 272 341 402 496
#     4  10  23  45  75 112 151 208 270 327 406 487
#
# _framework density 27.957905
#
# number of rings (size 3 to 8) (size 9 to 14) (size 15 to 20)
#    0.000    1.429    1.429    3.429    4.000    0.000 
#   12.857    0.000    6.286    0.000    0.000    0.000 
#    0.000    0.000    0.000    0.000    0.000    0.000 
#
# Total GULP energy -78241.920562 kJ/mol
# GULP energy per Si atom -5588.708612 kJ/mol
# Density = 2.789427 g / cm^3
# Si number density = 27.957905 Si / 1000 Ang^3
#
#
#
# Elastic Constant Matrix: (Units=GPa)
#
#
# Indices 1 2 3 4 5 6 
#
# 1 193.8540 57.5111 61.9359 0.0000 35.8972 0.0000
# 2 57.5111 91.1527 48.9578 0.0000 5.8025 0.0000
# 3 61.9359 48.9578 162.0515 0.0000 1.4622 0.0000
# 4 0.0000 0.0000 0.0000 41.2994 0.0000 6.0868
# 5 35.8972 5.8025 1.4622 0.0000 42.5303 0.0000
# 6 0.0000 0.0000 0.0000 6.0868 0.0000 62.2996
#
#
#
# Elastic Compliance Matrix: (Units=1/GPa)
#
#
# Indices 1 2 3 4 5 6 
#
# 1 0.007986 -0.003624 -0.001902 0.000000 -0.006180 0.000000
# 2 -0.003624 0.014857 -0.003114 0.000000 0.001139 0.000000
# 3 -0.001902 -0.003114 0.007822 0.000000 0.001761 0.000000
# 4 0.000000 0.000000 0.000000 0.024567 0.000000 -0.002400
# 5 -0.006180 0.001139 0.001761 0.000000 0.028513 0.000000
# 6 0.000000 0.000000 0.000000 -0.002400 0.000000 0.016286
#
#
# Mechanical properties :
#
#
# Convention : Reuss Voigt Hill
#
# Bulk Modulus (GPa) = 74.69964 87.09642 80.89803
# Shear Modulus (GPa) = 41.06061 47.80275 44.43168
#
# Velocity S-wave (km/s) = 3.83647 4.13947 3.99085
# Velocity P-wave (km/s) = 6.81185 7.35305 7.08761
#
# Compressibility (1/GPa) = 0.01338695
#
# Stress axis : x y z
#
# Youngs Moduli (GPa) = 125.22637 67.30950 127.83684
#
# Poissons Ratio (x) = 0.24390 0.24309
# Poissons Ratio (y) = 0.45377 0.39805
# Poissons Ratio (z) = 0.23813 0.20959
#
# Static dielectric constant tensor:
#      x y z
#    x 2.402480 0.000000 0.034840 
#    y 0.000000 2.177430 0.000000 
#    z 0.034840 0.000000 2.227100 
# 
# From -- ./inp_files/41684.got.cif
#   From: 2010.05.17/outbox.cif.g08.bks.cpg/sg5_21_cif.got.tgz:41684.got - 2010.06.03 18:56:24.
