data_PCOD9126354
_publ_section_title
;
Structure prediction by ZEFSAII (Michael W. Deem and Ramdas Pophale) SiO2 
 PCOD9126354
Probable space group: C 2
;
_chemical_formula_sum "Si O2"
_cell_formula_units_Z 26
_cell_length_a 9.044602
_cell_length_b 10.899122
_cell_length_c 12.928258
_cell_angle_alpha 90.000000
_cell_angle_beta 106.876775
_cell_angle_gamma 90.000000
_cell_volume 1219.556048
_symmetry_space_group_name_H-M "C 2"
_symmetry_group_IT_number 5
_symmetry_cell_setting 'monoclinic'
loop_
_space_group_symop_operation_xyz
x,y,z
-x,y,-z
1/2+x,1/2+y,z
1/2-x,1/2+y,-z
loop_
_atom_site_type_symbol
_atom_site_label
_atom_site_fract_x
_atom_site_fract_y
_atom_site_fract_z
Si Si1 0.287782 0.702230 0.149033
Si Si2 0.636123 0.010384 0.609030
Si Si3 0.055622 0.052779 0.127662
Si Si4 0.000000 0.601047 0.000000
Si Si5 0.380191 0.327586 0.720755
Si Si6 0.779595 0.741781 0.272353
Si Si7 0.992051 0.429018 0.797682
O O1 0.410036 0.593188 0.167333
O O2 0.215306 0.716406 0.248275
O O3 0.389289 0.821474 0.146761
O O4 0.153361 0.682168 0.038663
O O5 0.500000 0.000193 0.500000
O O6 0.708374 0.147155 0.628616
O O7 0.770711 0.908219 0.623722
O O8 0.558036 0.987539 0.705951
O O9 0.191370 0.152578 0.171987
O O10 0.100453 0.920193 0.178219
O O11 0.000000 0.051277 0.000000
O O12 0.989070 0.519515 0.894424
O O13 0.546931 0.284137 0.717740
O O14 0.668919 0.859578 0.258582
#
# Coordination Sequence:
#
# PCOD9126354 Si02
#       7
#     4   4   4   2   4   4   4
#     4  10  24  35  54  85 121 167 206 243 299 361
#     4  10  23  44  66  90 121 160 212 267 313 367
#     4  10  23  35  54  85 128 166 208 250 296 368
#     4  12  24  34  62  90 126 164 208 248 300 376
#     4  10  22  40  62  88 123 162 208 257 310 370
#     4  10  22  41  63  90 124 163 207 257 312 370
#     4  10  24  41  59  90 128 161 204 256 312 367
#
# _framework density 21.319234000000002
#
# number of rings (size 3 to 8) (size 9 to 14) (size 15 to 20)
#    0.000    1.846    0.000    1.846   14.000    1.231 
#    0.000    0.000    0.000    0.000    0.000    0.000 
#    0.000    0.000    0.000    0.000    0.000    0.000 
#
# Total GULP energy -72605.794643 kJ/mol
# GULP energy per Si atom -5585.061126 kJ/mol
# Density = 2.127071 g / cm^3
# Si number density = 21.319234 Si / 1000 Ang^3
#
#
#
# Elastic Constant Matrix: (Units=GPa)
#
#
# Indices 1 2 3 4 5 6 
#
# 1 124.8080 34.6983 30.2585 0.0000 33.5491 0.0000
# 2 34.6983 56.1149 29.7501 0.0000 11.9835 0.0000
# 3 30.2585 29.7501 104.1323 0.0000 37.2285 0.0000
# 4 0.0000 0.0000 0.0000 20.0889 0.0000 15.6320
# 5 33.5491 11.9835 37.2285 0.0000 35.6226 0.0000
# 6 0.0000 0.0000 0.0000 15.6320 0.0000 34.9551
#
#
#
# Elastic Compliance Matrix: (Units=1/GPa)
#
#
# Indices 1 2 3 4 5 6 
#
# 1 0.012493 -0.006487 0.002633 0.000000 -0.012336 0.000000
# 2 -0.006487 0.024406 -0.006923 0.000000 0.005135 0.000000
# 3 0.002633 -0.006923 0.017354 0.000000 -0.018287 0.000000
# 4 0.000000 0.000000 0.000000 0.076347 0.000000 -0.034143
# 5 -0.012336 0.005135 -0.018287 0.000000 0.057074 0.000000
# 6 0.000000 0.000000 0.000000 -0.034143 0.000000 0.043877
#
#
# Mechanical properties :
#
#
# Convention : Reuss Voigt Hill
#
# Bulk Modulus (GPa) = 30.58215 52.71878 41.65046
# Shear Modulus (GPa) = 18.93910 30.82319 24.88114
#
# Velocity S-wave (km/s) = 2.98377 3.80648 3.41995
# Velocity P-wave (km/s) = 5.12313 6.64086 5.93075
#
# Compressibility (1/GPa) = 0.03269882
#
# Stress axis : x y z
#
# Youngs Moduli (GPa) = 80.04302 40.97402 57.62409
#
# Poissons Ratio (x) = 0.26579 -0.15174
# Poissons Ratio (y) = 0.51923 0.39895
# Poissons Ratio (z) = -0.21077 0.28368
#
# Static dielectric constant tensor:
#      x y z
#    x 1.810470 0.000000 0.023020 
#    y 0.000000 1.811550 0.000000 
#    z 0.023020 0.000000 1.755580 
# 
# From -- ./inp_files/50212.got.cif
#   From: 2010.05.17/outbox.cif.g08.bks.cpg/sg5_26_cif.got.tgz:50212.got - 2010.06.03 18:56:24.
