data_PCOD9126267
_publ_section_title
;
Structure prediction by ZEFSAII (Michael W. Deem and Ramdas Pophale) SiO2 
 PCOD9126267
Probable space group: C 2
;
_chemical_formula_sum "Si O2"
_cell_formula_units_Z 26
_cell_length_a 9.398599
_cell_length_b 15.760742
_cell_length_c 8.157575
_cell_angle_alpha 90.000000
_cell_angle_beta 85.687169
_cell_angle_gamma 90.000000
_cell_volume 1204.950835
_symmetry_space_group_name_H-M "C 2"
_symmetry_group_IT_number 5
_symmetry_cell_setting 'monoclinic'
loop_
_space_group_symop_operation_xyz
x,y,z
-x,y,-z
1/2+x,1/2+y,z
1/2-x,1/2+y,-z
loop_
_atom_site_type_symbol
_atom_site_label
_atom_site_fract_x
_atom_site_fract_y
_atom_site_fract_z
Si Si1 0.500000 0.178200 0.000000
Si Si2 0.500000 0.960868 0.500000
Si Si3 0.199689 0.782419 0.756683
Si Si4 0.000000 0.850430 0.500000
Si Si5 0.681494 0.086918 0.258755
Si Si6 0.247959 0.956667 0.308736
Si Si7 0.835769 0.140029 0.552421
Si Si8 0.668515 0.448801 0.947272
O O1 0.375576 0.234424 0.087944
O O2 0.572600 0.126020 0.138997
O O3 0.383799 0.917553 0.392549
O O4 0.592514 0.019286 0.371379
O O5 0.318560 0.722430 0.667605
O O6 0.230085 0.875598 0.823626
O O7 0.083561 0.794860 0.623985
O O8 0.889590 0.909643 0.606582
O O9 0.751847 0.148751 0.386936
O O10 0.804023 0.036845 0.148882
O O11 0.231197 0.056814 0.353109
O O12 0.249207 0.947518 0.113713
O O13 0.000000 0.122538 0.500000
O O14 0.500000 0.436107 0.000000
#
# Coordination Sequence:
#
# PCOD9126267 Si02
#       8
#     2   2   4   2   4   4   4   4
#     4  12  22  42  66 102 130 178 224 286 332 404
#     4  10  22  39  64 107 128 174 218 290 320 393
#     4  12  24  41  68  99 140 174 227 276 350 390
#     4  12  22  45  70  97 134 188 226 276 324 435
#     4  11  23  41  70  99 137 175 233 274 337 400
#     4  11  22  43  74 101 133 177 239 274 334 403
#     4  11  23  43  69 101 134 180 227 282 331 412
#     4  12  23  42  67 104 136 179 223 289 334 407
#
# _framework density 21.577642999999998
#
# number of rings (size 3 to 8) (size 9 to 14) (size 15 to 20)
#    0.000    0.615    3.077    7.385    0.000    0.615 
#    5.538    0.000   10.154    0.000    0.000    0.000 
#    0.000    0.000    0.000    0.000    0.000    0.000 
#
# Total GULP energy -72717.265419 kJ/mol
# GULP energy per Si atom -5593.635801 kJ/mol
# Density = 2.152853 g / cm^3
# Si number density = 21.577643 Si / 1000 Ang^3
#
#
#
# Elastic Constant Matrix: (Units=GPa)
#
#
# Indices 1 2 3 4 5 6 
#
# 1 60.1997 10.8169 19.7012 0.0000 5.8777 0.0000
# 2 10.8169 34.5228 1.2629 0.0000 -2.8184 0.0000
# 3 19.7012 1.2629 105.5851 0.0000 14.6513 0.0000
# 4 0.0000 0.0000 0.0000 15.0132 0.0000 8.8125
# 5 5.8777 -2.8184 14.6513 0.0000 37.9246 0.0000
# 6 0.0000 0.0000 0.0000 8.8125 0.0000 5.1288
#
#
#
# Elastic Compliance Matrix: (Units=1/GPa)
#
#
# Indices 1 2 3 4 5 6 
#
# 1 0.018934 -0.005993 -0.003162 0.000000 -0.002158 0.000000
# 2 -0.005993 0.031087 0.000314 0.000000 0.003118 0.000000
# 3 -0.003162 0.000314 0.010552 0.000000 -0.003563 0.000000
# 4 0.000000 0.000000 0.000000 -7.761732 0.000000 13.336551
# 5 -0.002158 0.003118 -0.003563 0.000000 0.028311 0.000000
# 6 0.000000 0.000000 0.000000 13.336551 0.000000-22.720471
#
#
# Mechanical properties :
#
#
# Convention : Reuss Voigt Hill
#
# Bulk Modulus (GPa) = 23.31507 29.31885 26.31696
# Shear Modulus (GPa) = -0.16468 22.84844 11.34188
#
# Velocity S-wave (km/s) = -0.27656 3.25760 2.29515
# Velocity P-wave (km/s) = 3.27516 5.26938 4.38708
#
# Compressibility (1/GPa) = 0.04289071
#
# Stress axis : x y z
#
# Youngs Moduli (GPa) = 52.81609 32.16768 94.77197
#
# Poissons Ratio (x) = 0.19278 0.29964
# Poissons Ratio (y) = 0.31652 -0.02973
# Poissons Ratio (z) = 0.16699 -0.01009
#
# Static dielectric constant tensor:
#      x y z
#    x 1.780490 0.000000 0.008480 
#    y 0.000000 1.791450 0.000000 
#    z 0.008480 0.000000 1.803320 
# 
# From -- ./inp_files/15799.got.cif
#   From: 2010.05.17/outbox.cif.g08.bks.cpg/sg5_8_cif.got.tgz:15799.got - 2010.06.03 18:56:24.
