data_PCOD9126953
_publ_section_title
;
Structure prediction by ZEFSAII (Michael W. Deem and Ramdas Pophale) SiO2 
 PCOD9126953
Probable space group: C 2
;
_chemical_formula_sum "Si O2"
_cell_formula_units_Z 24
_cell_length_a 26.993913
_cell_length_b 6.562670
_cell_length_c 14.478424
_cell_angle_alpha 90.000000
_cell_angle_beta 27.220986
_cell_angle_gamma 90.000000
_cell_volume 1173.238572
_symmetry_space_group_name_H-M "C 2"
_symmetry_group_IT_number 5
_symmetry_cell_setting 'monoclinic'
loop_
_space_group_symop_operation_xyz
x,y,z
-x,y,-z
1/2+x,1/2+y,z
1/2-x,1/2+y,-z
loop_
_atom_site_type_symbol
_atom_site_label
_atom_site_fract_x
_atom_site_fract_y
_atom_site_fract_z
Si Si1 0.318170 0.821820 0.263641
Si Si2 0.392263 0.505601 0.299557
Si Si3 0.894104 0.121055 0.959502
Si Si4 0.152914 0.381793 0.145087
Si Si5 0.500000 0.152006 0.000000
Si Si6 0.606528 0.334925 0.189324
Si Si7 0.000000 0.110640 0.500000
O O1 0.349466 0.659272 0.291589
O O2 0.205438 0.926856 0.475846
O O3 0.319478 0.695682 0.166456
O O4 0.408462 0.000407 0.111811
O O5 0.484269 0.624786 0.203499
O O6 0.446606 0.306829 0.162179
O O7 0.871417 0.260796 0.908509
O O8 0.880716 0.895225 0.938708
O O9 0.097661 0.599264 0.224977
O O10 0.100970 0.260576 0.317173
O O11 0.219184 0.902084 0.051283
O O12 0.508496 0.461104 0.398073
#
# Coordination Sequence:
#
# PCOD9126953 Si02
#       7
#     4   4   4   4   2   4   2
#     4  12  25  45  72  99 140 182 227 288 350 412
#     4  12  25  45  69 105 132 184 230 281 356 408
#     4  11  25  42  68 109 137 179 241 276 339 423
#     4  11  23  46  70  97 140 184 227 287 344 398
#     4  12  22  44  74  90 140 178 220 290 344 406
#     4  11  23  46  70  98 140 184 226 288 342 396
#     4  10  22  42  72  94 124 182 232 276 338 406
#
# _framework density 20.456199999999999
#
# number of rings (size 3 to 8) (size 9 to 14) (size 15 to 20)
#    0.000    0.667    8.333    0.500    2.333    2.667 
#    3.000    0.000    0.000    0.000    0.000    0.000 
#    0.000    0.000    0.000    0.000    0.000    0.000 
#
# Total GULP energy -66981.343908 kJ/mol
# GULP energy per Si atom -5581.778659 kJ/mol
# Density = 2.040964 g / cm^3
# Si number density = 20.456200 Si / 1000 Ang^3
#
#
#
# Elastic Constant Matrix: (Units=GPa)
#
#
# Indices 1 2 3 4 5 6 
#
# 1 83.7985 15.9035 32.3360 0.0000 14.1354 0.0000
# 2 15.9035 87.4548 37.2094 -0.0001 2.6716 0.0000
# 3 32.3360 37.2094 113.5896 0.0000 9.4246 0.0000
# 4 0.0000 -0.0001 0.0000 44.9704 0.0000 4.0530
# 5 14.1354 2.6716 9.4246 0.0000 8.4562 0.0000
# 6 0.0000 0.0000 0.0000 4.0530 0.0000 36.4083
#
#
#
# Elastic Compliance Matrix: (Units=1/GPa)
#
#
# Indices 1 2 3 4 5 6 
#
# 1 0.017533 -0.001382 -0.002361 0.000000 -0.026240 0.000000
# 2 -0.001382 0.013399 -0.004227 0.000000 0.002788 0.000000
# 3 -0.002361 -0.004227 0.011484 0.000000 -0.007517 0.000000
# 4 0.000000 0.000000 0.000000 0.022462 0.000000 -0.002501
# 5 -0.026240 0.002788 -0.007517 0.000000 0.169615 0.000000
# 6 0.000000 0.000000 0.000000 -0.002501 0.000000 0.027745
#
#
# Mechanical properties :
#
#
# Convention : Reuss Voigt Hill
#
# Bulk Modulus (GPa) = 37.77111 50.63787 44.20449
# Shear Modulus (GPa) = 17.42133 31.25991 24.34062
#
# Velocity S-wave (km/s) = 2.92145 3.91338 3.45322
# Velocity P-wave (km/s) = 5.46666 6.72514 6.12829
#
# Compressibility (1/GPa) = 0.02647526
#
# Stress axis : x y z
#
# Youngs Moduli (GPa) = 57.03511 74.63156 87.07599
#
# Poissons Ratio (x) = 0.10315 0.20561
# Poissons Ratio (y) = 0.07883 0.36808
# Poissons Ratio (z) = 0.13468 0.31548
#
# Static dielectric constant tensor:
#      x y z
#    x 1.705470 0.000000 0.015460 
#    y 0.000000 1.772810 0.000000 
#    z 0.015460 0.000000 1.727400 
# 
# From -- ./inp_files/57979.got.cif
#   From: 2010.05.17/outbox.cif.g08.bks.cpg/sg5_29_cif.got.tgz:57979.got - 2010.06.03 18:56:24.
