data_PCOD9126533
_publ_section_title
;
Structure prediction by ZEFSAII (Michael W. Deem and Ramdas Pophale) SiO2 
 PCOD9126533
Probable space group: C 2
;
_chemical_formula_sum "Si O2"
_cell_formula_units_Z 22
_cell_length_a 11.918148
_cell_length_b 17.989952
_cell_length_c 5.160816
_cell_angle_alpha 90.000000
_cell_angle_beta 70.377377
_cell_angle_gamma 90.000000
_cell_volume 1042.253698
_symmetry_space_group_name_H-M "C 2"
_symmetry_group_IT_number 5
_symmetry_cell_setting 'monoclinic'
loop_
_space_group_symop_operation_xyz
x,y,z
-x,y,-z
1/2+x,1/2+y,z
1/2-x,1/2+y,-z
loop_
_atom_site_type_symbol
_atom_site_label
_atom_site_fract_x
_atom_site_fract_y
_atom_site_fract_z
Si Si1 0.136532 0.039270 0.495011
Si Si2 0.310942 0.393614 0.803299
Si Si3 0.862626 0.732629 0.545284
Si Si4 0.500000 0.470286 0.000000
Si Si5 0.266607 0.685507 0.854121
Si Si6 0.921180 0.328353 0.801353
O O1 0.192817 0.110387 0.318197
O O2 0.000000 0.036691 0.500000
O O3 0.207857 0.965953 0.356729
O O4 0.105801 0.024944 0.819561
O O5 0.329523 0.318058 0.630891
O O6 0.431855 0.414326 0.860630
O O7 0.197184 0.377327 0.069115
O O8 0.830300 0.717361 0.273335
O O9 0.000000 0.720138 0.500000
O O10 0.786457 0.684330 0.813874
O O11 0.374363 0.744668 0.783554
O O12 0.000000 0.353417 0.500000
O O13 0.000000 0.329398 0.000000
#
# Coordination Sequence:
#
# PCOD9126533 Si02
#       6
#     4   4   4   2   4   4
#     4  10  23  41  65  97 126 169 217 281 328 381
#     4  10  24  40  69  97 128 171 224 276 326 382
#     4  11  24  42  69  97 133 172 223 272 326 389
#     4  10  22  40  72  92 130 162 232 280 330 372
#     4  11  25  42  68  95 137 173 217 272 330 392
#     4  11  24  43  67  98 137 177 218 265 328 400
#
# _framework density 21.108107
#
# number of rings (size 3 to 8) (size 9 to 14) (size 15 to 20)
#    0.000    1.455    0.000    4.909   17.818    0.000 
#    3.273    2.727    0.000    0.000    0.000    0.000 
#    0.000    0.000    0.000    0.000    0.000    0.000 
#
# Total GULP energy -61395.660664 kJ/mol
# GULP energy per Si atom -5581.423697 kJ/mol
# Density = 2.106006 g / cm^3
# Si number density = 21.108107 Si / 1000 Ang^3
#
#
#
# Elastic Constant Matrix: (Units=GPa)
#
#
# Indices 1 2 3 4 5 6 
#
# 1 66.7438 3.6097 9.7889 0.0000 4.2791 0.0000
# 2 3.6097 111.5934 30.4561 0.0000 -21.8133 0.0000
# 3 9.7889 30.4561 91.2046 0.0000 -11.2068 0.0000
# 4 0.0000 0.0000 0.0000 9.9313 0.0000 -4.7958
# 5 4.2791 -21.8133 -11.2068 0.0000 46.4645 0.0000
# 6 0.0000 0.0000 0.0000 -4.7958 0.0000 15.3675
#
#
#
# Elastic Compliance Matrix: (Units=1/GPa)
#
#
# Indices 1 2 3 4 5 6 
#
# 1 0.015394 -0.000415 -0.001764 0.000000 -0.002038 0.000000
# 2 -0.000415 0.010629 -0.002975 0.000000 0.004311 0.000000
# 3 -0.001764 -0.002975 0.012362 0.000000 0.001747 0.000000
# 4 0.000000 0.000000 0.000000 0.118559 0.000000 0.036999
# 5 -0.002038 0.004311 0.001747 0.000000 0.024155 0.000000
# 6 0.000000 0.000000 0.000000 0.036999 0.000000 0.076619
#
#
# Mechanical properties :
#
#
# Convention : Reuss Voigt Hill
#
# Bulk Modulus (GPa) = 35.61625 39.69459 37.65542
# Shear Modulus (GPa) = 18.02546 29.39846 23.71196
#
# Velocity S-wave (km/s) = 2.92543 3.73601 3.35529
# Velocity P-wave (km/s) = 5.32172 6.12018 5.73486
#
# Compressibility (1/GPa) = 0.02807707
#
# Stress axis : x y z
#
# Youngs Moduli (GPa) = 64.95828 94.08119 80.89358
#
# Poissons Ratio (x) = 0.03903 0.14271
# Poissons Ratio (y) = 0.02695 0.24068
# Poissons Ratio (z) = 0.11460 0.27991
#
# Static dielectric constant tensor:
#      x y z
#    x 1.755860 0.000000 0.050950 
#    y 0.000000 1.747950 0.000000 
#    z 0.050950 0.000000 1.982610 
# 
# From -- ./inp_files/5121.got.cif
#   From: 2010.05.17/outbox.cif.g08.bks.cpg/sg5_3_cif.got.tgz:5121.got - 2010.06.03 18:56:24.
