data_PCOD9126103
_publ_section_title
;
Structure prediction by ZEFSAII (Michael W. Deem and Ramdas Pophale) SiO2 
 PCOD9126103
Probable space group: C 2
;
_chemical_formula_sum "Si O2"
_cell_formula_units_Z 18
_cell_length_a 8.092810
_cell_length_b 14.216868
_cell_length_c 8.243047
_cell_angle_alpha 90.000000
_cell_angle_beta 116.866134
_cell_angle_gamma 90.000000
_cell_volume 846.033290
_symmetry_space_group_name_H-M "C 2"
_symmetry_group_IT_number 5
_symmetry_cell_setting 'monoclinic'
loop_
_space_group_symop_operation_xyz
x,y,z
-x,y,-z
1/2+x,1/2+y,z
1/2-x,1/2+y,-z
loop_
_atom_site_type_symbol
_atom_site_label
_atom_site_fract_x
_atom_site_fract_y
_atom_site_fract_z
Si Si1 0.917112 0.738990 0.711546
Si Si2 0.500000 0.082423 0.000000
Si Si3 0.899467 0.351048 0.283754
Si Si4 0.792014 0.032692 0.904452
Si Si5 0.283176 0.735400 0.724243
O O1 0.960207 0.643010 0.822560
O O2 0.793289 0.796913 0.781192
O O3 0.802785 0.722393 0.494785
O O4 0.115360 0.782646 0.750628
O O5 0.696883 0.037597 0.039922
O O6 0.848526 0.459450 0.239664
O O7 0.000000 0.341190 0.500000
O O8 0.034091 0.299328 0.214702
O O9 0.812316 0.133266 0.820033
O O10 0.000000 0.994380 0.000000
#
# Coordination Sequence:
#
# PCOD9126103 Si02
#       5
#     4   2   4   4   4
#     4   9  19  38  65  88 119 161 204 250 312 362
#     4  10  22  38  62  92 122 160 204 254 314 362
#     4  10  22  39  64  91 120 163 207 252 306 369
#     4  11  24  40  61  94 125 159 208 256 306 369
#     4   9  20  41  65  84 121 165 203 251 310 366
#
# _framework density 21.275758
#
# number of rings (size 3 to 8) (size 9 to 14) (size 15 to 20)
#    0.000    2.222    0.000    1.333    7.778    1.778 
#    6.000    0.000   14.667    0.000    0.000    0.000 
#    0.000    0.000    0.000    0.000    0.000    0.000 
#
# Total GULP energy -50144.465592 kJ/mol
# GULP energy per Si atom -5571.607288 kJ/mol
# Density = 2.122733 g / cm^3
# Si number density = 21.275758 Si / 1000 Ang^3
#
#
#
# Elastic Constant Matrix: (Units=GPa)
#
#
# Indices 1 2 3 4 5 6 
#
# 1 222.4059 58.1843 43.8091 0.0000 0.1553 0.0000
# 2 58.1843 72.6867 6.2248 0.0000 14.3609 0.0000
# 3 43.8091 6.2248 33.1489 0.0000 -0.6830 0.0000
# 4 0.0000 0.0000 0.0000 -25.2786 0.0000 23.9143
# 5 0.1553 14.3609 -0.6830 0.0000 21.4926 0.0000
# 6 0.0000 0.0000 0.0000 23.9143 0.0000 17.1647
#
#
#
# Elastic Compliance Matrix: (Units=1/GPa)
#
#
# Indices 1 2 3 4 5 6 
#
# 1 0.007988 -0.006371 -0.009281 0.000000 0.003904 0.000000
# 2 -0.006371 0.021277 0.004135 0.000000 -0.014040 0.000000
# 3 -0.009281 0.004135 0.041627 0.000000 -0.001373 0.000000
# 4 0.000000 0.000000 0.000000 -0.017066 0.000000 0.023777
# 5 0.003904 -0.014040 -0.001373 0.000000 0.055837 0.000000
# 6 0.000000 0.000000 0.000000 0.023777 0.000000 0.025133
#
#
# Mechanical properties :
#
#
# Convention : Reuss Voigt Hill
#
# Bulk Modulus (GPa) = 20.89426 60.51977 40.70701
# Shear Modulus (GPa) = 28.77152 17.34396 23.05774
#
# Velocity S-wave (km/s) = 3.68137 2.85827 3.29562
# Velocity P-wave (km/s) = 5.28318 6.27695 5.80138
#
# Compressibility (1/GPa) = 0.04786003
#
# Stress axis : x y z
#
# Youngs Moduli (GPa) = 125.18139 46.99817 24.02285
#
# Poissons Ratio (x) = 0.29944 0.22294
# Poissons Ratio (y) = 0.79756 -0.09934
# Poissons Ratio (z) = 1.16175 -0.19435
#
# Static dielectric constant tensor:
#      x y z
#    x 1.849900 0.000000 -0.002680 
#    y 0.000000 1.815700 0.000000 
#    z -0.002680 0.000000 2.183360 
# 
# From -- ./inp_files/14202.got.cif
#   From: 2010.05.17/outbox.cif.g08.bks.cpg/sg5_8_cif.got.tgz:14202.got - 2010.06.03 18:56:24.
