data_PCOD9126563
_publ_section_title
;
Structure prediction by ZEFSAII (Michael W. Deem and Ramdas Pophale) SiO2 
 PCOD9126563
Probable space group: C 2
;
_chemical_formula_sum "Si O2"
_cell_formula_units_Z 26
_cell_length_a 22.808645
_cell_length_b 8.462756
_cell_length_c 10.985710
_cell_angle_alpha 90.000000
_cell_angle_beta 147.109448
_cell_angle_gamma 90.000000
_cell_volume 1151.510890
_symmetry_space_group_name_H-M "C 2"
_symmetry_group_IT_number 5
_symmetry_cell_setting 'monoclinic'
loop_
_space_group_symop_operation_xyz
x,y,z
-x,y,-z
1/2+x,1/2+y,z
1/2-x,1/2+y,-z
loop_
_atom_site_type_symbol
_atom_site_label
_atom_site_fract_x
_atom_site_fract_y
_atom_site_fract_z
Si Si1 0.540665 0.590390 0.368561
Si Si2 0.769545 0.675701 0.700731
Si Si3 0.391015 0.502408 0.887269
Si Si4 0.616625 0.855823 0.137807
Si Si5 0.382205 0.819082 0.150838
Si Si6 0.187661 0.653630 0.934241
Si Si7 0.500000 0.361132 0.500000
O O1 0.642027 0.644938 0.467546
O O2 0.443534 0.526663 0.113835
O O3 0.498084 0.741554 0.366906
O O4 0.565124 0.461838 0.513248
O O5 0.825095 0.522968 0.733610
O O6 0.815177 0.848246 0.742831
O O7 0.788240 0.669528 0.880211
O O8 0.500000 0.475108 0.000000
O O9 0.340193 0.675249 0.765607
O O10 0.500000 0.858650 0.000000
O O11 0.615512 0.858425 0.989028
O O12 0.351504 0.978222 0.163918
O O13 0.291366 0.696695 0.035058
O O14 0.088532 0.763619 0.725960
#
# Coordination Sequence:
#
# PCOD9126563 Si02
#       7
#     4   4   4   4   4   4   2
#     4  11  23  43  65  99 137 178 227 280 351 416
#     4  11  22  42  68  98 134 183 226 283 346 407
#     4  10  22  45  68  96 139 180 229 288 338 409
#     4   9  20  41  67  92 132 174 224 281 331 401
#     4  10  22  41  62  93 130 175 218 282 343 405
#     4  11  23  39  66  94 133 176 226 284 344 412
#     4  12  22  40  62  98 138 174 230 278 344 426
#
# _framework density 22.579029999999999
#
# number of rings (size 3 to 8) (size 9 to 14) (size 15 to 20)
#    0.000    1.538    1.538    4.154    2.154    1.846 
#   11.077    0.000    0.000    0.000    0.000    0.000 
#    0.000    0.000    0.000    0.000    0.000    0.000 
#
# Total GULP energy -72560.472408 kJ/mol
# GULP energy per Si atom -5581.574801 kJ/mol
# Density = 2.252764 g / cm^3
# Si number density = 22.579030 Si / 1000 Ang^3
#
#
#
# Elastic Constant Matrix: (Units=GPa)
#
#
# Indices 1 2 3 4 5 6 
#
# 1 112.8029 59.9616 18.1303 0.0000 17.1404 0.0000
# 2 59.9616 199.9866 51.9811 0.0000 34.6391 0.0000
# 3 18.1303 51.9811 53.5902 0.0000 7.0447 0.0000
# 4 0.0000 0.0000 0.0000 27.6166 0.0000 6.6761
# 5 17.1404 34.6391 7.0447 0.0000 48.2770 0.0000
# 6 0.0000 0.0000 0.0000 6.6761 0.0000 42.9588
#
#
#
# Elastic Compliance Matrix: (Units=1/GPa)
#
#
# Indices 1 2 3 4 5 6 
#
# 1 0.010690 -0.002705 -0.000764 0.000000 -0.001743 0.000000
# 2 -0.002705 0.008190 -0.006507 0.000000 -0.003966 0.000000
# 3 -0.000764 -0.006507 0.025062 0.000000 0.001283 0.000000
# 4 0.000000 0.000000 0.000000 0.037624 0.000000 -0.005847
# 5 -0.001743 -0.003966 0.001283 0.000000 0.023991 0.000000
# 6 0.000000 0.000000 0.000000 -0.005847 0.000000 0.024187
#
#
# Mechanical properties :
#
#
# Convention : Reuss Voigt Hill
#
# Bulk Modulus (GPa) = 41.68433 69.61397 55.64915
# Shear Modulus (GPa) = 31.70726 39.52427 35.61576
#
# Velocity S-wave (km/s) = 3.75144 4.18842 3.97594
# Velocity P-wave (km/s) = 6.10459 7.36808 6.76589
#
# Compressibility (1/GPa) = 0.02398983
#
# Stress axis : x y z
#
# Youngs Moduli (GPa) = 93.54128 122.10454 39.90118
#
# Poissons Ratio (x) = 0.33026 0.03048
# Poissons Ratio (y) = 0.25301 0.25965
# Poissons Ratio (z) = 0.07147 0.79458
#
# Static dielectric constant tensor:
#      x y z
#    x 1.798060 0.000000 -0.010610 
#    y 0.000000 1.873470 0.000000 
#    z -0.010610 0.000000 1.828250 
# 
# From -- ./inp_files/47380.got.cif
#   From: 2010.05.17/outbox.cif.g08.bks.cpg/sg5_24_cif.got.tgz:47380.got - 2010.06.03 18:56:24.
