data_PCOD9126812
_publ_section_title
;
Structure prediction by ZEFSAII (Michael W. Deem and Ramdas Pophale) SiO2 
 PCOD9126812
Probable space group: C 2
;
_chemical_formula_sum "Si O2"
_cell_formula_units_Z 22
_cell_length_a 13.651954
_cell_length_b 5.353482
_cell_length_c 13.532534
_cell_angle_alpha 90.000000
_cell_angle_beta 72.880579
_cell_angle_gamma 90.000000
_cell_volume 945.211132
_symmetry_space_group_name_H-M "C 2"
_symmetry_group_IT_number 5
_symmetry_cell_setting 'monoclinic'
loop_
_space_group_symop_operation_xyz
x,y,z
-x,y,-z
1/2+x,1/2+y,z
1/2-x,1/2+y,-z
loop_
_atom_site_type_symbol
_atom_site_label
_atom_site_fract_x
_atom_site_fract_y
_atom_site_fract_z
Si Si1 0.797273 0.535450 0.321386
Si Si2 0.521188 0.076229 0.610037
Si Si3 0.172464 0.042696 0.809386
Si Si4 0.694522 0.140937 0.053210
Si Si5 0.500000 0.333533 0.000000
Si Si6 0.940192 0.072460 0.621412
O O1 0.859467 0.542119 0.404574
O O2 0.818799 0.791300 0.256849
O O3 0.676507 0.519982 0.368335
O O4 0.836450 0.293396 0.251115
O O5 0.500000 0.097794 0.500000
O O6 0.460838 0.835758 0.666536
O O7 0.484605 0.336857 0.666423
O O8 0.276164 0.073282 0.843437
O O9 0.076091 0.999279 0.910441
O O10 0.579089 0.176853 0.046332
O O11 0.751747 0.408552 0.019886
O O12 0.000000 0.094895 0.500000
#
# Coordination Sequence:
#
# PCOD9126812 Si02
#       6
#     4   4   4   4   2   4
#     4  12  25  43  65 100 138 170 222 283 323 382
#     4  10  23  42  68  98 129 177 223 267 334 399
#     4  11  25  42  68  99 134 176 222 275 329 391
#     4  10  22  42  66  95 126 172 226 267 324 396
#     4  10  24  46  70  92 134 184 216 268 340 390
#     4  10  23  42  66  93 126 171 217 269 333 395
#
# _framework density 23.275224999999999
#
# number of rings (size 3 to 8) (size 9 to 14) (size 15 to 20)
#    0.000    1.455    0.000    4.364    0.000   16.727 
#    0.000    5.455    0.000    0.000    0.000    0.000 
#    0.000    0.000    0.000    0.000    0.000    0.000 
#
# Total GULP energy -61488.505562 kJ/mol
# GULP energy per Si atom -5589.864142 kJ/mol
# Density = 2.322225 g / cm^3
# Si number density = 23.275225 Si / 1000 Ang^3
#
#
#
# Elastic Constant Matrix: (Units=GPa)
#
#
# Indices 1 2 3 4 5 6 
#
# 1 218.4974 45.9337 17.2505 0.0000 44.8123 0.0000
# 2 45.9337 184.6755 16.8592 0.0000 10.7558 0.0000
# 3 17.2505 16.8592 64.5939 0.0000 -16.8412 0.0000
# 4 0.0000 0.0000 0.0000 52.9151 0.0000 46.9963
# 5 44.8123 10.7558 -16.8412 0.0000 74.2355 0.0000
# 6 0.0000 0.0000 0.0000 46.9963 0.0000 91.1499
#
#
#
# Elastic Compliance Matrix: (Units=1/GPa)
#
#
# Indices 1 2 3 4 5 6 
#
# 1 0.005756 -0.000999 -0.002279 0.000000 -0.003847 0.000000
# 2 -0.000999 0.005824 -0.001398 0.000000 -0.000558 0.000000
# 3 -0.002279 -0.001398 0.017927 0.000000 0.005645 0.000000
# 4 0.000000 0.000000 0.000000 0.034863 0.000000 -0.017975
# 5 -0.003847 -0.000558 0.005645 0.000000 0.017154 0.000000
# 6 0.000000 0.000000 0.000000 -0.017975 0.000000 0.020239
#
#
# Mechanical properties :
#
#
# Convention : Reuss Voigt Hill
#
# Bulk Modulus (GPa) = 49.62291 69.76153 59.69222
# Shear Modulus (GPa) = 42.43284 69.50833 55.97058
#
# Velocity S-wave (km/s) = 4.27440 5.47069 4.90912
# Velocity P-wave (km/s) = 6.76217 8.36314 7.60490
#
# Compressibility (1/GPa) = 0.02015198
#
# Stress axis : x y z
#
# Youngs Moduli (GPa) = 173.74082 171.71356 55.78210
#
# Poissons Ratio (x) = 0.17163 0.12714
# Poissons Ratio (y) = 0.17365 0.07801
# Poissons Ratio (z) = 0.39599 0.24014
#
# Static dielectric constant tensor:
#      x y z
#    x 1.838830 0.000000 0.018020 
#    y 0.000000 1.884720 0.000000 
#    z 0.018020 0.000000 1.855500 
# 
# From -- ./inp_files/51897.got.cif
#   From: 2010.05.17/outbox.cif.g08.bks.cpg/sg5_26_cif.got.tgz:51897.got - 2010.06.03 18:56:24.
