data_PCOD9126897
_publ_section_title
;
Structure prediction by ZEFSAII (Michael W. Deem and Ramdas Pophale) SiO2 
 PCOD9126897
Probable space group: C 2
;
_chemical_formula_sum "Si O2"
_cell_formula_units_Z 20
_cell_length_a 22.290565
_cell_length_b 5.167895
_cell_length_c 7.042324
_cell_angle_alpha 90.000000
_cell_angle_beta 79.975365
_cell_angle_gamma 90.000000
_cell_volume 798.857381
_symmetry_space_group_name_H-M "C 2"
_symmetry_group_IT_number 5
_symmetry_cell_setting 'monoclinic'
loop_
_space_group_symop_operation_xyz
x,y,z
-x,y,-z
1/2+x,1/2+y,z
1/2-x,1/2+y,-z
loop_
_atom_site_type_symbol
_atom_site_label
_atom_site_fract_x
_atom_site_fract_y
_atom_site_fract_z
Si Si1 0.434335 0.726540 0.058751
Si Si2 0.436279 0.001374 0.432964
Si Si3 0.172536 0.411475 0.078367
Si Si4 0.727428 0.413216 0.254234
Si Si5 0.634827 0.503609 0.582457
O O1 0.447630 0.951678 0.203770
O O2 0.398970 0.860294 0.906919
O O3 0.386467 0.531230 0.187703
O O4 0.500000 0.596946 0.000000
O O5 0.500000 0.965013 0.500000
O O6 0.387189 0.774269 0.495410
O O7 0.406789 0.278277 0.481829
O O8 0.202128 0.419359 0.847152
O O9 0.195420 0.662266 0.178488
O O10 0.201197 0.161481 0.160206
O O11 0.703950 0.441794 0.483924
#
# Coordination Sequence:
#
# PCOD9126897 Si02
#       5
#     4   4   4   4   4
#     4  10  26  41  63  99 132 168 211 274 316 383
#     4  10  23  40  58  94 127 176 208 256 322 384
#     4  10  23  43  65  96 127 166 218 263 325 369
#     4  10  22  42  69  91 126 174 210 266 316 395
#     4  10  23  40  63  93 123 172 214 260 322 373
#
# _framework density 25.03576
#
# number of rings (size 3 to 8) (size 9 to 14) (size 15 to 20)
#    1.200    0.800    0.000    1.800    8.400    0.800 
#    3.600    0.000    0.000    0.000    0.000    0.000 
#    0.000    0.000    0.000    0.000    0.000    0.000 
#
# Total GULP energy -55833.299821 kJ/mol
# GULP energy per Si atom -5583.329982 kJ/mol
# Density = 2.497878 g / cm^3
# Si number density = 25.035760 Si / 1000 Ang^3
#
#
#
# Elastic Constant Matrix: (Units=GPa)
#
#
# Indices 1 2 3 4 5 6 
#
# 1 19.6243 -5.6503 31.1563 0.0000 -26.7803 0.0000
# 2 -5.6503 140.8378 6.5460 0.0000 -6.1456 0.0000
# 3 31.1563 6.5460 83.3462 0.0000 -26.8057 0.0000
# 4 0.0000 0.0000 0.0000 11.1087 0.0000 -4.2156
# 5 -26.7803 -6.1456 -26.8057 0.0000 36.7756 0.0000
# 6 0.0000 0.0000 0.0000 -4.2156 0.0000 27.3142
#
#
#
# Elastic Compliance Matrix: (Units=1/GPa)
#
#
# Indices 1 2 3 4 5 6 
#
# 1 -0.358591 -0.026950 0.066266 0.000000 -0.217331 0.000000
# 2 -0.026950 0.005131 0.004749 0.000000 -0.015307 0.000000
# 3 0.066266 0.004749 0.003434 0.000000 0.051552 0.000000
# 4 0.000000 0.000000 0.000000 0.095620 0.000000 0.014758
# 5 -0.217331 -0.015307 0.051552 0.000000 -0.096052 0.000000
# 6 0.000000 0.000000 0.000000 0.014758 0.000000 0.038889
#
#
# Mechanical properties :
#
#
# Convention : Reuss Voigt Hill
#
# Bulk Modulus (GPa) = -3.81830 34.21247 15.19709
# Shear Modulus (GPa) = -10.26696 29.15679 9.44491
#
# Velocity S-wave (km/s) = -2.02727 3.41633 1.94442
# Velocity P-wave (km/s) = 2.64730 5.40896 3.33532
#
# Compressibility (1/GPa) = -0.26189647
#
# Stress axis : x y z
#
# Youngs Moduli (GPa) = -2.78869 194.91202 291.22001
#
# Poissons Ratio (x) = 5.25287 -19.29812
# Poissons Ratio (y) = -0.07516 -1.38286
# Poissons Ratio (z) = 0.18480 -0.92554
#
# Static dielectric constant tensor:
#      x y z
#    x 1.938090 0.000000 -0.092320 
#    y 0.000000 1.914590 0.000000 
#    z -0.092320 0.000000 2.178760 
# 
# From -- ./inp_files/31252.got.cif
#   From: 2010.05.17/outbox.cif.g08.bks.cpg/sg5_16_cif.got.tgz:31252.got - 2010.06.03 18:56:24.
