data_PCOD9126759
_publ_section_title
;
Structure prediction by ZEFSAII (Michael W. Deem and Ramdas Pophale) SiO2 
 PCOD9126759
Probable space group: C 2
;
_chemical_formula_sum "Si O2"
_cell_formula_units_Z 18
_cell_length_a 8.461861
_cell_length_b 12.492182
_cell_length_c 7.018269
_cell_angle_alpha 90.000000
_cell_angle_beta 89.119025
_cell_angle_gamma 90.000000
_cell_volume 741.793221
_symmetry_space_group_name_H-M "C 2"
_symmetry_group_IT_number 5
_symmetry_cell_setting 'monoclinic'
loop_
_space_group_symop_operation_xyz
x,y,z
-x,y,-z
1/2+x,1/2+y,z
1/2-x,1/2+y,-z
loop_
_atom_site_type_symbol
_atom_site_label
_atom_site_fract_x
_atom_site_fract_y
_atom_site_fract_z
Si Si1 0.835615 0.391130 0.400978
Si Si2 0.252700 0.327711 0.981459
Si Si3 0.500000 0.644711 0.000000
Si Si4 0.176318 0.003202 0.714669
Si Si5 0.865741 0.705849 0.657523
O O1 0.694471 0.459823 0.499024
O O2 0.787402 0.266190 0.428718
O O3 0.000000 0.413277 0.500000
O O4 0.841565 0.400609 0.173057
O O5 0.294382 0.400144 0.156243
O O6 0.390372 0.280718 0.841335
O O7 0.145887 0.225066 0.033608
O O8 0.535879 0.569252 0.817819
O O9 0.319179 0.088593 0.723114
O O10 0.000000 0.705968 0.500000
#
# Coordination Sequence:
#
# PCOD9126759 Si02
#       5
#     4   4   2   4   4
#     4  10  22  42  68  94 139 175 222 279 338 402
#     4   9  22  42  66  92 138 169 225 278 323 408
#     4  10  22  42  64 106 132 172 234 272 340 410
#     4  11  22  40  70  91 139 179 221 275 345 392
#     4   9  22  43  62 101 133 170 234 274 331 409
#
# _framework density 24.265519999999999
#
# number of rings (size 3 to 8) (size 9 to 14) (size 15 to 20)
#    1.333    0.889    0.000    2.000    3.111    0.000 
#   12.000    1.111    0.000    0.000    0.000    0.000 
#    0.000    0.000    0.000    0.000    0.000    0.000 
#
# Total GULP energy -50202.121563 kJ/mol
# GULP energy per Si atom -5578.013507 kJ/mol
# Density = 2.421029 g / cm^3
# Si number density = 24.265520 Si / 1000 Ang^3
#
#
#
# Elastic Constant Matrix: (Units=GPa)
#
#
# Indices 1 2 3 4 5 6 
#
# 1 53.2108 28.0651 43.5083 0.0000 -17.4437 0.0000
# 2 28.0651 129.1649 53.6664 0.0000 -10.8651 0.0000
# 3 43.5083 53.6664 123.5836 0.0000 -23.8102 0.0000
# 4 0.0000 0.0000 0.0000 61.6158 0.0000 -20.1651
# 5 -17.4437 -10.8651 -23.8102 0.0000 36.4223 0.0000
# 6 0.0000 0.0000 0.0000 -20.1651 0.0000 -46.1074
#
#
#
# Elastic Compliance Matrix: (Units=1/GPa)
#
#
# Indices 1 2 3 4 5 6 
#
# 1 0.028947 -0.002467 -0.007540 0.000000 0.008199 0.000000
# 2 -0.002467 0.009657 -0.003430 0.000000 -0.000543 0.000000
# 3 -0.007540 -0.003430 0.012977 0.000000 0.003849 0.000000
# 4 0.000000 0.000000 0.000000 0.014197 0.000000 -0.006209
# 5 0.008199 -0.000543 0.003849 0.000000 0.033737 0.000000
# 6 0.000000 0.000000 0.000000 -0.006209 0.000000 -0.018973
#
#
# Mechanical properties :
#
#
# Convention : Reuss Voigt Hill
#
# Bulk Modulus (GPa) = 40.47295 61.82655 51.14975
# Shear Modulus (GPa) = 43.23257 22.43411 32.83334
#
# Velocity S-wave (km/s) = 4.22553 3.04390 3.68242
# Velocity P-wave (km/s) = 6.36571 6.15534 6.26141
#
# Compressibility (1/GPa) = 0.02470786
#
# Stress axis : x y z
#
# Youngs Moduli (GPa) = 34.54543 103.54654 77.05807
#
# Poissons Ratio (x) = 0.25547 0.58103
# Poissons Ratio (y) = 0.08523 0.26429
# Poissons Ratio (z) = 0.26048 0.35514
#
# Static dielectric constant tensor:
#      x y z
#    x 2.358890 0.000000 0.129420 
#    y 0.000000 1.893170 0.000000 
#    z 0.129420 0.000000 2.016990 
# 
# From -- ./inp_files/18817.got.cif
#   From: 2010.05.17/outbox.cif.g08.bks.cpg/sg5_10_cif.got.tgz:18817.got - 2010.06.03 18:56:24.
