data_PCOD9126983
_publ_section_title
;
Structure prediction by ZEFSAII (Michael W. Deem and Ramdas Pophale) SiO2 
 PCOD9126983
Probable space group: C 2
;
_chemical_formula_sum "Si O2"
_cell_formula_units_Z 26
_cell_length_a 12.909660
_cell_length_b 8.275729
_cell_length_c 16.656395
_cell_angle_alpha 90.000000
_cell_angle_beta 142.220632
_cell_angle_gamma 90.000000
_cell_volume 1090.171959
_symmetry_space_group_name_H-M "C 2"
_symmetry_group_IT_number 5
_symmetry_cell_setting 'monoclinic'
loop_
_space_group_symop_operation_xyz
x,y,z
-x,y,-z
1/2+x,1/2+y,z
1/2-x,1/2+y,-z
loop_
_atom_site_type_symbol
_atom_site_label
_atom_site_fract_x
_atom_site_fract_y
_atom_site_fract_z
Si Si1 0.245507 0.969400 0.720723
Si Si2 0.514568 0.824992 0.250531
Si Si3 0.462982 0.259662 0.624683
Si Si4 0.000000 0.301591 0.000000
Si Si5 0.748841 0.547035 0.111420
Si Si6 0.179969 0.340147 0.712341
Si Si7 0.283127 0.524078 0.622523
O O1 0.327500 0.924868 0.685927
O O2 0.377369 0.906954 0.869378
O O3 0.075635 0.870634 0.634735
O O4 0.221457 0.159393 0.713241
O O5 0.480805 0.827426 0.326035
O O6 0.560096 0.641331 0.257010
O O7 0.346262 0.918524 0.114295
O O8 0.596491 0.153669 0.757389
O O9 0.360359 0.377921 0.619659
O O10 0.339069 0.139556 0.502747
O O11 0.891298 0.180131 0.989636
O O12 0.689622 0.428538 0.147395
O O13 0.816328 0.452945 0.362506
#
# Coordination Sequence:
#
# PCOD9126983 Si02
#       7
#     4   4   4   2   4   4   4
#     4  11  23  48  72 104 149 182 244 296 352 427
#     4  10  23  46  69 103 136 187 234 294 354 422
#     4  11  23  41  70 103 137 191 229 293 353 422
#     4  10  22  42  76 108 140 192 232 298 362 418
#     4   9  21  44  65 104 140 173 242 282 355 415
#     4  10  24  45  71 101 139 188 235 298 350 422
#     4  12  23  44  72 100 149 185 243 288 360 421
#
# _framework density 23.849449
#
# number of rings (size 3 to 8) (size 9 to 14) (size 15 to 20)
#    0.923    0.615    1.538    3.692    0.000    3.077 
#    2.769    3.077    0.000    0.000    0.000    0.000 
#    0.000    0.000    0.000    0.000    0.000    0.000 
#
# Total GULP energy -72607.585577 kJ/mol
# GULP energy per Si atom -5585.198891 kJ/mol
# Density = 2.379517 g / cm^3
# Si number density = 23.849449 Si / 1000 Ang^3
#
#
#
# Elastic Constant Matrix: (Units=GPa)
#
#
# Indices 1 2 3 4 5 6 
#
# 1 173.4562 60.1518 20.3900 0.0000 16.8227 0.0000
# 2 60.1518 169.8649 23.5005 0.0000 -0.4120 0.0000
# 3 20.3900 23.5005 67.0370 0.0000 -2.0252 0.0000
# 4 0.0000 0.0000 0.0000 17.0500 0.0000 -3.9452
# 5 16.8227 -0.4120 -2.0252 0.0000 20.0744 0.0000
# 6 0.0000 0.0000 0.0000 -3.9452 0.0000 50.1674
#
#
#
# Elastic Compliance Matrix: (Units=1/GPa)
#
#
# Indices 1 2 3 4 5 6 
#
# 1 0.007416 -0.002420 -0.001601 0.000000 -0.006426 0.000000
# 2 -0.002420 0.006977 -0.001649 0.000000 0.002005 0.000000
# 3 -0.001601 -0.001649 0.016071 0.000000 0.002929 0.000000
# 4 0.000000 0.000000 0.000000 0.059738 0.000000 0.004698
# 5 -0.006426 0.002005 0.002929 0.000000 0.055536 0.000000
# 6 0.000000 0.000000 0.000000 0.004698 0.000000 0.020303
#
#
# Mechanical properties :
#
#
# Convention : Reuss Voigt Hill
#
# Bulk Modulus (GPa) = 52.29458 68.71583 60.50520
# Shear Modulus (GPa) = 27.20995 37.87942 32.54468
#
# Velocity S-wave (km/s) = 3.38139 3.98964 3.69804
# Velocity P-wave (km/s) = 6.10079 7.07798 6.60748
#
# Compressibility (1/GPa) = 0.01912244
#
# Stress axis : x y z
#
# Youngs Moduli (GPa) = 134.84623 143.32690 62.22449
#
# Poissons Ratio (x) = 0.34687 0.09964
# Poissons Ratio (y) = 0.32634 0.10262
# Poissons Ratio (z) = 0.21594 0.23638
#
# Static dielectric constant tensor:
#      x y z
#    x 1.931190 0.000000 -0.000020 
#    y 0.000000 1.889880 0.000000 
#    z -0.000020 0.000000 1.964320 
# 
# From -- ./inp_files/68650.got.cif
#   From: 2010.05.17/outbox.cif.g08.bks.cpg/sg5_35_cif.got.tgz:68650.got - 2010.06.03 18:56:24.
