data_PCOD9126164
_publ_section_title
;
Structure prediction by ZEFSAII (Michael W. Deem and Ramdas Pophale) SiO2 
 PCOD9126164
Probable space group: C 2
;
_chemical_formula_sum "Si O2"
_cell_formula_units_Z 30
_cell_length_a 15.688946
_cell_length_b 16.156923
_cell_length_c 5.419336
_cell_angle_alpha 90.000000
_cell_angle_beta 69.965404
_cell_angle_gamma 90.000000
_cell_volume 1290.591449
_symmetry_space_group_name_H-M "C 2"
_symmetry_group_IT_number 5
_symmetry_cell_setting 'monoclinic'
loop_
_space_group_symop_operation_xyz
x,y,z
-x,y,-z
1/2+x,1/2+y,z
1/2-x,1/2+y,-z
loop_
_atom_site_type_symbol
_atom_site_label
_atom_site_fract_x
_atom_site_fract_y
_atom_site_fract_z
Si Si1 0.000000 0.641201 0.500000
Si Si2 0.764883 0.894359 0.990435
Si Si3 0.781642 0.640538 0.106751
Si Si4 0.202639 0.062193 0.782381
Si Si5 0.347112 0.849588 0.396393
Si Si6 0.408691 0.664609 0.427659
Si Si7 0.878116 0.522164 0.300551
Si Si8 0.589260 0.269474 0.057103
O O1 0.944373 0.583653 0.371788
O O2 0.937155 0.703205 0.712813
O O3 0.714583 0.868253 0.786639
O O4 0.859354 0.846791 0.890170
O O5 0.705100 0.863450 0.288053
O O6 0.795119 0.989271 0.016329
O O7 0.682247 0.644166 0.326465
O O8 0.852532 0.563329 0.065004
O O9 0.752556 0.641734 0.851200
O O10 0.836012 0.717198 0.168388
O O11 0.107832 0.095849 0.771165
O O12 0.276478 0.027941 0.516016
O O13 0.394642 0.759805 0.350209
O O14 0.412904 0.929546 0.301152
O O15 0.500000 0.657447 0.500000
O O16 0.500000 0.291713 0.000000
#
# Coordination Sequence:
#
# PCOD9126164 Si02
#       8
#     2   4   4   4   4   4   4   4
#     4  12  24  38  68 104 146 188 238 300 374 442
#     4  11  25  46  72 101 142 192 240 296 367 434
#     4  11  20  44  67  93 138 187 236 291 367 434
#     4  10  22  45  71  93 135 193 240 301 359 439
#     4  11  24  46  73 104 143 187 239 303 368 436
#     4  11  26  44  71 104 139 192 250 309 372 439
#     4  10  22  38  67 101 135 182 233 289 363 437
#     4  12  25  40  66 105 143 186 233 296 361 439
#
# _framework density 23.245158
#
# number of rings (size 3 to 8) (size 9 to 14) (size 15 to 20)
#    0.000    1.067    5.333    0.800    4.667    0.533 
#    2.400    0.000    0.000    0.000    0.000    0.000 
#    0.000    0.000    0.000    0.000    0.000    0.000 
#
# Total GULP energy -83565.988008 kJ/mol
# GULP energy per Si atom -5571.065867 kJ/mol
# Density = 2.319225 g / cm^3
# Si number density = 23.245158 Si / 1000 Ang^3
#
#
#
# Elastic Constant Matrix: (Units=GPa)
#
#
# Indices 1 2 3 4 5 6 
#
# 1 165.5156 58.9964 34.5233 0.0000 31.4976 0.0000
# 2 58.9964 124.5309 12.1728 0.0000 12.9069 0.0000
# 3 34.5233 12.1728 62.9698 0.0000 15.3846 0.0000
# 4 0.0000 0.0000 0.0000 9.5954 0.0000 -11.1404
# 5 31.4976 12.9069 15.3846 0.0000 36.0132 0.0000
# 6 0.0000 0.0000 0.0000 -11.1404 0.0000 -14.8323
#
#
#
# Elastic Compliance Matrix: (Units=1/GPa)
#
#
# Indices 1 2 3 4 5 6 
#
# 1 0.008855 -0.003362 -0.002911 0.000000 -0.005296 0.000000
# 2 -0.003362 0.009671 0.000114 0.000000 -0.000575 0.000000
# 3 -0.002911 0.000114 0.018805 0.000000 -0.005528 0.000000
# 4 0.000000 0.000000 0.000000 0.055671 0.000000 -0.041813
# 5 -0.005296 -0.000575 -0.005528 0.000000 0.034968 0.000000
# 6 0.000000 0.000000 0.000000 -0.041813 0.000000 -0.036015
#
#
# Mechanical properties :
#
#
# Convention : Reuss Voigt Hill
#
# Bulk Modulus (GPa) = 39.97764 62.71125 51.34445
# Shear Modulus (GPa) = 44.40104 22.64351 33.52227
#
# Velocity S-wave (km/s) = 4.37523 3.12447 3.80164
# Velocity P-wave (km/s) = 6.53905 6.32876 6.43476
#
# Compressibility (1/GPa) = 0.02501398
#
# Stress axis : x y z
#
# Youngs Moduli (GPa) = 112.93075 103.40082 53.17676
#
# Poissons Ratio (x) = 0.34759 0.15479
# Poissons Ratio (y) = 0.37962 -0.00605
# Poissons Ratio (z) = 0.32873 -0.01177
#
# Static dielectric constant tensor:
#      x y z
#    x 1.885790 0.000000 -0.016860 
#    y 0.000000 1.990800 0.000000 
#    z -0.016860 0.000000 2.113200 
# 
# From -- ./inp_files/7287.got.cif
#   From: 2010.05.17/outbox.cif.g08.bks.cpg/sg5_4_cif.got.tgz:7287.got - 2010.06.03 18:56:24.
