data_PCOD9126574
_publ_section_title
;
Structure prediction by ZEFSAII (Michael W. Deem and Ramdas Pophale) SiO2 
 PCOD9126574
Probable space group: C 2
;
_chemical_formula_sum "Si O2"
_cell_formula_units_Z 28
_cell_length_a 20.037661
_cell_length_b 14.323083
_cell_length_c 9.920703
_cell_angle_alpha 90.000000
_cell_angle_beta 150.470875
_cell_angle_gamma 90.000000
_cell_volume 1403.313724
_symmetry_space_group_name_H-M "C 2"
_symmetry_group_IT_number 5
_symmetry_cell_setting 'monoclinic'
loop_
_space_group_symop_operation_xyz
x,y,z
-x,y,-z
1/2+x,1/2+y,z
1/2-x,1/2+y,-z
loop_
_atom_site_type_symbol
_atom_site_label
_atom_site_fract_x
_atom_site_fract_y
_atom_site_fract_z
Si Si1 0.657819 0.105820 0.028603
Si Si2 0.261002 0.415402 0.087115
Si Si3 0.942408 0.729167 0.751977
Si Si4 0.647282 0.714977 0.827817
Si Si5 0.424145 0.606981 0.039766
Si Si6 0.986247 0.915918 0.266071
Si Si7 0.803882 0.151018 0.565812
O O1 0.743146 0.178423 0.087239
O O2 0.723333 0.110658 0.295041
O O3 0.678225 0.005196 0.994604
O O4 0.504774 0.145435 0.771491
O O5 0.343085 0.426305 0.091359
O O6 0.387038 0.404975 0.411061
O O7 0.176173 0.320741 0.923719
O O8 0.783281 0.728107 0.505392
O O9 0.004035 0.824638 0.806873
O O10 0.000000 0.712242 0.000000
O O11 0.500000 0.704486 0.500000
O O12 0.654303 0.649075 0.971636
O O13 0.499990 0.512575 0.213155
O O14 0.547661 0.678761 0.226239
O O15 0.339071 0.585800 0.756081
#
# Coordination Sequence:
#
# PCOD9126574 Si02
#       7
#     4   4   4   4   4   4   4
#     4  11  21  44  64  90 130 164 211 264 316 374
#     4  11  23  38  64  94 121 164 211 265 317 363
#     4  10  23  40  64  91 131 167 206 261 320 376
#     4  12  22  41  65  93 126 165 213 266 314 372
#     4  11  22  39  69  93 126 165 214 259 309 383
#     4  11  21  39  63  95 120 162 217 258 303 381
#     4  10  22  41  63  93 123 170 207 253 323 368
#
# _framework density 19.952774000000002
#
# number of rings (size 3 to 8) (size 9 to 14) (size 15 to 20)
#    0.000    1.143    5.714    0.857    2.000    0.000 
#    2.571    1.429    6.286    0.000    0.000    0.000 
#    0.000    0.000    0.000    0.000    0.000    0.000 
#
# Total GULP energy -77959.238442 kJ/mol
# GULP energy per Si atom -5568.517032 kJ/mol
# Density = 1.990736 g / cm^3
# Si number density = 19.952774 Si / 1000 Ang^3
#
#
#
# Elastic Constant Matrix: (Units=GPa)
#
#
# Indices 1 2 3 4 5 6 
#
# 1 129.9806 56.2127 28.8525 0.0000 2.2140 0.0000
# 2 56.2127 108.7825 2.8190 0.0000 4.9797 0.0000
# 3 28.8525 2.8190 12.9105 0.0000 -1.4253 0.0000
# 4 0.0000 0.0000 0.0000 23.8388 0.0000 -0.0614
# 5 2.2140 4.9797 -1.4253 0.0000 26.1414 0.0000
# 6 0.0000 0.0000 0.0000 -0.0614 0.0000 15.3294
#
#
#
# Elastic Compliance Matrix: (Units=1/GPa)
#
#
# Indices 1 2 3 4 5 6 
#
# 1 0.023737 -0.010820 -0.050986 0.000000 -0.002729 0.000000
# 2 -0.010820 0.014270 0.020992 0.000000 -0.000657 0.000000
# 3 -0.050986 0.020992 0.187984 0.000000 0.010569 0.000000
# 4 0.000000 0.000000 0.000000 0.041949 0.000000 0.000168
# 5 -0.002729 -0.000657 0.010569 0.000000 0.039186 0.000000
# 6 0.000000 0.000000 0.000000 0.000168 0.000000 0.065235
#
#
# Mechanical properties :
#
#
# Convention : Reuss Voigt Hill
#
# Bulk Modulus (GPa) = 6.92704 47.49355 27.21029
# Shear Modulus (GPa) = 9.95801 23.98123 16.96962
#
# Velocity S-wave (km/s) = 2.23643 3.47060 2.91948
# Velocity P-wave (km/s) = 3.18561 6.31781 5.00314
#
# Compressibility (1/GPa) = 0.14436178
#
# Stress axis : x y z
#
# Youngs Moduli (GPa) = 42.12870 70.07820 5.31961
#
# Poissons Ratio (x) = 0.75822 0.27123
# Poissons Ratio (y) = 0.45582 -0.11167
# Poissons Ratio (z) = 2.14798 -1.47105
#
# Static dielectric constant tensor:
#      x y z
#    x 1.766290 0.000000 0.036080 
#    y 0.000000 1.710100 0.000000 
#    z 0.036080 0.000000 1.781360 
# 
# From -- ./inp_files/47447.got.cif
#   From: 2010.05.17/outbox.cif.g08.bks.cpg/sg5_24_cif.got.tgz:47447.got - 2010.06.03 18:56:24.
