data_PCOD9126768
_publ_section_title
;
Structure prediction by ZEFSAII (Michael W. Deem and Ramdas Pophale) SiO2 
 PCOD9126768
Probable space group: C 2
;
_chemical_formula_sum "Si O2"
_cell_formula_units_Z 32
_cell_length_a 16.793309
_cell_length_b 15.001894
_cell_length_c 11.148164
_cell_angle_alpha 90.000000
_cell_angle_beta 145.586179
_cell_angle_gamma 90.000000
_cell_volume 1587.310046
_symmetry_space_group_name_H-M "C 2"
_symmetry_group_IT_number 5
_symmetry_cell_setting 'monoclinic'
loop_
_space_group_symop_operation_xyz
x,y,z
-x,y,-z
1/2+x,1/2+y,z
1/2-x,1/2+y,-z
loop_
_atom_site_type_symbol
_atom_site_label
_atom_site_fract_x
_atom_site_fract_y
_atom_site_fract_z
Si Si1 0.090118 0.995450 0.867232
Si Si2 0.575366 0.291178 0.915443
Si Si3 0.719432 0.237488 0.328165
Si Si4 0.107355 0.408084 0.410895
Si Si5 0.161619 0.494545 0.016312
Si Si6 0.267001 0.526783 0.410034
Si Si7 0.692552 0.056131 0.697483
Si Si8 0.021881 0.638094 0.706662
O O1 0.092491 0.894308 0.915092
O O2 0.199771 0.002767 0.893461
O O3 0.934777 0.018639 0.632292
O O4 0.150253 0.050232 0.056636
O O5 0.422372 0.270576 0.781795
O O6 0.574112 0.237114 0.789770
O O7 0.690276 0.254409 0.150972
O O8 0.841560 0.306528 0.518065
O O9 0.737835 0.133005 0.375829
O O10 0.197769 0.465404 0.426942
O O11 0.142149 0.461680 0.578227
O O12 0.944678 0.420070 0.169035
O O13 0.207511 0.488883 0.210367
O O14 0.065914 0.583585 0.879421
O O15 0.606652 0.086874 0.708353
O O16 0.640681 0.126301 0.532489
#
# Coordination Sequence:
#
# PCOD9126768 Si02
#       8
#     4   4   4   4   4   4   4   4
#     4  11  23  42  65  95 139 168 216 276 341 387
#     4  11  21  41  66 100 129 174 226 273 320 415
#     4  11  23  40  67 101 129 173 232 270 331 399
#     4  11  22  42  69  97 132 173 229 273 327 403
#     4  10  22  42  64  94 130 180 213 269 336 391
#     4  12  24  43  69  95 135 178 221 280 332 394
#     4   9  19  37  63  92 125 169 209 267 324 387
#     4   9  18  38  65  90 125 167 224 258 322 392
#
# _framework density 20.159893
#
# number of rings (size 3 to 8) (size 9 to 14) (size 15 to 20)
#    0.000    1.500    3.750    3.000    1.750    0.500 
#    9.000    0.000    2.750    0.000    0.000    0.000 
#    0.000    0.000    0.000    0.000    0.000    0.000 
#
# Total GULP energy -89200.828721 kJ/mol
# GULP energy per Si atom -5575.051795 kJ/mol
# Density = 2.011401 g / cm^3
# Si number density = 20.159893 Si / 1000 Ang^3
#
#
#
# Elastic Constant Matrix: (Units=GPa)
#
#
# Indices 1 2 3 4 5 6 
#
# 1 63.8711 13.1963 31.7789 0.0000 -6.8047 0.0000
# 2 13.1963 74.2233 24.1055 0.0000 -11.6329 0.0000
# 3 31.7789 24.1055 141.4334 0.0000 -10.4168 0.0000
# 4 0.0000 0.0000 0.0000 35.1904 0.0000 -2.6974
# 5 -6.8047 -11.6329 -10.4168 0.0000 30.0677 0.0000
# 6 0.0000 0.0000 0.0000 -2.6974 0.0000 18.5834
#
#
#
# Elastic Compliance Matrix: (Units=1/GPa)
#
#
# Indices 1 2 3 4 5 6 
#
# 1 0.018031 -0.001695 -0.003602 0.000000 0.002177 0.000000
# 2 -0.001695 0.015130 -0.001842 0.000000 0.004832 0.000000
# 3 -0.003602 -0.001842 0.008293 0.000000 0.001345 0.000000
# 4 0.000000 0.000000 0.000000 0.028737 0.000000 0.004171
# 5 0.002177 0.004832 0.001345 0.000000 0.036086 0.000000
# 6 0.000000 0.000000 0.000000 0.004171 0.000000 0.054417
#
#
# Mechanical properties :
#
#
# Convention : Reuss Voigt Hill
#
# Bulk Modulus (GPa) = 36.79761 46.40990 41.60375
# Shear Modulus (GPa) = 27.16955 30.79811 28.98383
#
# Velocity S-wave (km/s) = 3.67509 3.91281 3.79581
# Velocity P-wave (km/s) = 6.02502 6.59426 6.31606
#
# Compressibility (1/GPa) = 0.02717568
#
# Stress axis : x y z
#
# Youngs Moduli (GPa) = 55.46041 66.09534 120.58553
#
# Poissons Ratio (x) = 0.11201 0.43437
# Poissons Ratio (y) = 0.09399 0.22212
# Poissons Ratio (z) = 0.19978 0.12175
#
# Static dielectric constant tensor:
#      x y z
#    x 1.776530 0.000000 -0.013630 
#    y 0.000000 1.704900 0.000000 
#    z -0.013630 0.000000 1.757590 
# 
# From -- ./inp_files/45001.got.cif
#   From: 2010.05.17/outbox.cif.g08.bks.cpg/sg5_23_cif.got.tgz:45001.got - 2010.06.03 18:56:24.
