data_PCOD9126249
_publ_section_title
;
Structure prediction by ZEFSAII (Michael W. Deem and Ramdas Pophale) SiO2 
 PCOD9126249
Probable space group: C 2
;
_chemical_formula_sum "Si O2"
_cell_formula_units_Z 30
_cell_length_a 20.288740
_cell_length_b 8.482782
_cell_length_c 8.776491
_cell_angle_alpha 90.000000
_cell_angle_beta 78.486982
_cell_angle_gamma 90.000000
_cell_volume 1480.085875
_symmetry_space_group_name_H-M "C 2"
_symmetry_group_IT_number 5
_symmetry_cell_setting 'monoclinic'
loop_
_space_group_symop_operation_xyz
x,y,z
-x,y,-z
1/2+x,1/2+y,z
1/2-x,1/2+y,-z
loop_
_atom_site_type_symbol
_atom_site_label
_atom_site_fract_x
_atom_site_fract_y
_atom_site_fract_z
Si Si1 0.201283 0.263670 0.125308
Si Si2 0.500000 0.610342 0.500000
Si Si3 0.896591 0.359093 0.575947
Si Si4 0.591422 0.576673 0.991535
Si Si5 0.425893 0.886153 0.209374
Si Si6 0.030874 0.921131 0.763148
Si Si7 0.455723 0.100042 0.762507
Si Si8 0.164478 0.578879 0.961922
O O1 0.170775 0.314224 0.303251
O O2 0.276137 0.198635 0.098124
O O3 0.154801 0.129738 0.064091
O O4 0.194764 0.421325 0.027163
O O5 0.449287 0.727023 0.607491
O O6 0.541767 0.506236 0.598098
O O7 0.900388 0.350837 0.392372
O O8 0.925516 0.526601 0.621568
O O9 0.575964 0.734224 0.898816
O O10 0.591068 0.444153 0.856558
O O11 0.532596 0.511403 0.128340
O O12 0.500403 0.959512 0.183983
O O13 0.376070 0.016464 0.164212
O O14 0.005528 0.746918 0.737308
O O15 0.392162 0.142138 0.896135
#
# Coordination Sequence:
#
# PCOD9126249 Si02
#       8
#     4   2   4   4   4   4   4   4
#     4  10  23  43  64  88 126 173 218 260 319 393
#     4  12  20  36  64  94 134 168 202 258 334 386
#     4  11  21  41  64  91 129 177 206 256 331 409
#     4  10  22  39  62  92 126 165 218 257 315 395
#     4  11  22  40  67  94 126 170 217 261 333 396
#     4  11  24  34  60 102 131 160 207 275 324 364
#     4  11  24  39  65  98 134 158 216 274 328 380
#     4  10  25  40  67  88 121 176 214 271 313 383
#
# _framework density 20.269093000000002
#
# number of rings (size 3 to 8) (size 9 to 14) (size 15 to 20)
#    0.000    1.333    4.000    0.400   16.800    0.000 
#    0.000    5.333    2.933    0.000    0.000    0.000 
#    0.000    0.000    0.000    0.000    0.000    0.000 
#
# Total GULP energy -83713.688438 kJ/mol
# GULP energy per Si atom -5580.912563 kJ/mol
# Density = 2.022296 g / cm^3
# Si number density = 20.269093 Si / 1000 Ang^3
#
#
#
# Elastic Constant Matrix: (Units=GPa)
#
#
# Indices 1 2 3 4 5 6 
#
# 1 68.8203 14.8601 15.7212 0.0000 -15.0685 0.0000
# 2 14.8601 78.5334 20.3203 0.0000 -4.6189 0.0000
# 3 15.7212 20.3203 82.3275 0.0000 -1.1758 0.0000
# 4 0.0000 0.0000 0.0000 20.1122 0.0000 -0.4889
# 5 -15.0685 -4.6189 -1.1758 0.0000 26.0577 0.0000
# 6 0.0000 0.0000 0.0000 -0.4889 0.0000 45.1834
#
#
#
# Elastic Compliance Matrix: (Units=1/GPa)
#
#
# Indices 1 2 3 4 5 6 
#
# 1 0.017743 -0.002075 -0.002737 0.000000 0.009769 0.000000
# 2 -0.002075 0.013979 -0.003038 0.000000 0.001141 0.000000
# 3 -0.002737 -0.003038 0.013397 0.000000 -0.001516 0.000000
# 4 0.000000 0.000000 0.000000 0.049734 0.000000 0.000538
# 5 0.009769 0.001141 -0.001516 0.000000 0.044159 0.000000
# 6 0.000000 0.000000 0.000000 0.000538 0.000000 0.022138
#
#
# Mechanical properties :
#
#
# Convention : Reuss Voigt Hill
#
# Bulk Modulus (GPa) = 33.98932 36.83158 35.41045
# Shear Modulus (GPa) = 26.78729 30.18929 28.48829
#
# Velocity S-wave (km/s) = 3.63930 3.86349 3.75307
# Velocity P-wave (km/s) = 5.87067 6.17356 6.02402
#
# Compressibility (1/GPa) = 0.02942101
#
# Stress axis : x y z
#
# Youngs Moduli (GPa) = 56.36133 71.53504 74.64165
#
# Poissons Ratio (x) = 0.14841 0.20426
# Poissons Ratio (y) = 0.11693 0.22675
# Poissons Ratio (z) = 0.15423 0.21732
#
# Static dielectric constant tensor:
#      x y z
#    x 1.711260 0.000000 0.012090 
#    y 0.000000 1.777630 0.000000 
#    z 0.012090 0.000000 1.740670 
# 
# From -- ./inp_files/28935.got.cif
#   From: 2010.05.17/outbox.cif.g08.bks.cpg/sg5_15_cif.got.tgz:28935.got - 2010.06.03 18:56:24.
