data_PCOD9126225
_publ_section_title
;
Structure prediction by ZEFSAII (Michael W. Deem and Ramdas Pophale) SiO2 
 PCOD9126225
Probable space group: C 2
;
_chemical_formula_sum "Si O2"
_cell_formula_units_Z 30
_cell_length_a 9.535119
_cell_length_b 10.947612
_cell_length_c 18.385495
_cell_angle_alpha 90.000000
_cell_angle_beta 127.045542
_cell_angle_gamma 90.000000
_cell_volume 1531.824863
_symmetry_space_group_name_H-M "C 2"
_symmetry_group_IT_number 5
_symmetry_cell_setting 'monoclinic'
loop_
_space_group_symop_operation_xyz
x,y,z
-x,y,-z
1/2+x,1/2+y,z
1/2-x,1/2+y,-z
loop_
_atom_site_type_symbol
_atom_site_label
_atom_site_fract_x
_atom_site_fract_y
_atom_site_fract_z
Si Si1 0.338144 0.622240 0.897189
Si Si2 0.896695 0.029776 0.752880
Si Si3 0.500000 0.224829 0.500000
Si Si4 0.787169 0.869045 0.197657
Si Si5 0.520008 0.988513 0.222800
Si Si6 0.564456 0.193356 0.359127
Si Si7 0.111185 0.265740 0.348060
Si Si8 0.120718 0.353219 0.598753
O O1 0.381251 0.584362 0.827953
O O2 0.302065 0.767931 0.881935
O O3 0.163482 0.544775 0.862825
O O4 0.500000 0.595405 0.000000
O O5 0.896023 0.134469 0.691828
O O6 0.730292 0.945309 0.682715
O O7 0.070699 0.949393 0.799901
O O8 0.542075 0.158447 0.436404
O O9 0.316772 0.296647 0.427419
O O10 0.901045 0.782575 0.287949
O O11 0.656809 0.958397 0.200902
O O12 0.572344 0.085115 0.302539
O O13 0.518170 0.859773 0.264051
O O14 0.737509 0.272127 0.399388
O O15 0.001492 0.272347 0.387590
O O16 0.000000 0.413903 0.500000
#
# Coordination Sequence:
#
# PCOD9126225 Si02
#       8
#     4   4   2   4   4   4   4   4
#     4  11  24  44  71 100 126 163 216 273 335 399
#     4  11  24  43  68  93 131 175 212 269 331 384
#     4  12  22  38  56  92 134 174 230 268 300 372
#     4  10  22  44  68  90 126 170 211 263 327 388
#     4  11  21  43  67  89 131 172 207 268 331 384
#     4  10  22  39  59  91 125 173 222 262 316 371
#     4  12  23  39  63  91 135 177 219 265 321 376
#     4  11  23  41  59  93 132 177 223 264 311 381
#
# _framework density 19.584484
#
# number of rings (size 3 to 8) (size 9 to 14) (size 15 to 20)
#    0.000    1.067    5.333    1.600    0.933    1.067 
#    1.200    0.000    0.000    0.000    0.000    0.000 
#    0.000    0.000    0.000    0.000    0.000    0.000 
#
# Total GULP energy -83732.007912 kJ/mol
# GULP energy per Si atom -5582.133861 kJ/mol
# Density = 1.953991 g / cm^3
# Si number density = 19.584484 Si / 1000 Ang^3
#
#
#
# Elastic Constant Matrix: (Units=GPa)
#
#
# Indices 1 2 3 4 5 6 
#
# 1 126.7654 50.7141 61.3903 0.0000 7.7483 0.0000
# 2 50.7141 88.7744 32.9880 0.0000 11.1350 0.0000
# 3 61.3903 32.9880 90.1903 0.0000 20.2860 0.0000
# 4 0.0000 0.0000 0.0000 16.7092 0.0000 -0.9199
# 5 7.7483 11.1350 20.2860 0.0000 20.2073 0.0000
# 6 0.0000 0.0000 0.0000 -0.9199 0.0000 37.7191
#
#
#
# Elastic Compliance Matrix: (Units=1/GPa)
#
#
# Indices 1 2 3 4 5 6 
#
# 1 0.014085 -0.005517 -0.009091 0.000000 0.006766 0.000000
# 2 -0.005517 0.015349 -0.000558 0.000000 -0.005782 0.000000
# 3 -0.009091 -0.000558 0.021476 0.000000 -0.017766 0.000000
# 4 0.000000 0.000000 0.000000 0.059928 0.000000 0.001462
# 5 0.006766 -0.005782 -0.017766 0.000000 0.067914 0.000000
# 6 0.000000 0.000000 0.000000 0.001462 0.000000 0.026547
#
#
# Mechanical properties :
#
#
# Convention : Reuss Voigt Hill
#
# Bulk Modulus (GPa) = 48.59782 66.21275 57.40529
# Shear Modulus (GPa) = 20.61941 25.63629 23.12785
#
# Velocity S-wave (km/s) = 3.24828 3.62195 3.44019
# Velocity P-wave (km/s) = 6.23993 7.16753 6.71976
#
# Compressibility (1/GPa) = 0.02057705
#
# Stress axis : x y z
#
# Youngs Moduli (GPa) = 70.99897 65.15212 46.56345
#
# Poissons Ratio (x) = 0.35942 0.42332
# Poissons Ratio (y) = 0.39167 0.02601
# Poissons Ratio (z) = 0.64546 0.03639
#
# Static dielectric constant tensor:
#      x y z
#    x 1.701600 0.000000 0.013900 
#    y 0.000000 1.697640 0.000000 
#    z 0.013900 0.000000 1.685200 
# 
# From -- ./inp_files/59583.got.cif
#   From: 2010.05.17/outbox.cif.g08.bks.cpg/sg5_30_cif.got.tgz:59583.got - 2010.06.03 18:56:24.
