data_PCOD9126581
_publ_section_title
;
Structure prediction by ZEFSAII (Michael W. Deem and Ramdas Pophale) SiO2 
 PCOD9126581
Probable space group: C 2
;
_chemical_formula_sum "Si O2"
_cell_formula_units_Z 30
_cell_length_a 8.174892
_cell_length_b 14.336264
_cell_length_c 12.669623
_cell_angle_alpha 90.000000
_cell_angle_beta 91.106566
_cell_angle_gamma 90.000000
_cell_volume 1484.570084
_symmetry_space_group_name_H-M "C 2"
_symmetry_group_IT_number 5
_symmetry_cell_setting 'monoclinic'
loop_
_space_group_symop_operation_xyz
x,y,z
-x,y,-z
1/2+x,1/2+y,z
1/2-x,1/2+y,-z
loop_
_atom_site_type_symbol
_atom_site_label
_atom_site_fract_x
_atom_site_fract_y
_atom_site_fract_z
Si Si1 0.910894 0.165100 0.887502
Si Si2 0.651052 0.141980 0.424099
Si Si3 0.016672 0.311266 0.719469
Si Si4 0.540210 0.147599 0.882787
Si Si5 0.642041 0.001952 0.232202
Si Si6 0.000000 0.210696 0.500000
Si Si7 0.534654 0.462290 0.879167
Si Si8 0.884951 0.800416 0.746612
O O1 0.720198 0.190092 0.882800
O O2 0.993927 0.225246 0.798254
O O3 0.924957 0.054813 0.867090
O O4 0.000000 0.183254 0.000000
O O5 0.500000 0.118271 0.500000
O O6 0.684433 0.062166 0.336686
O O7 0.596577 0.237119 0.359626
O O8 0.826254 0.157359 0.483450
O O9 0.985601 0.273782 0.602944
O O10 0.204043 0.340952 0.735427
O O11 0.899667 0.396330 0.743016
O O12 0.516665 0.055648 0.813442
O O13 0.410860 0.222200 0.836934
O O14 0.500000 0.121910 0.000000
O O15 0.783142 0.000103 0.144701
O O16 0.496974 0.384906 0.789643
O O17 0.500000 0.428546 0.000000
#
# Coordination Sequence:
#
# PCOD9126581 Si02
#       8
#     4   4   4   4   4   2   4   4
#     4  11  23  39  65  93 129 175 213 267 326 389
#     4  10  24  46  71  96 136 173 228 278 341 394
#     4  11  24  43  64  93 133 166 224 272 329 396
#     4  11  21  38  62  92 132 171 212 262 322 387
#     4  11  25  41  63 100 130 173 222 273 326 400
#     4  10  24  44  68  94 130 180 218 286 332 402
#     4  11  22  40  64  97 137 173 218 267 328 398
#     4  10  22  41  63  98 126 172 217 271 324 397
#
# _framework density 20.207871000000001
#
# number of rings (size 3 to 8) (size 9 to 14) (size 15 to 20)
#    0.000    1.333    0.000    6.800    6.533    1.600 
#    2.400    0.000    1.467    0.000    0.000    0.000 
#    0.000    0.000    0.000    0.000    0.000    0.000 
#
# Total GULP energy -83678.842741 kJ/mol
# GULP energy per Si atom -5578.589516 kJ/mol
# Density = 2.016188 g / cm^3
# Si number density = 20.207871 Si / 1000 Ang^3
#
#
#
# Elastic Constant Matrix: (Units=GPa)
#
#
# Indices 1 2 3 4 5 6 
#
# 1 92.5777 -0.3988 44.3477 0.0000 10.4513 0.0000
# 2 -0.3988 54.1984 33.4454 0.0000 12.1458 0.0000
# 3 44.3477 33.4454 96.5644 0.0000 12.1238 0.0000
# 4 0.0000 0.0000 0.0000 17.1096 0.0000 -3.6167
# 5 10.4513 12.1458 12.1238 0.0000 33.9211 0.0000
# 6 0.0000 0.0000 0.0000 -3.6167 0.0000 23.3823
#
#
#
# Elastic Compliance Matrix: (Units=1/GPa)
#
#
# Indices 1 2 3 4 5 6 
#
# 1 0.015527 0.006474 -0.008880 0.000000 -0.003928 0.000000
# 2 0.006474 0.027291 -0.011463 0.000000 -0.007670 0.000000
# 3 -0.008880 -0.011463 0.018370 0.000000 0.000275 0.000000
# 4 0.000000 0.000000 0.000000 0.060422 0.000000 0.009346
# 5 -0.003928 -0.007670 0.000275 0.000000 0.033339 0.000000
# 6 0.000000 0.000000 0.000000 0.009346 0.000000 0.044213
#
#
# Mechanical properties :
#
#
# Convention : Reuss Voigt Hill
#
# Bulk Modulus (GPa) = 29.89491 44.23656 37.06574
# Shear Modulus (GPa) = 21.00417 25.94565 23.47491
#
# Velocity S-wave (km/s) = 3.22748 3.58710 3.41203
# Velocity P-wave (km/s) = 5.35860 6.25257 5.82277
#
# Compressibility (1/GPa) = 0.03345051
#
# Stress axis : x y z
#
# Youngs Moduli (GPa) = 64.40428 36.64265 54.43774
#
# Poissons Ratio (x) = -0.23724 0.48341
# Poissons Ratio (y) = -0.41698 0.62400
# Poissons Ratio (z) = 0.57191 0.42002
#
# Static dielectric constant tensor:
#      x y z
#    x 1.760830 0.000000 -0.012410 
#    y 0.000000 1.696010 0.000000 
#    z -0.012410 0.000000 1.700020 
# 
# From -- ./inp_files/36151.got.cif
#   From: 2010.05.17/outbox.cif.g08.bks.cpg/sg5_19_cif.got.tgz:36151.got - 2010.06.03 18:56:24.
