data_PCOD9126864
_publ_section_title
;
Structure prediction by ZEFSAII (Michael W. Deem and Ramdas Pophale) SiO2 
 PCOD9126864
Probable space group: C 2
;
_chemical_formula_sum "Si O2"
_cell_formula_units_Z 20
_cell_length_a 25.636314
_cell_length_b 5.031303
_cell_length_c 8.035121
_cell_angle_alpha 90.000000
_cell_angle_beta 68.041248
_cell_angle_gamma 90.000000
_cell_volume 961.214971
_symmetry_space_group_name_H-M "C 2"
_symmetry_group_IT_number 5
_symmetry_cell_setting 'monoclinic'
loop_
_space_group_symop_operation_xyz
x,y,z
-x,y,-z
1/2+x,1/2+y,z
1/2-x,1/2+y,-z
loop_
_atom_site_type_symbol
_atom_site_label
_atom_site_fract_x
_atom_site_fract_y
_atom_site_fract_z
Si Si1 0.397158 0.600040 0.660652
Si Si2 0.451831 0.768859 0.260551
Si Si3 0.286187 0.669952 0.963148
Si Si4 0.031857 0.775689 0.211411
Si Si5 0.387648 0.908714 0.006343
O O1 0.412506 0.721707 0.467038
O O2 0.331112 0.556802 0.773771
O O3 0.439189 0.355329 0.647346
O O4 0.409436 0.795331 0.801882
O O5 0.494042 0.521497 0.199718
O O6 0.489408 0.030544 0.243914
O O7 0.415417 0.797085 0.138193
O O8 0.323106 0.818952 0.062640
O O9 0.251449 0.412329 0.061208
O O10 0.088121 0.708891 0.034902
#
# Coordination Sequence:
#
# PCOD9126864 Si02
#       5
#     4   4   4   4   4
#     4  10  26  41  65  95 129 169 222 257 320 388
#     4  12  27  40  66  98 138 174 213 260 318 398
#     4  10  22  42  68  86 122 168 216 276 330 366
#     4  12  25  40  66 100 138 176 205 260 322 390
#     4  10  26  41  65  95 129 169 222 257 320 388
#
# _framework density 20.806999000000001
#
# number of rings (size 3 to 8) (size 9 to 14) (size 15 to 20)
#    1.200    0.000    2.000    2.400   11.200    0.000 
#    0.000    2.000    0.000    0.000    0.000    0.000 
#    0.000    0.000    0.000    0.000    0.000    0.000 
#
# Total GULP energy -55683.427832 kJ/mol
# GULP energy per Si atom -5568.342783 kJ/mol
# Density = 2.075964 g / cm^3
# Si number density = 20.806999 Si / 1000 Ang^3
#
#
#
# Elastic Constant Matrix: (Units=GPa)
#
#
# Indices 1 2 3 4 5 6 
#
# 1 94.2498 35.7233 44.5876 0.0000 -12.7199 0.0000
# 2 35.7233 118.3400 24.3270 0.0000 -4.6154 0.0000
# 3 44.5876 24.3270 105.8612 0.0000 15.4841 0.0000
# 4 0.0000 0.0000 0.0000 24.1569 0.0000 -5.6894
# 5 -12.7199 -4.6154 15.4841 0.0000 27.9309 0.0000
# 6 0.0000 0.0000 0.0000 -5.6894 0.0000 25.4342
#
#
#
# Elastic Compliance Matrix: (Units=1/GPa)
#
#
# Indices 1 2 3 4 5 6 
#
# 1 0.017347 -0.003047 -0.008367 0.000000 0.012035 0.000000
# 2 -0.003047 0.009614 -0.001039 0.000000 0.000777 0.000000
# 3 -0.008367 -0.001039 0.015009 0.000000 -0.012302 0.000000
# 4 0.000000 0.000000 0.000000 0.043698 0.000000 0.009775
# 5 0.012035 0.000777 -0.012302 0.000000 0.048232 0.000000
# 6 0.000000 0.000000 0.000000 0.009775 0.000000 0.041504
#
#
# Mechanical properties :
#
#
# Convention : Reuss Voigt Hill
#
# Bulk Modulus (GPa) = 58.60553 58.63632 58.62092
# Shear Modulus (GPa) = 24.27203 29.75860 27.01531
#
# Velocity S-wave (km/s) = 3.41916 3.78593 3.60721
# Velocity P-wave (km/s) = 6.61928 6.88137 6.75160
#
# Compressibility (1/GPa) = 0.01706324
#
# Stress axis : x y z
#
# Youngs Moduli (GPa) = 57.64553 104.01347 66.62875
#
# Poissons Ratio (x) = 0.31697 0.55745
# Poissons Ratio (y) = 0.17567 0.06926
# Poissons Ratio (z) = 0.48229 0.10812
#
# Static dielectric constant tensor:
#      x y z
#    x 1.798210 0.000000 -0.036160 
#    y 0.000000 1.884580 0.000000 
#    z -0.036160 0.000000 1.759590 
# 
# From -- ./inp_files/30178.got.cif
#   From: 2010.05.17/outbox.cif.g08.bks.cpg/sg5_16_cif.got.tgz:30178.got - 2010.06.03 18:56:24.
