data_PCOD9126364
_publ_section_title
;
Structure prediction by ZEFSAII (Michael W. Deem and Ramdas Pophale) SiO2 
 PCOD9126364
Probable space group: C 2
;
_chemical_formula_sum "Si O2"
_cell_formula_units_Z 28
_cell_length_a 14.537975
_cell_length_b 12.648080
_cell_length_c 7.272182
_cell_angle_alpha 90.000000
_cell_angle_beta 94.255904
_cell_angle_gamma 90.000000
_cell_volume 1333.503189
_symmetry_space_group_name_H-M "C 2"
_symmetry_group_IT_number 5
_symmetry_cell_setting 'monoclinic'
loop_
_space_group_symop_operation_xyz
x,y,z
-x,y,-z
1/2+x,1/2+y,z
1/2-x,1/2+y,-z
loop_
_atom_site_type_symbol
_atom_site_label
_atom_site_fract_x
_atom_site_fract_y
_atom_site_fract_z
Si Si1 0.000000 0.784961 0.000000
Si Si2 0.500000 0.211890 0.500000
Si Si3 0.585252 0.710903 0.890914
Si Si4 0.623321 0.358980 0.743776
Si Si5 0.526089 0.887707 0.291757
Si Si6 0.807995 0.223392 0.742576
Si Si7 0.385594 0.105292 0.765323
Si Si8 0.678725 0.581284 0.606499
O O1 0.080379 0.868655 0.940051
O O2 0.926822 0.695828 0.903523
O O3 0.539009 0.287838 0.659867
O O4 0.418713 0.142857 0.568289
O O5 0.557367 0.830477 0.829275
O O6 0.605648 0.652810 0.705143
O O7 0.500000 0.669290 0.000000
O O8 0.669575 0.697111 0.042806
O O9 0.713595 0.288166 0.733032
O O10 0.641437 0.462977 0.627995
O O11 0.500000 0.908185 0.500000
O O12 0.609192 0.802590 0.302466
O O13 0.563423 0.993489 0.201919
O O14 0.808427 0.127369 0.596821
O O15 0.276389 0.089896 0.729317
#
# Coordination Sequence:
#
# PCOD9126364 Si02
#       8
#     2   2   4   4   4   4   4   4
#     4  10  26  44  66  96 150 178 238 292 340 436
#     4  10  22  40  62  92 136 170 224 274 338 418
#     4  10  25  41  66 100 140 172 228 293 347 412
#     4  11  24  44  66  98 136 184 233 283 353 410
#     4  11  21  40  68 102 133 178 230 289 350 405
#     4  11  23  44  67 103 139 174 231 297 339 418
#     4  11  22  40  67  99 130 185 228 282 350 408
#     4  12  24  43  71  97 135 184 233 287 352 410
#
# _framework density 20.997326000000001
#
# number of rings (size 3 to 8) (size 9 to 14) (size 15 to 20)
#    0.000    1.143    5.000    0.857    4.000    2.286 
#    2.571    1.429    0.000    0.000    0.000    0.000 
#    0.000    0.000    0.000    0.000    0.000    0.000 
#
# Total GULP energy -77935.450513 kJ/mol
# GULP energy per Si atom -5566.817894 kJ/mol
# Density = 2.094954 g / cm^3
# Si number density = 20.997326 Si / 1000 Ang^3
#
#
#
# Elastic Constant Matrix: (Units=GPa)
#
#
# Indices 1 2 3 4 5 6 
#
# 1 61.2274 36.0460 5.0696 0.0000 -9.1620 0.0000
# 2 36.0460 98.8062 21.6086 0.0000 -2.7797 0.0000
# 3 5.0696 21.6086 38.7019 0.0000 2.8985 0.0000
# 4 0.0000 0.0000 0.0000 23.1009 0.0000 -5.3294
# 5 -9.1620 -2.7797 2.8985 0.0000 32.6146 0.0000
# 6 0.0000 0.0000 0.0000 -5.3294 0.0000 36.4312
#
#
#
# Elastic Compliance Matrix: (Units=1/GPa)
#
#
# Indices 1 2 3 4 5 6 
#
# 1 0.021775 -0.008068 0.001254 0.000000 0.005318 0.000000
# 2 -0.008068 0.014598 -0.007064 0.000000 -0.000395 0.000000
# 3 0.001254 -0.007064 0.029836 0.000000 -0.002901 0.000000
# 4 0.000000 0.000000 0.000000 0.044800 0.000000 0.006554
# 5 0.005318 -0.000395 -0.002901 0.000000 0.032379 0.000000
# 6 0.000000 0.000000 0.000000 0.006554 0.000000 0.028408
#
#
# Mechanical properties :
#
#
# Convention : Reuss Voigt Hill
#
# Bulk Modulus (GPa) = 26.00656 36.02042 31.01349
# Shear Modulus (GPa) = 23.54390 27.49675 25.52032
#
# Velocity S-wave (km/s) = 3.35219 3.62268 3.49005
# Velocity P-wave (km/s) = 5.23406 5.88985 5.57162
#
# Compressibility (1/GPa) = 0.03845184
#
# Stress axis : x y z
#
# Youngs Moduli (GPa) = 45.92526 68.50196 33.51690
#
# Poissons Ratio (x) = 0.55270 -0.04204
# Poissons Ratio (y) = 0.37054 0.23677
# Poissons Ratio (z) = -0.05761 0.48391
#
# Static dielectric constant tensor:
#      x y z
#    x 1.728800 0.000000 0.076750 
#    y 0.000000 1.737020 0.000000 
#    z 0.076750 0.000000 1.650550 
# 
# From -- ./inp_files/23435.got.cif
#   From: 2010.05.17/outbox.cif.g08.bks.cpg/sg5_12_cif.got.tgz:23435.got - 2010.06.03 18:56:24.
