data_PCOD9126836
_publ_section_title
;
Structure prediction by ZEFSAII (Michael W. Deem and Ramdas Pophale) SiO2 
 PCOD9126836
Probable space group: C 2
;
_chemical_formula_sum "Si O2"
_cell_formula_units_Z 24
_cell_length_a 5.045340
_cell_length_b 15.294208
_cell_length_c 15.328730
_cell_angle_alpha 90.000000
_cell_angle_beta 77.771527
_cell_angle_gamma 90.000000
_cell_volume 1155.995873
_symmetry_space_group_name_H-M "C 2"
_symmetry_group_IT_number 5
_symmetry_cell_setting 'monoclinic'
loop_
_space_group_symop_operation_xyz
x,y,z
-x,y,-z
1/2+x,1/2+y,z
1/2-x,1/2+y,-z
loop_
_atom_site_type_symbol
_atom_site_label
_atom_site_fract_x
_atom_site_fract_y
_atom_site_fract_z
Si Si1 0.217153 0.231010 0.690233
Si Si2 0.717899 0.761476 0.413166
Si Si3 0.761717 0.045384 0.251451
Si Si4 0.278520 0.468887 0.438647
Si Si5 0.477895 0.891438 0.192218
Si Si6 0.535443 0.431250 0.099622
O O1 0.469736 0.234076 0.605872
O O2 0.274189 0.148259 0.746178
O O3 0.196210 0.322512 0.741926
O O4 0.925424 0.226699 0.664155
O O5 0.500000 0.732257 0.500000
O O6 0.726250 0.867357 0.416081
O O7 0.844208 0.018637 0.344341
O O8 0.508339 0.982394 0.243780
O O9 0.972157 0.017049 0.162041
O O10 0.500000 0.472141 0.500000
O O11 0.000000 0.503790 0.500000
O O12 0.792004 0.868087 0.151421
O O13 0.327810 0.902300 0.111091
O O14 0.500000 0.443977 0.000000
#
# Coordination Sequence:
#
# PCOD9126836 Si02
#       6
#     4   4   4   4   4   4
#     4  12  23  40  66  92 131 173 221 278 337 397
#     4  11  23  40  61  90 128 176 227 277 332 387
#     4  10  26  39  69  95 131 175 224 275 341 396
#     4  11  23  39  62  89 125 172 220 267 321 390
#     4  10  22  42  67  95 129 168 224 263 343 405
#     4  10  22  43  71  95 131 172 219 272 345 404
#
# _framework density 20.761317999999999
#
# number of rings (size 3 to 8) (size 9 to 14) (size 15 to 20)
#    1.000    0.333    1.667    5.000    4.667    2.000 
#    0.000    1.667    0.000    0.000    0.000    0.000 
#    0.000    0.000    0.000    0.000    0.000    0.000 
#
# Total GULP energy -66886.362586 kJ/mol
# GULP energy per Si atom -5573.863549 kJ/mol
# Density = 2.071406 g / cm^3
# Si number density = 20.761318 Si / 1000 Ang^3
#
#
#
# Elastic Constant Matrix: (Units=GPa)
#
#
# Indices 1 2 3 4 5 6 
#
# 1 118.5196 28.3371 34.8140 0.0000 13.2968 0.0000
# 2 28.3371 65.9164 13.1994 0.0000 6.6049 0.0000
# 3 34.8140 13.1994 88.5727 0.0000 12.5593 0.0000
# 4 0.0000 0.0000 0.0000 2.0633 0.0000 -4.6933
# 5 13.2968 6.6049 12.5593 0.0000 39.8381 0.0000
# 6 0.0000 0.0000 0.0000 -4.6933 0.0000 4.0733
#
#
#
# Elastic Compliance Matrix: (Units=1/GPa)
#
#
# Indices 1 2 3 4 5 6 
#
# 1 0.010495 -0.003662 -0.003317 0.000000 -0.001850 0.000000
# 2 -0.003662 0.017061 -0.000916 0.000000 -0.001317 0.000000
# 3 -0.003317 -0.000916 0.013139 0.000000 -0.002883 0.000000
# 4 0.000000 0.000000 0.000000 -0.299021 0.000000 -0.344534
# 5 -0.001850 -0.001317 -0.002883 0.000000 0.026846 0.000000
# 6 0.000000 0.000000 0.000000 -0.344534 0.000000 -0.151471
#
#
# Mechanical properties :
#
#
# Convention : Reuss Voigt Hill
#
# Bulk Modulus (GPa) = 40.15406 47.30108 43.72757
# Shear Modulus (GPa) = -13.93308 22.30548 4.18620
#
# Velocity S-wave (km/s) = -2.59338 3.28133 1.42152
# Velocity P-wave (km/s) = 3.22727 6.09827 4.87874
#
# Compressibility (1/GPa) = 0.02490408
#
# Stress axis : x y z
#
# Youngs Moduli (GPa) = 95.28436 58.61483 76.10746
#
# Poissons Ratio (x) = 0.21465 0.25245
# Poissons Ratio (y) = 0.34894 0.06973
# Poissons Ratio (z) = 0.31606 0.05370
#
# Static dielectric constant tensor:
#      x y z
#    x 1.761030 0.000000 -0.013010 
#    y 0.000000 1.754380 0.000000 
#    z -0.013010 0.000000 1.769980 
# 
# From -- ./inp_files/48907.got.cif
#   From: 2010.05.17/outbox.cif.g08.bks.cpg/sg5_25_cif.got.tgz:48907.got - 2010.06.03 18:56:24.
