data_PCOD9126458
_publ_section_title
;
Structure prediction by ZEFSAII (Michael W. Deem and Ramdas Pophale) SiO2 
 PCOD9126458
Probable space group: C 2
;
_chemical_formula_sum "Si O2"
_cell_formula_units_Z 32
_cell_length_a 15.123483
_cell_length_b 17.951844
_cell_length_c 5.187329
_cell_angle_alpha 90.000000
_cell_angle_beta 84.559291
_cell_angle_gamma 90.000000
_cell_volume 1401.986070
_symmetry_space_group_name_H-M "C 2"
_symmetry_group_IT_number 5
_symmetry_cell_setting 'monoclinic'
loop_
_space_group_symop_operation_xyz
x,y,z
-x,y,-z
1/2+x,1/2+y,z
1/2-x,1/2+y,-z
loop_
_atom_site_type_symbol
_atom_site_label
_atom_site_fract_x
_atom_site_fract_y
_atom_site_fract_z
Si Si1 0.301904 0.548990 0.559705
Si Si2 0.371334 0.023859 0.062560
Si Si3 0.572894 0.888339 0.685317
Si Si4 0.825495 0.289169 0.018301
Si Si5 0.212216 0.702505 0.449081
Si Si6 0.598786 0.196310 0.985699
Si Si7 0.438854 0.658641 0.759052
Si Si8 0.274356 0.924241 0.713895
O O1 0.227545 0.526057 0.786656
O O2 0.256104 0.620268 0.435248
O O3 0.387966 0.583137 0.678410
O O4 0.304845 0.477422 0.367227
O O5 0.403883 0.107090 0.043449
O O6 0.435373 0.972821 0.215558
O O7 0.348466 0.980988 0.808023
O O8 0.500000 0.866814 0.500000
O O9 0.587729 0.834863 0.921431
O O10 0.670710 0.888455 0.532456
O O11 0.784338 0.252496 0.284162
O O12 0.862541 0.220713 0.834835
O O13 0.763572 0.354187 0.909756
O O14 0.168620 0.719409 0.740519
O O15 0.133917 0.707851 0.262643
O O16 0.500000 0.228171 0.000000
O O17 0.500000 0.681360 0.500000
O O18 0.500000 0.649992 0.000000
#
# Coordination Sequence:
#
# PCOD9126458 Si02
#       8
#     4   4   4   4   4   4   4   4
#     4  10  22  44  67  96 141 191 252 292 346 437
#     4   9  20  37  60  95 135 185 227 291 349 429
#     4  10  24  37  59  98 145 188 231 285 362 442
#     4  11  26  42  66 102 147 195 241 292 371 450
#     4  11  23  41  68  98 138 186 239 291 352 437
#     4  11  23  38  67 100 135 176 231 299 356 416
#     4  12  29  44  72 109 151 198 243 308 368 428
#     4  10  22  40  67  97 137 190 239 294 351 436
#
# _framework density 22.824762
#
# number of rings (size 3 to 8) (size 9 to 14) (size 15 to 20)
#    0.000    1.500    1.250    2.625   10.500    1.000 
#    0.000    0.000    0.000    0.000    9.750    0.000 
#    0.000    0.000    0.000    0.000    0.000    0.000 
#
# Total GULP energy -89297.594755 kJ/mol
# GULP energy per Si atom -5581.099672 kJ/mol
# Density = 2.277281 g / cm^3
# Si number density = 22.824762 Si / 1000 Ang^3
#
#
#
# Elastic Constant Matrix: (Units=GPa)
#
#
# Indices 1 2 3 4 5 6 
#
# 1 92.6445 42.7236 31.6926 0.0000 11.3169 0.0000
# 2 42.7236 110.6780 44.4964 0.0000 6.2779 0.0000
# 3 31.6926 44.4964 105.5755 0.0000 3.9482 0.0000
# 4 0.0000 0.0000 0.0000 46.8414 0.0000 9.5964
# 5 11.3169 6.2779 3.9482 0.0000 47.5645 0.0000
# 6 0.0000 0.0000 0.0000 9.5964 0.0000 -12.6297
#
#
#
# Elastic Compliance Matrix: (Units=1/GPa)
#
#
# Indices 1 2 3 4 5 6 
#
# 1 0.013858 -0.004299 -0.002253 0.000000 -0.002543 0.000000
# 2 -0.004299 0.012266 -0.003869 0.000000 -0.000275 0.000000
# 3 -0.002253 -0.003869 0.011776 0.000000 0.000069 0.000000
# 4 0.000000 0.000000 0.000000 0.018473 0.000000 0.014036
# 5 -0.002543 -0.000275 0.000069 0.000000 0.021660 0.000000
# 6 0.000000 0.000000 0.000000 0.014036 0.000000 -0.068513
#
#
# Mechanical properties :
#
#
# Convention : Reuss Voigt Hill
#
# Bulk Modulus (GPa) = 58.62387 60.74702 59.68545
# Shear Modulus (GPa) = 138.70810 29.02095 83.86453
#
# Velocity S-wave (km/s) = 7.80403 3.56963 6.06816
# Velocity P-wave (km/s) = 10.34137 6.60772 8.67773
#
# Compressibility (1/GPa) = 0.01705790
#
# Stress axis : x y z
#
# Youngs Moduli (GPa) = 72.16075 81.52743 84.91775
#
# Poissons Ratio (x) = 0.35052 0.19131
# Poissons Ratio (y) = 0.31025 0.32852
# Poissons Ratio (z) = 0.16257 0.31540
#
# Static dielectric constant tensor:
#      x y z
#    x 1.896960 0.000000 0.015010 
#    y 0.000000 1.927670 0.000000 
#    z 0.015010 0.000000 1.951620 
# 
# From -- ./inp_files/7310.got.cif
#   From: 2010.05.17/outbox.cif.g08.bks.cpg/sg5_4_cif.got.tgz:7310.got - 2010.06.03 18:56:24.
