data_PCOD9126303
_publ_section_title
;
Structure prediction by ZEFSAII (Michael W. Deem and Ramdas Pophale) SiO2 
 PCOD9126303
Probable space group: C 2
;
_chemical_formula_sum "Si O2"
_cell_formula_units_Z 20
_cell_length_a 8.801452
_cell_length_b 10.624899
_cell_length_c 13.433065
_cell_angle_alpha 90.000000
_cell_angle_beta 47.836958
_cell_angle_gamma 90.000000
_cell_volume 931.133105
_symmetry_space_group_name_H-M "C 2"
_symmetry_group_IT_number 5
_symmetry_cell_setting 'monoclinic'
loop_
_space_group_symop_operation_xyz
x,y,z
-x,y,-z
1/2+x,1/2+y,z
1/2-x,1/2+y,-z
loop_
_atom_site_type_symbol
_atom_site_label
_atom_site_fract_x
_atom_site_fract_y
_atom_site_fract_z
Si Si1 0.897314 0.766350 0.760489
Si Si2 0.463438 0.738894 0.236741
Si Si3 0.333029 0.855245 0.486685
Si Si4 0.736784 0.019830 0.871937
Si Si5 0.423464 0.010554 0.264145
O O1 0.739150 0.734440 0.741532
O O2 0.112021 0.822021 0.626598
O O3 0.945850 0.635868 0.792368
O O4 0.800007 0.877341 0.868947
O O5 0.399884 0.745004 0.380689
O O6 0.616237 0.625972 0.149577
O O7 0.546534 0.881762 0.184506
O O8 0.500000 0.870373 0.500000
O O9 0.334490 0.976315 0.412178
O O10 0.745895 0.023942 0.746865
O O11 0.500000 0.042960 0.000000
#
# Coordination Sequence:
#
# PCOD9126303 Si02
#       5
#     4   4   4   4   4
#     4  11  23  42  68  99 135 168 222 274 338 391
#     4   9  23  41  64  95 128 176 217 270 330 389
#     4  10  22  39  68 100 137 169 212 272 342 396
#     4  11  25  45  66  93 136 181 224 273 320 387
#     4   9  24  41  62  99 129 173 217 267 328 394
#
# _framework density 21.479208
#
# number of rings (size 3 to 8) (size 9 to 14) (size 15 to 20)
#    1.200    0.800    0.000    1.800    5.600    3.200 
#    0.000    1.000    0.000    0.000    0.000    0.000 
#    0.000    0.000    0.000    0.000    0.000    0.000 
#
# Total GULP energy -55756.010264 kJ/mol
# GULP energy per Si atom -5575.601026 kJ/mol
# Density = 2.143032 g / cm^3
# Si number density = 21.479208 Si / 1000 Ang^3
#
#
#
# Elastic Constant Matrix: (Units=GPa)
#
#
# Indices 1 2 3 4 5 6 
#
# 1 103.9911 77.6176 42.7711 0.0000 -18.9799 0.0000
# 2 77.6176 136.1680 16.1471 0.0000 -11.0579 0.0000
# 3 42.7711 16.1471 77.1083 0.0000 -16.1965 0.0000
# 4 0.0000 0.0000 0.0000 6.8135 0.0000 -10.3687
# 5 -18.9799 -11.0579 -16.1965 0.0000 29.0394 0.0000
# 6 0.0000 0.0000 0.0000 -10.3687 0.0000 37.8500
#
#
#
# Elastic Compliance Matrix: (Units=1/GPa)
#
#
# Indices 1 2 3 4 5 6 
#
# 1 0.023084 -0.011617 -0.009211 0.000000 0.005527 0.000000
# 2 -0.011617 0.013510 0.003512 0.000000 -0.000490 0.000000
# 3 -0.009211 0.003512 0.018530 0.000000 0.005652 0.000000
# 4 0.000000 0.000000 0.000000 0.251696 0.000000 0.068950
# 5 0.005527 -0.000490 0.005652 0.000000 0.041014 0.000000
# 6 0.000000 0.000000 0.000000 0.068950 0.000000 0.045308
#
#
# Mechanical properties :
#
#
# Convention : Reuss Voigt Hill
#
# Bulk Modulus (GPa) = 48.80136 65.59322 57.19729
# Shear Modulus (GPa) = 11.50469 26.78933 19.14701
#
# Velocity S-wave (km/s) = 2.31686 3.53543 2.98891
# Velocity P-wave (km/s) = 5.47053 6.87532 6.21276
#
# Compressibility (1/GPa) = 0.02049123
#
# Stress axis : x y z
#
# Youngs Moduli (GPa) = 43.31925 74.02104 53.96727
#
# Poissons Ratio (x) = 0.85993 0.49710
# Poissons Ratio (y) = 0.50326 -0.18954
# Poissons Ratio (z) = 0.39902 -0.25997
#
# Static dielectric constant tensor:
#      x y z
#    x 1.749910 0.000000 0.045660 
#    y 0.000000 1.814100 0.000000 
#    z 0.045660 0.000000 1.812710 
# 
# From -- ./inp_files/50038.got.cif
#   From: 2010.05.17/outbox.cif.g08.bks.cpg/sg5_26_cif.got.tgz:50038.got - 2010.06.03 18:56:24.
