data_PCOD9126305
_publ_section_title
;
Structure prediction by ZEFSAII (Michael W. Deem and Ramdas Pophale) SiO2 
 PCOD9126305
Probable space group: C 2
;
_chemical_formula_sum "Si O2"
_cell_formula_units_Z 26
_cell_length_a 22.729790
_cell_length_b 8.018154
_cell_length_c 9.272539
_cell_angle_alpha 90.000000
_cell_angle_beta 46.647118
_cell_angle_gamma 90.000000
_cell_volume 1228.814138
_symmetry_space_group_name_H-M "C 2"
_symmetry_group_IT_number 5
_symmetry_cell_setting 'monoclinic'
loop_
_space_group_symop_operation_xyz
x,y,z
-x,y,-z
1/2+x,1/2+y,z
1/2-x,1/2+y,-z
loop_
_atom_site_type_symbol
_atom_site_label
_atom_site_fract_x
_atom_site_fract_y
_atom_site_fract_z
Si Si1 0.074904 0.191500 0.945981
Si Si2 0.669483 0.016463 0.194471
Si Si3 0.755306 0.678260 0.652607
Si Si4 0.500000 0.196780 0.500000
Si Si5 0.667937 0.499084 0.568066
Si Si6 0.805198 0.132203 0.787842
Si Si7 0.448730 0.516692 0.712328
O O1 0.165776 0.264481 0.810711
O O2 0.093343 0.046854 0.795786
O O3 0.053591 0.114703 0.136194
O O4 0.000000 0.289360 0.000000
O O5 0.722534 0.090887 0.236481
O O6 0.579546 0.085300 0.367039
O O7 0.674761 0.817564 0.193446
O O8 0.712947 0.084812 0.977541
O O9 0.742914 0.544699 0.546706
O O10 0.822212 0.811800 0.499258
O O11 0.488492 0.332795 0.649143
O O12 0.671996 0.609457 0.417222
O O13 0.859903 0.005942 0.791079
O O14 0.500000 0.608001 0.500000
#
# Coordination Sequence:
#
# PCOD9126305 Si02
#       7
#     4   4   4   2   4   4   4
#     4  10  22  40  66  94 127 171 218 258 333 393
#     4  12  25  42  65  99 133 175 228 277 329 400
#     4  10  22  40  64  93 130 170 220 264 331 392
#     4  10  26  40  68 100 132 164 228 282 328 394
#     4  10  22  39  68  94 128 174 218 272 325 400
#     4  12  23  42  69  94 134 179 223 274 340 391
#     4  10  22  42  68  96 127 176 213 278 330 394
#
# _framework density 21.158612000000002
#
# number of rings (size 3 to 8) (size 9 to 14) (size 15 to 20)
#    1.385    0.000    1.538    4.615    3.231    0.000 
#    0.000    0.000    0.000    0.000    0.000    0.000 
#    0.000    0.000    0.000    0.000    0.000    0.000 
#
# Total GULP energy -72455.324487 kJ/mol
# GULP energy per Si atom -5573.486499 kJ/mol
# Density = 2.111045 g / cm^3
# Si number density = 21.158612 Si / 1000 Ang^3
#
#
#
# Elastic Constant Matrix: (Units=GPa)
#
#
# Indices 1 2 3 4 5 6 
#
# 1 85.0005 -10.9448 38.3604 0.0000 -6.3287 0.0000
# 2 -10.9448 46.7883 22.7343 0.0000 3.4169 0.0000
# 3 38.3604 22.7343 137.9495 0.0000 11.8738 0.0000
# 4 0.0000 0.0000 0.0000 23.1081 0.0000 -4.3381
# 5 -6.3287 3.4169 11.8738 0.0000 43.8270 0.0000
# 6 0.0000 0.0000 0.0000 -4.3381 0.0000 17.3453
#
#
#
# Elastic Compliance Matrix: (Units=1/GPa)
#
#
# Indices 1 2 3 4 5 6 
#
# 1 0.015269 0.006016 -0.005515 0.000000 0.003230 0.000000
# 2 0.006016 0.025630 -0.005938 0.000000 0.000479 0.000000
# 3 -0.005515 -0.005938 0.010024 0.000000 -0.003049 0.000000
# 4 0.000000 0.000000 0.000000 0.045407 0.000000 0.011356
# 5 0.003230 0.000479 -0.003049 0.000000 0.024072 0.000000
# 6 0.000000 0.000000 0.000000 0.011356 0.000000 0.060493
#
#
# Mechanical properties :
#
#
# Convention : Reuss Voigt Hill
#
# Bulk Modulus (GPa) = 24.97025 41.11534 33.04279
# Shear Modulus (GPa) = 24.37611 31.49530 27.93571
#
# Velocity S-wave (km/s) = 3.39789 3.86234 3.63753
# Velocity P-wave (km/s) = 5.21740 6.27410 5.76999
#
# Compressibility (1/GPa) = 0.04004766
#
# Stress axis : x y z
#
# Youngs Moduli (GPa) = 65.49325 39.01624 99.76323
#
# Poissons Ratio (x) = -0.23471 0.55022
# Poissons Ratio (y) = -0.39399 0.59239
# Poissons Ratio (z) = 0.36121 0.23168
#
# Static dielectric constant tensor:
#      x y z
#    x 1.828910 0.000000 -0.046470 
#    y 0.000000 1.738300 0.000000 
#    z -0.046470 0.000000 1.812730 
# 
# From -- ./inp_files/29117.got.cif
#   From: 2010.05.17/outbox.cif.g08.bks.cpg/sg5_15_cif.got.tgz:29117.got - 2010.06.03 18:56:24.
