data_PCOD9126995
_publ_section_title
;
Structure prediction by ZEFSAII (Michael W. Deem and Ramdas Pophale) SiO2 
 PCOD9126995
Probable space group: C 2
;
_chemical_formula_sum "Si O2"
_cell_formula_units_Z 24
_cell_length_a 13.306792
_cell_length_b 5.860999
_cell_length_c 12.783633
_cell_angle_alpha 90.000000
_cell_angle_beta 103.893714
_cell_angle_gamma 90.000000
_cell_volume 967.839855
_symmetry_space_group_name_H-M "C 2"
_symmetry_group_IT_number 5
_symmetry_cell_setting 'monoclinic'
loop_
_space_group_symop_operation_xyz
x,y,z
-x,y,-z
1/2+x,1/2+y,z
1/2-x,1/2+y,-z
loop_
_atom_site_type_symbol
_atom_site_label
_atom_site_fract_x
_atom_site_fract_y
_atom_site_fract_z
Si Si1 0.530885 0.272700 0.179359
Si Si2 0.225544 0.655437 0.116204
Si Si3 0.652603 0.364858 0.558870
Si Si4 0.481330 0.572375 0.656605
Si Si5 0.292965 0.152287 0.127784
Si Si6 0.885247 0.503613 0.604821
O O1 0.603739 0.204989 0.102890
O O2 0.526376 0.533578 0.220313
O O3 0.415758 0.180791 0.145694
O O4 0.590414 0.179657 0.296899
O O5 0.251788 0.397341 0.162800
O O6 0.271869 0.898760 0.171193
O O7 0.255405 0.642862 0.001334
O O8 0.580256 0.441327 0.635555
O O9 0.611316 0.508207 0.448052
O O10 0.773250 0.400492 0.603525
O O11 0.627805 0.112905 0.512104
O O12 0.482228 0.838369 0.636681
#
# Coordination Sequence:
#
# PCOD9126995 Si02
#       6
#     4   4   4   4   4   4
#     4  11  26  39  68 103 132 173 226 281 336 399
#     4  10  24  46  73 100 138 183 221 273 341 409
#     4  10  22  43  63  88 125 173 222 269 331 401
#     4  10  24  40  64  95 124 173 222 275 335 389
#     4  10  24  46  71 102 138 181 224 273 340 405
#     4  11  23  43  66  92 130 176 222 276 340 391
#
# _framework density 24.797491999999998
#
# number of rings (size 3 to 8) (size 9 to 14) (size 15 to 20)
#    0.000    1.667    1.667    0.500    7.000    5.333 
#    0.000    5.000    0.000    0.000    0.000    0.000 
#    0.000    0.000    0.000    0.000    0.000    0.000 
#
# Total GULP energy -66878.106227 kJ/mol
# GULP energy per Si atom -5573.175519 kJ/mol
# Density = 2.474105 g / cm^3
# Si number density = 24.797492 Si / 1000 Ang^3
#
#
#
# Elastic Constant Matrix: (Units=GPa)
#
#
# Indices 1 2 3 4 5 6 
#
# 1 125.1020 36.6216 -9.3040 0.0000 2.0181 0.0000
# 2 36.6216 115.6664 -4.2056 0.0000 -6.3269 0.0000
# 3 -9.3040 -4.2056 41.6477 0.0000 0.4327 0.0000
# 4 0.0000 0.0000 0.0000 10.0649 0.0000 3.1038
# 5 2.0181 -6.3269 0.4327 0.0000 33.4087 0.0000
# 6 0.0000 0.0000 0.0000 3.1038 0.0000 23.6503
#
#
#
# Elastic Compliance Matrix: (Units=1/GPa)
#
#
# Indices 1 2 3 4 5 6 
#
# 1 0.008970 -0.002838 0.001729 0.000000 -0.001102 0.000000
# 2 -0.002838 0.009665 0.000321 0.000000 0.001998 0.000000
# 3 0.001729 0.000321 0.024433 0.000000 -0.000360 0.000000
# 4 0.000000 0.000000 0.000000 0.103546 0.000000 -0.013589
# 5 -0.001102 0.001998 -0.000360 0.000000 0.030382 0.000000
# 6 0.000000 0.000000 0.000000 -0.013589 0.000000 0.044066
#
#
# Mechanical properties :
#
#
# Convention : Reuss Voigt Hill
#
# Bulk Modulus (GPa) = 24.09988 36.51558 30.30773
# Shear Modulus (GPa) = 21.14444 30.71173 25.92808
#
# Velocity S-wave (km/s) = 2.92324 3.52305 3.23707
# Velocity P-wave (km/s) = 4.59713 5.59524 5.12056
#
# Compressibility (1/GPa) = 0.04149398
#
# Stress axis : x y z
#
# Youngs Moduli (GPa) = 111.47672 103.46698 40.92767
#
# Poissons Ratio (x) = 0.29360 -0.07076
# Poissons Ratio (y) = 0.31632 -0.01315
# Poissons Ratio (z) = -0.19273 -0.03324
#
# Static dielectric constant tensor:
#      x y z
#    x 1.969100 0.000000 -0.082700 
#    y 0.000000 2.331060 0.000000 
#    z -0.082700 0.000000 2.021550 
# 
# From -- ./inp_files/53871.got.cif
#   From: 2010.05.17/outbox.cif.g08.bks.cpg/sg5_27_cif.got.tgz:53871.got - 2010.06.03 18:56:24.
