data_PCOD9126626
_publ_section_title
;
Structure prediction by ZEFSAII (Michael W. Deem and Ramdas Pophale) SiO2 
 PCOD9126626
Probable space group: C 2
;
_chemical_formula_sum "Si O2"
_cell_formula_units_Z 26
_cell_length_a 11.285346
_cell_length_b 9.055148
_cell_length_c 17.854308
_cell_angle_alpha 90.000000
_cell_angle_beta 32.987701
_cell_angle_gamma 90.000000
_cell_volume 993.387364
_symmetry_space_group_name_H-M "C 2"
_symmetry_group_IT_number 5
_symmetry_cell_setting 'monoclinic'
loop_
_space_group_symop_operation_xyz
x,y,z
-x,y,-z
1/2+x,1/2+y,z
1/2-x,1/2+y,-z
loop_
_atom_site_type_symbol
_atom_site_label
_atom_site_fract_x
_atom_site_fract_y
_atom_site_fract_z
Si Si1 0.764005 0.669000 0.751613
Si Si2 0.018720 0.624496 0.900946
Si Si3 0.999694 0.162583 0.686604
Si Si4 0.500000 0.375132 0.500000
Si Si5 0.125410 0.329177 0.095629
Si Si6 0.747460 0.428125 0.650854
Si Si7 0.691768 0.136132 0.608904
O O1 0.708782 0.508360 0.748754
O O2 0.532910 0.748731 0.881103
O O3 0.888290 0.770620 0.622214
O O4 0.939035 0.636670 0.722168
O O5 0.914883 0.498346 0.903534
O O6 0.278365 0.631832 0.760684
O O7 0.870199 0.768152 0.964439
O O8 0.000000 0.586908 0.000000
O O9 0.093670 0.013654 0.674101
O O10 0.954897 0.273747 0.779288
O O11 0.318474 0.486339 0.561737
O O12 0.678995 0.706371 0.530725
O O13 0.000000 0.458970 0.500000
O O14 0.714098 0.256706 0.661014
#
# Coordination Sequence:
#
# PCOD9126626 Si02
#       7
#     4   4   4   2   4   4   4
#     4  11  23  43  61  89 134 168 198 258 315 363
#     4  10  22  46  68  89 123 163 209 266 320 360
#     4  10  22  41  66  92 131 168 198 261 316 361
#     4  12  24  36  60  98 134 166 208 242 300 384
#     4  10  22  45  68  89 121 164 213 262 315 370
#     4  11  20  40  60  91 132 164 207 240 301 377
#     4  12  23  38  64  96 129 168 208 245 305 374
#
# _framework density 26.173075000000001
#
# number of rings (size 3 to 8) (size 9 to 14) (size 15 to 20)
#    0.000    1.231    3.077    3.692    0.000    0.000 
#    8.308    6.923    0.000    0.000    0.000    0.000 
#    0.000    0.000    0.000    0.000    0.000    0.000 
#
# Total GULP energy -72829.827197 kJ/mol
# GULP energy per Si atom -5602.294400 kJ/mol
# Density = 2.611350 g / cm^3
# Si number density = 26.173075 Si / 1000 Ang^3
#
#
#
# Elastic Constant Matrix: (Units=GPa)
#
#
# Indices 1 2 3 4 5 6 
#
# 1 108.0044 76.4541 55.2774 -0.0007 -23.4427 0.0001
# 2 76.4541 155.0838 47.5808 -0.0005 -33.8543 0.0001
# 3 55.2774 47.5808 133.0409 -0.0026 -48.8361 0.0004
# 4 -0.0007 -0.0005 -0.0026 14.8976 0.0001 7.7991
# 5 -23.4427 -33.8543 -48.8361 0.0001 49.2478 0.0001
# 6 0.0001 0.0001 0.0004 7.7991 0.0001 12.0702
#
#
#
# Elastic Compliance Matrix: (Units=1/GPa)
#
#
# Indices 1 2 3 4 5 6 
#
# 1 0.016305 -0.006930 -0.005025 -0.000001 -0.001985 0.000001
# 2 -0.006930 0.010668 0.000857 0.000000 0.004885 0.000000
# 3 -0.005025 0.000857 0.013579 0.000004 0.011663 -0.000003
# 4 -0.000001 0.000000 0.000004 0.101438 0.000004 -0.065544
# 5 -0.001985 0.004885 0.011663 0.000004 0.034283 -0.000003
# 6 0.000001 0.000000 -0.000003 -0.065544 -0.000003 0.125200
#
#
# Mechanical properties :
#
#
# Convention : Reuss Voigt Hill
#
# Bulk Modulus (GPa) = 54.47767 83.86151 69.16959
# Shear Modulus (GPa) = 15.16124 29.69758 22.42941
#
# Velocity S-wave (km/s) = 2.40941 3.37213 2.93057
# Velocity P-wave (km/s) = 5.34789 6.87549 6.15923
#
# Compressibility (1/GPa) = 0.01835614
#
# Stress axis : x y z
#
# Youngs Moduli (GPa) = 61.32914 93.73969 73.64387
#
# Poissons Ratio (x) = 0.64962 0.37007
# Poissons Ratio (y) = 0.42501 -0.06312
# Poissons Ratio (z) = 0.30818 -0.08034
#
# Static dielectric constant tensor:
#      x y z
#    x 2.194130 0.000000 0.090530 
#    y 0.000000 2.018420 0.000000 
#    z 0.090530 0.000000 2.090320 
# 
# From -- ./inp_files/70309.got.cif
#   From: 2010.05.17/outbox.cif.g08.bks.cpg/sg5_36_cif.got.tgz:70309.got - 2010.06.03 18:56:24.
