data_PCOD9126750
_publ_section_title
;
Structure prediction by ZEFSAII (Michael W. Deem and Ramdas Pophale) SiO2 
 PCOD9126750
Probable space group: C 2
;
_chemical_formula_sum "Si O2"
_cell_formula_units_Z 22
_cell_length_a 19.906434
_cell_length_b 5.326143
_cell_length_c 15.110252
_cell_angle_alpha 90.000000
_cell_angle_beta 142.162033
_cell_angle_gamma 90.000000
_cell_volume 982.750727
_symmetry_space_group_name_H-M "C 2"
_symmetry_group_IT_number 5
_symmetry_cell_setting 'monoclinic'
loop_
_space_group_symop_operation_xyz
x,y,z
-x,y,-z
1/2+x,1/2+y,z
1/2-x,1/2+y,-z
loop_
_atom_site_type_symbol
_atom_site_label
_atom_site_fract_x
_atom_site_fract_y
_atom_site_fract_z
Si Si1 0.805507 0.293500 0.587582
Si Si2 0.000000 0.439439 0.500000
Si Si3 0.326205 0.787950 0.977982
Si Si4 0.958691 0.099869 0.605628
Si Si5 0.291227 0.286986 0.329387
Si Si6 0.109590 0.785491 0.873884
O O1 0.775669 0.584542 0.540753
O O2 0.913604 0.240895 0.644180
O O3 0.791358 0.225081 0.675885
O O4 0.031871 0.271238 0.618690
O O5 0.891804 0.596289 0.413780
O O6 0.277232 0.825043 0.829979
O O7 0.222591 0.781118 0.936661
O O8 0.397899 0.026013 0.082074
O O9 0.384129 0.520657 0.052495
O O10 0.018489 0.855208 0.706116
O O11 0.858588 0.023498 0.437904
#
# Coordination Sequence:
#
# PCOD9126750 Si02
#       6
#     4   2   4   4   4   4
#     4  10  22  42  63  96 137 176 212 272 348 394
#     4  12  22  36  72 110 128 166 236 292 318 392
#     4  10  23  39  61  94 130 169 211 270 332 387
#     4  11  24  40  67  99 135 172 228 277 331 401
#     4  11  24  40  67  99 135 172 228 277 331 401
#     4  10  23  39  61  94 130 169 211 270 332 387
#
# _framework density 22.386144999999999
#
# number of rings (size 3 to 8) (size 9 to 14) (size 15 to 20)
#    0.000    1.455    1.818    2.727   12.727    0.000 
#    0.000    0.909    0.000    2.182    0.000    0.000 
#    0.000    0.000    0.000    0.000    0.000    0.000 
#
# Total GULP energy -61427.617756 kJ/mol
# GULP energy per Si atom -5584.328887 kJ/mol
# Density = 2.233519 g / cm^3
# Si number density = 22.386145 Si / 1000 Ang^3
#
#
#
# Elastic Constant Matrix: (Units=GPa)
#
#
# Indices 1 2 3 4 5 6 
#
# 1 102.2366 49.0046 39.3988 0.0001 -30.3069 0.0000
# 2 49.0046 87.8835 45.1743 0.0006 -18.8614 0.0002
# 3 39.3988 45.1743 111.6012 -0.0001 -30.7215 0.0000
# 4 0.0001 0.0006 -0.0001 31.8700 0.0001 -4.7069
# 5 -30.3069 -18.8614 -30.7215 0.0001 26.5050 0.0000
# 6 0.0000 0.0002 0.0000 -4.7069 0.0000 29.3828
#
#
#
# Elastic Compliance Matrix: (Units=1/GPa)
#
#
# Indices 1 2 3 4 5 6 
#
# 1 0.017482 -0.006786 0.001099 0.000000 0.016435 0.000000
# 2 -0.006786 0.017491 -0.004984 0.000000 -0.001090 0.000000
# 3 0.001099 -0.004984 0.014627 0.000000 0.014663 0.000000
# 4 0.000000 0.000000 0.000000 0.032138 0.000000 0.005148
# 5 0.016435 -0.001090 0.014663 0.000000 0.072742 0.000000
# 6 0.000000 0.000000 0.000000 0.005148 0.000000 0.034858
#
#
# Mechanical properties :
#
#
# Convention : Reuss Voigt Hill
#
# Bulk Modulus (GPa) = 35.38885 63.20851 49.29868
# Shear Modulus (GPa) = 22.71704 28.76114 25.73909
#
# Velocity S-wave (km/s) = 3.18902 3.58826 3.39452
# Velocity P-wave (km/s) = 5.42241 6.74273 6.11829
#
# Compressibility (1/GPa) = 0.02825749
#
# Stress axis : x y z
#
# Youngs Moduli (GPa) = 57.20054 57.17281 68.36898
#
# Poissons Ratio (x) = 0.38798 -0.07516
# Poissons Ratio (y) = 0.38817 0.34077
# Poissons Ratio (z) = -0.06288 0.28497
#
# Static dielectric constant tensor:
#      x y z
#    x 1.832500 0.000000 0.022780 
#    y 0.000000 1.878120 0.000000 
#    z 0.022780 0.000000 1.821110 
# 
# From -- ./inp_files/56593.got.cif
#   From: 2010.05.17/outbox.cif.g08.bks.cpg/sg5_29_cif.got.tgz:56593.got - 2010.06.03 18:56:24.
