data_PCOD9126049
_publ_section_title
;
Structure prediction by ZEFSAII (Michael W. Deem and Ramdas Pophale) SiO2 
 PCOD9126049
Probable space group: C 2
;
_chemical_formula_sum "Si O2"
_cell_formula_units_Z 30
_cell_length_a 14.589055
_cell_length_b 7.923276
_cell_length_c 12.245534
_cell_angle_alpha 90.000000
_cell_angle_beta 118.795631
_cell_angle_gamma 90.000000
_cell_volume 1240.463532
_symmetry_space_group_name_H-M "C 2"
_symmetry_group_IT_number 5
_symmetry_cell_setting 'monoclinic'
loop_
_space_group_symop_operation_xyz
x,y,z
-x,y,-z
1/2+x,1/2+y,z
1/2-x,1/2+y,-z
loop_
_atom_site_type_symbol
_atom_site_label
_atom_site_fract_x
_atom_site_fract_y
_atom_site_fract_z
Si Si1 0.690048 0.382270 0.708196
Si Si2 0.553257 0.100668 0.295990
Si Si3 0.779602 0.900486 0.850680
Si Si4 0.210326 0.229893 0.612380
Si Si5 0.381571 0.753708 0.677186
Si Si6 0.282551 0.562870 0.058730
Si Si7 0.000000 0.677625 0.500000
Si Si8 0.514185 0.442412 0.168108
O O1 0.662629 0.568764 0.645404
O O2 0.785545 0.289943 0.702861
O O3 0.725419 0.418895 0.852448
O O4 0.588803 0.282250 0.613311
O O5 0.671461 0.164330 0.339714
O O6 0.545907 0.085534 0.421827
O O7 0.492417 0.254455 0.202308
O O8 0.539567 0.908034 0.248480
O O9 0.715099 0.881146 0.702000
O O10 0.763489 0.726144 0.908221
O O11 0.900550 0.922851 0.881060
O O12 0.734535 0.032050 0.911664
O O13 0.159774 0.271111 0.469127
O O14 0.423571 0.564861 0.713081
O O15 0.405892 0.546059 0.098211
#
# Coordination Sequence:
#
# PCOD9126049 Si02
#       8
#     4   4   4   4   4   4   2   4
#     4  10  22  37  67  96 138 187 233 303 367 436
#     4  10  22  38  61 102 142 176 239 287 368 447
#     4  10  25  45  74 104 142 192 251 302 372 444
#     4   9  20  40  64  97 138 184 234 291 371 443
#     4  11  23  42  68 104 141 188 238 299 381 456
#     4  11  24  50  72 105 141 193 253 306 373 441
#     4  12  18  36  60 102 142 184 230 304 374 426
#     4  11  24  48  74 102 147 194 238 313 373 437
#
# _framework density 24.184508000000001
#
# number of rings (size 3 to 8) (size 9 to 14) (size 15 to 20)
#    0.000    1.600    2.667    2.000    7.467    0.000 
#    9.600    0.000    0.000    0.000    0.000    0.000 
#    0.000    0.000    0.000    0.000    0.000    0.000 
#
# Total GULP energy -83691.992281 kJ/mol
# GULP energy per Si atom -5579.466152 kJ/mol
# Density = 2.412946 g / cm^3
# Si number density = 24.184508 Si / 1000 Ang^3
#
#
#
# Elastic Constant Matrix: (Units=GPa)
#
#
# Indices 1 2 3 4 5 6 
#
# 1 57.0596 29.1057 42.8623 0.0000 -22.3714 0.0000
# 2 29.1057 94.8872 5.7699 0.0000 -3.3186 0.0000
# 3 42.8623 5.7699 80.4761 0.0000 -38.1272 0.0000
# 4 0.0000 0.0000 0.0000 21.1415 0.0000 -19.5906
# 5 -22.3714 -3.3186 -38.1272 0.0000 39.4074 0.0000
# 6 0.0000 0.0000 0.0000 -19.5906 0.0000 36.0764
#
#
#
# Elastic Compliance Matrix: (Units=1/GPa)
#
#
# Indices 1 2 3 4 5 6 
#
# 1 0.037192 -0.010228 -0.017504 0.000000 0.003317 0.000000
# 2 -0.010228 0.013399 0.004192 0.000000 -0.000622 0.000000
# 3 -0.017504 0.004192 0.031217 0.000000 0.020619 0.000000
# 4 0.000000 0.000000 0.000000 0.095209 0.000000 0.051701
# 5 0.003317 -0.000622 0.020619 0.000000 0.047156 0.000000
# 6 0.000000 0.000000 0.000000 0.051701 0.000000 0.055794
#
#
# Mechanical properties :
#
#
# Convention : Reuss Voigt Hill
#
# Bulk Modulus (GPa) = 28.79465 43.09988 35.94726
# Shear Modulus (GPa) = 14.76573 29.63742 22.20157
#
# Velocity S-wave (km/s) = 2.47360 3.50447 3.03315
# Velocity P-wave (km/s) = 4.48223 5.85107 5.21179
#
# Compressibility (1/GPa) = 0.03472868
#
# Stress axis : x y z
#
# Youngs Moduli (GPa) = 26.88762 74.62993 32.03409
#
# Poissons Ratio (x) = 0.76330 0.56072
# Poissons Ratio (y) = 0.27500 -0.13429
# Poissons Ratio (z) = 0.47064 -0.31285
#
# Static dielectric constant tensor:
#      x y z
#    x 1.961070 0.000000 0.025420 
#    y 0.000000 1.992130 0.000000 
#    z 0.025420 0.000000 1.928760 
# 
# From -- ./inp_files/42000.got.cif
#   From: 2010.05.17/outbox.cif.g08.bks.cpg/sg5_21_cif.got.tgz:42000.got - 2010.06.03 18:56:24.
