data_PCOD9126052
_publ_section_title
;
Structure prediction by ZEFSAII (Michael W. Deem and Ramdas Pophale) SiO2 
 PCOD9126052
Probable space group: C 2
;
_chemical_formula_sum "Si O2"
_cell_formula_units_Z 28
_cell_length_a 18.864241
_cell_length_b 6.552461
_cell_length_c 14.894452
_cell_angle_alpha 90.000000
_cell_angle_beta 32.332566
_cell_angle_gamma 90.000000
_cell_volume 984.659917
_symmetry_space_group_name_H-M "C 2"
_symmetry_group_IT_number 5
_symmetry_cell_setting 'monoclinic'
loop_
_space_group_symop_operation_xyz
x,y,z
-x,y,-z
1/2+x,1/2+y,z
1/2-x,1/2+y,-z
loop_
_atom_site_type_symbol
_atom_site_label
_atom_site_fract_x
_atom_site_fract_y
_atom_site_fract_z
Si Si1 0.342044 0.115420 0.849590
Si Si2 0.586866 0.610078 0.010186
Si Si3 0.677393 0.614875 0.181888
Si Si4 0.191982 0.473874 0.781819
Si Si5 0.531595 0.869955 0.573958
Si Si6 0.342279 0.376884 0.244234
Si Si7 0.533805 0.357477 0.569830
O O1 0.365484 0.366630 0.793423
O O2 0.367530 0.862065 0.791173
O O3 0.185173 0.112490 0.987284
O O4 0.321743 0.117557 0.977270
O O5 0.441733 0.527236 0.191228
O O6 0.638370 0.457483 0.878148
O O7 0.609602 0.820567 0.932360
O O8 0.718215 0.598897 0.242954
O O9 0.116575 0.639295 0.802239
O O10 0.303198 0.358605 0.603438
O O11 0.500000 0.895947 0.500000
O O12 0.688137 0.874640 0.431482
O O13 0.506514 0.612084 0.614763
O O14 0.505554 0.117711 0.640520
O O15 0.500000 0.326622 0.500000
#
# Coordination Sequence:
#
# PCOD9126052 Si02
#       7
#     4   4   4   4   4   4   4
#     4  10  23  41  67 105 140 179 224 294 363 420
#     4  11  24  44  66  94 146 179 231 287 358 414
#     4  12  22  39  69 110 140 171 236 304 354 417
#     4  12  23  42  70 110 136 187 242 297 359 424
#     4  10  22  39  66  96 139 171 227 288 346 414
#     4  11  25  41  66  99 136 188 228 289 343 430
#     4  10  22  37  68 101 138 176 226 298 359 400
#
# _framework density 28.436215000000001
#
# number of rings (size 3 to 8) (size 9 to 14) (size 15 to 20)
#    0.857    0.286    4.286    2.143    0.000    5.143 
#    0.000    0.000    3.143    0.000    0.000    0.000 
#    0.000    0.000    0.000    0.000    0.000    0.000 
#
# Total GULP energy -78183.340365 kJ/mol
# GULP energy per Si atom -5584.524312 kJ/mol
# Density = 2.837149 g / cm^3
# Si number density = 28.436215 Si / 1000 Ang^3
#
#
#
# Elastic Constant Matrix: (Units=GPa)
#
#
# Indices 1 2 3 4 5 6 
#
# 1 32.0424 8.5042 57.1863 -0.0001 -9.1788 -0.0001
# 2 8.5042 252.7990 119.7713 -0.0002 -19.4273 -0.0003
# 3 57.1863 119.7713 228.7898 0.0016 -13.5922 -0.0003
# 4 -0.0001 -0.0002 0.0016 103.1568 -0.0002 4.9915
# 5 -9.1788 -19.4273 -13.5922 -0.0002 59.6061 0.0002
# 6 -0.0001 -0.0003 -0.0003 4.9915 0.0002 32.7103
#
#
#
# Elastic Compliance Matrix: (Units=1/GPa)
#
#
# Indices 1 2 3 4 5 6 
#
# 1 0.069224 0.008359 -0.021170 0.000000 0.008557 0.000000
# 2 0.008359 0.006342 -0.005282 0.000000 0.002150 0.000000
# 3 -0.021170 -0.005282 0.012298 0.000000 -0.002177 0.000000
# 4 0.000000 0.000000 0.000000 0.009766 0.000000 -0.001490
# 5 0.008557 0.002150 -0.002177 0.000000 0.018299 0.000000
# 6 0.000000 0.000000 0.000000 -0.001490 0.000000 0.030799
#
#
# Mechanical properties :
#
#
# Convention : Reuss Voigt Hill
#
# Bulk Modulus (GPa) = 19.35065 98.28387 58.81726
# Shear Modulus (GPa) = 24.98267 60.97260 42.97764
#
# Velocity S-wave (km/s) = 2.96725 4.63556 3.89185
# Velocity P-wave (km/s) = 4.30803 7.95545 6.39720
#
# Compressibility (1/GPa) = 0.05167786
#
# Stress axis : x y z
#
# Youngs Moduli (GPa) = 14.44596 157.67699 81.31476
#
# Poissons Ratio (x) = -1.31800 1.72143
# Poissons Ratio (y) = -0.12075 0.42948
# Poissons Ratio (z) = 0.30582 0.83280
#
# Static dielectric constant tensor:
#      x y z
#    x 2.058150 0.000000 -0.035130 
#    y 0.000000 2.391380 0.000000 
#    z -0.035130 0.000000 2.264420 
# 
# From -- ./inp_files/46807.got.cif
#   From: 2010.05.17/outbox.cif.g08.bks.cpg/sg5_24_cif.got.tgz:46807.got - 2010.06.03 18:56:24.
