data_PCOD9126453
_publ_section_title
;
Structure prediction by ZEFSAII (Michael W. Deem and Ramdas Pophale) SiO2 
 PCOD9126453
Probable space group: C 2
;
_chemical_formula_sum "Si O2"
_cell_formula_units_Z 28
_cell_length_a 25.849479
_cell_length_b 9.695445
_cell_length_c 8.709686
_cell_angle_alpha 90.000000
_cell_angle_beta 34.458945
_cell_angle_gamma 90.000000
_cell_volume 1235.085241
_symmetry_space_group_name_H-M "C 2"
_symmetry_group_IT_number 5
_symmetry_cell_setting 'monoclinic'
loop_
_space_group_symop_operation_xyz
x,y,z
-x,y,-z
1/2+x,1/2+y,z
1/2-x,1/2+y,-z
loop_
_atom_site_type_symbol
_atom_site_label
_atom_site_fract_x
_atom_site_fract_y
_atom_site_fract_z
Si Si1 0.624248 0.429070 0.220783
Si Si2 0.397309 0.814003 0.198909
Si Si3 0.054834 0.669725 0.521535
Si Si4 0.843870 0.201487 0.005052
Si Si5 0.301493 0.978827 0.972940
Si Si6 0.706466 0.211418 0.775044
Si Si7 0.637844 0.131412 0.628441
O O1 0.557576 0.332703 0.482082
O O2 0.602009 0.568408 0.186135
O O3 0.699914 0.472753 0.158982
O O4 0.668818 0.322167 0.989017
O O5 0.389019 0.770830 0.042427
O O6 0.313593 0.734689 0.485444
O O7 0.375506 0.973856 0.286491
O O8 0.500000 0.783427 0.000000
O O9 0.142843 0.574241 0.278159
O O10 0.056915 0.660054 0.702598
O O11 0.000000 0.619721 0.500000
O O12 0.739901 0.156554 0.305534
O O13 0.837091 0.323527 0.897641
O O14 0.306195 0.059760 0.122024
O O15 0.649343 0.219791 0.757211
#
# Coordination Sequence:
#
# PCOD9126453 Si02
#       7
#     4   4   4   4   4   4   4
#     4  11  21  43  66  92 129 170 221 261 317 394
#     4  11  24  39  63 101 131 162 212 279 325 368
#     4  11  25  41  65  99 131 164 216 275 331 373
#     4  11  21  40  63  94 123 170 218 259 315 387
#     4  11  20  41  68  92 122 178 225 258 311 395
#     4  10  22  40  67  95 120 177 222 259 313 396
#     4  11  21  40  66  91 129 169 221 260 315 397
#
# _framework density 22.670501000000002
#
# number of rings (size 3 to 8) (size 9 to 14) (size 15 to 20)
#    0.000    1.143    5.714    0.857    2.000    0.000 
#    2.571    0.714    0.000    0.857    0.000    0.000 
#    0.000    0.000    0.000    0.000    0.000    0.000 
#
# Total GULP energy -78057.441890 kJ/mol
# GULP energy per Si atom -5575.531564 kJ/mol
# Density = 2.261890 g / cm^3
# Si number density = 22.670501 Si / 1000 Ang^3
#
#
#
# Elastic Constant Matrix: (Units=GPa)
#
#
# Indices 1 2 3 4 5 6 
#
# 1 174.9550 28.3313 28.9015 0.0000 12.6788 0.0000
# 2 28.3313 136.7447 18.2668 0.0000 14.6956 0.0000
# 3 28.9015 18.2668 50.0949 0.0000 -1.6998 0.0000
# 4 0.0000 0.0000 0.0000 9.4607 0.0000 -3.5282
# 5 12.6788 14.6956 -1.6998 0.0000 41.2736 0.0000
# 6 0.0000 0.0000 0.0000 -3.5282 0.0000 25.0420
#
#
#
# Elastic Compliance Matrix: (Units=1/GPa)
#
#
# Indices 1 2 3 4 5 6 
#
# 1 0.006559 -0.000671 -0.003605 0.000000 -0.001925 0.000000
# 2 -0.000671 0.008108 -0.002664 0.000000 -0.002790 0.000000
# 3 -0.003605 -0.002664 0.023116 0.000000 0.003008 0.000000
# 4 0.000000 0.000000 0.000000 0.111562 0.000000 0.015718
# 5 -0.001925 -0.002790 0.003008 0.000000 0.025937 0.000000
# 6 0.000000 0.000000 0.000000 0.015718 0.000000 0.042147
#
#
# Mechanical properties :
#
#
# Convention : Reuss Voigt Hill
#
# Bulk Modulus (GPa) = 41.83614 56.97708 49.40661
# Shear Modulus (GPa) = 20.89634 34.24161 27.56897
#
# Velocity S-wave (km/s) = 3.03931 3.89061 3.49101
# Velocity P-wave (km/s) = 5.55073 6.73570 6.17172
#
# Compressibility (1/GPa) = 0.02390278
#
# Stress axis : x y z
#
# Youngs Moduli (GPa) = 152.45380 123.34095 43.26088
#
# Poissons Ratio (x) = 0.08271 0.15596
# Poissons Ratio (y) = 0.10223 0.11526
# Poissons Ratio (z) = 0.54961 0.32860
#
# Static dielectric constant tensor:
#      x y z
#    x 1.908710 0.000000 -0.002630 
#    y 0.000000 1.795810 0.000000 
#    z -0.002630 0.000000 1.913810 
# 
# From -- ./inp_files/31751.got.cif
#   From: 2010.05.17/outbox.cif.g08.bks.cpg/sg5_16_cif.got.tgz:31751.got - 2010.06.03 18:56:24.
