data_PCOD9126727
_publ_section_title
;
Structure prediction by ZEFSAII (Michael W. Deem and Ramdas Pophale) SiO2 
 PCOD9126727
Probable space group: C 2
;
_chemical_formula_sum "Si O2"
_cell_formula_units_Z 26
_cell_length_a 15.754041
_cell_length_b 12.856201
_cell_length_c 14.802353
_cell_angle_alpha 90.000000
_cell_angle_beta 150.999087
_cell_angle_gamma 90.000000
_cell_volume 1453.513587
_symmetry_space_group_name_H-M "C 2"
_symmetry_group_IT_number 5
_symmetry_cell_setting 'monoclinic'
loop_
_space_group_symop_operation_xyz
x,y,z
-x,y,-z
1/2+x,1/2+y,z
1/2-x,1/2+y,-z
loop_
_atom_site_type_symbol
_atom_site_label
_atom_site_fract_x
_atom_site_fract_y
_atom_site_fract_z
Si Si1 0.142064 0.981580 0.302422
Si Si2 0.000000 0.959633 0.500000
Si Si3 0.061998 0.607168 0.330182
Si Si4 0.758053 0.950433 0.946555
Si Si5 0.836205 0.607076 0.786056
Si Si6 0.293879 0.837216 0.288378
Si Si7 0.474269 0.342313 0.288263
O O1 0.208943 0.921434 0.276758
O O2 0.126211 0.896990 0.368934
O O3 0.272913 0.070055 0.456715
O O4 0.939638 0.014373 0.101679
O O5 0.830230 0.033094 0.352967
O O6 0.981663 0.888328 0.394634
O O7 0.114282 0.609369 0.273485
O O8 0.907765 0.523643 0.199284
O O9 0.997137 0.719841 0.301313
O O10 0.737946 0.874162 0.843103
O O11 0.799781 0.882797 0.074562
O O12 0.787243 0.724433 0.769473
O O13 0.000000 0.573068 0.000000
O O14 0.500000 0.832850 0.500000
#
# Coordination Sequence:
#
# PCOD9126727 Si02
#       7
#     4   2   4   4   4   4   4
#     4  10  22  42  61  94 129 163 206 274 310 377
#     4  12  24  44  58  94 138 166 210 262 320 400
#     4  12  22  43  66  93 126 177 212 261 327 380
#     4  10  23  42  63  96 131 159 218 270 316 374
#     4  12  23  38  67  93 127 172 221 264 324 370
#     4  12  21  39  69  98 126 168 222 275 317 369
#     4  10  24  42  63  93 135 164 208 269 317 376
#
# _framework density 17.887689999999999
#
# number of rings (size 3 to 8) (size 9 to 14) (size 15 to 20)
#    0.923    0.000    5.385    3.231    0.000    1.231 
#    5.538    0.000    0.000    0.000    0.000    0.000 
#    0.000    0.000    0.000    0.000    0.000    0.000 
#
# Total GULP energy -72558.404806 kJ/mol
# GULP energy per Si atom -5581.415754 kJ/mol
# Density = 1.784698 g / cm^3
# Si number density = 17.887690 Si / 1000 Ang^3
#
#
#
# Elastic Constant Matrix: (Units=GPa)
#
#
# Indices 1 2 3 4 5 6 
#
# 1 112.6034 43.1520 42.5221 0.0000 -18.3452 -0.0001
# 2 43.1520 78.6362 25.6974 0.0000 -9.5538 -0.0001
# 3 42.5221 25.6974 122.0509 0.0000 -3.2873 0.0000
# 4 0.0000 0.0000 0.0000 4.9439 0.0000 -3.9557
# 5 -18.3452 -9.5538 -3.2873 0.0000 39.1352 0.0000
# 6 -0.0001 -0.0001 0.0000 -3.9557 0.0000 32.0128
#
#
#
# Elastic Compliance Matrix: (Units=1/GPa)
#
#
# Indices 1 2 3 4 5 6 
#
# 1 0.012933 -0.005502 -0.003227 0.000000 0.004448 0.000000
# 2 -0.005502 0.016383 -0.001498 0.000000 0.001295 0.000000
# 3 -0.003227 -0.001498 0.009604 0.000000 -0.001072 0.000000
# 4 0.000000 0.000000 0.000000 0.224463 0.000000 0.027736
# 5 0.004448 0.001295 -0.001072 0.000000 0.027864 0.000000
# 6 0.000000 0.000000 0.000000 0.027736 0.000000 0.034665
#
#
# Mechanical properties :
#
#
# Convention : Reuss Voigt Hill
#
# Bulk Modulus (GPa) = 54.15454 59.55928 56.85691
# Shear Modulus (GPa) = 14.18360 28.67965 21.43162
#
# Velocity S-wave (km/s) = 2.81895 4.00849 3.46514
# Velocity P-wave (km/s) = 6.39811 7.40220 6.91839
#
# Compressibility (1/GPa) = 0.01846567
#
# Stress axis : x y z
#
# Youngs Moduli (GPa) = 77.32425 61.04059 104.12099
#
# Poissons Ratio (x) = 0.33582 0.33605
# Poissons Ratio (y) = 0.42541 0.15594
# Poissons Ratio (z) = 0.24956 0.09142
#
# Static dielectric constant tensor:
#      x y z
#    x 1.596070 0.000000 0.007450 
#    y 0.000000 1.570650 0.000000 
#    z 0.007450 0.000000 1.616730 
# 
# From -- ./inp_files/54639.got.cif
#   From: 2010.05.17/outbox.cif.g08.bks.cpg/sg5_28_cif.got.tgz:54639.got - 2010.06.03 18:56:24.
