data_PCOD9126545
_publ_section_title
;
Structure prediction by ZEFSAII (Michael W. Deem and Ramdas Pophale) SiO2 
 PCOD9126545
Probable space group: C 2
;
_chemical_formula_sum "Si O2"
_cell_formula_units_Z 20
_cell_length_a 23.500333
_cell_length_b 8.593755
_cell_length_c 7.749411
_cell_angle_alpha 90.000000
_cell_angle_beta 33.786713
_cell_angle_gamma 90.000000
_cell_volume 870.323748
_symmetry_space_group_name_H-M "C 2"
_symmetry_group_IT_number 5
_symmetry_cell_setting 'monoclinic'
loop_
_space_group_symop_operation_xyz
x,y,z
-x,y,-z
1/2+x,1/2+y,z
1/2-x,1/2+y,-z
loop_
_atom_site_type_symbol
_atom_site_label
_atom_site_fract_x
_atom_site_fract_y
_atom_site_fract_z
Si Si1 0.068357 0.159020 0.619486
Si Si2 0.716254 0.865940 0.376717
Si Si3 0.299090 0.220464 0.491020
Si Si4 0.224749 0.451760 0.958368
Si Si5 0.500000 0.395436 0.000000
Si Si6 0.000000 0.399129 0.500000
O O1 0.108465 0.276415 0.666045
O O2 0.019858 0.275141 0.604089
O O3 0.178359 0.068999 0.304892
O O4 0.992623 0.019802 0.862392
O O5 0.788670 0.768522 0.318482
O O6 0.714386 0.039383 0.452860
O O7 0.737651 0.883214 0.118995
O O8 0.229437 0.319607 0.797940
O O9 0.408491 0.282584 0.270624
O O10 0.104839 0.501606 0.241646
#
# Coordination Sequence:
#
# PCOD9126545 Si02
#       6
#     4   4   4   4   2   2
#     4  10  23  42  70 100 139 178 229 285 342 417
#     4  11  23  43  69  95 137 180 222 287 339 403
#     4  11  24  43  70  97 141 176 226 289 341 408
#     4  10  23  45  69 104 133 176 237 286 339 421
#     4  10  24  42  62 106 130 180 230 274 356 410
#     4  10  22  40  78  96 134 190 220 282 370 388
#
# _framework density 22.979953999999999
#
# number of rings (size 3 to 8) (size 9 to 14) (size 15 to 20)
#    0.000    1.600    0.000    4.800    8.400    0.800 
#   10.800    0.000    0.000    0.000    0.000    0.000 
#    0.000    0.000    0.000    0.000    0.000    0.000 
#
# Total GULP energy -55709.301187 kJ/mol
# GULP energy per Si atom -5570.930119 kJ/mol
# Density = 2.292765 g / cm^3
# Si number density = 22.979954 Si / 1000 Ang^3
#
#
#
# Elastic Constant Matrix: (Units=GPa)
#
#
# Indices 1 2 3 4 5 6 
#
# 1 68.7677 14.7626 -1.8931 0.0000 10.5645 0.0000
# 2 14.7626 66.9625 9.6802 0.0000 2.7288 0.0000
# 3 -1.8931 9.6802 75.3418 0.0000 2.9867 0.0000
# 4 0.0000 0.0000 0.0000 14.6765 0.0000 -1.4309
# 5 10.5645 2.7288 2.9867 0.0000 13.8823 0.0000
# 6 0.0000 0.0000 0.0000 -1.4309 0.0000 15.6592
#
#
#
# Elastic Compliance Matrix: (Units=1/GPa)
#
#
# Indices 1 2 3 4 5 6 
#
# 1 0.017292 -0.003493 0.001390 0.000000 -0.012772 0.000000
# 2 -0.003493 0.016015 -0.002144 0.000000 -0.000029 0.000000
# 3 0.001390 -0.002144 0.013726 0.000000 -0.003589 0.000000
# 4 0.000000 0.000000 0.000000 0.068749 0.000000 0.006282
# 5 -0.012772 -0.000029 -0.003589 0.000000 0.082531 0.000000
# 6 0.000000 0.000000 0.000000 0.006282 0.000000 0.064434
#
#
# Mechanical properties :
#
#
# Convention : Reuss Voigt Hill
#
# Bulk Modulus (GPa) = 25.94874 28.46349 27.20612
# Shear Modulus (GPa) = 17.60025 21.41174 19.50600
#
# Velocity S-wave (km/s) = 2.77048 3.05578 2.91662
# Velocity P-wave (km/s) = 4.64225 4.98633 4.81737
#
# Compressibility (1/GPa) = 0.03853751
#
# Stress axis : x y z
#
# Youngs Moduli (GPa) = 57.83098 62.44197 72.85684
#
# Poissons Ratio (x) = 0.21808 -0.10124
# Poissons Ratio (y) = 0.20198 0.15623
# Poissons Ratio (z) = -0.08036 0.13389
#
# Static dielectric constant tensor:
#      x y z
#    x 2.173360 0.000000 -0.083610 
#    y 0.000000 1.866710 0.000000 
#    z -0.083610 0.000000 2.048690 
# 
# From -- ./inp_files/18378.got.cif
#   From: 2010.05.17/outbox.cif.g08.bks.cpg/sg5_10_cif.got.tgz:18378.got - 2010.06.03 18:56:24.
