data_PCOD9126090
_publ_section_title
;
Structure prediction by ZEFSAII (Michael W. Deem and Ramdas Pophale) SiO2 
 PCOD9126090
Probable space group: C 2
;
_chemical_formula_sum "Si O2"
_cell_formula_units_Z 30
_cell_length_a 18.348097
_cell_length_b 12.416106
_cell_length_c 5.645543
_cell_angle_alpha 90.000000
_cell_angle_beta 95.148208
_cell_angle_gamma 90.000000
_cell_volume 1280.933654
_symmetry_space_group_name_H-M "C 2"
_symmetry_group_IT_number 5
_symmetry_cell_setting 'monoclinic'
loop_
_space_group_symop_operation_xyz
x,y,z
-x,y,-z
1/2+x,1/2+y,z
1/2-x,1/2+y,-z
loop_
_atom_site_type_symbol
_atom_site_label
_atom_site_fract_x
_atom_site_fract_y
_atom_site_fract_z
Si Si1 0.181383 0.388270 0.031314
Si Si2 0.145956 0.009633 0.231599
Si Si3 0.735583 0.724073 0.740782
Si Si4 0.434160 0.053295 0.130508
Si Si5 0.206740 0.654958 0.740046
Si Si6 0.069950 0.227807 0.191639
Si Si7 0.827051 0.984200 0.263441
Si Si8 0.500000 0.880943 0.500000
O O1 0.141951 0.280286 0.104336
O O2 0.249131 0.428792 0.200972
O O3 0.203320 0.344060 0.775921
O O4 0.123642 0.484546 0.039903
O O5 0.229121 0.061678 0.240082
O O6 0.087497 0.105133 0.239383
O O7 0.141635 0.947507 0.476789
O O8 0.132290 0.958943 0.970652
O O9 0.776098 0.715132 0.500964
O O10 0.683628 0.615917 0.726408
O O11 0.783192 0.708944 0.996691
O O12 0.378064 0.118269 0.280405
O O13 0.472829 0.958892 0.289077
O O14 0.500000 0.106574 0.000000
O O15 0.059299 0.297969 0.421627
O O16 0.000000 0.241288 0.000000
#
# Coordination Sequence:
#
# PCOD9126090 Si02
#       8
#     4   4   4   4   4   4   4   2
#     4  12  21  42  62  96 139 174 224 284 339 410
#     4  10  22  40  58  85 130 176 225 266 320 403
#     4  10  22  38  61  89 126 174 219 276 322 394
#     4  12  25  39  57  97 141 184 217 275 356 431
#     4  10  22  40  58  85 130 176 225 266 320 403
#     4  12  25  39  57  97 141 184 217 275 356 431
#     4  10  22  38  61  89 126 174 219 276 322 394
#     4  12  26  32  60  94 136 186 222 266 362 448
#
# _framework density 23.420417
#
# number of rings (size 3 to 8) (size 9 to 14) (size 15 to 20)
#    0.000    1.067    8.000    0.000   11.200    1.067 
#    0.000    0.000    0.000    0.000    0.000    0.933 
#    0.000    0.000    0.000    0.000    0.000    0.000 
#
# Total GULP energy -83672.964275 kJ/mol
# GULP energy per Si atom -5578.197618 kJ/mol
# Density = 2.336711 g / cm^3
# Si number density = 23.420417 Si / 1000 Ang^3
#
#
#
# Elastic Constant Matrix: (Units=GPa)
#
#
# Indices 1 2 3 4 5 6 
#
# 1 54.1784 10.7526 27.0355 0.0000 -15.5560 0.0000
# 2 10.7526 37.2178 6.4736 0.0000 0.2578 0.0000
# 3 27.0355 6.4736 167.6775 0.0000 -15.0347 0.0000
# 4 0.0000 0.0000 0.0000 24.7505 0.0000 -2.1040
# 5 -15.5560 0.2578 -15.0347 0.0000 31.0767 0.0000
# 6 0.0000 0.0000 0.0000 -2.1040 0.0000 22.2301
#
#
#
# Elastic Compliance Matrix: (Units=1/GPa)
#
#
# Indices 1 2 3 4 5 6 
#
# 1 0.024231 -0.006611 -0.002675 0.000000 0.010890 0.000000
# 2 -0.006611 0.028871 -0.000384 0.000000 -0.003734 0.000000
# 3 -0.002675 -0.000384 0.006575 0.000000 0.001845 0.000000
# 4 0.000000 0.000000 0.000000 0.040731 0.000000 0.003855
# 5 0.010890 -0.003734 0.001845 0.000000 0.038553 0.000000
# 6 0.000000 0.000000 0.000000 0.003855 0.000000 0.045349
#
#
# Mechanical properties :
#
#
# Convention : Reuss Voigt Hill
#
# Bulk Modulus (GPa) = 24.78998 38.62191 31.70594
# Shear Modulus (GPa) = 23.03119 29.93225 26.48172
#
# Velocity S-wave (km/s) = 3.13929 3.57885 3.36625
# Velocity P-wave (km/s) = 4.87319 5.79690 5.35500
#
# Compressibility (1/GPa) = 0.04033888
#
# Stress axis : x y z
#
# Youngs Moduli (GPa) = 41.26889 34.63638 152.08113
#
# Poissons Ratio (x) = 0.22897 0.40686
# Poissons Ratio (y) = 0.27282 0.05834
# Poissons Ratio (z) = 0.11041 0.01329
#
# Static dielectric constant tensor:
#      x y z
#    x 2.055610 0.000000 -0.109130 
#    y 0.000000 1.925750 0.000000 
#    z -0.109130 0.000000 2.054270 
# 
# From -- ./inp_files/8556.got.cif
#   From: 2010.05.17/outbox.cif.g08.bks.cpg/sg5_5_cif.got.tgz:8556.got - 2010.06.03 18:56:24.
