data_PCOD9126566
_publ_section_title
;
Structure prediction by ZEFSAII (Michael W. Deem and Ramdas Pophale) SiO2 
 PCOD9126566
Probable space group: C 2
;
_chemical_formula_sum "Si O2"
_cell_formula_units_Z 28
_cell_length_a 10.197044
_cell_length_b 14.805327
_cell_length_c 20.359907
_cell_angle_alpha 90.000000
_cell_angle_beta 151.460892
_cell_angle_gamma 90.000000
_cell_volume 1468.508644
_symmetry_space_group_name_H-M "C 2"
_symmetry_group_IT_number 5
_symmetry_cell_setting 'monoclinic'
loop_
_space_group_symop_operation_xyz
x,y,z
-x,y,-z
1/2+x,1/2+y,z
1/2-x,1/2+y,-z
loop_
_atom_site_type_symbol
_atom_site_label
_atom_site_fract_x
_atom_site_fract_y
_atom_site_fract_z
Si Si1 0.000000 0.597690 0.500000
Si Si2 0.530048 0.493653 0.214064
Si Si3 0.122608 0.632436 0.305049
Si Si4 0.194642 0.778968 0.175223
Si Si5 0.614729 0.680573 0.442725
Si Si6 0.000000 0.616911 0.000000
Si Si7 0.232131 0.970824 0.154224
Si Si8 0.686870 0.304354 0.880934
O O1 0.231001 0.540007 0.639016
O O2 0.174412 0.651828 0.521361
O O3 0.630883 0.485142 0.183826
O O4 0.467574 0.393275 0.213873
O O5 0.251637 0.552729 0.089951
O O6 0.359853 0.618049 0.354856
O O7 0.226742 0.680540 0.418146
O O8 0.988319 0.536459 0.258885
O O9 0.910633 0.706365 0.185291
O O10 0.436279 0.764224 0.335542
O O11 0.907803 0.803747 0.084664
O O12 0.281339 0.863370 0.168813
O O13 0.136307 0.685744 0.112434
O O14 0.000000 0.997481 0.000000
O O15 0.000000 0.315591 0.000000
#
# Coordination Sequence:
#
# PCOD9126566 Si02
#       8
#     2   4   4   4   4   2   4   4
#     4  12  22  42  66  96 132 174 220 266 330 398
#     4  11  25  39  68  93 132 175 219 268 332 393
#     4  10  22  41  68  91 131 172 219 273 328 389
#     4  10  23  40  64  91 131 167 215 270 329 386
#     4  10  22  42  64  93 128 174 218 267 330 390
#     4  12  22  42  60  92 128 170 208 276 324 388
#     4  11  23  40  64  97 129 171 215 272 332 394
#     4  10  22  41  62  97 124 165 220 265 322 391
#
# _framework density 19.066963000000001
#
# number of rings (size 3 to 8) (size 9 to 14) (size 15 to 20)
#    0.000    1.429    4.286    0.429    6.000    3.429 
#    0.000    1.429    0.000    0.000    0.000    0.000 
#    0.000    0.000    0.000    0.000    0.000    0.000 
#
# Total GULP energy -77934.072434 kJ/mol
# GULP energy per Si atom -5566.719460 kJ/mol
# Density = 1.902357 g / cm^3
# Si number density = 19.066963 Si / 1000 Ang^3
#
#
#
# Elastic Constant Matrix: (Units=GPa)
#
#
# Indices 1 2 3 4 5 6 
#
# 1 86.9770 19.1978 21.4085 0.0020 21.8882 0.0007
# 2 19.1978 78.3243 12.1331 0.0021 20.1834 0.0014
# 3 21.4085 12.1331 66.1768 0.0125 12.3453 0.0070
# 4 0.0020 0.0021 0.0125 6.9393 0.0039 -12.5070
# 5 21.8882 20.1834 12.3453 0.0039 41.7001 0.0032
# 6 0.0007 0.0014 0.0070 -12.5070 0.0032 19.2815
#
#
#
# Elastic Compliance Matrix: (Units=1/GPa)
#
#
# Indices 1 2 3 4 5 6 
#
# 1 0.014050 -0.001475 -0.003209 -0.000050 -0.005711 -0.000031
# 2 -0.001475 0.014872 -0.001113 -0.000011 -0.006095 -0.000007
# 3 -0.003209 -0.001113 0.016870 0.000221 -0.002771 0.000138
# 4 -0.000050 -0.000011 0.000221 -0.852207 0.000088 -0.552786
# 5 -0.005711 -0.006095 -0.002771 0.000088 0.030749 0.000054
# 6 -0.000031 -0.000007 0.000138 -0.552786 0.000054 -0.306703
#
#
# Mechanical properties :
#
#
# Convention : Reuss Voigt Hill
#
# Bulk Modulus (GPa) = 29.24144 37.43966 33.34055
# Shear Modulus (GPa) = -4.71976 25.50008 10.39016
#
# Velocity S-wave (km/s) = -1.57503 3.66101 2.33691
# Velocity P-wave (km/s) = 3.47302 6.12774 4.98051
#
# Compressibility (1/GPa) = 0.03419804
#
# Stress axis : x y z
#
# Youngs Moduli (GPa) = 71.17453 67.24137 59.27600
#
# Poissons Ratio (x) = 0.09918 0.19024
# Poissons Ratio (y) = 0.10498 0.06595
# Poissons Ratio (z) = 0.22843 0.07481
#
# Static dielectric constant tensor:
#      x y z
#    x 1.683460 0.000000 -0.003770 
#    y 0.000000 1.670810 0.000000 
#    z -0.003770 0.000000 1.689560 
# 
# From -- ./inp_files/64720.got.cif
#   From: 2010.05.17/outbox.cif.g08.bks.cpg/sg5_33_cif.got.tgz:64720.got - 2010.06.03 18:56:24.
