data_PCOD9126956
_publ_section_title
;
Structure prediction by ZEFSAII (Michael W. Deem and Ramdas Pophale) SiO2 
 PCOD9126956
Probable space group: C 2
;
_chemical_formula_sum "Si O2"
_cell_formula_units_Z 22
_cell_length_a 18.379868
_cell_length_b 11.160428
_cell_length_c 5.151040
_cell_angle_alpha 90.000000
_cell_angle_beta 79.133204
_cell_angle_gamma 90.000000
_cell_volume 1037.671238
_symmetry_space_group_name_H-M "C 2"
_symmetry_group_IT_number 5
_symmetry_cell_setting 'monoclinic'
loop_
_space_group_symop_operation_xyz
x,y,z
-x,y,-z
1/2+x,1/2+y,z
1/2-x,1/2+y,-z
loop_
_atom_site_type_symbol
_atom_site_label
_atom_site_fract_x
_atom_site_fract_y
_atom_site_fract_z
Si Si1 0.194949 0.750000 0.289687
Si Si2 0.580371 0.445897 0.310529
Si Si3 0.082371 0.221120 0.328211
Si Si4 0.634276 0.126292 0.807984
Si Si5 0.357995 0.841489 0.203895
Si Si6 0.000000 0.777397 0.000000
O O1 0.143443 0.864520 0.392473
O O2 0.190067 0.667144 0.545479
O O3 0.275899 0.799977 0.176761
O O4 0.162155 0.676229 0.067320
O O5 0.500000 0.443763 0.500000
O O6 0.604695 0.582424 0.272341
O O7 0.560337 0.370972 0.068151
O O8 0.128977 0.289140 0.517281
O O9 0.000000 0.221052 0.500000
O O10 0.088276 0.284072 0.047079
O O11 0.553105 0.186190 0.804713
O O12 0.631109 0.983509 0.809922
#
# Coordination Sequence:
#
# PCOD9126956 Si02
#       6
#     4   4   4   4   4   2
#     4  11  25  43  72  97 136 176 230 275 345 393
#     4  10  22  43  69  99 128 176 228 283 324 404
#     4  11  27  45  72  99 136 179 229 278 344 399
#     4  11  25  45  69 100 133 181 225 280 338 403
#     4  12  27  46  68 103 141 179 221 283 344 403
#     4  10  22  42  72  94 136 170 238 274 338 388
#
# _framework density 21.201319999999999
#
# number of rings (size 3 to 8) (size 9 to 14) (size 15 to 20)
#    0.000    1.091    1.818    2.727   12.727    0.000 
#    0.000    0.000    0.000    0.000    0.000    0.000 
#    0.000    0.000    0.000    0.000    0.000    0.000 
#
# Total GULP energy -61397.333120 kJ/mol
# GULP energy per Si atom -5581.575738 kJ/mol
# Density = 2.115306 g / cm^3
# Si number density = 21.201320 Si / 1000 Ang^3
#
#
#
# Elastic Constant Matrix: (Units=GPa)
#
#
# Indices 1 2 3 4 5 6 
#
# 1 50.0924 29.5961 -1.9416 0.0000 -4.2208 0.0000
# 2 29.5961 208.4807 51.2495 0.0000 4.3109 0.0000
# 3 -1.9416 51.2495 97.9239 0.0000 -2.6169 0.0000
# 4 0.0000 0.0000 0.0000 40.1859 0.0000 2.7776
# 5 -4.2208 4.3109 -2.6169 0.0000 28.6817 0.0000
# 6 0.0000 0.0000 0.0000 2.7776 0.0000 14.7288
#
#
#
# Elastic Compliance Matrix: (Units=1/GPa)
#
#
# Indices 1 2 3 4 5 6 
#
# 1 0.022762 -0.003967 0.002639 0.000000 0.004187 0.000000
# 2 -0.003967 0.006230 -0.003388 0.000000 -0.001829 0.000000
# 3 0.002639 -0.003388 0.012091 0.000000 0.002001 0.000000
# 4 0.000000 0.000000 0.000000 0.025213 0.000000 -0.004755
# 5 0.004187 -0.001829 0.002001 0.000000 0.035939 0.000000
# 6 0.000000 0.000000 0.000000 -0.004755 0.000000 0.068791
#
#
# Mechanical properties :
#
#
# Convention : Reuss Voigt Hill
#
# Bulk Modulus (GPa) = 31.59376 57.14500 44.36938
# Shear Modulus (GPa) = 26.17684 35.22547 30.70116
#
# Velocity S-wave (km/s) = 3.51761 4.08054 3.80949
# Velocity P-wave (km/s) = 5.60645 7.01521 6.35002
#
# Compressibility (1/GPa) = 0.03165182
#
# Stress axis : x y z
#
# Youngs Moduli (GPa) = 43.93335 160.50159 82.70528
#
# Poissons Ratio (x) = 0.63665 -0.21827
# Poissons Ratio (y) = 0.17427 0.28023
# Poissons Ratio (z) = -0.11595 0.54383
#
# Static dielectric constant tensor:
#      x y z
#    x 1.784250 0.000000 -0.026030 
#    y 0.000000 1.722410 0.000000 
#    z -0.026030 0.000000 1.737410 
# 
# From -- ./inp_files/9238.got.cif
#   From: 2010.05.17/outbox.cif.g08.bks.cpg/sg5_5_cif.got.tgz:9238.got - 2010.06.03 18:56:24.
