data_PCOD9126803
_publ_section_title
;
Structure prediction by ZEFSAII (Michael W. Deem and Ramdas Pophale) SiO2 
 PCOD9126803
Probable space group: C 2
;
_chemical_formula_sum "Si O2"
_cell_formula_units_Z 28
_cell_length_a 11.141780
_cell_length_b 9.062630
_cell_length_c 15.390332
_cell_angle_alpha 90.000000
_cell_angle_beta 114.599995
_cell_angle_gamma 90.000000
_cell_volume 1412.971848
_symmetry_space_group_name_H-M "C 2"
_symmetry_group_IT_number 5
_symmetry_cell_setting 'monoclinic'
loop_
_space_group_symop_operation_xyz
x,y,z
-x,y,-z
1/2+x,1/2+y,z
1/2-x,1/2+y,-z
loop_
_atom_site_type_symbol
_atom_site_label
_atom_site_fract_x
_atom_site_fract_y
_atom_site_fract_z
Si Si1 0.483328 0.970820 0.402700
Si Si2 0.624494 0.280813 0.487408
Si Si3 0.000000 0.059003 0.000000
Si Si4 0.318288 0.438326 0.675728
Si Si5 0.177031 0.809483 0.139408
Si Si6 0.500000 0.060786 0.000000
Si Si7 0.943965 0.311237 0.115324
Si Si8 0.378183 0.758074 0.686597
O O1 0.500000 0.890487 0.500000
O O2 0.328379 0.999065 0.346958
O O3 0.531691 0.863194 0.344060
O O4 0.569571 0.120340 0.438685
O O5 0.500000 0.351984 0.500000
O O6 0.672999 0.363843 0.415998
O O7 0.739428 0.271744 0.593817
O O8 0.937784 0.166929 0.053110
O O9 0.107399 0.953016 0.076470
O O10 0.343468 0.327634 0.763088
O O11 0.409291 0.583491 0.699228
O O12 0.102829 0.666807 0.079784
O O13 0.327067 0.806590 0.150532
O O14 0.433120 0.953384 0.050518
O O15 0.087742 0.311225 0.205864
#
# Coordination Sequence:
#
# PCOD9126803 Si02
#       8
#     4   4   2   4   4   2   4   4
#     4  11  22  43  66  88 136 172 206 271 319 372
#     4  11  24  44  64  94 137 174 210 264 318 379
#     4  10  22  42  66  90 130 162 210 268 322 388
#     4  12  24  42  65  98 130 170 216 265 321 381
#     4  11  23  43  67  94 126 167 213 266 325 383
#     4  10  26  46  64  96 128 164 214 270 328 382
#     4  11  23  42  67  95 126 168 213 267 321 381
#     4  12  22  41  66  97 126 170 219 255 321 383
#
# _framework density 19.816389999999998
#
# number of rings (size 3 to 8) (size 9 to 14) (size 15 to 20)
#    0.000    0.857    7.143    0.857    2.000    0.571 
#    5.143    1.429    0.000    0.000    0.000    0.000 
#    0.000    0.000    0.000    0.000    0.000    0.000 
#
# Total GULP energy -78049.442778 kJ/mol
# GULP energy per Si atom -5574.960198 kJ/mol
# Density = 1.977129 g / cm^3
# Si number density = 19.816390 Si / 1000 Ang^3
#
#
#
# Elastic Constant Matrix: (Units=GPa)
#
#
# Indices 1 2 3 4 5 6 
#
# 1 73.7266 26.6153 9.6119 0.0000 0.8409 0.0000
# 2 26.6153 81.1913 15.6508 0.0000 3.2282 0.0000
# 3 9.6119 15.6508 86.6885 0.0000 4.9593 0.0000
# 4 0.0000 0.0000 0.0000 25.9992 0.0000 -4.4883
# 5 0.8409 3.2282 4.9593 0.0000 27.1698 0.0000
# 6 0.0000 0.0000 0.0000 -4.4883 0.0000 13.2974
#
#
#
# Elastic Compliance Matrix: (Units=1/GPa)
#
#
# Indices 1 2 3 4 5 6 
#
# 1 0.015443 -0.004911 -0.000841 0.000000 0.000259 0.000000
# 2 -0.004911 0.014355 -0.001979 0.000000 -0.001192 0.000000
# 3 -0.000841 -0.001979 0.012097 0.000000 -0.001947 0.000000
# 4 0.000000 0.000000 0.000000 0.040843 0.000000 0.013786
# 5 0.000259 -0.001192 -0.001947 0.000000 0.037295 0.000000
# 6 0.000000 0.000000 0.000000 0.013786 0.000000 0.079856
#
#
# Mechanical properties :
#
#
# Convention : Reuss Voigt Hill
#
# Bulk Modulus (GPa) = 37.82820 38.37360 38.10090
# Shear Modulus (GPa) = 22.30539 25.94183 24.12361
#
# Velocity S-wave (km/s) = 3.35864 3.62209 3.49285
# Velocity P-wave (km/s) = 5.84563 6.07448 5.96115
#
# Compressibility (1/GPa) = 0.02643531
#
# Stress axis : x y z
#
# Youngs Moduli (GPa) = 64.75430 69.66096 82.66216
#
# Poissons Ratio (x) = 0.34208 0.06948
# Poissons Ratio (y) = 0.31798 0.16359
# Poissons Ratio (z) = 0.05443 0.13786
#
# Static dielectric constant tensor:
#      x y z
#    x 1.712970 0.000000 0.025930 
#    y 0.000000 1.688170 0.000000 
#    z 0.025930 0.000000 1.765940 
# 
# From -- ./inp_files/52250.got.cif
#   From: 2010.05.17/outbox.cif.g08.bks.cpg/sg5_27_cif.got.tgz:52250.got - 2010.06.03 18:56:24.
