data_PCOD9126494
_publ_section_title
;
Structure prediction by ZEFSAII (Michael W. Deem and Ramdas Pophale) SiO2 
 PCOD9126494
Probable space group: C 2
;
_chemical_formula_sum "Si O2"
_cell_formula_units_Z 24
_cell_length_a 8.962691
_cell_length_b 11.856784
_cell_length_c 8.305517
_cell_angle_alpha 90.000000
_cell_angle_beta 82.283321
_cell_angle_gamma 90.000000
_cell_volume 874.623583
_symmetry_space_group_name_H-M "C 2"
_symmetry_group_IT_number 5
_symmetry_cell_setting 'monoclinic'
loop_
_space_group_symop_operation_xyz
x,y,z
-x,y,-z
1/2+x,1/2+y,z
1/2-x,1/2+y,-z
loop_
_atom_site_type_symbol
_atom_site_label
_atom_site_fract_x
_atom_site_fract_y
_atom_site_fract_z
Si Si1 0.466104 0.682340 0.330489
Si Si2 0.663495 0.034954 0.446421
Si Si3 0.753051 0.247020 0.105984
Si Si4 0.437387 0.032698 0.857097
Si Si5 0.293553 0.213176 0.232548
Si Si6 0.840863 0.855930 0.557441
O O1 0.500000 0.738556 0.500000
O O2 0.316913 0.604939 0.388194
O O3 0.410718 0.746833 0.178715
O O4 0.634851 0.644929 0.262580
O O5 0.500000 0.093365 0.500000
O O6 0.617501 0.968518 0.291269
O O7 0.708959 0.946689 0.574103
O O8 0.703120 0.116239 0.090707
O O9 0.654410 0.300646 0.266472
O O10 0.719228 0.288688 0.929721
O O11 0.570530 0.124635 0.807001
O O12 0.500000 0.967022 0.000000
O O13 0.317142 0.278226 0.400206
O O14 0.000000 0.913386 0.500000
#
# Coordination Sequence:
#
# PCOD9126494 Si02
#       6
#     4   4   4   4   4   4
#     4  11  21  39  71 101 129 177 232 287 343 411
#     4  11  26  43  64 100 141 183 229 284 355 419
#     4  10  22  40  69 104 134 177 234 284 346 406
#     4   9  20  42  70  96 129 179 232 286 341 401
#     4  11  22  41  76 100 132 176 241 296 337 412
#     4  12  25  43  68 101 144 186 226 282 353 423
#
# _framework density 27.440375
#
# number of rings (size 3 to 8) (size 9 to 14) (size 15 to 20)
#    0.000    1.333    3.333    2.000    4.667    0.000 
#    3.000    0.000   14.667    0.000    0.000    0.000 
#    0.000    0.000    0.000    0.000    0.000    0.000 
#
# Total GULP energy -66802.762482 kJ/mol
# GULP energy per Si atom -5566.896873 kJ/mol
# Density = 2.737792 g / cm^3
# Si number density = 27.440375 Si / 1000 Ang^3
#
#
#
# Elastic Constant Matrix: (Units=GPa)
#
#
# Indices 1 2 3 4 5 6 
#
# 1 157.2729 37.6518 28.1718 0.0000 9.4083 0.0000
# 2 37.6518 53.1995 54.4013 0.0000 8.2897 0.0000
# 3 28.1718 54.4013 266.0434 0.0000 35.6535 0.0000
# 4 0.0000 0.0000 0.0000 46.2309 0.0000 2.2039
# 5 9.4083 8.2897 35.6535 0.0000 45.8951 0.0000
# 6 0.0000 0.0000 0.0000 2.2039 0.0000 40.1765
#
#
#
# Elastic Compliance Matrix: (Units=1/GPa)
#
#
# Indices 1 2 3 4 5 6 
#
# 1 0.007720 -0.005829 0.000497 0.000000 -0.000916 0.000000
# 2 -0.005829 0.028183 -0.005161 0.000000 0.000114 0.000000
# 3 0.000497 -0.005161 0.005191 0.000000 -0.003202 0.000000
# 4 0.000000 0.000000 0.000000 0.021687 0.000000 -0.001190
# 5 -0.000916 0.000114 -0.003202 0.000000 0.024444 0.000000
# 6 0.000000 0.000000 0.000000 -0.001190 0.000000 0.024955
#
#
# Mechanical properties :
#
#
# Convention : Reuss Voigt Hill
#
# Bulk Modulus (GPa) = 49.73396 79.66284 64.69840
# Shear Modulus (GPa) = 35.74819 50.21321 42.98070
#
# Velocity S-wave (km/s) = 3.61329 4.28238 3.96198
# Velocity P-wave (km/s) = 5.96419 7.31751 6.67523
#
# Compressibility (1/GPa) = 0.02010699
#
# Stress axis : x y z
#
# Youngs Moduli (GPa) = 129.53921 35.48289 192.65804
#
# Poissons Ratio (x) = 0.20684 -0.09581
# Poissons Ratio (y) = 0.75514 0.99427
# Poissons Ratio (z) = -0.06442 0.18312
#
# Static dielectric constant tensor:
#      x y z
#    x 2.141270 0.000000 -0.118000 
#    y 0.000000 2.200350 0.000000 
#    z -0.118000 0.000000 2.298870 
# 
# From -- ./inp_files/15094.got.cif
#   From: 2010.05.17/outbox.cif.g08.bks.cpg/sg5_8_cif.got.tgz:15094.got - 2010.06.03 18:56:24.
