data_PCOD9126587
_publ_section_title
;
Structure prediction by ZEFSAII (Michael W. Deem and Ramdas Pophale) SiO2 
 PCOD9126587
Probable space group: C 2
;
_chemical_formula_sum "Si O2"
_cell_formula_units_Z 24
_cell_length_a 12.192812
_cell_length_b 13.562726
_cell_length_c 7.576953
_cell_angle_alpha 90.000000
_cell_angle_beta 85.525115
_cell_angle_gamma 90.000000
_cell_volume 1249.164250
_symmetry_space_group_name_H-M "C 2"
_symmetry_group_IT_number 5
_symmetry_cell_setting 'monoclinic'
loop_
_space_group_symop_operation_xyz
x,y,z
-x,y,-z
1/2+x,1/2+y,z
1/2-x,1/2+y,-z
loop_
_atom_site_type_symbol
_atom_site_label
_atom_site_fract_x
_atom_site_fract_y
_atom_site_fract_z
Si Si1 0.002737 0.380740 0.804414
Si Si2 0.239829 0.719555 0.732619
Si Si3 0.632065 0.611638 0.959813
Si Si4 0.739791 0.945477 0.244174
Si Si5 0.089139 0.199373 0.595571
Si Si6 0.381477 0.039548 0.413473
O O1 0.885312 0.431075 0.801377
O O2 0.018593 0.292134 0.669569
O O3 0.096758 0.457806 0.740135
O O4 0.000000 0.339082 0.000000
O O5 0.307861 0.672005 0.889922
O O6 0.209512 0.834675 0.761033
O O7 0.317724 0.723934 0.552889
O O8 0.148577 0.640902 0.681235
O O9 0.693613 0.509799 0.905756
O O10 0.642080 0.664237 0.769460
O O11 0.500000 0.599206 0.000000
O O12 0.714141 0.999978 0.438366
O O13 0.000000 0.132637 0.500000
O O14 0.500000 0.046929 0.500000
#
# Coordination Sequence:
#
# PCOD9126587 Si02
#       6
#     4   4   4   4   4   4
#     4  11  20  37  64  96 123 164 217 269 311 373
#     4  12  23  42  66  93 130 168 209 266 321 372
#     4  12  25  40  63  96 130 168 212 259 320 381
#     4  11  22  40  62  93 128 163 218 259 312 382
#     4  12  20  38  66  95 124 160 212 273 314 367
#     4  10  22  41  64  91 130 170 211 262 320 376
#
# _framework density 19.212845000000002
#
# number of rings (size 3 to 8) (size 9 to 14) (size 15 to 20)
#    0.000    0.667    6.667    3.000    0.000    0.000 
#    0.000    6.667    0.000    0.000    0.000    0.000 
#    0.000    0.000    0.000    0.000    0.000    0.000 
#
# Total GULP energy -66802.889304 kJ/mol
# GULP energy per Si atom -5566.907442 kJ/mol
# Density = 1.916912 g / cm^3
# Si number density = 19.212845 Si / 1000 Ang^3
#
#
#
# Elastic Constant Matrix: (Units=GPa)
#
#
# Indices 1 2 3 4 5 6 
#
# 1 49.8218 34.4521 29.4673 0.0000 7.6896 0.0000
# 2 34.4521 116.7963 53.3385 0.0000 -0.3430 0.0000
# 3 29.4673 53.3385 132.8565 0.0000 19.6914 0.0000
# 4 0.0000 0.0000 0.0000 26.9050 0.0000 0.7754
# 5 7.6896 -0.3430 19.6914 0.0000 28.0239 0.0000
# 6 0.0000 0.0000 0.0000 0.7754 0.0000 29.6112
#
#
#
# Elastic Compliance Matrix: (Units=1/GPa)
#
#
# Indices 1 2 3 4 5 6 
#
# 1 0.027190 -0.006957 -0.002365 0.000000 -0.005884 0.000000
# 2 -0.006957 0.012571 -0.004252 0.000000 0.005051 0.000000
# 3 -0.002365 -0.004252 0.010795 0.000000 -0.006988 0.000000
# 4 0.000000 0.000000 0.000000 0.037196 0.000000 -0.000974
# 5 -0.005884 0.005051 -0.006988 0.000000 0.042270 0.000000
# 6 0.000000 0.000000 0.000000 -0.000974 0.000000 0.033797
#
#
# Mechanical properties :
#
#
# Convention : Reuss Voigt Hill
#
# Bulk Modulus (GPa) = 42.72605 59.33229 51.02917
# Shear Modulus (GPa) = 25.15468 29.05578 27.10523
#
# Velocity S-wave (km/s) = 3.62230 3.89306 3.76012
# Velocity P-wave (km/s) = 6.30724 7.15238 6.74306
#
# Compressibility (1/GPa) = 0.02340492
#
# Stress axis : x y z
#
# Youngs Moduli (GPa) = 36.77856 79.54804 92.63964
#
# Poissons Ratio (x) = 0.55345 0.21912
# Poissons Ratio (y) = 0.25588 0.39394
# Poissons Ratio (z) = 0.08699 0.33827
#
# Static dielectric constant tensor:
#      x y z
#    x 1.761100 0.000000 0.065790 
#    y 0.000000 1.736930 0.000000 
#    z 0.065790 0.000000 1.741540 
# 
# From -- ./inp_files/24129.got.cif
#   From: 2010.05.17/outbox.cif.g08.bks.cpg/sg5_13_cif.got.tgz:24129.got - 2010.06.03 18:56:24.
