data_PCOD9126710
_publ_section_title
;
Structure prediction by ZEFSAII (Michael W. Deem and Ramdas Pophale) SiO2 
 PCOD9126710
Probable space group: C 2
;
_chemical_formula_sum "Si O2"
_cell_formula_units_Z 20
_cell_length_a 10.785713
_cell_length_b 12.576610
_cell_length_c 10.148085
_cell_angle_alpha 90.000000
_cell_angle_beta 136.052561
_cell_angle_gamma 90.000000
_cell_volume 955.333227
_symmetry_space_group_name_H-M "C 2"
_symmetry_group_IT_number 5
_symmetry_cell_setting 'monoclinic'
loop_
_space_group_symop_operation_xyz
x,y,z
-x,y,-z
1/2+x,1/2+y,z
1/2-x,1/2+y,-z
loop_
_atom_site_type_symbol
_atom_site_label
_atom_site_fract_x
_atom_site_fract_y
_atom_site_fract_z
Si Si1 0.000000 0.378080 0.000000
Si Si2 0.298806 0.253131 0.800987
Si Si3 0.500000 0.551248 0.000000
Si Si4 0.079018 0.564440 0.258811
Si Si5 0.774814 0.211727 0.971657
Si Si6 0.802814 0.451429 0.401638
O O1 0.014220 0.458294 0.134551
O O2 0.170835 0.301552 0.095658
O O3 0.307868 0.132647 0.758729
O O4 0.232550 0.325226 0.629675
O O5 0.500000 0.281441 0.000000
O O6 0.197212 0.260675 0.861727
O O7 0.579434 0.622357 0.944624
O O8 0.662922 0.488835 0.186155
O O9 0.200058 0.520832 0.469687
O O10 0.916618 0.646985 0.176503
O O11 0.000000 0.468703 0.500000
#
# Coordination Sequence:
#
# PCOD9126710 Si02
#       6
#     2   4   2   4   4   4
#     4  11  22  41  74 106 142 191 230 305 356 412
#     4  10  22  43  70 101 142 186 234 296 352 427
#     4  11  24  43  66 106 138 181 238 295 346 430
#     4  11  23  44  70 106 146 184 241 297 352 426
#     4  10  22  41  72  99 139 185 233 285 361 416
#     4  12  24  41  71 100 140 188 234 291 360 417
#
# _framework density 20.935102000000001
#
# number of rings (size 3 to 8) (size 9 to 14) (size 15 to 20)
#    0.000    1.200    6.000    1.200    0.000    4.800 
#    0.000    0.000    0.000    0.000    0.000    0.000 
#    0.000    0.000    0.000    0.000    0.000    0.000 
#
# Total GULP energy -55673.735457 kJ/mol
# GULP energy per Si atom -5567.373546 kJ/mol
# Density = 2.088745 g / cm^3
# Si number density = 20.935102 Si / 1000 Ang^3
#
#
#
# Elastic Constant Matrix: (Units=GPa)
#
#
# Indices 1 2 3 4 5 6 
#
# 1 77.6101 30.5010 17.6020 -0.0006 -4.4182 0.0008
# 2 30.5010 107.3054 43.0528 0.0000 -6.6418 0.0000
# 3 17.6020 43.0528 105.0567 -0.0010 -5.0448 0.0015
# 4 -0.0006 0.0000 -0.0010 446.2921 -0.0007 -616.8715
# 5 -4.4182 -6.6418 -5.0448 -0.0007 15.9283 0.0010
# 6 0.0008 0.0000 0.0015 -616.8715 0.0010 964.1220
#
#
#
# Elastic Compliance Matrix: (Units=1/GPa)
#
#
# Indices 1 2 3 4 5 6 
#
# 1 0.014653 -0.003690 -0.000834 0.000000 0.002261 0.000000
# 2 -0.003690 0.012251 -0.004271 0.000000 0.002732 0.000000
# 3 -0.000834 -0.004271 0.011487 0.000000 0.001626 0.000000
# 4 0.000000 0.000000 0.000000 0.019380 0.000000 0.012400
# 5 0.002261 0.002732 0.001626 0.000000 0.065063 0.000000
# 6 0.000000 0.000000 0.000000 0.012400 0.000000 0.008971
#
#
# Mechanical properties :
#
#
# Convention : Reuss Voigt Hill
#
# Bulk Modulus (GPa) = 48.07754 52.47597 50.27675
# Shear Modulus (GPa) = 31.98400 298.52290 165.25345
#
# Velocity S-wave (km/s) = 3.91291 11.95425 8.89424
# Velocity P-wave (km/s) = 6.59010 14.68534 11.38175
#
# Compressibility (1/GPa) = 0.02079973
#
# Stress axis : x y z
#
# Youngs Moduli (GPa) = 68.24443 81.62682 87.05670
#
# Poissons Ratio (x) = 0.30124 0.07262
# Poissons Ratio (y) = 0.25185 0.37182
# Poissons Ratio (z) = 0.05693 0.34863
#
# Static dielectric constant tensor:
#      x y z
#    x 1.803570 0.000000 -0.011750 
#    y 0.000000 1.811380 0.000000 
#    z -0.011750 0.000000 1.640560 
# 
# From -- ./inp_files/19146.got.cif
#   From: 2010.05.17/outbox.cif.g08.bks.cpg/sg5_10_cif.got.tgz:19146.got - 2010.06.03 18:56:24.
