data_PCOD9126210
_publ_section_title
;
Structure prediction by ZEFSAII (Michael W. Deem and Ramdas Pophale) SiO2 
 PCOD9126210
Probable space group: C 2
;
_chemical_formula_sum "Si O2"
_cell_formula_units_Z 30
_cell_length_a 19.241988
_cell_length_b 7.542429
_cell_length_c 14.157028
_cell_angle_alpha 90.000000
_cell_angle_beta 144.331197
_cell_angle_gamma 90.000000
_cell_volume 1198.051598
_symmetry_space_group_name_H-M "C 2"
_symmetry_group_IT_number 5
_symmetry_cell_setting 'monoclinic'
loop_
_space_group_symop_operation_xyz
x,y,z
-x,y,-z
1/2+x,1/2+y,z
1/2-x,1/2+y,-z
loop_
_atom_site_type_symbol
_atom_site_label
_atom_site_fract_x
_atom_site_fract_y
_atom_site_fract_z
Si Si1 0.000000 0.229190 0.000000
Si Si2 0.587174 0.171565 0.003601
Si Si3 0.990376 0.158354 0.653732
Si Si4 0.143052 0.277524 0.989371
Si Si5 0.778733 0.371609 0.330230
Si Si6 0.109931 0.861004 0.326987
Si Si7 0.615016 0.352785 0.671545
Si Si8 0.254148 0.262076 0.345299
O O1 0.924408 0.152932 0.006187
O O2 0.113898 0.299398 0.185760
O O3 0.706358 0.273839 0.167435
O O4 0.500000 0.162655 0.000000
O O5 0.512864 0.270467 0.839928
O O6 0.613805 0.974035 0.996832
O O7 0.902880 0.284183 0.498140
O O8 0.087148 0.256899 0.825580
O O9 0.914260 0.044999 0.646317
O O10 0.060605 0.017679 0.667394
O O11 0.285856 0.261726 0.152686
O O12 0.689356 0.370594 0.321750
O O13 0.789055 0.581955 0.329832
O O14 0.185926 0.753361 0.487707
O O15 0.500000 0.255603 0.500000
O O16 0.686384 0.409488 0.655548
#
# Coordination Sequence:
#
# PCOD9126210 Si02
#       8
#     2   4   4   4   4   4   4   4
#     4  10  22  38  76 112 146 186 234 302 374 430
#     4  10  23  40  68 111 154 183 230 295 371 438
#     4  12  26  46  74 108 147 191 255 304 362 444
#     4  11  23  43  75 105 145 194 245 299 368 432
#     4  11  24  42  73 115 141 194 240 305 372 440
#     4  11  23  41  74 108 155 183 235 305 369 435
#     4  11  25  49  72  95 147 205 241 305 360 429
#     4  11  24  44  76 107 151 193 248 299 374 435
#
# _framework density 25.040656999999999
#
# number of rings (size 3 to 8) (size 9 to 14) (size 15 to 20)
#    0.000    1.067    2.000    4.000    8.400    2.133 
#    2.400    2.000    0.000    0.000    0.000    0.000 
#    0.000    0.000    0.000    0.000    0.000    0.000 
#
# Total GULP energy -83821.251333 kJ/mol
# GULP energy per Si atom -5588.083422 kJ/mol
# Density = 2.498366 g / cm^3
# Si number density = 25.040657 Si / 1000 Ang^3
#
#
#
# Elastic Constant Matrix: (Units=GPa)
#
#
# Indices 1 2 3 4 5 6 
#
# 1 83.6954 11.5542 48.3259 0.0000 16.4020 0.0000
# 2 11.5542 80.4410 59.5834 0.0000 2.5919 0.0000
# 3 48.3259 59.5834 280.2461 0.0000 21.2234 0.0000
# 4 0.0000 0.0000 0.0000 44.4774 0.0000 -3.8631
# 5 16.4020 2.5919 21.2234 0.0000 44.8998 0.0000
# 6 0.0000 0.0000 0.0000 -3.8631 0.0000 20.4383
#
#
#
# Elastic Compliance Matrix: (Units=1/GPa)
#
#
# Indices 1 2 3 4 5 6 
#
# 1 0.013974 -0.000381 -0.002016 0.000000 -0.004130 0.000000
# 2 -0.000381 0.014784 -0.003136 0.000000 0.000768 0.000000
# 3 -0.002016 -0.003136 0.004681 0.000000 -0.001295 0.000000
# 4 0.000000 0.000000 0.000000 0.022859 0.000000 0.004321
# 5 -0.004130 0.000768 -0.001295 0.000000 0.024348 0.000000
# 6 0.000000 0.000000 0.000000 0.004321 0.000000 0.049744
#
#
# Mechanical properties :
#
#
# Convention : Reuss Voigt Hill
#
# Bulk Modulus (GPa) = 44.69536 75.92328 60.30932
# Shear Modulus (GPa) = 33.57661 43.62436 38.60049
#
# Velocity S-wave (km/s) = 3.66578 4.17842 3.93047
# Velocity P-wave (km/s) = 5.98374 7.32563 6.68842
#
# Compressibility (1/GPa) = 0.02237369
#
# Stress axis : x y z
#
# Youngs Moduli (GPa) = 71.56137 67.64014 213.64350
#
# Poissons Ratio (x) = 0.02576 0.43070
# Poissons Ratio (y) = 0.02726 0.66993
# Poissons Ratio (z) = 0.14426 0.21210
#
# Static dielectric constant tensor:
#      x y z
#    x 2.237440 0.000000 0.070520 
#    y 0.000000 2.106490 0.000000 
#    z 0.070520 0.000000 2.015420 
# 
# From -- ./inp_files/57624.got.cif
#   From: 2010.05.17/outbox.cif.g08.bks.cpg/sg5_29_cif.got.tgz:57624.got - 2010.06.03 18:56:24.
