data_PCOD9126151
_publ_section_title
;
Structure prediction by ZEFSAII (Michael W. Deem and Ramdas Pophale) SiO2 
 PCOD9126151
Probable space group: C 2
;
_chemical_formula_sum "Si O2"
_cell_formula_units_Z 24
_cell_length_a 18.459430
_cell_length_b 6.742296
_cell_length_c 7.196274
_cell_angle_alpha 90.000000
_cell_angle_beta 70.995422
_cell_angle_gamma 90.000000
_cell_volume 846.821562
_symmetry_space_group_name_H-M "C 2"
_symmetry_group_IT_number 5
_symmetry_cell_setting 'monoclinic'
loop_
_space_group_symop_operation_xyz
x,y,z
-x,y,-z
1/2+x,1/2+y,z
1/2-x,1/2+y,-z
loop_
_atom_site_type_symbol
_atom_site_label
_atom_site_fract_x
_atom_site_fract_y
_atom_site_fract_z
Si Si1 0.157061 0.443910 0.360569
Si Si2 0.338163 0.868555 0.222358
Si Si3 0.500000 0.101780 0.500000
Si Si4 0.174903 0.914779 0.418462
Si Si5 0.948273 0.939572 0.777323
Si Si6 0.316446 0.435447 0.146069
Si Si7 0.500000 0.786704 0.000000
O O1 0.161170 0.333369 0.554746
O O2 0.069156 0.461153 0.382702
O O3 0.173647 0.678174 0.381993
O O4 0.228678 0.384091 0.175996
O O5 0.258612 0.988164 0.275979
O O6 0.328147 0.670242 0.112474
O O7 0.425282 0.920044 0.100027
O O8 0.504421 0.262712 0.664801
O O9 0.171308 0.918016 0.643414
O O10 0.105395 0.000812 0.354206
O O11 0.884326 0.845870 0.969279
O O12 0.988535 0.126373 0.840848
#
# Coordination Sequence:
#
# PCOD9126151 Si02
#       7
#     4   4   2   4   4   4   2
#     4   9  19  39  59  89 128 162 201 270 320 373
#     4   9  19  39  59  89 128 162 201 270 320 373
#     4  10  22  40  62  96 130 166 214 268 322 376
#     4   9  19  40  66  87 118 168 216 250 315 392
#     4  10  22  38  66  90 122 164 220 260 300 392
#     4   9  19  40  66  87 118 168 216 250 315 392
#     4  10  22  40  62  96 130 166 214 268 322 376
#
# _framework density 28.341273000000001
#
# number of rings (size 3 to 8) (size 9 to 14) (size 15 to 20)
#    0.000    2.667    0.000    0.000    9.333    0.000 
#    9.000   23.333    0.000    0.000    0.000    0.000 
#    0.000    0.000    0.000    0.000    0.000    0.000 
#
# Total GULP energy -67065.379687 kJ/mol
# GULP energy per Si atom -5588.781641 kJ/mol
# Density = 2.827677 g / cm^3
# Si number density = 28.341273 Si / 1000 Ang^3
#
#
#
# Elastic Constant Matrix: (Units=GPa)
#
#
# Indices 1 2 3 4 5 6 
#
# 1 137.1177 35.7342 47.7503 0.0000 -10.0367 0.0000
# 2 35.7342 90.4862 34.2441 0.0000 8.4104 0.0000
# 3 47.7503 34.2441 157.5171 0.0000 -23.0470 0.0000
# 4 0.0000 0.0000 0.0000 22.4420 0.0000 14.2906
# 5 -10.0367 8.4104 -23.0470 0.0000 72.7037 0.0000
# 6 0.0000 0.0000 0.0000 14.2906 0.0000 19.5635
#
#
#
# Elastic Compliance Matrix: (Units=1/GPa)
#
#
# Indices 1 2 3 4 5 6 
#
# 1 0.008761 -0.002826 -0.001905 0.000000 0.000932 0.000000
# 2 -0.002826 0.013342 -0.002440 0.000000 -0.002707 0.000000
# 3 -0.001905 -0.002440 0.007822 0.000000 0.002499 0.000000
# 4 0.000000 0.000000 0.000000 0.083312 0.000000 -0.060858
# 5 0.000932 -0.002707 0.002499 0.000000 0.014988 0.000000
# 6 0.000000 0.000000 0.000000 -0.060858 0.000000 0.095571
#
#
# Mechanical properties :
#
#
# Convention : Reuss Voigt Hill
#
# Bulk Modulus (GPa) = 64.16891 68.95314 66.56102
# Shear Modulus (GPa) = 20.54794 40.76799 30.65796
#
# Velocity S-wave (km/s) = 2.69554 3.79683 3.29255
# Velocity P-wave (km/s) = 5.69022 6.60330 6.16369
#
# Compressibility (1/GPa) = 0.01558387
#
# Stress axis : x y z
#
# Youngs Moduli (GPa) = 114.14122 74.94945 127.84177
#
# Poissons Ratio (x) = 0.21177 0.24356
# Poissons Ratio (y) = 0.32251 0.31195
# Poissons Ratio (z) = 0.21746 0.18289
#
# Static dielectric constant tensor:
#      x y z
#    x 2.335410 0.000000 -0.045820 
#    y 0.000000 2.248050 0.000000 
#    z -0.045820 0.000000 2.182160 
# 
# From -- ./inp_files/30544.got.cif
#   From: 2010.05.17/outbox.cif.g08.bks.cpg/sg5_16_cif.got.tgz:30544.got - 2010.06.03 18:56:24.
