data_PCOD9126166
_publ_section_title
;
Structure prediction by ZEFSAII (Michael W. Deem and Ramdas Pophale) SiO2 
 PCOD9126166
Probable space group: C 2
;
_chemical_formula_sum "Si O2"
_cell_formula_units_Z 26
_cell_length_a 13.701888
_cell_length_b 9.015129
_cell_length_c 13.295926
_cell_angle_alpha 90.000000
_cell_angle_beta 45.882766
_cell_angle_gamma 90.000000
_cell_volume 1179.085097
_symmetry_space_group_name_H-M "C 2"
_symmetry_group_IT_number 5
_symmetry_cell_setting 'monoclinic'
loop_
_space_group_symop_operation_xyz
x,y,z
-x,y,-z
1/2+x,1/2+y,z
1/2-x,1/2+y,-z
loop_
_atom_site_type_symbol
_atom_site_label
_atom_site_fract_x
_atom_site_fract_y
_atom_site_fract_z
Si Si1 0.500000 0.887440 0.500000
Si Si2 0.778055 0.172765 0.983134
Si Si3 0.952987 0.008239 0.141267
Si Si4 0.310600 0.944025 0.351260
Si Si5 0.104596 0.424718 0.208389
Si Si6 0.345267 0.811623 0.133777
Si Si7 0.277895 0.285829 0.396456
O O1 0.568686 0.963884 0.350825
O O2 0.625761 0.799874 0.459518
O O3 0.775380 0.288226 0.078126
O O4 0.660697 0.058698 0.099232
O O5 0.795586 0.281054 0.874544
O O6 0.916142 0.076445 0.896817
O O7 0.860205 0.149910 0.176264
O O8 0.875503 0.886025 0.259051
O O9 0.000000 0.945776 0.000000
O O10 0.461919 0.880036 0.260035
O O11 0.273500 0.919212 0.262588
O O12 0.219231 0.856327 0.494974
O O13 0.316140 0.115480 0.373457
O O14 0.500000 0.860481 0.000000
#
# Coordination Sequence:
#
# PCOD9126166 Si02
#       7
#     2   4   4   4   4   4   4
#     4  10  24  44  58  94 130 166 210 268 322 372
#     4  10  22  38  67  92 132 162 212 264 324 369
#     4   9  18  37  62  90 119 165 206 253 311 381
#     4  11  23  40  63  91 124 166 218 257 323 375
#     4  11  23  42  64  95 130 169 210 269 316 391
#     4   9  17  38  60  84 118 162 198 256 304 373
#     4  11  24  39  65  89 125 169 211 267 316 384
#
# _framework density 22.050993999999999
#
# number of rings (size 3 to 8) (size 9 to 14) (size 15 to 20)
#    0.000    2.154    3.077    2.769    4.308    3.077 
#    0.000    1.538    0.000    0.923    0.000    0.000 
#    0.000    0.000    0.000    0.000    0.000    0.000 
#
# Total GULP energy -72522.698250 kJ/mol
# GULP energy per Si atom -5578.669096 kJ/mol
# Density = 2.200080 g / cm^3
# Si number density = 22.050994 Si / 1000 Ang^3
#
#
#
# Elastic Constant Matrix: (Units=GPa)
#
#
# Indices 1 2 3 4 5 6 
#
# 1 26.9168 2.1586 10.9881 0.0000 7.8605 0.0000
# 2 2.1586 83.8656 86.4122 0.0000 24.6702 0.0000
# 3 10.9881 86.4122 139.1547 0.0000 27.7731 0.0000
# 4 0.0000 0.0000 0.0000 36.3938 0.0000 9.0356
# 5 7.8605 24.6702 27.7731 0.0000 26.2486 0.0000
# 6 0.0000 0.0000 0.0000 9.0356 0.0000 17.9674
#
#
#
# Elastic Compliance Matrix: (Units=1/GPa)
#
#
# Indices 1 2 3 4 5 6 
#
# 1 0.043726 0.010631 -0.006905 0.000000 -0.015780 0.000000
# 2 0.010631 0.038891 -0.021626 0.000000 -0.016854 0.000000
# 3 -0.006905 -0.021626 0.021160 0.000000 0.000005 0.000000
# 4 0.000000 0.000000 0.000000 0.031397 0.000000 -0.015789
# 5 -0.015780 -0.016854 0.000005 0.000000 0.058658 0.000000
# 6 0.000000 0.000000 0.000000 -0.015789 0.000000 0.063596
#
#
# Mechanical properties :
#
#
# Convention : Reuss Voigt Hill
#
# Bulk Modulus (GPa) = 14.71092 49.89499 32.30295
# Shear Modulus (GPa) = 15.82846 26.14719 20.98782
#
# Velocity S-wave (km/s) = 2.68211 3.44722 3.08845
# Velocity P-wave (km/s) = 4.03453 6.20650 5.23441
#
# Compressibility (1/GPa) = 0.06797673
#
# Stress axis : x y z
#
# Youngs Moduli (GPa) = 22.86971 25.71317 47.25927
#
# Poissons Ratio (x) = -0.27336 0.32632
# Poissons Ratio (y) = -0.24313 1.02203
# Poissons Ratio (z) = 0.15792 0.55607
#
# Static dielectric constant tensor:
#      x y z
#    x 1.858990 0.000000 0.019540 
#    y 0.000000 1.799950 0.000000 
#    z 0.019540 0.000000 1.849080 
# 
# From -- ./inp_files/46166.got.cif
#   From: 2010.05.17/outbox.cif.g08.bks.cpg/sg5_24_cif.got.tgz:46166.got - 2010.06.03 18:56:24.
