data_PCOD9126520
_publ_section_title
;
Structure prediction by ZEFSAII (Michael W. Deem and Ramdas Pophale) SiO2 
 PCOD9126520
Probable space group: C 2
;
_chemical_formula_sum "Si O2"
_cell_formula_units_Z 28
_cell_length_a 20.400565
_cell_length_b 6.283866
_cell_length_c 9.621759
_cell_angle_alpha 90.000000
_cell_angle_beta 61.051342
_cell_angle_gamma 90.000000
_cell_volume 1079.340155
_symmetry_space_group_name_H-M "C 2"
_symmetry_group_IT_number 5
_symmetry_cell_setting 'monoclinic'
loop_
_space_group_symop_operation_xyz
x,y,z
-x,y,-z
1/2+x,1/2+y,z
1/2-x,1/2+y,-z
loop_
_atom_site_type_symbol
_atom_site_label
_atom_site_fract_x
_atom_site_fract_y
_atom_site_fract_z
Si Si1 0.313155 0.365620 0.507229
Si Si2 0.717927 0.098964 0.182886
Si Si3 0.132227 0.206423 0.345668
Si Si4 0.889002 0.211181 0.024348
Si Si5 0.512423 0.954217 0.304051
Si Si6 0.597699 0.340677 0.156365
Si Si7 0.641185 0.975530 0.668043
O O1 0.308452 0.212753 0.647406
O O2 0.352616 0.574397 0.528905
O O3 0.353419 0.234054 0.344034
O O4 0.227964 0.416622 0.552180
O O5 0.801699 0.178110 0.071950
O O6 0.666451 0.175670 0.106910
O O7 0.703819 0.851346 0.231245
O O8 0.063214 0.362175 0.376301
O O9 0.116824 0.021405 0.248755
O O10 0.882589 0.342458 0.172653
O O11 0.945230 0.346887 0.871463
O O12 0.914932 0.965251 0.974511
O O13 0.527018 0.206201 0.279151
O O14 0.424714 0.923273 0.371815
#
# Coordination Sequence:
#
# PCOD9126520 Si02
#       7
#     4   4   4   4   4   4   4
#     4  10  24  46  71 100 139 201 252 298 368 445
#     4   9  20  38  69 103 142 185 245 301 358 447
#     4   9  20  44  70 101 141 186 249 301 370 431
#     4  10  22  40  71 110 150 189 233 306 389 448
#     4  10  22  46  72 109 149 185 244 321 379 442
#     4   9  20  37  67 107 138 188 235 298 376 439
#     4  11  25  49  71 102 153 195 255 314 369 462
#
# _framework density 25.941772
#
# number of rings (size 3 to 8) (size 9 to 14) (size 15 to 20)
#    0.000    2.286    0.000    0.429    8.000    2.286 
#    7.714   12.143    3.143    0.000    0.000    0.000 
#    0.000    0.000    0.000    0.000    0.000    0.000 
#
# Total GULP energy -78142.430449 kJ/mol
# GULP energy per Si atom -5581.602175 kJ/mol
# Density = 2.588273 g / cm^3
# Si number density = 25.941772 Si / 1000 Ang^3
#
#
#
# Elastic Constant Matrix: (Units=GPa)
#
#
# Indices 1 2 3 4 5 6 
#
# 1 180.3367 72.2748 65.0036 0.0000 1.8232 0.0000
# 2 72.2748 186.3434 61.0159 0.0000 12.1680 0.0000
# 3 65.0036 61.0159 71.7303 0.0000 21.9446 0.0000
# 4 0.0000 0.0000 0.0000 42.2251 0.0000 24.4400
# 5 1.8232 12.1680 21.9446 0.0000 28.1001 0.0000
# 6 0.0000 0.0000 0.0000 24.4400 0.0000 11.5241
#
#
#
# Elastic Compliance Matrix: (Units=1/GPa)
#
#
# Indices 1 2 3 4 5 6 
#
# 1 0.009508 -0.000825 -0.010295 0.000000 0.007780 0.000000
# 2 -0.000825 0.007621 -0.006230 0.000000 0.001619 0.000000
# 3 -0.010295 -0.006230 0.036186 0.000000 -0.024893 0.000000
# 4 0.000000 0.000000 0.000000 -0.104093 0.000000 0.220757
# 5 0.007780 0.001619 -0.024893 0.000000 0.053821 0.000000
# 6 0.000000 0.000000 0.000000 0.220757 0.000000 -0.381403
#
#
# Mechanical properties :
#
#
# Convention : Reuss Voigt Hill
#
# Bulk Modulus (GPa) = 53.72106 92.77768 73.24937
# Shear Modulus (GPa) = -14.81676 32.37759 8.78041
#
# Velocity S-wave (km/s) = -2.39248 3.53666 1.84174
# Velocity P-wave (km/s) = 3.62234 7.24698 5.72888
#
# Compressibility (1/GPa) = 0.01861467
#
# Stress axis : x y z
#
# Youngs Moduli (GPa) = 105.17516 131.22283 27.63521
#
# Poissons Ratio (x) = 0.10824 0.28450
# Poissons Ratio (y) = 0.08675 0.17217
# Poissons Ratio (z) = 1.08276 0.81754
#
# Static dielectric constant tensor:
#      x y z
#    x 2.009410 0.000000 0.010490 
#    y 0.000000 2.115140 0.000000 
#    z 0.010490 0.000000 2.185130 
# 
# From -- ./inp_files/45646.got.cif
#   From: 2010.05.17/outbox.cif.g08.bks.cpg/sg5_23_cif.got.tgz:45646.got - 2010.06.03 18:56:24.
