data_PCOD9126543
_publ_section_title
;
Structure prediction by ZEFSAII (Michael W. Deem and Ramdas Pophale) SiO2 
 PCOD9126543
Probable space group: C 2
;
_chemical_formula_sum "Si O2"
_cell_formula_units_Z 24
_cell_length_a 16.657803
_cell_length_b 6.799010
_cell_length_c 10.312732
_cell_angle_alpha 90.000000
_cell_angle_beta 117.658387
_cell_angle_gamma 90.000000
_cell_volume 1034.520207
_symmetry_space_group_name_H-M "C 2"
_symmetry_group_IT_number 5
_symmetry_cell_setting 'monoclinic'
loop_
_space_group_symop_operation_xyz
x,y,z
-x,y,-z
1/2+x,1/2+y,z
1/2-x,1/2+y,-z
loop_
_atom_site_type_symbol
_atom_site_label
_atom_site_fract_x
_atom_site_fract_y
_atom_site_fract_z
Si Si1 0.974934 0.629210 0.704791
Si Si2 0.000000 0.350553 0.500000
Si Si3 0.363954 0.290323 0.015757
Si Si4 0.000000 0.074942 0.000000
Si Si5 0.126617 0.017245 0.475291
Si Si6 0.374754 0.782216 0.746447
Si Si7 0.258416 0.456113 0.183090
O O1 0.025484 0.499911 0.633474
O O2 0.935404 0.834031 0.617945
O O3 0.892379 0.495154 0.695624
O O4 0.049159 0.667498 0.869870
O O5 0.928119 0.200781 0.505546
O O6 0.320485 0.387178 0.111432
O O7 0.411891 0.443110 0.957003
O O8 0.287528 0.161941 0.889093
O O9 0.974948 0.201150 0.855537
O O10 0.189702 0.954627 0.640858
O O11 0.170565 0.122448 0.382460
O O12 0.324269 0.812056 0.844241
#
# Coordination Sequence:
#
# PCOD9126543 Si02
#       7
#     4   2   4   2   4   4   4
#     4  11  23  47  73 104 139 202 247 292 367 456
#     4  10  22  40  76 102 140 186 252 294 356 452
#     4  12  26  46  75 105 153 194 248 307 380 438
#     4  12  24  50  76 102 144 204 258 298 370 464
#     4  11  25  45  73 107 149 196 247 311 372 445
#     4  11  26  45  75 104 145 195 253 305 373 446
#     4  12  28  44  71 113 153 187 247 316 381 431
#
# _framework density 23.199159000000002
#
# number of rings (size 3 to 8) (size 9 to 14) (size 15 to 20)
#    0.000    0.667    1.667    5.500    7.000    0.000 
#    3.000    0.000    0.000    0.000    0.000    0.000 
#    0.000    0.000    0.000    0.000    0.000    0.000 
#
# Total GULP energy -67064.877588 kJ/mol
# GULP energy per Si atom -5588.739799 kJ/mol
# Density = 2.314636 g / cm^3
# Si number density = 23.199159 Si / 1000 Ang^3
#
#
#
# Elastic Constant Matrix: (Units=GPa)
#
#
# Indices 1 2 3 4 5 6 
#
# 1 74.7428 30.2086 2.6583 0.0000 -23.8548 0.0000
# 2 30.2086 119.1422 25.4085 0.0000 -5.5217 0.0000
# 3 2.6583 25.4085 80.4484 0.0000 2.3556 0.0000
# 4 0.0000 0.0000 0.0000 51.2201 0.0000 -7.9857
# 5 -23.8548 -5.5217 2.3556 0.0000 35.1590 0.0000
# 6 0.0000 0.0000 0.0000 -7.9857 0.0000 24.1740
#
#
#
# Elastic Compliance Matrix: (Units=1/GPa)
#
#
# Indices 1 2 3 4 5 6 
#
# 1 0.019009 -0.004337 0.000385 0.000000 0.012190 0.000000
# 2 -0.004337 0.010080 -0.003007 0.000000 -0.001158 0.000000
# 3 0.000385 -0.003007 0.013400 0.000000 -0.001109 0.000000
# 4 0.000000 0.000000 0.000000 0.020584 0.000000 0.006800
# 5 0.012190 -0.001158 -0.001109 0.000000 0.036606 0.000000
# 6 0.000000 0.000000 0.000000 0.006800 0.000000 0.043613
#
#
# Mechanical properties :
#
#
# Convention : Reuss Voigt Hill
#
# Bulk Modulus (GPa) = 34.99968 43.43157 39.21562
# Shear Modulus (GPa) = 29.98808 36.51448 33.25128
#
# Velocity S-wave (km/s) = 3.59923 3.97162 3.79000
# Velocity P-wave (km/s) = 5.69139 6.30821 6.00772
#
# Compressibility (1/GPa) = 0.02857169
#
# Stress axis : x y z
#
# Youngs Moduli (GPa) = 52.60656 99.20186 74.62868
#
# Poissons Ratio (x) = 0.43022 -0.02870
# Poissons Ratio (y) = 0.22814 0.22438
# Poissons Ratio (z) = -0.02023 0.29826
#
# Static dielectric constant tensor:
#      x y z
#    x 1.906360 0.000000 -0.005510 
#    y 0.000000 1.905910 0.000000 
#    z -0.005510 0.000000 1.912570 
# 
# From -- ./inp_files/43819.got.cif
#   From: 2010.05.17/outbox.cif.g08.bks.cpg/sg5_22_cif.got.tgz:43819.got - 2010.06.03 18:56:24.
