data_PCOD9126056
_publ_section_title
;
Structure prediction by ZEFSAII (Michael W. Deem and Ramdas Pophale) SiO2 
 PCOD9126056
Probable space group: C 2
;
_chemical_formula_sum "Si O2"
_cell_formula_units_Z 28
_cell_length_a 9.974890
_cell_length_b 8.728882
_cell_length_c 29.588102
_cell_angle_alpha 90.000000
_cell_angle_beta 33.784919
_cell_angle_gamma 90.000000
_cell_volume 1432.579315
_symmetry_space_group_name_H-M "C 2"
_symmetry_group_IT_number 5
_symmetry_cell_setting 'monoclinic'
loop_
_space_group_symop_operation_xyz
x,y,z
-x,y,-z
1/2+x,1/2+y,z
1/2-x,1/2+y,-z
loop_
_atom_site_type_symbol
_atom_site_label
_atom_site_fract_x
_atom_site_fract_y
_atom_site_fract_z
Si Si1 0.878275 0.795000 0.449676
Si Si2 0.741977 0.380772 0.948368
Si Si3 0.046861 0.141472 0.381571
Si Si4 0.606851 0.770095 0.663639
Si Si5 0.508267 0.062317 0.949867
Si Si6 0.499056 0.719635 0.202284
Si Si7 0.041394 0.622680 0.665164
O O1 0.639393 0.762693 0.544713
O O2 0.856835 0.709090 0.407577
O O3 0.109617 0.729415 0.412204
O O4 0.945978 0.972526 0.422443
O O5 0.883791 0.471846 0.945567
O O6 0.906516 0.347653 0.858813
O O7 0.500000 0.464427 0.000000
O O8 0.640165 0.220664 0.998482
O O9 0.035713 0.160934 0.330728
O O10 0.304090 0.166005 0.333649
O O11 0.525034 0.769305 0.738864
O O12 0.575464 0.940498 0.652943
O O13 0.784562 0.097854 0.860771
O O14 0.500000 0.976421 0.000000
O O15 0.241930 0.661223 0.256359
#
# Coordination Sequence:
#
# PCOD9126056 Si02
#       7
#     4   4   4   4   4   4   4
#     4  10  22  38  56  81 111 145 189 241 287 330
#     4   9  20  39  60  85 116 146 183 229 272 325
#     4  11  22  37  59  82 108 147 193 236 283 335
#     4  10  22  38  55  80 114 149 186 232 283 333
#     4   9  20  38  60  86 114 146 185 227 272 327
#     4   9  21  38  57  83 119 149 180 228 279 330
#     4  10  22  38  55  81 114 146 188 233 280 334
#
# _framework density 19.545165000000001
#
# number of rings (size 3 to 8) (size 9 to 14) (size 15 to 20)
#    0.000    2.571    0.000    1.714    0.000   16.571 
#    0.000    0.000    0.000    0.000    0.000    0.000 
#    0.000    0.000    0.000    0.000    0.000    0.000 
#
# Total GULP energy -78077.365261 kJ/mol
# GULP energy per Si atom -5576.954661 kJ/mol
# Density = 1.950068 g / cm^3
# Si number density = 19.545165 Si / 1000 Ang^3
#
#
#
# Elastic Constant Matrix: (Units=GPa)
#
#
# Indices 1 2 3 4 5 6 
#
# 1 197.4750 54.5565 68.6391 -0.0002 2.6978 0.0001
# 2 54.5565 39.9091 25.5110 0.0002 4.9354 0.0000
# 3 68.6391 25.5110 93.9014 -0.0005 -3.1972 0.0003
# 4 -0.0002 0.0002 -0.0005 -4.8232 0.0001 3.1665
# 5 2.6978 4.9354 -3.1972 0.0001 22.7494 -0.0001
# 6 0.0001 0.0000 0.0003 3.1665 -0.0001 44.0717
#
#
#
# Elastic Compliance Matrix: (Units=1/GPa)
#
#
# Indices 1 2 3 4 5 6 
#
# 1 0.009248 -0.010167 -0.003979 0.000000 0.000550 0.000000
# 2 -0.010167 0.042932 -0.004530 0.000002 -0.008745 0.000000
# 3 -0.003979 -0.004530 0.014910 -0.000001 0.003550 0.000000
# 4 0.000000 0.000002 -0.000001 -0.197993 0.000001 0.014226
# 5 0.000550 -0.008745 0.003550 0.000001 0.046288 0.000000
# 6 0.000000 0.000000 0.000000 0.014226 0.000000 0.021668
#
#
# Mechanical properties :
#
#
# Convention : Reuss Voigt Hill
#
# Bulk Modulus (GPa) = 33.62676 69.85541 51.74109
# Shear Modulus (GPa) = -318.85625 24.57153 -147.14236
#
# Velocity S-wave (km/s) = -12.78641 3.54950 -8.68601
# Velocity P-wave (km/s) = 14.16855 7.25374 8.60613
#
# Compressibility (1/GPa) = 0.02973822
#
# Stress axis : x y z
#
# Youngs Moduli (GPa) = 108.12599 23.29241 67.06966
#
# Poissons Ratio (x) = 0.23681 0.26690
# Poissons Ratio (y) = 1.09932 0.30381
# Poissons Ratio (z) = 0.43029 0.10551
#
# Static dielectric constant tensor:
#      x y z
#    x 1.691890 0.000000 0.005530 
#    y 0.000000 1.694900 0.000000 
#    z 0.005530 0.000000 1.696400 
# 
# From -- ./inp_files/70147.got.cif
#   From: 2010.05.17/outbox.cif.g08.bks.cpg/sg5_36_cif.got.tgz:70147.got - 2010.06.03 18:56:24.
