data_PCOD9126407
_publ_section_title
;
Structure prediction by ZEFSAII (Michael W. Deem and Ramdas Pophale) SiO2 
 PCOD9126407
Probable space group: C 2
;
_chemical_formula_sum "Si O2"
_cell_formula_units_Z 20
_cell_length_a 15.734354
_cell_length_b 6.279437
_cell_length_c 26.029035
_cell_angle_alpha 90.000000
_cell_angle_beta 161.693448
_cell_angle_gamma 90.000000
_cell_volume 807.787345
_symmetry_space_group_name_H-M "C 2"
_symmetry_group_IT_number 5
_symmetry_cell_setting 'monoclinic'
loop_
_space_group_symop_operation_xyz
x,y,z
-x,y,-z
1/2+x,1/2+y,z
1/2-x,1/2+y,-z
loop_
_atom_site_type_symbol
_atom_site_label
_atom_site_fract_x
_atom_site_fract_y
_atom_site_fract_z
Si Si1 0.159326 0.950770 0.363474
Si Si2 0.000000 0.978708 0.000000
Si Si3 0.687964 0.747012 0.284365
Si Si4 0.327708 0.303788 0.257885
Si Si5 0.500000 0.628569 0.500000
Si Si6 0.320250 0.102485 0.969735
O O1 0.364474 0.768263 0.465934
O O2 0.085670 0.923268 0.381027
O O3 0.239448 0.141011 0.369971
O O4 0.855127 0.933956 0.164238
O O5 0.144724 0.815724 0.043750
O O6 0.207283 0.123144 0.151338
O O7 0.855099 0.690918 0.329035
O O8 0.376037 0.674510 0.096415
O O9 0.763094 0.988097 0.339685
O O10 0.102979 0.486639 0.139443
#
# Coordination Sequence:
#
# PCOD9126407 Si02
#       6
#     4   2   4   4   2   4
#     4  10  23  47  62  97 144 169 237 284 322 430
#     4  12  18  38  66 100 140 170 204 284 368 404
#     4  10  26  41  69 100 133 186 228 278 348 411
#     4  12  23  43  72 108 134 180 223 293 365 406
#     4  12  24  50  68  86 142 194 228 286 332 398
#     4  10  22  40  65 105 138 164 226 290 347 413
#
# _framework density 24.758991000000002
#
# number of rings (size 3 to 8) (size 9 to 14) (size 15 to 20)
#    1.200    0.000    4.000    1.800    2.800    1.600 
#    7.200    0.000    0.000    0.000    0.000    0.000 
#    0.000    0.000    0.000    0.000    0.000    0.000 
#
# Total GULP energy -55696.038603 kJ/mol
# GULP energy per Si atom -5569.603860 kJ/mol
# Density = 2.470264 g / cm^3
# Si number density = 24.758991 Si / 1000 Ang^3
#
#
#
# Elastic Constant Matrix: (Units=GPa)
#
#
# Indices 1 2 3 4 5 6 
#
# 1 178.2611 53.6067 32.7968 0.0031 22.9206 0.0017
# 2 53.6067 107.7405 36.5742 0.0042 8.4921 0.0071
# 3 32.7968 36.5742 46.5522 0.0056 3.8721 0.0027
# 4 0.0031 0.0042 0.0056 21.3328 0.0219 14.2437
# 5 22.9206 8.4921 3.8721 0.0219 42.9969 0.0070
# 6 0.0017 0.0071 0.0027 14.2437 0.0070 36.1000
#
#
#
# Elastic Compliance Matrix: (Units=1/GPa)
#
#
# Indices 1 2 3 4 5 6 
#
# 1 0.007275 -0.002347 -0.003020 0.000004 -0.003143 -0.000001
# 2 -0.002347 0.013527 -0.008923 0.000002 -0.000617 -0.000003
# 3 -0.003020 -0.008923 0.030568 -0.000008 0.000620 0.000003
# 4 0.000004 0.000002 -0.000008 0.063642 -0.000030 -0.025111
# 5 -0.003143 -0.000617 0.000620 -0.000030 0.024999 0.000007
# 6 -0.000001 -0.000003 0.000003 -0.025111 0.000007 0.037609
#
#
# Mechanical properties :
#
#
# Convention : Reuss Voigt Hill
#
# Bulk Modulus (GPa) = 43.87873 64.27880 54.07877
# Shear Modulus (GPa) = 23.38673 34.05768 28.72220
#
# Velocity S-wave (km/s) = 3.07673 3.71289 3.40968
# Velocity P-wave (km/s) = 5.51203 6.66325 6.11479
#
# Compressibility (1/GPa) = 0.02279008
#
# Stress axis : x y z
#
# Youngs Moduli (GPa) = 137.45202 73.92708 32.71408
#
# Poissons Ratio (x) = 0.17349 0.09881
# Poissons Ratio (y) = 0.32258 0.29190
# Poissons Ratio (z) = 0.41515 0.65964
#
# Static dielectric constant tensor:
#      x y z
#    x 2.055170 0.000020 -0.022450 
#    y 0.000020 1.995670 -0.000040 
#    z -0.022450 -0.000040 2.145800 
# 
# From -- ./inp_files/70785.got.cif
#   From: 2010.05.17/outbox.cif.g08.bks.cpg/sg5_36_cif.got.tgz:70785.got - 2010.06.03 18:56:24.
