data_PCOD9126189
_publ_section_title
;
Structure prediction by ZEFSAII (Michael W. Deem and Ramdas Pophale) SiO2 
 PCOD9126189
Probable space group: C 2
;
_chemical_formula_sum "Si O2"
_cell_formula_units_Z 28
_cell_length_a 16.897938
_cell_length_b 5.933669
_cell_length_c 15.000719
_cell_angle_alpha 90.000000
_cell_angle_beta 67.644337
_cell_angle_gamma 90.000000
_cell_volume 1391.028440
_symmetry_space_group_name_H-M "C 2"
_symmetry_group_IT_number 5
_symmetry_cell_setting 'monoclinic'
loop_
_space_group_symop_operation_xyz
x,y,z
-x,y,-z
1/2+x,1/2+y,z
1/2-x,1/2+y,-z
loop_
_atom_site_type_symbol
_atom_site_label
_atom_site_fract_x
_atom_site_fract_y
_atom_site_fract_z
Si Si1 0.500000 0.421520 0.000000
Si Si2 0.500000 0.990548 0.500000
Si Si3 0.707630 0.469515 0.499537
Si Si4 0.456652 0.705025 0.853953
Si Si5 0.035358 0.150465 0.635439
Si Si6 0.140857 0.589580 0.001763
Si Si7 0.623455 0.342308 0.356188
Si Si8 0.198987 0.876030 0.137246
O O1 0.493518 0.564968 0.092594
O O2 0.583873 0.272120 0.976798
O O3 0.574041 0.136323 0.422699
O O4 0.543506 0.844387 0.558644
O O5 0.746792 0.217429 0.504433
O O6 0.619113 0.496197 0.592926
O O7 0.682946 0.453419 0.405527
O O8 0.514168 0.743335 0.742355
O O9 0.373238 0.562016 0.857757
O O10 0.422715 0.922056 0.919925
O O11 0.952612 0.010719 0.639135
O O12 0.195286 0.698040 0.058705
O O13 0.206470 0.475820 0.906220
O O14 0.673141 0.281357 0.244539
#
# Coordination Sequence:
#
# PCOD9126189 Si02
#       8
#     2   2   4   4   4   4   4   4
#     4  10  24  40  64  90 138 172 208 268 338 410
#     4  12  18  40  72  94 132 166 242 288 324 404
#     4  12  26  46  65 101 148 176 222 291 356 413
#     4  10  22  42  65  96 127 171 226 267 337 401
#     4  11  23  42  71  93 125 184 230 280 331 418
#     4  11  20  43  63  94 133 166 215 278 329 400
#     4  11  23  42  67  96 127 178 232 275 340 410
#     4  10  22  38  68  97 122 170 223 280 331 387
#
# _framework density 20.128990999999999
#
# number of rings (size 3 to 8) (size 9 to 14) (size 15 to 20)
#    0.000    1.143    4.286    2.143    0.000    1.143 
#    5.143    0.000    0.000    0.000    0.000    0.000 
#    0.000    0.000    0.000    0.000    0.000    0.000 
#
# Total GULP energy -78158.356383 kJ/mol
# GULP energy per Si atom -5582.739742 kJ/mol
# Density = 2.008318 g / cm^3
# Si number density = 20.128991 Si / 1000 Ang^3
#
#
#
# Elastic Constant Matrix: (Units=GPa)
#
#
# Indices 1 2 3 4 5 6 
#
# 1 76.8877 27.7881 33.0633 0.0000 11.4842 0.0001
# 2 27.7881 67.1097 8.0422 -0.0001 9.4232 0.0001
# 3 33.0633 8.0422 84.5215 0.0003 5.1798 -0.0001
# 4 0.0000 -0.0001 0.0003 9.7838 -0.0001 -7.3906
# 5 11.4842 9.4232 5.1798 -0.0001 13.1018 0.0000
# 6 0.0001 0.0001 -0.0001 -7.3906 0.0000 22.4910
#
#
#
# Elastic Compliance Matrix: (Units=1/GPa)
#
#
# Indices 1 2 3 4 5 6 
#
# 1 0.019400 -0.005821 -0.006405 0.000000 -0.010286 0.000000
# 2 -0.005821 0.018384 0.001051 0.000000 -0.008535 0.000000
# 3 -0.006405 0.001051 0.014285 0.000000 -0.000789 0.000000
# 4 0.000000 0.000000 0.000000 0.135957 0.000000 0.044676
# 5 -0.010286 -0.008535 -0.000789 0.000000 0.091792 0.000000
# 6 0.000000 0.000000 0.000000 0.044676 0.000000 0.059143
#
#
# Mechanical properties :
#
#
# Convention : Reuss Voigt Hill
#
# Bulk Modulus (GPa) = 33.64817 40.70066 37.17441
# Shear Modulus (GPa) = 13.46915 19.71701 16.59308
#
# Velocity S-wave (km/s) = 2.58958 3.13314 2.87424
# Velocity P-wave (km/s) = 5.06891 5.77517 5.43353
#
# Compressibility (1/GPa) = 0.02971930
#
# Stress axis : x y z
#
# Youngs Moduli (GPa) = 51.54514 54.39550 70.00276
#
# Poissons Ratio (x) = 0.31665 0.44836
# Poissons Ratio (y) = 0.30006 -0.07357
# Poissons Ratio (z) = 0.33014 -0.05717
#
# Static dielectric constant tensor:
#      x y z
#    x 1.719490 0.000000 -0.001290 
#    y 0.000000 1.754870 0.000000 
#    z -0.001290 0.000000 1.681310 
# 
# From -- ./inp_files/55259.got.cif
#   From: 2010.05.17/outbox.cif.g08.bks.cpg/sg5_28_cif.got.tgz:55259.got - 2010.06.03 18:56:24.
