data_PCOD9126807
_publ_section_title
;
Structure prediction by ZEFSAII (Michael W. Deem and Ramdas Pophale) SiO2 
 PCOD9126807
Probable space group: C 2
;
_chemical_formula_sum "Si O2"
_cell_formula_units_Z 28
_cell_length_a 13.242185
_cell_length_b 9.034535
_cell_length_c 10.838210
_cell_angle_alpha 90.000000
_cell_angle_beta 71.883250
_cell_angle_gamma 90.000000
_cell_volume 1232.369121
_symmetry_space_group_name_H-M "C 2"
_symmetry_group_IT_number 5
_symmetry_cell_setting 'monoclinic'
loop_
_space_group_symop_operation_xyz
x,y,z
-x,y,-z
1/2+x,1/2+y,z
1/2-x,1/2+y,-z
loop_
_atom_site_type_symbol
_atom_site_label
_atom_site_fract_x
_atom_site_fract_y
_atom_site_fract_z
Si Si1 0.576518 0.766600 0.796244
Si Si2 0.363053 0.468706 0.467515
Si Si3 0.500000 0.510273 0.000000
Si Si4 0.698182 0.416585 0.057706
Si Si5 0.075803 0.098070 0.298898
Si Si6 0.500000 0.015874 0.000000
Si Si7 0.651856 0.106934 0.149574
Si Si8 0.796041 0.668142 0.603852
O O1 0.560047 0.621265 0.885631
O O2 0.476234 0.748443 0.738147
O O3 0.687592 0.753693 0.685565
O O4 0.572582 0.904636 0.890557
O O5 0.469301 0.494081 0.345579
O O6 0.380856 0.577941 0.578974
O O7 0.254733 0.526882 0.446041
O O8 0.357313 0.296860 0.507564
O O9 0.414290 0.413456 0.966443
O O10 0.669609 0.534598 0.176305
O O11 0.720234 0.254533 0.097954
O O12 0.781038 0.469420 0.925423
O O13 0.556034 0.104125 0.088673
O O14 0.638005 0.114338 0.301445
#
# Coordination Sequence:
#
# PCOD9126807 Si02
#       8
#     4   4   2   4   4   2   4   4
#     4   9  19  39  64  91 131 166 205 264 324 397
#     4  10  22  42  66  93 129 172 228 263 318 383
#     4   9  17  34  62  94 124 168 204 244 330 398
#     4  11  22  40  66  95 132 169 211 271 335 400
#     4   9  20  40  68  89 126 177 213 257 326 398
#     4  11  25  40  60 102 138 162 212 278 342 390
#     4  12  25  41  64  97 137 166 219 273 339 393
#     4  11  22  44  63  96 126 174 223 271 319 389
#
# _framework density 22.720465000000001
#
# number of rings (size 3 to 8) (size 9 to 14) (size 15 to 20)
#    0.000    1.714    2.857    1.286    4.000    1.143 
#    2.571    0.000    0.000    0.000    0.000    0.000 
#    0.000    0.000    0.000    0.000    0.000    0.000 
#
# Total GULP energy -78045.141756 kJ/mol
# GULP energy per Si atom -5574.652983 kJ/mol
# Density = 2.266875 g / cm^3
# Si number density = 22.720465 Si / 1000 Ang^3
#
#
#
# Elastic Constant Matrix: (Units=GPa)
#
#
# Indices 1 2 3 4 5 6 
#
# 1 76.3915 23.1359 20.3962 0.0000 31.6317 0.0000
# 2 23.1359 58.0392 19.9124 0.0000 18.6305 0.0000
# 3 20.3962 19.9124 77.5194 0.0000 16.3210 0.0000
# 4 0.0000 0.0000 0.0000 25.6815 0.0000 -0.4234
# 5 31.6317 18.6305 16.3210 0.0000 49.4765 0.0000
# 6 0.0000 0.0000 0.0000 -0.4234 0.0000 25.8076
#
#
#
# Elastic Compliance Matrix: (Units=1/GPa)
#
#
# Indices 1 2 3 4 5 6 
#
# 1 0.018869 -0.003635 -0.001912 0.000000 -0.010064 0.000000
# 2 -0.003635 0.021363 -0.003575 0.000000 -0.004541 0.000000
# 3 -0.001912 -0.003575 0.014809 0.000000 -0.002317 0.000000
# 4 0.000000 0.000000 0.000000 0.038949 0.000000 0.000639
# 5 -0.010064 -0.004541 -0.002317 0.000000 0.029120 0.000000
# 6 0.000000 0.000000 0.000000 0.000639 0.000000 0.038759
#
#
# Mechanical properties :
#
#
# Convention : Reuss Voigt Hill
#
# Bulk Modulus (GPa) = 27.17631 37.64881 32.41256
# Shear Modulus (GPa) = 25.99036 30.09349 28.04192
#
# Velocity S-wave (km/s) = 3.38586 3.64333 3.51695
# Velocity P-wave (km/s) = 5.22231 5.85704 5.54876
#
# Compressibility (1/GPa) = 0.03679676
#
# Stress axis : x y z
#
# Youngs Moduli (GPa) = 52.99659 46.80992 67.52601
#
# Poissons Ratio (x) = 0.17016 0.12911
# Poissons Ratio (y) = 0.19265 0.24141
# Poissons Ratio (z) = 0.10133 0.16735
#
# Static dielectric constant tensor:
#      x y z
#    x 1.947220 0.000000 0.043960 
#    y 0.000000 1.829930 0.000000 
#    z 0.043960 0.000000 1.930600 
# 
# From -- ./inp_files/41722.got.cif
#   From: 2010.05.17/outbox.cif.g08.bks.cpg/sg5_21_cif.got.tgz:41722.got - 2010.06.03 18:56:24.
