data_PCOD9126655
_publ_section_title
;
Structure prediction by ZEFSAII (Michael W. Deem and Ramdas Pophale) SiO2 
 PCOD9126655
Probable space group: C 2
;
_chemical_formula_sum "Si O2"
_cell_formula_units_Z 28
_cell_length_a 29.324213
_cell_length_b 9.194313
_cell_length_c 5.327263
_cell_angle_alpha 90.000000
_cell_angle_beta 119.432849
_cell_angle_gamma 90.000000
_cell_volume 1250.933277
_symmetry_space_group_name_H-M "C 2"
_symmetry_group_IT_number 5
_symmetry_cell_setting 'monoclinic'
loop_
_space_group_symop_operation_xyz
x,y,z
-x,y,-z
1/2+x,1/2+y,z
1/2-x,1/2+y,-z
loop_
_atom_site_type_symbol
_atom_site_label
_atom_site_fract_x
_atom_site_fract_y
_atom_site_fract_z
Si Si1 0.341299 0.049600 0.840535
Si Si2 0.874379 0.864777 0.956046
Si Si3 0.251577 0.648566 0.113100
Si Si4 0.853115 0.354927 0.376309
Si Si5 0.814438 0.878932 0.294943
Si Si6 0.511316 0.400306 0.782216
Si Si7 0.030820 0.222453 0.332113
O O1 0.379100 0.190178 0.940356
O O2 0.283772 0.122972 0.734387
O O3 0.349128 0.957658 0.610499
O O4 0.349042 0.947425 0.106583
O O5 0.834206 0.909954 0.627560
O O6 0.857866 0.890992 0.197120
O O7 0.928434 0.944179 0.052190
O O8 0.304422 0.742912 0.272553
O O9 0.270424 0.490626 0.088731
O O10 0.212155 0.722936 0.811585
O O11 0.908998 0.271824 0.516698
O O12 0.500000 0.315377 0.500000
O O13 0.476035 0.545769 0.685822
O O14 0.500000 0.312739 0.000000
O O15 0.000000 0.271617 0.500000
O O16 0.000000 0.273015 0.000000
#
# Coordination Sequence:
#
# PCOD9126655 Si02
#       7
#     4   4   4   4   4   4   4
#     4  11  26  46  68 104 147 189 232 287 363 446
#     4  11  25  44  72 100 142 185 236 293 359 420
#     4  11  26  45  70 106 145 190 236 291 352 441
#     4  12  26  45  72 102 146 190 236 295 363 422
#     4  11  26  42  70 103 143 185 236 288 357 431
#     4  10  22  41  67  99 134 171 236 299 347 411
#     4  10  23  43  67 100 136 173 239 301 352 414
#
# _framework density 22.383286999999999
#
# number of rings (size 3 to 8) (size 9 to 14) (size 15 to 20)
#    0.000    1.143    1.429    3.429   12.000    3.429 
#    0.000    4.286    0.000    0.000    0.000    0.000 
#    0.000    0.000    0.000    0.000    0.000    0.000 
#
# Total GULP energy -78187.421602 kJ/mol
# GULP energy per Si atom -5584.815829 kJ/mol
# Density = 2.233234 g / cm^3
# Si number density = 22.383287 Si / 1000 Ang^3
#
#
#
# Elastic Constant Matrix: (Units=GPa)
#
#
# Indices 1 2 3 4 5 6 
#
# 1 133.4445 42.3238 70.9175 0.0000 5.9431 0.0000
# 2 42.3238 64.9464 18.1167 0.0000 -1.9776 0.0000
# 3 70.9175 18.1167 114.8760 0.0000 -21.3710 0.0000
# 4 0.0000 0.0000 0.0000 12.9130 0.0000 -3.8653
# 5 5.9431 -1.9776 -21.3710 0.0000 47.3756 0.0000
# 6 0.0000 0.0000 0.0000 -3.8653 0.0000 30.4534
#
#
#
# Elastic Compliance Matrix: (Units=1/GPa)
#
#
# Indices 1 2 3 4 5 6 
#
# 1 0.015104 -0.007431 -0.009347 0.000000 -0.006421 0.000000
# 2 -0.007431 0.019773 0.001961 0.000000 0.002642 0.000000
# 3 -0.009347 0.001961 0.015718 0.000000 0.008345 0.000000
# 4 0.000000 0.000000 0.000000 0.080500 0.000000 0.010218
# 5 -0.006421 0.002642 0.008345 0.000000 0.025788 0.000000
# 6 0.000000 0.000000 0.000000 0.010218 0.000000 0.034134
#
#
# Mechanical properties :
#
#
# Convention : Reuss Voigt Hill
#
# Bulk Modulus (GPa) = 47.70728 63.99811 55.85269
# Shear Modulus (GPa) = 21.96453 30.27564 26.12008
#
# Velocity S-wave (km/s) = 3.13596 3.68176 3.41976
# Velocity P-wave (km/s) = 5.87132 6.83577 6.37182
#
# Compressibility (1/GPa) = 0.02096116
#
# Stress axis : x y z
#
# Youngs Moduli (GPa) = 66.20815 50.57279 63.61932
#
# Poissons Ratio (x) = 0.37581 0.59464
# Poissons Ratio (y) = 0.49199 -0.12473
# Poissons Ratio (z) = 0.61884 -0.09915
#
# Static dielectric constant tensor:
#      x y z
#    x 1.887560 0.000000 -0.005210 
#    y 0.000000 1.835880 0.000000 
#    z -0.005210 0.000000 1.894500 
# 
# From -- ./inp_files/11278.got.cif
#   From: 2010.05.17/outbox.cif.g08.bks.cpg/sg5_6_cif.got.tgz:11278.got - 2010.06.03 18:56:24.
