data_PCOD9126370
_publ_section_title
;
Structure prediction by ZEFSAII (Michael W. Deem and Ramdas Pophale) SiO2 
 PCOD9126370
Probable space group: C 2
;
_chemical_formula_sum "Si O2"
_cell_formula_units_Z 28
_cell_length_a 14.877574
_cell_length_b 8.106719
_cell_length_c 11.190459
_cell_angle_alpha 90.000000
_cell_angle_beta 124.924149
_cell_angle_gamma 90.000000
_cell_volume 1106.602557
_symmetry_space_group_name_H-M "C 2"
_symmetry_group_IT_number 5
_symmetry_cell_setting 'monoclinic'
loop_
_space_group_symop_operation_xyz
x,y,z
-x,y,-z
1/2+x,1/2+y,z
1/2-x,1/2+y,-z
loop_
_atom_site_type_symbol
_atom_site_label
_atom_site_fract_x
_atom_site_fract_y
_atom_site_fract_z
Si Si1 0.000000 0.207170 0.000000
Si Si2 0.459179 0.450056 0.757070
Si Si3 0.498558 0.096520 0.762870
Si Si4 0.150672 0.043858 0.777218
Si Si5 0.738764 0.020036 0.671611
Si Si6 0.278866 0.903191 0.083674
Si Si7 0.000000 0.550935 0.500000
Si Si8 0.689641 0.884910 0.267411
O O1 0.894391 0.323752 0.901449
O O2 0.992739 0.089173 0.879269
O O3 0.489646 0.267417 0.824723
O O4 0.521411 0.512494 0.686164
O O5 0.327669 0.443477 0.651723
O O6 0.611353 0.001642 0.867923
O O7 0.504648 0.146207 0.627571
O O8 0.394718 0.978261 0.708890
O O9 0.185081 0.220884 0.853272
O O10 0.218023 0.007384 0.710134
O O11 0.196192 0.914534 0.911172
O O12 0.771592 0.985789 0.834834
O O13 0.614540 0.955319 0.575549
O O14 0.748291 0.215276 0.651925
#
# Coordination Sequence:
#
# PCOD9126370 Si02
#       8
#     2   4   4   4   4   4   2   4
#     4  10  22  40  62  94 136 168 196 246 304 370
#     4  11  22  38  62  94 128 165 203 248 306 375
#     4  11  24  42  63  90 123 165 214 259 303 357
#     4  12  21  35  59  93 132 167 198 243 307 375
#     4  10  22  42  63  88 119 158 208 259 306 361
#     4  11  22  36  58  90 128 170 206 245 299 369
#     4  10  24  46  68  84 116 160 212 272 314 346
#     4  11  22  38  62  94 128 164 203 248 306 375
#
# _framework density 25.302669999999999
#
# number of rings (size 3 to 8) (size 9 to 14) (size 15 to 20)
#    0.000    1.143    0.000    9.429    0.000    2.857 
#    0.000    0.000    0.000   21.429    0.000    0.000 
#    0.000    0.000    0.000    0.000    0.000    0.000 
#
# Total GULP energy -78297.912510 kJ/mol
# GULP energy per Si atom -5592.708036 kJ/mol
# Density = 2.524508 g / cm^3
# Si number density = 25.302670 Si / 1000 Ang^3
#
#
#
# Elastic Constant Matrix: (Units=GPa)
#
#
# Indices 1 2 3 4 5 6 
#
# 1 197.6052 41.6147 16.0210 0.0000 24.6009 0.0000
# 2 41.6147 119.0259 -13.5517 0.0000 -1.7089 0.0000
# 3 16.0210 -13.5517 43.9494 0.0000 0.7122 0.0000
# 4 0.0000 0.0000 0.0000 8.7426 0.0000 -0.4481
# 5 24.6009 -1.7089 0.7122 0.0000 41.3926 0.0000
# 6 0.0000 0.0000 0.0000 -0.4481 0.0000 42.7608
#
#
#
# Elastic Compliance Matrix: (Units=1/GPa)
#
#
# Indices 1 2 3 4 5 6 
#
# 1 0.006335 -0.002618 -0.003055 0.000000 -0.003821 0.000000
# 2 -0.002618 0.009793 0.003943 0.000000 0.001892 0.000000
# 3 -0.003055 0.003943 0.025058 0.000000 0.001547 0.000000
# 4 0.000000 0.000000 0.000000 0.114444 0.000000 0.001199
# 5 -0.003821 0.001892 0.001547 0.000000 0.026481 0.000000
# 6 0.000000 0.000000 0.000000 0.001199 0.000000 0.023398
#
#
# Mechanical properties :
#
#
# Convention : Reuss Voigt Hill
#
# Bulk Modulus (GPa) = 26.50579 49.86094 38.18336
# Shear Modulus (GPa) = 22.56897 39.67900 31.12399
#
# Velocity S-wave (km/s) = 2.98981 3.96431 3.51104
# Velocity P-wave (km/s) = 4.73464 6.37989 5.61782
#
# Compressibility (1/GPa) = 0.03772761
#
# Stress axis : x y z
#
# Youngs Moduli (GPa) = 157.84939 102.11566 39.90790
#
# Poissons Ratio (x) = 0.26730 0.12190
# Poissons Ratio (y) = 0.41318 -0.15736
# Poissons Ratio (z) = 0.48216 -0.40266
#
# Static dielectric constant tensor:
#      x y z
#    x 2.059610 0.000000 0.037560 
#    y 0.000000 1.969460 0.000000 
#    z 0.037560 0.000000 2.062780 
# 
# From -- ./inp_files/41839.got.cif
#   From: 2010.05.17/outbox.cif.g08.bks.cpg/sg5_21_cif.got.tgz:41839.got - 2010.06.03 18:56:24.
