data_PCOD9126738
_publ_section_title
;
Structure prediction by ZEFSAII (Michael W. Deem and Ramdas Pophale) SiO2 
 PCOD9126738
Probable space group: C 2
;
_chemical_formula_sum "Si O2"
_cell_formula_units_Z 30
_cell_length_a 19.394712
_cell_length_b 12.891795
_cell_length_c 5.437927
_cell_angle_alpha 90.000000
_cell_angle_beta 85.370409
_cell_angle_gamma 90.000000
_cell_volume 1355.223180
_symmetry_space_group_name_H-M "C 2"
_symmetry_group_IT_number 5
_symmetry_cell_setting 'monoclinic'
loop_
_space_group_symop_operation_xyz
x,y,z
-x,y,-z
1/2+x,1/2+y,z
1/2-x,1/2+y,-z
loop_
_atom_site_type_symbol
_atom_site_label
_atom_site_fract_x
_atom_site_fract_y
_atom_site_fract_z
Si Si1 0.629381 0.744640 0.652500
Si Si2 0.264853 0.880070 0.111908
Si Si3 0.857470 0.763371 0.020093
Si Si4 0.813298 0.554751 0.820778
Si Si5 0.000000 0.290151 0.000000
Si Si6 0.580422 0.345062 0.518086
Si Si7 0.427852 0.938953 0.626423
Si Si8 0.816350 0.030990 0.490200
O O1 0.698946 0.782027 0.773294
O O2 0.559908 0.725124 0.837572
O O3 0.609508 0.849878 0.520206
O O4 0.650145 0.645209 0.481487
O O5 0.208839 0.838222 0.935650
O O6 0.227515 0.966119 0.294441
O O7 0.322067 0.945958 0.958362
O O8 0.826597 0.649713 0.993617
O O9 0.889579 0.797762 0.746516
O O10 0.904665 0.775603 0.244823
O O11 0.878631 0.539964 0.627745
O O12 0.739620 0.551395 0.709682
O O13 0.956700 0.368199 0.841989
O O14 0.500000 0.362205 0.500000
O O15 0.620160 0.452412 0.568802
O O16 0.500000 0.978491 0.500000
#
# Coordination Sequence:
#
# PCOD9126738 Si02
#       8
#     4   4   4   4   2   4   4   4
#     4  11  22  42  67 102 139 179 235 294 361 434
#     4  11  23  40  67 104 141 174 236 305 361 429
#     4  11  26  45  74 105 141 186 245 294 368 428
#     4  12  23  41  71 103 136 187 236 301 359 437
#     4  10  22  42  62  94 136 180 218 292 350 420
#     4  11  26  52  70 102 147 193 242 299 355 442
#     4  10  23  41  66  97 139 176 227 295 359 432
#     4  11  25  41  71 106 133 191 236 298 365 425
#
# _framework density 22.136576000000002
#
# number of rings (size 3 to 8) (size 9 to 14) (size 15 to 20)
#    0.000    1.067    5.333    0.400    1.867    4.267 
#    4.800    0.000    0.000    0.000    0.000    0.000 
#    0.000    0.000    0.000    0.000    0.000    0.000 
#
# Total GULP energy -83584.889816 kJ/mol
# GULP energy per Si atom -5572.325988 kJ/mol
# Density = 2.208619 g / cm^3
# Si number density = 22.136576 Si / 1000 Ang^3
#
#
#
# Elastic Constant Matrix: (Units=GPa)
#
#
# Indices 1 2 3 4 5 6 
#
# 1 128.7339 29.7004 18.6395 0.0000 25.7571 0.0000
# 2 29.7004 71.7210 1.4843 0.0000 -1.2625 0.0000
# 3 18.6395 1.4843 44.5240 0.0000 23.0008 0.0000
# 4 0.0000 0.0000 0.0000 7.4059 0.0000 8.3076
# 5 25.7571 -1.2625 23.0008 0.0000 31.5739 0.0000
# 6 0.0000 0.0000 0.0000 8.3076 0.0000 10.3587
#
#
#
# Elastic Compliance Matrix: (Units=1/GPa)
#
#
# Indices 1 2 3 4 5 6 
#
# 1 0.010582 -0.004552 0.000441 0.000000 -0.009136 0.000000
# 2 -0.004552 0.015952 -0.001401 0.000000 0.005372 0.000000
# 3 0.000441 -0.001401 0.036135 0.000000 -0.026740 0.000000
# 4 0.000000 0.000000 0.000000 1.345409 0.000000 -1.079008
# 5 -0.009136 0.005372 -0.026740 0.000000 0.058819 0.000000
# 6 0.000000 0.000000 0.000000 -1.079008 0.000000 0.961893
#
#
# Mechanical properties :
#
#
# Convention : Reuss Voigt Hill
#
# Bulk Modulus (GPa) = 19.36299 38.29191 28.82745
# Shear Modulus (GPa) = 2.03498 22.87802 12.45650
#
# Velocity S-wave (km/s) = 0.95983 3.21829 2.37473
# Velocity P-wave (km/s) = 3.16140 5.58081 4.53541
#
# Compressibility (1/GPa) = 0.05164491
#
# Stress axis : x y z
#
# Youngs Moduli (GPa) = 94.49765 62.68977 27.67377
#
# Poissons Ratio (x) = 0.28537 -0.01221
# Poissons Ratio (y) = 0.43017 0.03878
# Poissons Ratio (z) = -0.04170 0.08784
#
# Static dielectric constant tensor:
#      x y z
#    x 2.492980 0.000000 0.019780 
#    y 0.000000 1.767970 0.000000 
#    z 0.019780 0.000000 2.030580 
# 
# From -- ./inp_files/9583.got.cif
#   From: 2010.05.17/outbox.cif.g08.bks.cpg/sg5_5_cif.got.tgz:9583.got - 2010.06.03 18:56:24.
