data_PCOD9126132
_publ_section_title
;
Structure prediction by ZEFSAII (Michael W. Deem and Ramdas Pophale) SiO2 
 PCOD9126132
Probable space group: C 2
;
_chemical_formula_sum "Si O2"
_cell_formula_units_Z 26
_cell_length_a 13.808814
_cell_length_b 22.226138
_cell_length_c 8.564851
_cell_angle_alpha 90.000000
_cell_angle_beta 30.409618
_cell_angle_gamma 90.000000
_cell_volume 1330.589005
_symmetry_space_group_name_H-M "C 2"
_symmetry_group_IT_number 5
_symmetry_cell_setting 'monoclinic'
loop_
_space_group_symop_operation_xyz
x,y,z
-x,y,-z
1/2+x,1/2+y,z
1/2-x,1/2+y,-z
loop_
_atom_site_type_symbol
_atom_site_label
_atom_site_fract_x
_atom_site_fract_y
_atom_site_fract_z
Si Si1 0.301431 0.576190 0.185393
Si Si2 0.000000 0.478396 0.500000
Si Si3 0.842015 0.276046 0.106413
Si Si4 0.505002 0.289970 0.178181
Si Si5 0.536730 0.672266 0.264923
Si Si6 0.880918 0.658802 0.300943
Si Si7 0.641724 0.860179 0.174102
O O1 0.165684 0.519885 0.340297
O O2 0.176221 0.620796 0.468612
O O3 0.500000 0.561763 0.000000
O O4 0.367109 0.611939 0.938517
O O5 0.106119 0.431167 0.236859
O O6 0.672767 0.294076 0.455910
O O7 0.909334 0.335171 0.923154
O O8 0.000000 0.249561 0.000000
O O9 0.828913 0.226086 0.988480
O O10 0.512005 0.216778 0.158876
O O11 0.500000 0.307673 0.000000
O O12 0.658247 0.332733 0.048863
O O13 0.500000 0.672584 0.500000
O O14 0.324000 0.678370 0.485957
O O15 0.000000 0.624916 0.000000
O O16 0.500000 0.832614 0.500000
#
# Coordination Sequence:
#
# PCOD9126132 Si02
#       7
#     4   2   4   4   4   4   4
#     4  10  22  47  71  96 135 176 224 278 337 401
#     4  10  26  46  70  94 130 180 242 280 320 386
#     4  12  21  40  64  98 135 170 209 275 342 406
#     4  11  22  39  67  98 136 170 209 273 346 412
#     4  11  23  39  65 105 141 167 209 276 344 416
#     4  10  22  38  64 104 131 168 214 264 352 413
#     4  10  25  43  60  93 129 174 231 273 324 390
#
# _framework density 19.540219
#
# number of rings (size 3 to 8) (size 9 to 14) (size 15 to 20)
#    0.462    0.923    3.077    2.308    8.615    0.615 
#    0.000    2.308    0.000    0.000    0.000    0.000 
#    0.000    0.000    0.000    0.000    0.000    0.000 
#
# Total GULP energy -72386.542630 kJ/mol
# GULP energy per Si atom -5568.195587 kJ/mol
# Density = 1.949574 g / cm^3
# Si number density = 19.540219 Si / 1000 Ang^3
#
#
#
# Elastic Constant Matrix: (Units=GPa)
#
#
# Indices 1 2 3 4 5 6 
#
# 1 82.0310 50.2799 42.7916 0.0001 21.2347 0.0000
# 2 50.2799 104.6152 37.9666 0.0000 3.9564 0.0000
# 3 42.7916 37.9666 154.5819 0.0003 23.0884 0.0000
# 4 0.0001 0.0000 0.0003 56.3317 -0.0002 -10.9905
# 5 21.2347 3.9564 23.0884 -0.0002 41.8672 0.0000
# 6 0.0000 0.0000 0.0000 -10.9905 0.0000 28.7416
#
#
#
# Elastic Compliance Matrix: (Units=1/GPa)
#
#
# Indices 1 2 3 4 5 6 
#
# 1 0.021150 -0.008981 -0.002369 0.000000 -0.008572 0.000000
# 2 -0.008981 0.014317 -0.001644 0.000000 0.004109 0.000000
# 3 -0.002369 -0.001644 0.007983 0.000000 -0.003046 0.000000
# 4 0.000000 0.000000 0.000000 0.019183 0.000000 0.007335
# 5 -0.008572 0.004109 -0.003046 0.000000 0.029524 0.000000
# 6 0.000000 0.000000 0.000000 0.007335 0.000000 0.037598
#
#
# Mechanical properties :
#
#
# Convention : Reuss Voigt Hill
#
# Bulk Modulus (GPa) = 57.26459 67.03382 62.14920
# Shear Modulus (GPa) = 30.94760 39.40076 35.17418
#
# Velocity S-wave (km/s) = 3.98400 4.49530 4.24735
# Velocity P-wave (km/s) = 7.10863 7.83094 7.47851
#
# Compressibility (1/GPa) = 0.01746280
#
# Stress axis : x y z
#
# Youngs Moduli (GPa) = 47.28114 69.84914 125.26000
#
# Poissons Ratio (x) = 0.62734 0.29669
# Poissons Ratio (y) = 0.42465 0.20590
# Poissons Ratio (z) = 0.11199 0.11481
#
# Static dielectric constant tensor:
#      x y z
#    x 1.746680 0.000000 0.046210 
#    y 0.000000 1.677030 0.000000 
#    z 0.046210 0.000000 1.636280 
# 
# From -- ./inp_files/25396.got.cif
#   From: 2010.05.17/outbox.cif.g08.bks.cpg/sg5_13_cif.got.tgz:25396.got - 2010.06.03 18:56:24.
