data_PCOD9126986
_publ_section_title
;
Structure prediction by ZEFSAII (Michael W. Deem and Ramdas Pophale) SiO2 
 PCOD9126986
Probable space group: C 2
;
_chemical_formula_sum "Si O2"
_cell_formula_units_Z 30
_cell_length_a 9.444043
_cell_length_b 8.308629
_cell_length_c 26.849972
_cell_angle_alpha 90.000000
_cell_angle_beta 35.408745
_cell_angle_gamma 90.000000
_cell_volume 1220.713737
_symmetry_space_group_name_H-M "C 2"
_symmetry_group_IT_number 5
_symmetry_cell_setting 'monoclinic'
loop_
_space_group_symop_operation_xyz
x,y,z
-x,y,-z
1/2+x,1/2+y,z
1/2-x,1/2+y,-z
loop_
_atom_site_type_symbol
_atom_site_label
_atom_site_fract_x
_atom_site_fract_y
_atom_site_fract_z
Si Si1 0.702154 0.149140 0.485151
Si Si2 0.070041 0.959507 0.320692
Si Si3 0.474004 0.944111 0.753187
Si Si4 0.793170 0.485696 0.422372
Si Si5 0.000000 0.703043 0.000000
Si Si6 0.595971 0.315330 0.216321
Si Si7 0.891295 0.738460 0.182553
Si Si8 0.374683 0.974534 0.940093
O O1 0.500000 0.144613 0.500000
O O2 0.830901 0.319141 0.440901
O O3 0.891507 0.010953 0.415408
O O4 0.612449 0.121499 0.566838
O O5 0.308486 0.877166 0.275363
O O6 0.178736 0.124594 0.266014
O O7 0.959726 0.864090 0.306116
O O8 0.404512 0.123890 0.787901
O O9 0.580610 0.964141 0.666878
O O10 0.241792 0.830386 0.823681
O O11 0.500000 0.512069 0.500000
O O12 0.905058 0.562311 0.985665
O O13 0.183998 0.843980 0.972626
O O14 0.465200 0.367086 0.203109
O O15 0.862766 0.387498 0.142235
O O16 0.111845 0.630180 0.100364
#
# Coordination Sequence:
#
# PCOD9126986 Si02
#       8
#     4   4   4   4   2   4   4   4
#     4  11  25  38  59  88 132 181 247 315 388 469
#     4  10  22  43  59  98 134 182 247 308 382 450
#     4  11  23  40  71  96 139 192 249 317 384 463
#     4  11  24  42  59  89 131 186 240 313 385 451
#     4  12  32  54  90 122 170 212 262 318 398 490
#     4  10  26  42  73 106 143 194 244 312 370 469
#     4  10  24  45  72 100 149 188 251 299 379 451
#     4  11  30  52  82 120 162 209 254 319 386 480
#
# _framework density 24.575785
#
# number of rings (size 3 to 8) (size 9 to 14) (size 15 to 20)
#    0.000    1.333    2.667    0.000   14.933    1.600 
#    0.000    0.000    0.000    0.000    0.000    0.000 
#    0.000    0.000    0.000    0.000    0.000    0.000 
#
# Total GULP energy -83575.411330 kJ/mol
# GULP energy per Si atom -5571.694089 kJ/mol
# Density = 2.451985 g / cm^3
# Si number density = 24.575785 Si / 1000 Ang^3
#
#
#
# Elastic Constant Matrix: (Units=GPa)
#
#
# Indices 1 2 3 4 5 6 
#
# 1 122.7123 30.4157 28.6806 0.0001 21.3917 0.0000
# 2 30.4157 66.1261 18.9224 0.0000 3.1876 0.0000
# 3 28.6806 18.9224 34.5339 0.0001 -1.3862 0.0000
# 4 0.0001 0.0000 0.0001 36.5784 0.0000 0.7567
# 5 21.3917 3.1876 -1.3862 0.0000 33.6400 0.0000
# 6 0.0000 0.0000 0.0000 0.7567 0.0000 39.3418
#
#
#
# Elastic Compliance Matrix: (Units=1/GPa)
#
#
# Indices 1 2 3 4 5 6 
#
# 1 0.012325 -0.002686 -0.009084 0.000000 -0.007957 0.000000
# 2 -0.002686 0.018671 -0.008015 0.000000 -0.000391 0.000000
# 3 -0.009084 -0.008015 0.041223 0.000000 0.008234 0.000000
# 4 0.000000 0.000000 0.000000 0.027349 0.000000 -0.000526
# 5 -0.007957 -0.000391 0.008234 0.000000 0.035163 0.000000
# 6 0.000000 0.000000 0.000000 -0.000526 0.000000 0.025428
#
#
# Mechanical properties :
#
#
# Convention : Reuss Voigt Hill
#
# Bulk Modulus (GPa) = 30.62860 42.15664 36.39262
# Shear Modulus (GPa) = 23.74021 31.60227 27.67124
#
# Velocity S-wave (km/s) = 3.11143 3.58985 3.35917
# Velocity P-wave (km/s) = 5.03964 5.86291 5.46679
#
# Compressibility (1/GPa) = 0.03264922
#
# Stress axis : x y z
#
# Youngs Moduli (GPa) = 81.13486 53.56005 24.25804
#
# Poissons Ratio (x) = 0.14387 0.22035
# Poissons Ratio (y) = 0.21795 0.19443
# Poissons Ratio (z) = 0.73700 0.42929
#
# Static dielectric constant tensor:
#      x y z
#    x 2.045840 0.000000 0.039020 
#    y 0.000000 1.988200 0.000000 
#    z 0.039020 0.000000 1.954950 
# 
# From -- ./inp_files/71537.got.cif
#   From: 2010.05.17/outbox.cif.g08.bks.cpg/sg5_36_cif.got.tgz:71537.got - 2010.06.03 18:56:24.
