data_PCOD9126825
_publ_section_title
;
Structure prediction by ZEFSAII (Michael W. Deem and Ramdas Pophale) SiO2 
 PCOD9126825
Probable space group: C 2
;
_chemical_formula_sum "Si O2"
_cell_formula_units_Z 18
_cell_length_a 13.324384
_cell_length_b 8.002077
_cell_length_c 8.999707
_cell_angle_alpha 90.000000
_cell_angle_beta 52.090921
_cell_angle_gamma 90.000000
_cell_volume 757.090748
_symmetry_space_group_name_H-M "C 2"
_symmetry_group_IT_number 5
_symmetry_cell_setting 'monoclinic'
loop_
_space_group_symop_operation_xyz
x,y,z
-x,y,-z
1/2+x,1/2+y,z
1/2-x,1/2+y,-z
loop_
_atom_site_type_symbol
_atom_site_label
_atom_site_fract_x
_atom_site_fract_y
_atom_site_fract_z
Si Si1 0.500000 0.783010 0.500000
Si Si2 0.645185 0.963962 0.902450
Si Si3 0.206797 0.330696 0.555272
Si Si4 0.361311 0.497460 0.197763
Si Si5 0.770586 0.271156 0.900495
O O1 0.590630 0.866763 0.544728
O O2 0.394664 0.698065 0.701936
O O3 0.661137 0.138169 0.972269
O O4 0.713800 0.963889 0.681796
O O5 0.500000 0.928421 0.000000
O O6 0.698412 0.820963 0.961491
O O7 0.334271 0.348534 0.341814
O O8 0.176883 0.161094 0.672950
O O9 0.269644 0.441878 0.146246
O O10 0.500000 0.508995 0.000000
#
# Coordination Sequence:
#
# PCOD9126825 Si02
#       5
#     2   4   4   4   4
#     4  10  22  42  66  98 142 196 236 298 376 446
#     4  12  24  46  75 110 148 199 246 318 377 450
#     4  11  23  45  74 103 151 198 245 314 381 436
#     4  11  25  46  73 110 150 195 256 313 369 461
#     4  11  25  44  73 106 147 193 253 306 381 450
#
# _framework density 23.775220999999998
#
# number of rings (size 3 to 8) (size 9 to 14) (size 15 to 20)
#    0.000    0.889    2.222    5.333    3.111    0.000 
#    0.000    1.111    0.000    0.000    0.000    0.000 
#    0.000    0.000    0.000    0.000    0.000    0.000 
#
# Total GULP energy -50230.560848 kJ/mol
# GULP energy per Si atom -5581.173428 kJ/mol
# Density = 2.372111 g / cm^3
# Si number density = 23.775221 Si / 1000 Ang^3
#
#
#
# Elastic Constant Matrix: (Units=GPa)
#
#
# Indices 1 2 3 4 5 6 
#
# 1 126.9635 49.4554 48.7205 0.0000 40.1718 0.0000
# 2 49.4554 121.4044 36.5380 0.0000 11.8532 0.0000
# 3 48.7205 36.5380 165.8671 0.0000 15.3638 0.0000
# 4 0.0000 0.0000 0.0000 28.1092 0.0000 16.9903
# 5 40.1718 11.8532 15.3638 0.0000 50.4957 0.0000
# 6 0.0000 0.0000 0.0000 16.9903 0.0000 19.7151
#
#
#
# Elastic Compliance Matrix: (Units=1/GPa)
#
#
# Indices 1 2 3 4 5 6 
#
# 1 0.012943 -0.003767 -0.002161 0.000000 -0.008755 0.000000
# 2 -0.003767 0.010034 -0.001197 0.000000 0.001006 0.000000
# 3 -0.002161 -0.001197 0.006938 0.000000 -0.000111 0.000000
# 4 0.000000 0.000000 0.000000 0.074254 0.000000 -0.063992
# 5 -0.008755 0.001006 -0.000111 0.000000 0.026566 0.000000
# 6 0.000000 0.000000 0.000000 -0.063992 0.000000 0.105870
#
#
# Mechanical properties :
#
#
# Convention : Reuss Voigt Hill
#
# Bulk Modulus (GPa) = 63.84085 75.96255 69.90170
# Shear Modulus (GPa) = 19.52544 38.29875 28.91210
#
# Velocity S-wave (km/s) = 2.86886 4.01792 3.49099
# Velocity P-wave (km/s) = 6.15499 7.31741 6.76123
#
# Compressibility (1/GPa) = 0.01566395
#
# Stress axis : x y z
#
# Youngs Moduli (GPa) = 77.26097 99.66512 144.14270
#
# Poissons Ratio (x) = 0.37548 0.31149
# Poissons Ratio (y) = 0.29107 0.17252
# Poissons Ratio (z) = 0.16696 0.11928
#
# Static dielectric constant tensor:
#      x y z
#    x 1.910770 0.000000 -0.041880 
#    y 0.000000 2.019730 0.000000 
#    z -0.041880 0.000000 1.986260 
# 
# From -- ./inp_files/18210.got.cif
#   From: 2010.05.17/outbox.cif.g08.bks.cpg/sg5_10_cif.got.tgz:18210.got - 2010.06.03 18:56:24.
