data_PCOD9126984
_publ_section_title
;
Structure prediction by ZEFSAII (Michael W. Deem and Ramdas Pophale) SiO2 
 PCOD9126984
Probable space group: C 2
;
_chemical_formula_sum "Si O2"
_cell_formula_units_Z 20
_cell_length_a 5.095690
_cell_length_b 19.517565
_cell_length_c 8.933741
_cell_angle_alpha 90.000000
_cell_angle_beta 88.859359
_cell_angle_gamma 90.000000
_cell_volume 888.333264
_symmetry_space_group_name_H-M "C 2"
_symmetry_group_IT_number 5
_symmetry_cell_setting 'monoclinic'
loop_
_space_group_symop_operation_xyz
x,y,z
-x,y,-z
1/2+x,1/2+y,z
1/2-x,1/2+y,-z
loop_
_atom_site_type_symbol
_atom_site_label
_atom_site_fract_x
_atom_site_fract_y
_atom_site_fract_z
Si Si1 0.880175 0.297230 0.670411
Si Si2 0.555076 0.953819 0.321108
Si Si3 0.000000 0.717070 0.500000
Si Si4 0.071417 0.031246 0.190198
Si Si5 0.832656 0.167969 0.252612
Si Si6 0.000000 0.598315 0.000000
O O1 0.887001 0.374859 0.721932
O O2 0.598264 0.265198 0.634279
O O3 0.000000 0.297469 0.500000
O O4 0.033655 0.242178 0.769083
O O5 0.500000 0.958091 0.500000
O O6 0.282990 0.980497 0.259236
O O7 0.794624 0.998325 0.250630
O O8 0.211361 0.670032 0.418899
O O9 0.049632 0.108993 0.248979
O O10 0.247108 0.049844 0.037940
O O11 0.617526 0.145604 0.131559
#
# Coordination Sequence:
#
# PCOD9126984 Si02
#       6
#     4   4   2   4   4   2
#     4   9  22  41  70 108 148 183 232 302 369 434
#     4  11  26  43  74 112 150 182 236 302 373 428
#     4  10  22  42  76 112 144 180 240 306 364 434
#     4  12  26  45  73 100 146 195 240 291 360 428
#     4  11  24  44  76 103 147 190 243 300 361 428
#     4  12  26  50  72 102 146 200 246 304 348 434
#
# _framework density 22.514074000000001
#
# number of rings (size 3 to 8) (size 9 to 14) (size 15 to 20)
#    0.000    1.200    2.000    2.400    9.800    4.800 
#    0.000    0.000   13.200    0.000    0.000    0.000 
#    0.000    0.000    0.000    0.000    0.000    0.000 
#
# Total GULP energy -55684.234714 kJ/mol
# GULP energy per Si atom -5568.423471 kJ/mol
# Density = 2.246283 g / cm^3
# Si number density = 22.514074 Si / 1000 Ang^3
#
#
#
# Elastic Constant Matrix: (Units=GPa)
#
#
# Indices 1 2 3 4 5 6 
#
# 1 105.2317 23.9921 21.3057 0.0000 -23.2666 0.0000
# 2 23.9921 133.3040 65.2128 0.0000 -15.6039 0.0000
# 3 21.3057 65.2128 63.9035 0.0000 -13.9127 0.0000
# 4 0.0000 0.0000 0.0000 21.4053 0.0000 0.7691
# 5 -23.2666 -15.6039 -13.9127 0.0000 33.4223 0.0000
# 6 0.0000 0.0000 0.0000 0.7691 0.0000 21.2651
#
#
#
# Elastic Compliance Matrix: (Units=1/GPa)
#
#
# Indices 1 2 3 4 5 6 
#
# 1 0.011536 -0.000240 -0.002064 0.000000 0.007060 0.000000
# 2 -0.000240 0.015000 -0.015108 0.000000 0.000547 0.000000
# 3 -0.002064 -0.015108 0.032886 0.000000 0.005199 0.000000
# 4 0.000000 0.000000 0.000000 0.046778 0.000000 -0.001692
# 5 0.007060 0.000547 0.005199 0.000000 0.037254 0.000000
# 6 0.000000 0.000000 0.000000 -0.001692 0.000000 0.047087
#
#
# Mechanical properties :
#
#
# Convention : Reuss Voigt Hill
#
# Bulk Modulus (GPa) = 40.65432 58.16226 49.40829
# Shear Modulus (GPa) = 21.40731 28.01379 24.71055
#
# Velocity S-wave (km/s) = 3.08692 3.53126 3.31654
# Velocity P-wave (km/s) = 5.54995 6.52045 6.05467
#
# Compressibility (1/GPa) = 0.02459763
#
# Stress axis : x y z
#
# Youngs Moduli (GPa) = 86.68230 66.66780 30.40783
#
# Poissons Ratio (x) = 0.01601 0.06277
# Poissons Ratio (y) = 0.02081 0.45940
# Poissons Ratio (z) = 0.17894 1.00722
#
# Static dielectric constant tensor:
#      x y z
#    x 2.027670 0.000000 0.150660 
#    y 0.000000 1.787760 0.000000 
#    z 0.150660 0.000000 2.153950 
# 
# From -- ./inp_files/12058.got.cif
#   From: 2010.05.17/outbox.cif.g08.bks.cpg/sg5_7_cif.got.tgz:12058.got - 2010.06.03 18:56:24.
