data_PCOD9126902
_publ_section_title
;
Structure prediction by ZEFSAII (Michael W. Deem and Ramdas Pophale) SiO2 
 PCOD9126902
Probable space group: C 2
;
_chemical_formula_sum "Si O2"
_cell_formula_units_Z 30
_cell_length_a 11.695050
_cell_length_b 8.844702
_cell_length_c 26.232384
_cell_angle_alpha 90.000000
_cell_angle_beta 30.616489
_cell_angle_gamma 90.000000
_cell_volume 1381.934423
_symmetry_space_group_name_H-M "C 2"
_symmetry_group_IT_number 5
_symmetry_cell_setting 'monoclinic'
loop_
_space_group_symop_operation_xyz
x,y,z
-x,y,-z
1/2+x,1/2+y,z
1/2-x,1/2+y,-z
loop_
_atom_site_type_symbol
_atom_site_label
_atom_site_fract_x
_atom_site_fract_y
_atom_site_fract_z
Si Si1 0.184412 0.083720 0.515722
Si Si2 0.504997 0.881608 0.554857
Si Si3 0.972998 0.884029 0.241142
Si Si4 0.442646 0.287918 0.140478
Si Si5 0.746108 0.522303 0.997276
Si Si6 0.552714 0.672888 0.678430
Si Si7 0.452388 0.771518 0.075427
Si Si8 0.000000 0.871298 0.500000
O O1 0.187739 0.250920 0.491386
O O2 0.072931 0.096854 0.614448
O O3 0.428671 0.011918 0.431651
O O4 0.053161 0.976335 0.527853
O O5 0.500000 0.943167 0.500000
O O6 0.265511 0.806604 0.656252
O O7 0.956243 0.046232 0.274514
O O8 0.981347 0.884955 0.176909
O O9 0.189342 0.800867 0.180341
O O10 0.566011 0.126688 0.103138
O O11 0.181603 0.263944 0.229952
O O12 0.583276 0.381445 0.043916
O O13 0.914029 0.430648 0.970650
O O14 0.557450 0.654172 0.075326
O O15 0.776426 0.773793 0.596249
O O16 0.500000 0.711684 0.000000
#
# Coordination Sequence:
#
# PCOD9126902 Si02
#       8
#     4   4   4   4   4   4   4   2
#     4  12  24  44  70  97 139 185 231 291 342 410
#     4  12  25  43  68 103 139 188 237 282 347 411
#     4  12  23  42  73  93 137 186 230 275 354 416
#     4  11  23  45  70 101 137 179 235 287 350 421
#     4  10  22  42  69  96 132 174 223 287 347 406
#     4  12  25  44  68 103 141 182 227 290 347 422
#     4  11  22  44  69  95 134 177 224 288 348 415
#     4  12  26  44  70 104 144 178 238 290 352 408
#
# _framework density 21.7087
#
# number of rings (size 3 to 8) (size 9 to 14) (size 15 to 20)
#    0.000    0.533    8.667    0.800    0.000    1.067 
#    4.800    5.333    0.000    0.000    0.000    0.000 
#    0.000    0.000    0.000    0.000    0.000    0.000 
#
# Total GULP energy -83552.504045 kJ/mol
# GULP energy per Si atom -5570.166936 kJ/mol
# Density = 2.165929 g / cm^3
# Si number density = 21.708700 Si / 1000 Ang^3
#
#
#
# Elastic Constant Matrix: (Units=GPa)
#
#
# Indices 1 2 3 4 5 6 
#
# 1 102.3433 46.2372 19.1262 0.0000 -19.0799 0.0000
# 2 46.2372 82.7433 16.0301 -0.0001 -13.2283 0.0000
# 3 19.1262 16.0301 90.9407 -0.0009 -39.5576 0.0000
# 4 0.0000 -0.0001 -0.0009 30.5252 -0.0001 -2.5536
# 5 -19.0799 -13.2283 -39.5576 -0.0001 43.3454 0.0000
# 6 0.0000 0.0000 0.0000 -2.5536 0.0000 38.0599
#
#
#
# Elastic Compliance Matrix: (Units=1/GPa)
#
#
# Indices 1 2 3 4 5 6 
#
# 1 0.013663 -0.007020 0.000080 0.000000 0.003945 0.000000
# 2 -0.007020 0.016358 -0.000961 0.000000 0.001025 0.000000
# 3 0.000080 -0.000961 0.018302 0.000001 0.016444 0.000000
# 4 0.000000 0.000000 0.000001 0.032945 0.000001 0.002210
# 5 0.003945 0.001025 0.016444 0.000001 0.040127 0.000000
# 6 0.000000 0.000000 0.000000 0.002210 0.000000 0.026423
#
#
# Mechanical properties :
#
#
# Convention : Reuss Voigt Hill
#
# Bulk Modulus (GPa) = 30.74984 48.75715 39.75350
# Shear Modulus (GPa) = 28.65989 35.36170 32.01079
#
# Velocity S-wave (km/s) = 3.63740 4.04036 3.84417
# Velocity P-wave (km/s) = 5.64238 6.65391 6.16891
#
# Compressibility (1/GPa) = 0.03252049
#
# Stress axis : x y z
#
# Youngs Moduli (GPa) = 73.19080 61.13106 54.63957
#
# Poissons Ratio (x) = 0.42912 -0.00435
# Poissons Ratio (y) = 0.51378 0.05252
# Poissons Ratio (z) = -0.00583 0.05876
#
# Static dielectric constant tensor:
#      x y z
#    x 1.803320 0.000000 0.017510 
#    y 0.000000 1.813380 0.000000 
#    z 0.017510 0.000000 1.881100 
# 
# From -- ./inp_files/71690.got.cif
#   From: 2010.05.17/outbox.cif.g08.bks.cpg/sg5_36_cif.got.tgz:71690.got - 2010.06.03 18:56:24.
