data_PCOD9126270
_publ_section_title
;
Structure prediction by ZEFSAII (Michael W. Deem and Ramdas Pophale) SiO2 
 PCOD9126270
Probable space group: C 2
;
_chemical_formula_sum "Si O2"
_cell_formula_units_Z 30
_cell_length_a 9.412178
_cell_length_b 11.097421
_cell_length_c 15.416903
_cell_angle_alpha 90.000000
_cell_angle_beta 58.670062
_cell_angle_gamma 90.000000
_cell_volume 1375.505786
_symmetry_space_group_name_H-M "C 2"
_symmetry_group_IT_number 5
_symmetry_cell_setting 'monoclinic'
loop_
_space_group_symop_operation_xyz
x,y,z
-x,y,-z
1/2+x,1/2+y,z
1/2-x,1/2+y,-z
loop_
_atom_site_type_symbol
_atom_site_label
_atom_site_fract_x
_atom_site_fract_y
_atom_site_fract_z
Si Si1 0.121559 0.966140 0.669766
Si Si2 0.871905 0.353130 0.463655
Si Si3 0.790666 0.873345 0.751039
Si Si4 0.826671 0.683287 0.593601
Si Si5 0.117474 0.837109 0.844103
Si Si6 0.000000 0.050159 0.000000
Si Si7 0.458000 0.935943 0.764074
Si Si8 0.833782 0.680842 0.883554
O O1 0.223073 0.931363 0.551744
O O2 0.140008 0.859507 0.733986
O O3 0.925508 0.979373 0.717068
O O4 0.214878 0.083008 0.674976
O O5 0.786657 0.237485 0.447020
O O6 0.000000 0.325314 0.500000
O O7 0.967618 0.420889 0.355770
O O8 0.860185 0.789123 0.651244
O O9 0.607442 0.908952 0.781888
O O10 0.789045 0.794771 0.838099
O O11 0.000000 0.637076 0.500000
O O12 0.304134 0.842214 0.822829
O O13 0.038039 0.958503 0.909202
O O14 0.985284 0.728994 0.895762
O O15 0.160286 0.129353 0.974560
O O16 0.399775 0.070615 0.803818
#
# Coordination Sequence:
#
# PCOD9126270 Si02
#       8
#     4   4   4   4   4   2   4   4
#     4  11  22  39  61  87 125 169 211 253 300 364
#     4  11  22  38  57  92 128 171 215 249 295 367
#     4  10  23  41  59  92 124 162 217 254 295 371
#     4  11  22  37  58  85 125 172 208 256 301 346
#     4  10  22  42  66  95 125 156 212 258 311 385
#     4  10  22  42  66  98 118 160 200 262 326 378
#     4  10  22  39  64  92 131 166 207 253 303 360
#     4  10  23  43  69  90 126 164 199 260 322 369
#
# _framework density 21.81016
#
# number of rings (size 3 to 8) (size 9 to 14) (size 15 to 20)
#    0.000    1.600    2.667    2.000    1.867    4.267 
#    4.800    2.667    0.000    0.000    0.000    0.000 
#    0.000    0.000    0.000    0.000    0.000    0.000 
#
# Total GULP energy -83758.038721 kJ/mol
# GULP energy per Si atom -5583.869248 kJ/mol
# Density = 2.176052 g / cm^3
# Si number density = 21.810160 Si / 1000 Ang^3
#
#
#
# Elastic Constant Matrix: (Units=GPa)
#
#
# Indices 1 2 3 4 5 6 
#
# 1 137.0340 31.6697 29.9511 0.0000 -36.1771 0.0000
# 2 31.6697 53.9060 20.5883 0.0000 -19.9689 0.0000
# 3 29.9511 20.5883 67.5338 0.0000 -28.7397 0.0000
# 4 0.0000 0.0000 0.0000 30.6600 0.0000 -4.9777
# 5 -36.1771 -19.9689 -28.7397 0.0000 38.2395 0.0000
# 6 0.0000 0.0000 0.0000 -4.9777 0.0000 37.6162
#
#
#
# Elastic Compliance Matrix: (Units=1/GPa)
#
#
# Indices 1 2 3 4 5 6 
#
# 1 0.010098 -0.002936 -0.000250 0.000000 0.007833 0.000000
# 2 -0.002936 0.024218 -0.002766 0.000000 0.007791 0.000000
# 3 -0.000250 -0.002766 0.022121 0.000000 0.014945 0.000000
# 4 0.000000 0.000000 0.000000 0.033332 0.000000 0.004411
# 5 0.007833 0.007791 0.014945 0.000000 0.048861 0.000000
# 6 0.000000 0.000000 0.000000 0.004411 0.000000 0.027168
#
#
# Mechanical properties :
#
#
# Convention : Reuss Voigt Hill
#
# Bulk Modulus (GPa) = 22.45468 46.98798 34.72133
# Shear Modulus (GPa) = 25.96767 33.05413 29.51090
#
# Velocity S-wave (km/s) = 3.45428 3.89721 3.68241
# Velocity P-wave (km/s) = 5.12126 6.46853 5.83392
#
# Compressibility (1/GPa) = 0.04453414
#
# Stress axis : x y z
#
# Youngs Moduli (GPa) = 99.02510 41.29195 45.20499
#
# Poissons Ratio (x) = 0.12122 0.01132
# Poissons Ratio (y) = 0.29071 0.12502
# Poissons Ratio (z) = 0.02480 0.11420
#
# Static dielectric constant tensor:
#      x y z
#    x 1.832140 0.000000 -0.006210 
#    y 0.000000 1.809100 0.000000 
#    z -0.006210 0.000000 1.806600 
# 
# From -- ./inp_files/59573.got.cif
#   From: 2010.05.17/outbox.cif.g08.bks.cpg/sg5_30_cif.got.tgz:59573.got - 2010.06.03 18:56:24.
