data_PCOD9126459
_publ_section_title
;
Structure prediction by ZEFSAII (Michael W. Deem and Ramdas Pophale) SiO2 
 PCOD9126459
Probable space group: C 2
;
_chemical_formula_sum "Si O2"
_cell_formula_units_Z 26
_cell_length_a 20.461448
_cell_length_b 10.985384
_cell_length_c 5.005719
_cell_angle_alpha 90.000000
_cell_angle_beta 108.846320
_cell_angle_gamma 90.000000
_cell_volume 1064.847684
_symmetry_space_group_name_H-M "C 2"
_symmetry_group_IT_number 5
_symmetry_cell_setting 'monoclinic'
loop_
_space_group_symop_operation_xyz
x,y,z
-x,y,-z
1/2+x,1/2+y,z
1/2-x,1/2+y,-z
loop_
_atom_site_type_symbol
_atom_site_label
_atom_site_fract_x
_atom_site_fract_y
_atom_site_fract_z
Si Si1 0.366381 0.337410 0.061312
Si Si2 0.927455 0.040733 0.784779
Si Si3 0.000000 0.849027 0.500000
Si Si4 0.151516 0.254573 0.610822
Si Si5 0.648461 0.084372 0.078655
Si Si6 0.074132 0.498810 0.477900
Si Si7 0.766951 0.348193 0.775198
O O1 0.441324 0.286687 0.251608
O O2 0.339982 0.225429 0.848219
O O3 0.310929 0.346695 0.223842
O O4 0.381791 0.467435 0.943697
O O5 0.956550 0.933793 0.638550
O O6 0.883201 0.131950 0.545528
O O7 0.000000 0.095904 0.000000
O O8 0.091333 0.356097 0.520238
O O9 0.208847 0.295873 0.473470
O O10 0.186760 0.272008 0.946737
O O11 0.629968 0.063084 0.744255
O O12 0.587754 0.039540 0.194411
O O13 0.710447 0.990149 0.206749
O O14 0.000000 0.524454 0.500000
#
# Coordination Sequence:
#
# PCOD9126459 Si02
#       7
#     4   4   2   4   4   4   4
#     4  11  26  45  70 101 141 190 232 298 350 428
#     4  10  25  43  69 104 140 188 236 294 354 419
#     4  10  26  44  66 104 136 186 242 274 364 418
#     4  10  24  44  69 104 138 178 238 285 353 415
#     4  10  24  42  65 101 136 177 235 278 349 418
#     4  10  22  40  67  99 134 180 223 287 344 407
#     4  10  25  45  70 105 135 186 233 289 358 414
#
# _framework density 24.416637999999999
#
# number of rings (size 3 to 8) (size 9 to 14) (size 15 to 20)
#    0.000    1.846    0.000    0.462   12.923    4.923 
#    2.769    0.000    0.000    0.000    0.000    0.000 
#    0.000    0.000    0.000    0.000    0.000    0.000 
#
# Total GULP energy -72687.679633 kJ/mol
# GULP energy per Si atom -5591.359972 kJ/mol
# Density = 2.436106 g / cm^3
# Si number density = 24.416638 Si / 1000 Ang^3
#
#
#
# Elastic Constant Matrix: (Units=GPa)
#
#
# Indices 1 2 3 4 5 6 
#
# 1 110.6977 34.1073 -4.6054 0.0000 4.0426 0.0000
# 2 34.1073 100.0684 14.6461 0.0000 21.2639 0.0000
# 3 -4.6054 14.6461 75.8187 0.0000 5.5238 0.0000
# 4 0.0000 0.0000 0.0000 -2.6453 0.0000 -10.1430
# 5 4.0426 21.2639 5.5238 0.0000 40.4676 0.0000
# 6 0.0000 0.0000 0.0000 -10.1430 0.0000 -5.8659
#
#
#
# Elastic Compliance Matrix: (Units=1/GPa)
#
#
# Indices 1 2 3 4 5 6 
#
# 1 0.010247 -0.003859 0.001308 0.000000 0.000826 0.000000
# 2 -0.003859 0.012940 -0.002290 0.000000 -0.006101 0.000000
# 3 0.001308 -0.002290 0.013770 0.000000 -0.000807 0.000000
# 4 0.000000 0.000000 0.000000 0.067144 0.000000 -0.116101
# 5 0.000826 -0.006101 -0.000807 0.000000 0.027945 0.000000
# 6 0.000000 0.000000 0.000000 -0.116101 0.000000 0.030280
#
#
# Mechanical properties :
#
#
# Convention : Reuss Voigt Hill
#
# Bulk Modulus (GPa) = 36.66419 41.65344 39.15882
# Shear Modulus (GPa) = 27.60910 22.55372 25.08141
#
# Velocity S-wave (km/s) = 3.36631 3.04255 3.20851
# Velocity P-wave (km/s) = 5.49164 5.42580 5.45881
#
# Compressibility (1/GPa) = 0.02727457
#
# Stress axis : x y z
#
# Youngs Moduli (GPa) = 97.58944 77.27828 72.62222
#
# Poissons Ratio (x) = 0.29825 -0.09498
# Poissons Ratio (y) = 0.37664 0.16628
# Poissons Ratio (z) = -0.12763 0.17694
#
# Static dielectric constant tensor:
#      x y z
#    x 1.892070 0.000000 0.050380 
#    y 0.000000 1.967310 0.000000 
#    z 0.050380 0.000000 2.040750 
# 
# From -- ./inp_files/9483.got.cif
#   From: 2010.05.17/outbox.cif.g08.bks.cpg/sg5_5_cif.got.tgz:9483.got - 2010.06.03 18:56:24.
