data_PCOD9126119
_publ_section_title
;
Structure prediction by ZEFSAII (Michael W. Deem and Ramdas Pophale) SiO2 
 PCOD9126119
Probable space group: C 2
;
_chemical_formula_sum "Si O2"
_cell_formula_units_Z 24
_cell_length_a 14.875236
_cell_length_b 5.207824
_cell_length_c 23.242652
_cell_angle_alpha 90.000000
_cell_angle_beta 148.379819
_cell_angle_gamma 90.000000
_cell_volume 944.004357
_symmetry_space_group_name_H-M "C 2"
_symmetry_group_IT_number 5
_symmetry_cell_setting 'monoclinic'
loop_
_space_group_symop_operation_xyz
x,y,z
-x,y,-z
1/2+x,1/2+y,z
1/2-x,1/2+y,-z
loop_
_atom_site_type_symbol
_atom_site_label
_atom_site_fract_x
_atom_site_fract_y
_atom_site_fract_z
Si Si1 0.804258 0.201640 0.822129
Si Si2 0.167986 0.736519 0.632503
Si Si3 0.314303 0.873785 0.561176
Si Si4 0.858745 0.223602 0.074123
Si Si5 0.204453 0.229070 0.608027
Si Si6 0.674663 0.719316 0.808203
O O1 0.655258 0.167361 0.692083
O O2 0.759383 0.451975 0.834958
O O3 0.974487 0.215658 0.876161
O O4 0.799181 0.954079 0.859834
O O5 0.274792 0.507394 0.661115
O O6 0.000000 0.769533 0.500000
O O7 0.249053 0.020243 0.680300
O O8 0.212594 0.598151 0.502073
O O9 0.503304 0.772174 0.677352
O O10 0.255014 0.066606 0.580055
O O11 0.877816 0.230792 0.153753
O O12 0.751509 0.472811 0.999035
O O13 0.000000 0.272721 0.500000
#
# Coordination Sequence:
#
# PCOD9126119 Si02
#       6
#     4   4   4   4   4   4
#     4  12  27  49  82 116 162 204 262 331 399 476
#     4  10  22  38  69 102 144 206 255 296 370 457
#     4  12  27  43  68 109 160 208 258 323 374 458
#     4  12  29  55  86 116 156 203 262 346 413 467
#     4  10  22  38  63  91 137 204 265 296 357 437
#     4  12  29  49  78 122 157 203 277 322 395 487
#
# _framework density 25.423611999999999
#
# number of rings (size 3 to 8) (size 9 to 14) (size 15 to 20)
#    0.000    0.667    0.000    6.000   14.000    6.667 
#    0.000    0.000    0.000    0.000    0.000    0.000 
#    0.000    0.000    0.000    0.000    0.000    0.000 
#
# Total GULP energy -67038.303883 kJ/mol
# GULP energy per Si atom -5586.525324 kJ/mol
# Density = 2.536575 g / cm^3
# Si number density = 25.423612 Si / 1000 Ang^3
#
#
#
# Elastic Constant Matrix: (Units=GPa)
#
#
# Indices 1 2 3 4 5 6 
#
# 1 136.8360 53.0639 38.5923 -0.0004 13.5608 0.0008
# 2 53.0639 226.7963 57.3565 -0.0008 6.6766 0.0045
# 3 38.5923 57.3565 78.1253 0.0002 15.4011 0.0000
# 4 -0.0004 -0.0008 0.0002 24.8357 -0.0001 -6.8747
# 5 13.5608 6.6766 15.4011 -0.0001 43.2767 -0.0004
# 6 0.0008 0.0045 0.0000 -6.8747 -0.0004 58.0933
#
#
#
# Elastic Compliance Matrix: (Units=1/GPa)
#
#
# Indices 1 2 3 4 5 6 
#
# 1 0.008820 -0.001217 -0.003178 0.000000 -0.001445 0.000000
# 2 -0.001217 0.005598 -0.003671 0.000000 0.000824 0.000000
# 3 -0.003178 -0.003671 0.018021 0.000000 -0.004851 0.000000
# 4 0.000000 0.000000 0.000000 0.041628 0.000000 0.004926
# 5 -0.001445 0.000824 -0.004851 0.000000 0.025159 0.000000
# 6 0.000000 0.000000 0.000000 0.004926 0.000000 0.017797
#
#
# Mechanical properties :
#
#
# Convention : Reuss Voigt Hill
#
# Bulk Modulus (GPa) = 61.32719 82.19813 71.76266
# Shear Modulus (GPa) = 36.07714 44.75747 40.41730
#
# Velocity S-wave (km/s) = 3.77110 4.20035 3.99150
# Velocity P-wave (km/s) = 6.56781 7.47833 7.03781
#
# Compressibility (1/GPa) = 0.01630598
#
# Stress axis : x y z
#
# Youngs Moduli (GPa) = 113.38377 178.62840 55.48929
#
# Poissons Ratio (x) = 0.21743 0.17636
# Poissons Ratio (y) = 0.13801 0.20371
# Poissons Ratio (z) = 0.36036 0.65578
#
# Static dielectric constant tensor:
#      x y z
#    x 1.354320 -0.000010 -0.349790 
#    y -0.000010 2.046090 0.000000 
#    z -0.349790 0.000000 2.021690 
# 
# From -- ./inp_files/68506.got.cif
#   From: 2010.05.17/outbox.cif.g08.bks.cpg/sg5_35_cif.got.tgz:68506.got - 2010.06.03 18:56:24.
