data_PCOD9126659
_publ_section_title
;
Structure prediction by ZEFSAII (Michael W. Deem and Ramdas Pophale) SiO2 
 PCOD9126659
Probable space group: C 2
;
_chemical_formula_sum "Si O2"
_cell_formula_units_Z 16
_cell_length_a 7.117875
_cell_length_b 20.024879
_cell_length_c 5.255306
_cell_angle_alpha 90.000000
_cell_angle_beta 110.560679
_cell_angle_gamma 90.000000
_cell_volume 701.348141
_symmetry_space_group_name_H-M "C 2"
_symmetry_group_IT_number 5
_symmetry_cell_setting 'monoclinic'
loop_
_space_group_symop_operation_xyz
x,y,z
-x,y,-z
1/2+x,1/2+y,z
1/2-x,1/2+y,-z
loop_
_atom_site_type_symbol
_atom_site_label
_atom_site_fract_x
_atom_site_fract_y
_atom_site_fract_z
Si Si1 0.266168 0.141470 0.606702
Si Si2 0.500000 0.434996 0.000000
Si Si3 0.636277 0.834560 0.818852
Si Si4 0.500000 0.521224 0.500000
Si Si5 0.781694 0.695582 0.109063
O O1 0.190017 0.067880 0.506547
O O2 0.199890 0.192801 0.355283
O O3 0.498027 0.162803 0.750578
O O4 0.182367 0.148962 0.851303
O O5 0.693322 0.389236 0.151332
O O6 0.451903 0.477722 0.228992
O O7 0.500000 0.825859 0.500000
O O8 0.500000 0.852528 0.000000
O O9 0.755189 0.767863 0.971125
#
# Coordination Sequence:
#
# PCOD9126659 Si02
#       5
#     4   2   4   2   4
#     4  10  22  41  68 107 142 189 227 300 371 435
#     4  12  28  54  70 108 152 202 256 304 338 448
#     4  12  27  49  79 110 144 196 250 311 377 432
#     4  12  26  46  74 104 156 202 244 290 366 446
#     4  10  22  43  69 108 142 175 241 314 372 426
#
# _framework density 22.813207999999999
#
# number of rings (size 3 to 8) (size 9 to 14) (size 15 to 20)
#    0.000    1.000    0.000    6.000    5.250    4.000 
#   27.000    0.000    0.000    0.000    0.000    0.000 
#    0.000    0.000    0.000    0.000    0.000    0.000 
#
# Total GULP energy -44568.636818 kJ/mol
# GULP energy per Si atom -5571.079602 kJ/mol
# Density = 2.276128 g / cm^3
# Si number density = 22.813208 Si / 1000 Ang^3
#
#
#
# Elastic Constant Matrix: (Units=GPa)
#
#
# Indices 1 2 3 4 5 6 
#
# 1 108.6789 28.1041 60.0662 0.0000 35.6725 0.0000
# 2 28.1041 123.1816 69.5748 0.0000 13.1537 0.0000
# 3 60.0662 69.5748 204.2349 0.0000 -29.5055 0.0000
# 4 0.0000 0.0000 0.0000 36.0996 0.0000 -5.7642
# 5 35.6725 13.1537 -29.5055 0.0000 54.6938 0.0000
# 6 0.0000 0.0000 0.0000 -5.7642 0.0000 41.6275
#
#
#
# Elastic Compliance Matrix: (Units=1/GPa)
#
#
# Indices 1 2 3 4 5 6 
#
# 1 0.019930 0.002865 -0.009560 0.000000 -0.018845 0.000000
# 2 0.002865 0.011673 -0.005959 0.000000 -0.007890 0.000000
# 3 -0.009560 -0.005959 0.011762 0.000000 0.014014 0.000000
# 4 0.000000 0.000000 0.000000 0.028327 0.000000 0.003923
# 5 -0.018845 -0.007890 0.014014 0.000000 0.040032 0.000000
# 6 0.000000 0.000000 0.000000 0.003923 0.000000 0.024566
#
#
# Mechanical properties :
#
#
# Convention : Reuss Voigt Hill
#
# Bulk Modulus (GPa) = 55.37974 83.50949 69.44461
# Shear Modulus (GPa) = 29.82981 45.04086 37.43533
#
# Velocity S-wave (km/s) = 3.61995 4.44817 4.05526
# Velocity P-wave (km/s) = 6.46530 7.94146 7.24109
#
# Compressibility (1/GPa) = 0.01805715
#
# Stress axis : x y z
#
# Youngs Moduli (GPa) = 50.17584 85.66976 85.01640
#
# Poissons Ratio (x) = -0.24543 0.81275
# Poissons Ratio (y) = -0.14375 0.50661
# Poissons Ratio (z) = 0.47968 0.51050
#
# Static dielectric constant tensor:
#      x y z
#    x 1.634940 0.000000 -0.053050 
#    y 0.000000 1.849370 0.000000 
#    z -0.053050 0.000000 1.844560 
# 
# From -- ./inp_files/2520.got.cif
#   From: 2010.05.17/outbox.cif.g08.bks.cpg/sg5_2_cif.got.tgz:2520.got - 2010.06.03 18:56:24.
