data_PCOD9126985
_publ_section_title
;
Structure prediction by ZEFSAII (Michael W. Deem and Ramdas Pophale) SiO2 
 PCOD9126985
Probable space group: C 2
;
_chemical_formula_sum "Si O2"
_cell_formula_units_Z 26
_cell_length_a 19.956552
_cell_length_b 8.350387
_cell_length_c 7.409360
_cell_angle_alpha 90.000000
_cell_angle_beta 124.662004
_cell_angle_gamma 90.000000
_cell_volume 1015.593713
_symmetry_space_group_name_H-M "C 2"
_symmetry_group_IT_number 5
_symmetry_cell_setting 'monoclinic'
loop_
_space_group_symop_operation_xyz
x,y,z
-x,y,-z
1/2+x,1/2+y,z
1/2-x,1/2+y,-z
loop_
_atom_site_type_symbol
_atom_site_label
_atom_site_fract_x
_atom_site_fract_y
_atom_site_fract_z
Si Si1 0.500000 0.047280 0.500000
Si Si2 0.891218 0.579312 0.024623
Si Si3 0.385335 0.482480 0.596415
Si Si4 0.219318 0.992807 0.201428
Si Si5 0.000000 0.816667 0.000000
Si Si6 0.500000 0.824429 0.000000
Si Si7 0.880300 0.308828 0.517220
Si Si8 0.236642 0.848621 0.846624
O O1 0.439634 0.141216 0.275221
O O2 0.436023 0.927120 0.492927
O O3 0.946558 0.428566 0.053144
O O4 0.803555 0.493258 0.913303
O O5 0.920218 0.705611 0.916407
O O6 0.340983 0.501092 0.722643
O O7 0.475185 0.423557 0.790113
O O8 0.369303 0.629926 0.430996
O O9 0.335354 0.349556 0.409438
O O10 0.225984 0.171718 0.129169
O O11 0.299061 0.910147 0.415995
O O12 0.207152 0.876654 0.008293
O O13 0.431521 0.751357 0.770153
#
# Coordination Sequence:
#
# PCOD9126985 Si02
#       8
#     2   4   4   4   2   2   4   4
#     4  10  22  42  78 102 150 190 264 310 396 444
#     4  10  22  44  71 108 146 194 248 317 376 461
#     4  12  28  48  74 112 157 200 256 326 383 465
#     4  12  27  48  77 113 152 202 262 322 385 464
#     4  11  29  48  78 112 158 202 264 318 398 450
#     4   9  19  36  72  92 136 194 240 296 382 434
#     4  11  23  46  71 108 149 201 255 318 389 453
#     4  12  28  45  79 110 152 205 261 314 394 459
#
# _framework density 25.600788999999999
#
# number of rings (size 3 to 8) (size 9 to 14) (size 15 to 20)
#    0.000    0.923    1.538    4.154   12.923    1.231 
#    0.000    0.000    0.000    0.000    0.000    0.000 
#    0.000    0.000    0.000    0.000    0.000    0.000 
#
# Total GULP energy -72455.651548 kJ/mol
# GULP energy per Si atom -5573.511658 kJ/mol
# Density = 2.554252 g / cm^3
# Si number density = 25.600789 Si / 1000 Ang^3
#
#
#
# Elastic Constant Matrix: (Units=GPa)
#
#
# Indices 1 2 3 4 5 6 
#
# 1 66.7553 3.7936 10.2466 0.0000 9.5131 0.0000
# 2 3.7936 107.1289 9.7747 0.0000 8.7142 0.0000
# 3 10.2466 9.7747 97.8557 0.0000 10.3083 0.0000
# 4 0.0000 0.0000 0.0000 67.0568 0.0000 -19.3459
# 5 9.5131 8.7142 10.3083 0.0000 40.0754 0.0000
# 6 0.0000 0.0000 0.0000 -19.3459 0.0000 46.8419
#
#
#
# Elastic Compliance Matrix: (Units=1/GPa)
#
#
# Indices 1 2 3 4 5 6 
#
# 1 0.015663 -0.000166 -0.001270 0.000000 -0.003355 0.000000
# 2 -0.000166 0.009559 -0.000743 0.000000 -0.001848 0.000000
# 3 -0.001270 -0.000743 0.010667 0.000000 -0.002281 0.000000
# 4 0.000000 0.000000 0.000000 0.016930 0.000000 0.006992
# 5 -0.003355 -0.001848 -0.002281 0.000000 0.026738 0.000000
# 6 0.000000 0.000000 0.000000 0.006992 0.000000 0.024236
#
#
# Mechanical properties :
#
#
# Convention : Reuss Voigt Hill
#
# Bulk Modulus (GPa) = 31.71539 35.48552 33.60046
# Shear Modulus (GPa) = 42.13750 47.32314 44.73032
#
# Velocity S-wave (km/s) = 4.06143 4.30409 4.18452
# Velocity P-wave (km/s) = 5.86591 6.21220 6.04154
#
# Compressibility (1/GPa) = 0.03153043
#
# Stress axis : x y z
#
# Youngs Moduli (GPa) = 63.84636 104.61878 93.75094
#
# Poissons Ratio (x) = 0.01735 0.11907
# Poissons Ratio (y) = 0.01059 0.06963
# Poissons Ratio (z) = 0.08109 0.07771
#
# Static dielectric constant tensor:
#      x y z
#    x 1.911250 0.000000 0.012040 
#    y 0.000000 2.297820 0.000000 
#    z 0.012040 0.000000 2.638830 
# 
# From -- ./inp_files/30619.got.cif
#   From: 2010.05.17/outbox.cif.g08.bks.cpg/sg5_16_cif.got.tgz:30619.got - 2010.06.03 18:56:24.
