data_PCOD9126502
_publ_section_title
;
Structure prediction by ZEFSAII (Michael W. Deem and Ramdas Pophale) SiO2 
 PCOD9126502
Probable space group: C 2
;
_chemical_formula_sum "Si O2"
_cell_formula_units_Z 30
_cell_length_a 14.531186
_cell_length_b 23.100963
_cell_length_c 8.169719
_cell_angle_alpha 90.000000
_cell_angle_beta 147.405008
_cell_angle_gamma 90.000000
_cell_volume 1477.348451
_symmetry_space_group_name_H-M "C 2"
_symmetry_group_IT_number 5
_symmetry_cell_setting 'monoclinic'
loop_
_space_group_symop_operation_xyz
x,y,z
-x,y,-z
1/2+x,1/2+y,z
1/2-x,1/2+y,-z
loop_
_atom_site_type_symbol
_atom_site_label
_atom_site_fract_x
_atom_site_fract_y
_atom_site_fract_z
Si Si1 0.500000 0.879631 0.500000
Si Si2 0.593799 0.250735 0.309876
Si Si3 0.592325 0.948799 0.961199
Si Si4 0.302298 0.640470 0.753748
Si Si5 0.324103 0.655983 0.171731
Si Si6 0.806341 0.337064 0.772389
Si Si7 0.246396 0.782820 0.030681
Si Si8 0.476845 0.077232 0.158225
O O1 0.503790 0.916829 0.673352
O O2 0.334724 0.837520 0.250119
O O3 0.715560 0.196788 0.538137
O O4 0.704207 0.309222 0.470724
O O5 0.500000 0.238557 0.000000
O O6 0.451042 0.269305 0.229092
O O7 0.608758 0.015153 0.929985
O O8 0.500000 0.955183 0.000000
O O9 0.737852 0.901723 0.229642
O O10 0.164651 0.589248 0.514772
O O11 0.500000 0.630593 0.000000
O O12 0.309973 0.651661 0.957022
O O13 0.500000 0.628900 0.500000
O O14 0.325571 0.723553 0.215475
O O15 0.155361 0.626390 0.987963
O O16 0.785003 0.295186 0.897500
O O17 0.000000 0.337934 0.000000
O O18 0.500000 0.081401 0.000000
#
# Coordination Sequence:
#
# PCOD9126502 Si02
#       8
#     2   4   4   4   4   4   4   4
#     4  10  22  40  70 100 130 180 228 268 348 406
#     4  12  26  37  65 102 140 178 221 278 350 416
#     4   9  22  42  73  92 133 179 231 282 339 402
#     4  12  26  42  66  98 138 182 231 289 344 407
#     4  12  25  40  68  99 137 178 225 279 347 415
#     4  10  22  43  67  95 133 179 222 272 341 402
#     4  11  23  38  63  95 137 171 216 273 334 407
#     4  11  24  47  70  98 134 180 232 284 344 407
#
# _framework density 20.306650999999999
#
# number of rings (size 3 to 8) (size 9 to 14) (size 15 to 20)
#    0.000    1.067    3.333    2.400    9.333    0.000 
#    0.000    2.667    8.800    0.000    0.000    0.000 
#    0.000    0.000    0.000    0.000    0.000    0.000 
#
# Total GULP energy -83592.357045 kJ/mol
# GULP energy per Si atom -5572.823803 kJ/mol
# Density = 2.026043 g / cm^3
# Si number density = 20.306651 Si / 1000 Ang^3
#
#
#
# Elastic Constant Matrix: (Units=GPa)
#
#
# Indices 1 2 3 4 5 6 
#
# 1 81.0483 25.6830 25.8429 0.0000 0.4854 0.0000
# 2 25.6830 121.9026 33.3755 0.0000 -0.2459 0.0000
# 3 25.8429 33.3755 117.1820 0.0000 -0.4418 0.0000
# 4 0.0000 0.0000 0.0000 10.3062 0.0000 -15.4521
# 5 0.4854 -0.2459 -0.4418 0.0000 44.6427 0.0000
# 6 0.0000 0.0000 0.0000 -15.4521 0.0000 38.8844
#
#
#
# Elastic Compliance Matrix: (Units=1/GPa)
#
#
# Indices 1 2 3 4 5 6 
#
# 1 0.013821 -0.002253 -0.002407 0.000000 -0.000187 0.000000
# 2 -0.002253 0.009264 -0.002142 0.000000 0.000054 0.000000
# 3 -0.002407 -0.002142 0.009675 0.000000 0.000110 0.000000
# 4 0.000000 0.000000 0.000000 0.240050 0.000000 0.095392
# 5 -0.000187 0.000054 0.000110 0.000000 0.022403 0.000000
# 6 0.000000 0.000000 0.000000 0.095392 0.000000 0.063625
#
#
# Mechanical properties :
#
#
# Convention : Reuss Voigt Hill
#
# Bulk Modulus (GPa) = 52.20078 54.43729 53.31904
# Shear Modulus (GPa) = 13.19862 34.44876 23.82369
#
# Velocity S-wave (km/s) = 2.55221 4.12324 3.42891
# Velocity P-wave (km/s) = 5.86916 7.03804 6.48001
#
# Compressibility (1/GPa) = 0.01915680
#
# Stress axis : x y z
#
# Youngs Moduli (GPa) = 72.35401 107.93971 103.36001
#
# Poissons Ratio (x) = 0.24321 0.24878
# Poissons Ratio (y) = 0.16303 0.22135
# Poissons Ratio (z) = 0.17415 0.23116
#
# Static dielectric constant tensor:
#      x y z
#    x 1.779170 0.000000 0.095610 
#    y 0.000000 1.782450 0.000000 
#    z 0.095610 0.000000 2.019000 
# 
# From -- ./inp_files/25555.got.cif
#   From: 2010.05.17/outbox.cif.g08.bks.cpg/sg5_13_cif.got.tgz:25555.got - 2010.06.03 18:56:24.
