data_PCOD9126089
_publ_section_title
;
Structure prediction by ZEFSAII (Michael W. Deem and Ramdas Pophale) SiO2 
 PCOD9126089
Probable space group: C 2
;
_chemical_formula_sum "Si O2"
_cell_formula_units_Z 20
_cell_length_a 18.525533
_cell_length_b 5.383848
_cell_length_c 17.655633
_cell_angle_alpha 90.000000
_cell_angle_beta 26.998612
_cell_angle_gamma 90.000000
_cell_volume 799.416137
_symmetry_space_group_name_H-M "C 2"
_symmetry_group_IT_number 5
_symmetry_cell_setting 'monoclinic'
loop_
_space_group_symop_operation_xyz
x,y,z
-x,y,-z
1/2+x,1/2+y,z
1/2-x,1/2+y,-z
loop_
_atom_site_type_symbol
_atom_site_label
_atom_site_fract_x
_atom_site_fract_y
_atom_site_fract_z
Si Si1 0.352093 0.776170 0.406926
Si Si2 0.309552 0.911065 0.200422
Si Si3 0.112297 0.983258 0.234871
Si Si4 0.930672 0.645021 0.860330
Si Si5 0.386407 0.411579 0.181000
O O1 0.253201 0.524898 0.479254
O O2 0.466314 0.674934 0.367208
O O3 0.470630 0.888678 0.232126
O O4 0.291404 0.666820 0.267576
O O5 0.194177 0.905983 0.236276
O O6 0.278889 0.170018 0.269966
O O7 0.500000 0.921463 0.000000
O O8 0.065695 0.746480 0.228017
O O9 0.254092 0.105611 0.053824
O O10 0.006964 0.841319 0.846954
O O11 0.500000 0.425523 0.000000
#
# Coordination Sequence:
#
# PCOD9126089 Si02
#       5
#     4   4   4   4   4
#     4  12  28  48  68 110 158 200 234 310 384 442
#     4  10  22  38  61 104 154 176 220 308 383 406
#     4  12  25  41  77 115 143 189 260 312 356 437
#     4  12  25  41  77 115 143 189 260 312 356 437
#     4  10  22  38  61 104 154 176 220 308 383 406
#
# _framework density 25.018256999999998
#
# number of rings (size 3 to 8) (size 9 to 14) (size 15 to 20)
#    0.000    0.800    8.000    0.000   11.200    0.000 
#    0.000    0.000    0.000    1.200   10.400    0.000 
#    0.000    0.000    0.000    0.000    0.000    0.000 
#
# Total GULP energy -55904.804820 kJ/mol
# GULP energy per Si atom -5590.480482 kJ/mol
# Density = 2.496131 g / cm^3
# Si number density = 25.018257 Si / 1000 Ang^3
#
#
#
# Elastic Constant Matrix: (Units=GPa)
#
#
# Indices 1 2 3 4 5 6 
#
# 1 153.7829 77.9825 43.5789 0.0162 -47.5660 -0.0343
# 2 77.9825 232.9531 39.3324 -0.0097 -29.1737 -0.0064
# 3 43.5789 39.3324 99.4792 -0.0187 -14.3925 0.0108
# 4 0.0162 -0.0097 -0.0187 26.3645 0.0048 14.7000
# 5 -47.5660 -29.1737 -14.3925 0.0048 29.1064 0.0007
# 6 -0.0343 -0.0064 0.0108 14.7000 0.0007 5.2804
#
#
#
# Elastic Compliance Matrix: (Units=1/GPa)
#
#
# Indices 1 2 3 4 5 6 
#
# 1 0.014588 -0.001844 -0.002671 0.000124 0.020672 -0.000250
# 2 -0.001844 0.005309 -0.001031 -0.000007 0.001798 0.000017
# 3 -0.002671 -0.001031 0.011685 -0.000060 0.000379 0.000125
# 4 0.000124 -0.000007 -0.000060 -0.068688 0.000172 0.191220
# 5 0.020672 0.001798 0.000379 0.000172 0.070128 -0.000352
# 6 -0.000250 0.000017 0.000125 0.191220 -0.000352 -0.342952
#
#
# Mechanical properties :
#
#
# Convention : Reuss Voigt Hill
#
# Bulk Modulus (GPa) = 48.80284 89.77809 69.29046
# Shear Modulus (GPa) = -17.12285 33.83835 8.35775
#
# Velocity S-wave (km/s) = -2.61897 3.68169 1.82973
# Velocity P-wave (km/s) = 3.22551 7.35092 5.67626
#
# Compressibility (1/GPa) = 0.02049061
#
# Stress axis : x y z
#
# Youngs Moduli (GPa) = 68.54820 188.34930 85.57945
#
# Poissons Ratio (x) = 0.34727 0.22858
# Poissons Ratio (y) = 0.12639 0.08826
# Poissons Ratio (z) = 0.18309 0.19425
#
# Static dielectric constant tensor:
#      x y z
#    x 2.120080 -0.000040 -0.167710 
#    y -0.000040 2.054060 0.000050 
#    z -0.167710 0.000050 2.268750 
# 
# From -- ./inp_files/12094.got.cif
#   From: 2010.05.17/outbox.cif.g08.bks.cpg/sg5_7_cif.got.tgz:12094.got - 2010.06.03 18:56:24.
