data_PCOD9126789
_publ_section_title
;
Structure prediction by ZEFSAII (Michael W. Deem and Ramdas Pophale) SiO2 
 PCOD9126789
Probable space group: C 2
;
_chemical_formula_sum "Si O2"
_cell_formula_units_Z 18
_cell_length_a 6.999783
_cell_length_b 21.468832
_cell_length_c 5.090515
_cell_angle_alpha 90.000000
_cell_angle_beta 91.248255
_cell_angle_gamma 90.000000
_cell_volume 764.806625
_symmetry_space_group_name_H-M "C 2"
_symmetry_group_IT_number 5
_symmetry_cell_setting 'monoclinic'
loop_
_space_group_symop_operation_xyz
x,y,z
-x,y,-z
1/2+x,1/2+y,z
1/2-x,1/2+y,-z
loop_
_atom_site_type_symbol
_atom_site_label
_atom_site_fract_x
_atom_site_fract_y
_atom_site_fract_z
Si Si1 0.198800 0.113880 0.394611
Si Si2 0.277800 0.033702 0.909852
Si Si3 0.500000 0.211074 0.500000
Si Si4 0.270732 0.818707 0.478436
Si Si5 0.730374 0.893713 0.018241
O O1 0.176073 0.071776 0.138562
O O2 0.360967 0.164897 0.336636
O O3 0.000000 0.141663 0.500000
O O4 0.264070 0.069004 0.633878
O O5 0.500000 0.031695 0.000000
O O6 0.208356 0.962497 0.896008
O O7 0.655463 0.258016 0.382492
O O8 0.500000 0.808576 0.500000
O O9 0.213730 0.841914 0.766644
O O10 0.219465 0.873223 0.273152
O O11 0.500000 0.894315 0.000000
#
# Coordination Sequence:
#
# PCOD9126789 Si02
#       5
#     4   4   2   4   4
#     4  12  26  44  67 102 138 181 228 286 339 401
#     4  11  21  45  72 100 137 180 227 282 346 406
#     4  12  26  46  68  96 144 178 242 260 348 412
#     4  10  22  42  65  98 130 177 222 278 335 401
#     4   9  20  40  69  96 134 171 219 281 343 394
#
# _framework density 23.535361000000002
#
# number of rings (size 3 to 8) (size 9 to 14) (size 15 to 20)
#    0.000    1.333    2.222    2.667    0.000    8.000 
#   12.000    4.444    0.000    0.000    0.000    0.000 
#    0.000    0.000    0.000    0.000    0.000    0.000 
#
# Total GULP energy -50297.846538 kJ/mol
# GULP energy per Si atom -5588.649615 kJ/mol
# Density = 2.348179 g / cm^3
# Si number density = 23.535361 Si / 1000 Ang^3
#
#
#
# Elastic Constant Matrix: (Units=GPa)
#
#
# Indices 1 2 3 4 5 6 
#
# 1 141.6176 32.1215 10.9313 0.0000 4.7254 0.0000
# 2 32.1215 128.2099 33.5226 0.0000 16.4916 0.0000
# 3 10.9313 33.5226 121.7230 0.0000 11.0447 0.0000
# 4 0.0000 0.0000 0.0000 -18.6865 0.0000 -59.0242
# 5 4.7254 16.4916 11.0447 0.0000 17.6325 0.0000
# 6 0.0000 0.0000 0.0000 -59.0242 0.0000 -100.2516
#
#
#
# Elastic Compliance Matrix: (Units=1/GPa)
#
#
# Indices 1 2 3 4 5 6 
#
# 1 0.007491 -0.001808 -0.000155 0.000000 -0.000219 0.000000
# 2 -0.001808 0.009687 -0.001831 0.000000 -0.007429 0.000000
# 3 -0.000155 -0.001831 0.009091 0.000000 -0.003940 0.000000
# 4 0.000000 0.000000 0.000000 0.062249 0.000000 -0.036650
# 5 -0.000219 -0.007429 -0.003940 0.000000 0.066188 0.000000
# 6 0.000000 0.000000 0.000000 -0.036650 0.000000 0.011603
#
#
# Mechanical properties :
#
#
# Convention : Reuss Voigt Hill
#
# Bulk Modulus (GPa) = 53.53214 60.52238 57.02726
# Shear Modulus (GPa) = 27.75862 0.73721 14.24791
#
# Velocity S-wave (km/s) = 3.43803 0.56028 2.46312
# Velocity P-wave (km/s) = 6.20925 5.11761 5.68967
#
# Compressibility (1/GPa) = 0.01868036
#
# Stress axis : x y z
#
# Youngs Moduli (GPa) = 133.50020 103.23041 109.99682
#
# Poissons Ratio (x) = 0.18664 0.01703
# Poissons Ratio (y) = 0.24136 0.20145
# Poissons Ratio (z) = 0.02067 0.18906
#
# Static dielectric constant tensor:
#      x y z
#    x 2.089390 0.000000 -0.085960 
#    y 0.000000 1.852210 0.000000 
#    z -0.085960 0.000000 1.843170 
# 
# From -- ./inp_files/2170.got.cif
#   From: 2010.05.17/outbox.cif.g08.bks.cpg/sg5_2_cif.got.tgz:2170.got - 2010.06.03 18:56:24.
