data_PCOD9126505
_publ_section_title
;
Structure prediction by ZEFSAII (Michael W. Deem and Ramdas Pophale) SiO2 
 PCOD9126505
Probable space group: C 2
;
_chemical_formula_sum "Si O2"
_cell_formula_units_Z 26
_cell_length_a 11.793269
_cell_length_b 18.676631
_cell_length_c 8.444113
_cell_angle_alpha 90.000000
_cell_angle_beta 39.888382
_cell_angle_gamma 90.000000
_cell_volume 1192.735089
_symmetry_space_group_name_H-M "C 2"
_symmetry_group_IT_number 5
_symmetry_cell_setting 'monoclinic'
loop_
_space_group_symop_operation_xyz
x,y,z
-x,y,-z
1/2+x,1/2+y,z
1/2-x,1/2+y,-z
loop_
_atom_site_type_symbol
_atom_site_label
_atom_site_fract_x
_atom_site_fract_y
_atom_site_fract_z
Si Si1 0.912734 0.379830 0.265281
Si Si2 0.768121 0.730403 0.474191
Si Si3 0.523104 0.617875 0.154119
Si Si4 0.000000 0.774374 0.500000
Si Si5 0.433227 0.468289 0.392127
Si Si6 0.717987 0.358804 0.026381
Si Si7 0.299094 0.707841 0.786142
O O1 0.809227 0.311227 0.447611
O O2 0.767383 0.441761 0.410328
O O3 0.000000 0.364320 0.000000
O O4 0.090436 0.395473 0.173901
O O5 0.610001 0.684111 0.712083
O O6 0.809871 0.696325 0.259023
O O7 0.924136 0.731168 0.433862
O O8 0.458678 0.550716 0.323872
O O9 0.687724 0.653427 0.077849
O O10 0.500000 0.589486 0.000000
O O11 0.153698 0.824213 0.263197
O O12 0.500000 0.461001 0.500000
O O13 0.563856 0.415317 0.153031
O O14 0.743038 0.287287 0.897815
O O15 0.500000 0.708614 0.500000
#
# Coordination Sequence:
#
# PCOD9126505 Si02
#       7
#     4   4   4   2   4   4   4
#     4  12  20  39  71 100 137 179 222 281 338 405
#     4  11  21  41  68 102 131 176 227 277 336 406
#     4  11  24  45  66  94 137 187 225 283 350 398
#     4  12  22  38  70 110 132 176 232 278 332 418
#     4  12  24  40  67 102 137 179 229 275 347 414
#     4  12  21  41  68 103 137 177 227 280 337 402
#     4  10  22  40  70 101 130 180 229 279 338 401
#
# _framework density 21.798639000000001
#
# number of rings (size 3 to 8) (size 9 to 14) (size 15 to 20)
#    0.000    0.615    8.462    2.769    0.000    1.846 
#    0.000    3.077    0.000    0.000    0.000    0.000 
#    0.000    0.000    0.000    0.000    0.000    0.000 
#
# Total GULP energy -72442.688799 kJ/mol
# GULP energy per Si atom -5572.514523 kJ/mol
# Density = 2.174902 g / cm^3
# Si number density = 21.798639 Si / 1000 Ang^3
#
#
#
# Elastic Constant Matrix: (Units=GPa)
#
#
# Indices 1 2 3 4 5 6 
#
# 1 141.1147 28.3857 34.0489 0.0000 -3.7901 0.0000
# 2 28.3857 87.4188 7.2027 0.0000 -1.1542 0.0000
# 3 34.0489 7.2027 50.6705 0.0000 -7.7583 0.0000
# 4 0.0000 0.0000 0.0000 34.3003 0.0000 7.4534
# 5 -3.7901 -1.1542 -7.7583 0.0000 33.2241 0.0000
# 6 0.0000 0.0000 0.0000 7.4534 0.0000 21.8383
#
#
#
# Elastic Compliance Matrix: (Units=1/GPa)
#
#
# Indices 1 2 3 4 5 6 
#
# 1 0.008948 -0.002439 -0.005728 0.000000 -0.000401 0.000000
# 2 -0.002439 0.012240 -0.000081 0.000000 0.000128 0.000000
# 3 -0.005728 -0.000081 0.024366 0.000000 0.005034 0.000000
# 4 0.000000 0.000000 0.000000 0.031490 0.000000 -0.010747
# 5 -0.000401 0.000128 0.005034 0.000000 0.031233 0.000000
# 6 0.000000 0.000000 0.000000 -0.010747 0.000000 0.049459
#
#
# Mechanical properties :
#
#
# Convention : Reuss Voigt Hill
#
# Bulk Modulus (GPa) = 34.41365 46.49764 40.45564
# Shear Modulus (GPa) = 27.18603 31.84365 29.51484
#
# Velocity S-wave (km/s) = 3.53532 3.82620 3.68363
# Velocity P-wave (km/s) = 5.69965 6.39504 6.05733
#
# Compressibility (1/GPa) = 0.02905824
#
# Stress axis : x y z
#
# Youngs Moduli (GPa) = 111.75336 81.70248 41.04004
#
# Poissons Ratio (x) = 0.19927 0.23507
# Poissons Ratio (y) = 0.27256 0.00334
# Poissons Ratio (z) = 0.64009 0.00664
#
# Static dielectric constant tensor:
#      x y z
#    x 1.941820 0.000000 0.025970 
#    y 0.000000 1.735800 0.000000 
#    z 0.025970 0.000000 1.854380 
# 
# From -- ./inp_files/21894.got.cif
#   From: 2010.05.17/outbox.cif.g08.bks.cpg/sg5_11_cif.got.tgz:21894.got - 2010.06.03 18:56:24.
