data_PCOD9126799
_publ_section_title
;
Structure prediction by ZEFSAII (Michael W. Deem and Ramdas Pophale) SiO2 
 PCOD9126799
Probable space group: C 2
;
_chemical_formula_sum "Si O2"
_cell_formula_units_Z 20
_cell_length_a 15.358351
_cell_length_b 4.957861
_cell_length_c 19.536743
_cell_angle_alpha 90.000000
_cell_angle_beta 30.236540
_cell_angle_gamma 90.000000
_cell_volume 749.120766
_symmetry_space_group_name_H-M "C 2"
_symmetry_group_IT_number 5
_symmetry_cell_setting 'monoclinic'
loop_
_space_group_symop_operation_xyz
x,y,z
-x,y,-z
1/2+x,1/2+y,z
1/2-x,1/2+y,-z
loop_
_atom_site_type_symbol
_atom_site_label
_atom_site_fract_x
_atom_site_fract_y
_atom_site_fract_z
Si Si1 0.500000 0.760790 0.000000
Si Si2 0.000000 0.623889 0.500000
Si Si3 0.457080 0.417633 0.845468
Si Si4 0.635632 0.870868 0.552019
Si Si5 0.850686 0.429905 0.238170
Si Si6 0.805439 0.496032 0.854883
O O1 0.449720 0.933231 0.099044
O O2 0.337946 0.567056 0.102533
O O3 0.072642 0.461456 0.517959
O O4 0.157941 0.816939 0.368272
O O5 0.535019 0.714826 0.796314
O O6 0.379069 0.284363 0.831107
O O7 0.617919 0.223697 0.753803
O O8 0.307262 0.385598 0.004777
O O9 0.749545 0.104990 0.512111
O O10 0.456668 0.839996 0.714813
#
# Coordination Sequence:
#
# PCOD9126799 Si02
#       6
#     2   2   4   4   4   4
#     4  10  22  42  66 104 140 186 242 294 378 434
#     4  12  26  54  78 118 166 208 266 332 392 484
#     4  11  25  43  75 102 147 190 255 314 383 453
#     4  12  29  50  82 116 160 215 264 323 407 478
#     4  11  25  45  71 107 143 199 244 315 381 454
#     4  11  23  48  70 113 143 200 249 324 380 464
#
# _framework density 26.697962
#
# number of rings (size 3 to 8) (size 9 to 14) (size 15 to 20)
#    0.000    0.800    2.000    4.800    0.000   11.200 
#    0.000    0.000    0.000    0.000    0.000    0.000 
#    0.000    0.000    0.000    0.000    0.000    0.000 
#
# Total GULP energy -56038.003114 kJ/mol
# GULP energy per Si atom -5603.800311 kJ/mol
# Density = 2.663720 g / cm^3
# Si number density = 26.697962 Si / 1000 Ang^3
#
#
#
# Elastic Constant Matrix: (Units=GPa)
#
#
# Indices 1 2 3 4 5 6 
#
# 1 117.6460 22.1599 25.5995 -0.0038 -1.4695 0.0021
# 2 22.1599 88.2349 22.2384 -0.0130 9.6207 0.0129
# 3 25.5995 22.2384 185.7223 -0.0036 -9.6202 0.0033
# 4 -0.0038 -0.0130 -0.0036 32.7305 0.0004 9.9452
# 5 -1.4695 9.6207 -9.6202 0.0004 41.7904 -0.0014
# 6 0.0021 0.0129 0.0033 9.9452 -0.0014 15.0922
#
#
#
# Elastic Compliance Matrix: (Units=1/GPa)
#
#
# Indices 1 2 3 4 5 6 
#
# 1 0.009116 -0.002107 -0.000974 0.000000 0.000581 0.000001
# 2 -0.002107 0.012570 -0.001385 0.000010 -0.003287 -0.000017
# 3 -0.000974 -0.001385 0.005768 0.000000 0.001612 0.000000
# 4 0.000000 0.000010 0.000000 0.038202 -0.000003 -0.025173
# 5 0.000581 -0.003287 0.001612 -0.000003 0.025077 0.000007
# 6 0.000001 -0.000017 0.000000 -0.025173 0.000007 0.082848
#
#
# Mechanical properties :
#
#
# Convention : Reuss Voigt Hill
#
# Bulk Modulus (GPa) = 53.99134 59.06653 56.52893
# Shear Modulus (GPa) = 26.49886 39.36300 32.93093
#
# Velocity S-wave (km/s) = 3.15388 3.84393 3.51588
# Velocity P-wave (km/s) = 5.79047 6.47094 6.14014
#
# Compressibility (1/GPa) = 0.01852149
#
# Stress axis : x y z
#
# Youngs Moduli (GPa) = 109.69415 79.55403 173.37031
#
# Poissons Ratio (x) = 0.16765 0.16888
# Poissons Ratio (y) = 0.23117 0.24010
# Poissons Ratio (z) = 0.10685 0.11018
#
# Static dielectric constant tensor:
#      x y z
#    x 2.157430 0.000000 0.012540 
#    y 0.000000 2.057810 0.000000 
#    z 0.012540 0.000000 2.056470 
# 
# From -- ./inp_files/46847.got.cif
#   From: 2010.05.17/outbox.cif.g08.bks.cpg/sg5_24_cif.got.tgz:46847.got - 2010.06.03 18:56:24.
