data_PCOD9126031
_publ_section_title
;
Structure prediction by ZEFSAII (Michael W. Deem and Ramdas Pophale) SiO2 
 PCOD9126031
Probable space group: C 2
;
_chemical_formula_sum "Si O2"
_cell_formula_units_Z 30
_cell_length_a 9.061563
_cell_length_b 23.630864
_cell_length_c 11.792178
_cell_angle_alpha 90.000000
_cell_angle_beta 37.188203
_cell_angle_gamma 90.000000
_cell_volume 1526.252600
_symmetry_space_group_name_H-M "C 2"
_symmetry_group_IT_number 5
_symmetry_cell_setting 'monoclinic'
loop_
_space_group_symop_operation_xyz
x,y,z
-x,y,-z
1/2+x,1/2+y,z
1/2-x,1/2+y,-z
loop_
_atom_site_type_symbol
_atom_site_label
_atom_site_fract_x
_atom_site_fract_y
_atom_site_fract_z
Si Si1 0.465793 0.198000 0.890921
Si Si2 0.864881 0.301403 0.268636
Si Si3 0.371239 0.310516 0.828475
Si Si4 0.264283 0.076043 0.783257
Si Si5 0.265085 0.605408 0.584256
Si Si6 0.313793 0.875110 0.522554
Si Si7 0.500000 0.984450 0.500000
Si Si8 0.092573 0.170218 0.732298
O O1 0.490448 0.251375 0.793173
O O2 0.665484 0.152468 0.732704
O O3 0.500000 0.216408 0.000000
O O4 0.191987 0.171522 0.053385
O O5 0.694117 0.308696 0.264015
O O6 0.828720 0.343743 0.394263
O O7 0.843183 0.236114 0.319597
O O8 0.132136 0.312202 0.052157
O O9 0.548311 0.363285 0.736201
O O10 0.513892 0.073254 0.703842
O O11 0.249596 0.137509 0.731553
O O12 0.296780 0.026134 0.672588
O O13 0.000000 0.068542 0.000000
O O14 0.500000 0.576335 0.500000
O O15 0.360893 0.635918 0.411290
O O16 0.500000 0.848322 0.500000
O O17 0.390055 0.940686 0.475405
#
# Coordination Sequence:
#
# PCOD9126031 Si02
#       8
#     4   4   4   4   4   4   2   4
#     4  11  22  34  58  99 142 184 218 273 342 427
#     4  10  22  39  63 101 136 178 218 275 341 421
#     4  10  22  37  62  93 136 175 220 270 344 403
#     4  12  24  44  71  95 132 182 235 287 341 417
#     4  12  23  37  60  95 136 177 219 275 342 403
#     4  10  24  41  65  93 127 169 233 284 335 388
#     4  10  26  46  68  98 122 182 250 284 332 398
#     4  11  22  38  64  96 141 174 225 268 346 426
#
# _framework density 19.655987
#
# number of rings (size 3 to 8) (size 9 to 14) (size 15 to 20)
#    0.400    0.800    4.000    2.000    5.600    3.200 
#    0.000    1.333    0.000    0.000    0.000    0.000 
#    0.000    0.000    0.000    0.000    0.000    0.000 
#
# Total GULP energy -83676.160803 kJ/mol
# GULP energy per Si atom -5578.410720 kJ/mol
# Density = 1.961125 g / cm^3
# Si number density = 19.655987 Si / 1000 Ang^3
#
#
#
# Elastic Constant Matrix: (Units=GPa)
#
#
# Indices 1 2 3 4 5 6 
#
# 1 90.3304 26.4074 33.9482 0.0000 -8.5131 0.0000
# 2 26.4074 85.3245 35.0424 0.0000 4.3597 0.0000
# 3 33.9482 35.0424 84.0284 0.0000 3.1073 0.0000
# 4 0.0000 0.0000 0.0000 14.8071 0.0000 -2.9748
# 5 -8.5131 4.3597 3.1073 0.0000 35.0759 0.0000
# 6 0.0000 0.0000 0.0000 -2.9748 0.0000 21.2145
#
#
#
# Elastic Compliance Matrix: (Units=1/GPa)
#
#
# Indices 1 2 3 4 5 6 
#
# 1 0.013996 -0.002604 -0.004722 0.000000 0.004139 0.000000
# 2 -0.002604 0.014681 -0.004996 0.000000 -0.002014 0.000000
# 3 -0.004722 -0.004996 0.015963 0.000000 -0.001939 0.000000
# 4 0.000000 0.000000 0.000000 0.069493 0.000000 0.009745
# 5 0.004139 -0.002014 -0.001939 0.000000 0.029936 0.000000
# 6 0.000000 0.000000 0.000000 0.009745 0.000000 0.048504
#
#
# Mechanical properties :
#
#
# Convention : Reuss Voigt Hill
#
# Bulk Modulus (GPa) = 50.00663 50.05325 50.02994
# Shear Modulus (GPa) = 22.33319 25.17186 23.75252
#
# Velocity S-wave (km/s) = 3.37442 3.58246 3.47999
# Velocity P-wave (km/s) = 6.37796 6.52931 6.45408
#
# Compressibility (1/GPa) = 0.01999735
#
# Stress axis : x y z
#
# Youngs Moduli (GPa) = 71.44726 68.11752 62.64328
#
# Poissons Ratio (x) = 0.17738 0.29578
# Poissons Ratio (y) = 0.18605 0.31295
# Poissons Ratio (z) = 0.33735 0.34029
#
# Static dielectric constant tensor:
#      x y z
#    x 1.748950 0.000000 -0.028760 
#    y 0.000000 1.642240 0.000000 
#    z -0.028760 0.000000 1.724830 
# 
# From -- ./inp_files/37538.got.cif
#   From: 2010.05.17/outbox.cif.g08.bks.cpg/sg5_19_cif.got.tgz:37538.got - 2010.06.03 18:56:24.
