data_PCOD9126513
_publ_section_title
;
Structure prediction by ZEFSAII (Michael W. Deem and Ramdas Pophale) SiO2 
 PCOD9126513
Probable space group: C 2
;
_chemical_formula_sum "Si O2"
_cell_formula_units_Z 28
_cell_length_a 14.871813
_cell_length_b 9.296141
_cell_length_c 11.032084
_cell_angle_alpha 90.000000
_cell_angle_beta 63.010751
_cell_angle_gamma 90.000000
_cell_volume 1359.084860
_symmetry_space_group_name_H-M "C 2"
_symmetry_group_IT_number 5
_symmetry_cell_setting 'monoclinic'
loop_
_space_group_symop_operation_xyz
x,y,z
-x,y,-z
1/2+x,1/2+y,z
1/2-x,1/2+y,-z
loop_
_atom_site_type_symbol
_atom_site_label
_atom_site_fract_x
_atom_site_fract_y
_atom_site_fract_z
Si Si1 0.356470 0.906400 0.491345
Si Si2 0.500000 0.238399 0.000000
Si Si3 0.705567 0.586550 0.420153
Si Si4 0.304560 0.037664 0.101729
Si Si5 0.923391 0.451765 0.717017
Si Si6 0.438606 0.278336 0.788990
Si Si7 0.000000 0.928170 0.500000
Si Si8 0.715967 0.782508 0.016624
O O1 0.302862 0.754671 0.546693
O O2 0.385117 0.973462 0.603676
O O3 0.464534 0.884062 0.358603
O O4 0.282142 0.009842 0.464662
O O5 0.401271 0.140169 0.053313
O O6 0.494227 0.317858 0.133957
O O7 0.746559 0.552196 0.261984
O O8 0.593255 0.522980 0.488902
O O9 0.234567 0.116325 0.040576
O O10 0.341356 0.874837 0.052028
O O11 0.937027 0.605488 0.772578
O O12 0.839513 0.353303 0.833729
O O13 0.467362 0.339547 0.640015
O O14 0.327638 0.324575 0.900515
#
# Coordination Sequence:
#
# PCOD9126513 Si02
#       8
#     4   2   4   4   4   4   2   4
#     4  11  27  43  71 100 141 185 232 289 347 424
#     4  10  22  40  70  96 132 178 234 282 350 408
#     4  12  27  43  68 103 140 182 233 292 355 416
#     4  11  23  42  69  94 133 173 235 284 348 411
#     4  11  22  45  70  97 141 187 229 284 358 411
#     4  11  24  40  71 103 135 185 233 288 351 420
#     4  12  26  44  68  98 146 182 240 286 358 418
#     4  11  21  40  68  97 124 176 226 279 341 409
#
# _framework density 20.602098000000002
#
# number of rings (size 3 to 8) (size 9 to 14) (size 15 to 20)
#    0.000    0.857    5.714    2.571    6.000    0.000 
#    0.000    0.000    0.000    0.857    0.000    0.000 
#    0.000    0.000    0.000    0.000    0.000    0.000 
#
# Total GULP energy -77976.540139 kJ/mol
# GULP energy per Si atom -5569.752867 kJ/mol
# Density = 2.055521 g / cm^3
# Si number density = 20.602098 Si / 1000 Ang^3
#
#
#
# Elastic Constant Matrix: (Units=GPa)
#
#
# Indices 1 2 3 4 5 6 
#
# 1 73.3241 10.3841 36.9536 0.0000 12.3682 0.0000
# 2 10.3841 53.0872 23.4925 0.0000 18.8482 0.0000
# 3 36.9536 23.4925 125.2199 0.0000 3.1359 0.0000
# 4 0.0000 0.0000 0.0000 27.8211 0.0000 -3.4603
# 5 12.3682 18.8482 3.1359 0.0000 29.4831 0.0000
# 6 0.0000 0.0000 0.0000 -3.4603 0.0000 30.0832
#
#
#
# Elastic Compliance Matrix: (Units=1/GPa)
#
#
# Indices 1 2 3 4 5 6 
#
# 1 0.017359 0.001699 -0.005246 0.000000 -0.007810 0.000000
# 2 0.001699 0.026947 -0.005121 0.000000 -0.017395 0.000000
# 3 -0.005246 -0.005121 0.010385 0.000000 0.004370 0.000000
# 4 0.000000 0.000000 0.000000 0.036466 0.000000 0.004194
# 5 -0.007810 -0.017395 0.004370 0.000000 0.047850 0.000000
# 6 0.000000 0.000000 0.000000 0.004194 0.000000 0.033724
#
#
# Mechanical properties :
#
#
# Convention : Reuss Voigt Hill
#
# Bulk Modulus (GPa) = 26.77052 43.69908 35.23480
# Shear Modulus (GPa) = 24.68922 29.53088 27.11005
#
# Velocity S-wave (km/s) = 3.46552 3.79012 3.63145
# Velocity P-wave (km/s) = 5.38845 6.35692 5.89262
#
# Compressibility (1/GPa) = 0.03735452
#
# Stress axis : x y z
#
# Youngs Moduli (GPa) = 57.60809 37.11018 96.28890
#
# Poissons Ratio (x) = -0.06305 0.50512
# Poissons Ratio (y) = -0.09787 0.49312
# Poissons Ratio (z) = 0.30220 0.19005
#
# Static dielectric constant tensor:
#      x y z
#    x 1.786960 0.000000 -0.007130 
#    y 0.000000 1.748550 0.000000 
#    z -0.007130 0.000000 1.798280 
# 
# From -- ./inp_files/41668.got.cif
#   From: 2010.05.17/outbox.cif.g08.bks.cpg/sg5_21_cif.got.tgz:41668.got - 2010.06.03 18:56:24.
