data_PCOD9126531
_publ_section_title
;
Structure prediction by ZEFSAII (Michael W. Deem and Ramdas Pophale) SiO2 
 PCOD9126531
Probable space group: C 2
;
_chemical_formula_sum "Si O2"
_cell_formula_units_Z 24
_cell_length_a 6.586867
_cell_length_b 20.281826
_cell_length_c 12.144435
_cell_angle_alpha 90.000000
_cell_angle_beta 48.716251
_cell_angle_gamma 90.000000
_cell_volume 1219.169538
_symmetry_space_group_name_H-M "C 2"
_symmetry_group_IT_number 5
_symmetry_cell_setting 'monoclinic'
loop_
_space_group_symop_operation_xyz
x,y,z
-x,y,-z
1/2+x,1/2+y,z
1/2-x,1/2+y,-z
loop_
_atom_site_type_symbol
_atom_site_label
_atom_site_fract_x
_atom_site_fract_y
_atom_site_fract_z
Si Si1 0.730011 0.205390 0.152286
Si Si2 0.579256 0.959585 0.843717
Si Si3 0.000000 0.923526 0.000000
Si Si4 0.541635 0.347978 0.214487
Si Si5 0.500000 0.785190 0.500000
Si Si6 0.336137 0.106686 0.176028
Si Si7 0.801856 0.188409 0.374678
O O1 0.667039 0.278155 0.132108
O O2 0.498167 0.153257 0.204069
O O3 0.774922 0.220274 0.264287
O O4 0.000000 0.178863 0.000000
O O5 0.773518 0.894896 0.772000
O O6 0.698961 0.031045 0.774972
O O7 0.500000 0.962153 0.000000
O O8 0.289977 0.958522 0.887538
O O9 0.012593 0.884583 0.109348
O O10 0.253645 0.329008 0.370367
O O11 0.391505 0.738597 0.439121
O O12 0.038301 0.136108 0.274963
O O13 0.500000 0.110404 0.000000
O O14 0.500000 0.160948 0.500000
#
# Coordination Sequence:
#
# PCOD9126531 Si02
#       7
#     4   4   2   4   2   4   4
#     4  12  24  37  71 102 126 166 227 282 332 389
#     4   9  22  42  64  97 132 171 218 272 332 398
#     4  10  22  40  72  90 130 166 220 280 324 386
#     4  11  24  41  63  99 133 170 222 275 335 389
#     4  12  26  42  66  92 134 180 216 274 342 394
#     4  11  23  41  68 102 134 172 225 274 335 402
#     4  12  24  44  65  95 138 171 216 278 338 391
#
# _framework density 19.68553
#
# number of rings (size 3 to 8) (size 9 to 14) (size 15 to 20)
#    0.000    1.000    5.000    1.500    7.000    1.333 
#    1.500    0.000    3.667    0.000    0.000    0.000 
#    0.000    0.000    0.000    0.000    0.000    0.000 
#
# Total GULP energy -66861.312219 kJ/mol
# GULP energy per Si atom -5571.776018 kJ/mol
# Density = 1.964072 g / cm^3
# Si number density = 19.685530 Si / 1000 Ang^3
#
#
#
# Elastic Constant Matrix: (Units=GPa)
#
#
# Indices 1 2 3 4 5 6 
#
# 1 103.1767 33.3898 23.7777 0.0000 -17.7477 0.0000
# 2 33.3898 95.0756 6.0517 0.0000 -19.2642 0.0000
# 3 23.7777 6.0517 72.2631 0.0000 -19.6447 0.0000
# 4 0.0000 0.0000 0.0000 99.6433 0.0000 -2.2131
# 5 -17.7477 -19.2642 -19.6447 0.0000 52.7953 0.0000
# 6 0.0000 0.0000 0.0000 -2.2131 0.0000 15.4783
#
#
#
# Elastic Compliance Matrix: (Units=1/GPa)
#
#
# Indices 1 2 3 4 5 6 
#
# 1 0.011868 -0.003668 -0.003201 0.000000 0.001460 0.000000
# 2 -0.003668 0.012494 0.001185 0.000000 0.003767 0.000000
# 3 -0.003201 0.001185 0.016262 0.000000 0.005407 0.000000
# 4 0.000000 0.000000 0.000000 0.010068 0.000000 0.001440
# 5 0.001460 0.003767 0.005407 0.000000 0.022818 0.000000
# 6 0.000000 0.000000 0.000000 0.001440 0.000000 0.064812
#
#
# Mechanical properties :
#
#
# Convention : Reuss Voigt Hill
#
# Bulk Modulus (GPa) = 34.18221 44.10596 39.14408
# Shear Modulus (GPa) = 31.35899 47.40315 39.38107
#
# Velocity S-wave (km/s) = 3.99557 4.91248 4.47756
# Velocity P-wave (km/s) = 6.21996 7.39125 6.83076
#
# Compressibility (1/GPa) = 0.02925498
#
# Stress axis : x y z
#
# Youngs Moduli (GPa) = 84.25945 80.03822 61.49172
#
# Poissons Ratio (x) = 0.29361 0.19684
# Poissons Ratio (y) = 0.30910 -0.07285
# Poissons Ratio (z) = 0.26972 -0.09482
#
# Static dielectric constant tensor:
#      x y z
#    x 1.732000 0.000000 -0.036620 
#    y 0.000000 1.690110 0.000000 
#    z -0.036620 0.000000 1.717040 
# 
# From -- ./inp_files/33715.got.cif
#   From: 2010.05.17/outbox.cif.g08.bks.cpg/sg5_17_cif.got.tgz:33715.got - 2010.06.03 18:56:24.
