data_PCOD9126247
_publ_section_title
;
Structure prediction by ZEFSAII (Michael W. Deem and Ramdas Pophale) SiO2 
 PCOD9126247
Probable space group: C 2
;
_chemical_formula_sum "Si O2"
_cell_formula_units_Z 22
_cell_length_a 17.451818
_cell_length_b 9.353137
_cell_length_c 17.035624
_cell_angle_alpha 90.000000
_cell_angle_beta 26.996133
_cell_angle_gamma 90.000000
_cell_volume 1262.249625
_symmetry_space_group_name_H-M "C 2"
_symmetry_group_IT_number 5
_symmetry_cell_setting 'monoclinic'
loop_
_space_group_symop_operation_xyz
x,y,z
-x,y,-z
1/2+x,1/2+y,z
1/2-x,1/2+y,-z
loop_
_atom_site_type_symbol
_atom_site_label
_atom_site_fract_x
_atom_site_fract_y
_atom_site_fract_z
Si Si1 0.396784 0.267430 0.255218
Si Si2 0.149078 0.884177 0.138737
Si Si3 0.871493 0.058803 0.688993
Si Si4 0.000000 0.633185 0.000000
Si Si5 0.516377 0.866634 0.574495
Si Si6 0.576204 0.067368 0.198433
O O1 0.504624 0.386031 0.203474
O O2 0.481592 0.227855 0.095163
O O3 0.418544 0.128407 0.291785
O O4 0.206389 0.312448 0.415209
O O5 0.176679 0.714436 0.124834
O O6 0.091786 0.958267 0.270951
O O7 0.311691 0.965934 0.958420
O O8 0.899973 0.225038 0.686595
O O9 0.000000 0.032347 0.500000
O O10 0.674623 0.045284 0.845644
O O11 0.500000 0.919922 0.500000
O O12 0.471031 0.983123 0.680524
#
# Coordination Sequence:
#
# PCOD9126247 Si02
#       6
#     4   4   4   2   4   4
#     4  10  23  35  66  89 119 169 205 257 308 377
#     4  10  22  39  62  90 123 165 204 260 311 375
#     4  11  22  38  68  92 125 165 213 258 316 370
#     4  12  18  42  62  96 118 164 214 256 306 384
#     4  11  22  39  63  94 122 165 212 257 309 375
#     4  10  22  40  62  89 127 162 212 254 320 366
#
# _framework density 17.429199000000001
#
# number of rings (size 3 to 8) (size 9 to 14) (size 15 to 20)
#    1.091    0.364    5.455    2.182    2.545    0.727 
#    0.000    0.000    4.000    0.000    0.000    0.000 
#    0.000    0.000    0.000    0.000    0.000    0.000 
#
# Total GULP energy -61283.828212 kJ/mol
# GULP energy per Si atom -5571.257110 kJ/mol
# Density = 1.738953 g / cm^3
# Si number density = 17.429199 Si / 1000 Ang^3
#
#
#
# Elastic Constant Matrix: (Units=GPa)
#
#
# Indices 1 2 3 4 5 6 
#
# 1 125.4756 46.4315 51.2305 0.0001 16.9858 0.0000
# 2 46.4315 81.3215 51.3231 0.0001 31.4093 0.0000
# 3 51.2305 51.3231 89.2809 0.0002 8.2658 0.0000
# 4 0.0001 0.0001 0.0002 19.8351 -0.0001 7.4703
# 5 16.9858 31.4093 8.2658 -0.0001 42.8885 0.0000
# 6 0.0000 0.0000 0.0000 7.4703 0.0000 32.2259
#
#
#
# Elastic Compliance Matrix: (Units=1/GPa)
#
#
# Indices 1 2 3 4 5 6 
#
# 1 0.011101 -0.002933 -0.004557 0.000000 -0.001370 0.000000
# 2 -0.002933 0.029389 -0.013568 0.000000 -0.017746 0.000000
# 3 -0.004557 -0.013568 0.020901 0.000000 0.007713 0.000000
# 4 0.000000 0.000000 0.000000 0.055238 0.000000 -0.012805
# 5 -0.001370 -0.017746 0.007713 0.000000 0.035369 0.000000
# 6 0.000000 0.000000 0.000000 -0.012805 0.000000 0.033999
#
#
# Mechanical properties :
#
#
# Convention : Reuss Voigt Hill
#
# Bulk Modulus (GPa) = 51.88208 66.00536 58.94372
# Shear Modulus (GPa) = 21.31847 28.79611 25.05729
#
# Velocity S-wave (km/s) = 3.50115 4.06911 3.79576
# Velocity P-wave (km/s) = 6.79529 7.74788 7.28717
#
# Compressibility (1/GPa) = 0.01927448
#
# Stress axis : x y z
#
# Youngs Moduli (GPa) = 90.08091 34.02657 47.84458
#
# Poissons Ratio (x) = 0.09980 0.21803
# Poissons Ratio (y) = 0.26422 0.64916
# Poissons Ratio (z) = 0.41050 0.46168
#
# Static dielectric constant tensor:
#      x y z
#    x 1.618240 0.000000 -0.016600 
#    y 0.000000 1.576390 0.000000 
#    z -0.016600 0.000000 1.590560 
# 
# From -- ./inp_files/62104.got.cif
#   From: 2010.05.17/outbox.cif.g08.bks.cpg/sg5_32_cif.got.tgz:62104.got - 2010.06.03 18:56:24.
