data_PCOD9126701
_publ_section_title
;
Structure prediction by ZEFSAII (Michael W. Deem and Ramdas Pophale) SiO2 
 PCOD9126701
Probable space group: C 2
;
_chemical_formula_sum "Si O2"
_cell_formula_units_Z 32
_cell_length_a 28.963464
_cell_length_b 8.428042
_cell_length_c 11.119598
_cell_angle_alpha 90.000000
_cell_angle_beta 146.603602
_cell_angle_gamma 90.000000
_cell_volume 1494.056423
_symmetry_space_group_name_H-M "C 2"
_symmetry_group_IT_number 5
_symmetry_cell_setting 'monoclinic'
loop_
_space_group_symop_operation_xyz
x,y,z
-x,y,-z
1/2+x,1/2+y,z
1/2-x,1/2+y,-z
loop_
_atom_site_type_symbol
_atom_site_label
_atom_site_fract_x
_atom_site_fract_y
_atom_site_fract_z
Si Si1 0.599494 0.977600 0.212815
Si Si2 0.782983 0.943389 0.223420
Si Si3 0.157817 0.317854 0.106086
Si Si4 0.248939 0.481463 0.700581
Si Si5 0.944407 0.947370 0.698678
Si Si6 0.012488 0.231724 0.389652
Si Si7 0.886701 0.842205 0.828279
Si Si8 0.195093 0.302807 0.808238
O O1 0.631958 0.853184 0.185382
O O2 0.652923 0.961270 0.449582
O O3 0.618345 0.159276 0.217930
O O4 0.500000 0.958971 0.000000
O O5 0.720185 0.955951 0.198989
O O6 0.871062 0.871349 0.458723
O O7 0.798758 0.116488 0.205152
O O8 0.734111 0.839086 0.021455
O O9 0.212273 0.157590 0.211755
O O10 0.074008 0.310166 0.842884
O O11 0.305948 0.395852 0.724996
O O12 0.250140 0.399212 0.832160
O O13 0.905016 0.948904 0.748398
O O14 0.967687 0.106053 0.674853
O O15 0.031694 0.859304 0.909361
O O16 0.095692 0.339646 0.583319
O O17 0.000000 0.165339 0.500000
#
# Coordination Sequence:
#
# PCOD9126701 Si02
#       8
#     4   4   4   4   4   4   4   4
#     4  12  25  42  67 101 140 178 222 291 353 408
#     4  11  23  43  67  99 132 178 233 280 352 405
#     4  12  25  42  69  98 137 182 230 283 351 414
#     4  12  25  43  69 100 138 183 233 281 353 417
#     4  10  22  41  71  95 136 184 227 283 345 413
#     4  11  23  46  69 100 139 181 235 289 340 417
#     4  11  23  45  66 101 141 179 234 288 344 420
#     4  11  25  44  71  98 137 180 231 292 345 419
#
# _framework density 21.418201
#
# number of rings (size 3 to 8) (size 9 to 14) (size 15 to 20)
#    0.000    0.750    3.750    4.500    1.750    4.000 
#    2.250    0.000    0.000    0.000    0.000    0.000 
#    0.000    0.000    0.000    0.000    0.000    0.000 
#
# Total GULP energy -89352.918590 kJ/mol
# GULP energy per Si atom -5584.557412 kJ/mol
# Density = 2.136945 g / cm^3
# Si number density = 21.418201 Si / 1000 Ang^3
#
#
#
# Elastic Constant Matrix: (Units=GPa)
#
#
# Indices 1 2 3 4 5 6 
#
# 1 96.2238 26.9337 20.0987 0.0000 2.7917 0.0000
# 2 26.9337 33.9844 13.5634 0.0000 -4.9347 0.0000
# 3 20.0987 13.5634 142.2048 0.0000 4.7172 0.0000
# 4 0.0000 0.0000 0.0000 28.6708 0.0000 -1.0587
# 5 2.7917 -4.9347 4.7172 0.0000 33.3701 0.0000
# 6 0.0000 0.0000 0.0000 -1.0587 0.0000 35.5098
#
#
#
# Elastic Compliance Matrix: (Units=1/GPa)
#
#
# Indices 1 2 3 4 5 6 
#
# 1 0.013693 -0.010914 -0.000807 0.000000 -0.002645 0.000000
# 2 -0.010914 0.040128 -0.002524 0.000000 0.007204 0.000000
# 3 -0.000807 -0.002524 0.007432 0.000000 -0.001356 0.000000
# 4 0.000000 0.000000 0.000000 0.034917 0.000000 0.001041
# 5 -0.002645 0.007204 -0.001356 0.000000 0.031445 0.000000
# 6 0.000000 0.000000 0.000000 0.001041 0.000000 0.028192
#
#
# Mechanical properties :
#
#
# Convention : Reuss Voigt Hill
#
# Bulk Modulus (GPa) = 30.52142 43.73384 37.12763
# Shear Modulus (GPa) = 25.61246 33.63128 29.62187
#
# Velocity S-wave (km/s) = 3.46182 3.96690 3.72294
# Velocity P-wave (km/s) = 5.50092 6.43778 5.98770
#
# Compressibility (1/GPa) = 0.03276387
#
# Stress axis : x y z
#
# Youngs Moduli (GPa) = 73.03231 24.92009 134.55661
#
# Poissons Ratio (x) = 0.27198 0.10852
# Poissons Ratio (y) = 0.79708 0.33960
# Poissons Ratio (z) = 0.05890 0.06289
#
# Static dielectric constant tensor:
#      x y z
#    x 1.797720 0.000000 0.000440 
#    y 0.000000 1.758550 0.000000 
#    z 0.000440 0.000000 1.787700 
# 
# From -- ./inp_files/48421.got.cif
#   From: 2010.05.17/outbox.cif.g08.bks.cpg/sg5_25_cif.got.tgz:48421.got - 2010.06.03 18:56:24.
