data_PCOD9126730
_publ_section_title
;
Structure prediction by ZEFSAII (Michael W. Deem and Ramdas Pophale) SiO2 
 PCOD9126730
Probable space group: C 2
;
_chemical_formula_sum "Si O2"
_cell_formula_units_Z 28
_cell_length_a 8.328890
_cell_length_b 12.021356
_cell_length_c 13.541052
_cell_angle_alpha 90.000000
_cell_angle_beta 102.888685
_cell_angle_gamma 90.000000
_cell_volume 1321.632946
_symmetry_space_group_name_H-M "C 2"
_symmetry_group_IT_number 5
_symmetry_cell_setting 'monoclinic'
loop_
_space_group_symop_operation_xyz
x,y,z
-x,y,-z
1/2+x,1/2+y,z
1/2-x,1/2+y,-z
loop_
_atom_site_type_symbol
_atom_site_label
_atom_site_fract_x
_atom_site_fract_y
_atom_site_fract_z
Si Si1 0.000000 0.573000 0.500000
Si Si2 0.173121 0.368397 0.981998
Si Si3 0.741496 0.757164 0.793111
Si Si4 0.236625 0.180729 0.343263
Si Si5 0.114525 0.789857 0.820865
Si Si6 0.990293 0.356133 0.387451
Si Si7 0.455771 0.546262 0.216203
Si Si8 0.500000 0.519221 0.000000
O O1 0.153988 0.648558 0.548217
O O2 0.019883 0.486854 0.410900
O O3 0.247048 0.286340 0.075620
O O4 0.147986 0.307660 0.874826
O O5 0.326646 0.451416 0.983510
O O6 0.000000 0.414743 0.000000
O O7 0.680307 0.828080 0.690554
O O8 0.687056 0.630609 0.772351
O O9 0.934508 0.764751 0.838719
O O10 0.347440 0.209051 0.264007
O O11 0.127872 0.290714 0.345775
O O12 0.113100 0.080048 0.302197
O O13 0.099763 0.918930 0.784817
O O14 0.000000 0.308468 0.500000
O O15 0.502135 0.573037 0.108310
#
# Coordination Sequence:
#
# PCOD9126730 Si02
#       8
#     2   4   4   4   4   4   4   2
#     4  10  24  40  68  96 124 170 224 272 338 396
#     4  11  21  41  70  98 138 180 222 279 339 393
#     4  11  21  41  70  94 135 181 216 284 339 392
#     4  11  24  42  67  95 128 174 221 276 341 396
#     4  11  24  44  64 101 138 168 227 280 328 413
#     4   9  23  44  64  92 132 166 221 277 331 393
#     4  10  23  42  63  95 133 178 217 274 335 392
#     4  10  22  42  62 100 142 174 230 274 326 410
#
# _framework density 21.185911999999998
#
# number of rings (size 3 to 8) (size 9 to 14) (size 15 to 20)
#    0.429    1.143    2.857    2.571    5.000    1.143 
#    7.714    0.000    0.000    0.000    0.000    0.000 
#    0.000    0.000    0.000    0.000    0.000    0.000 
#
# Total GULP energy -78106.474122 kJ/mol
# GULP energy per Si atom -5579.033866 kJ/mol
# Density = 2.113769 g / cm^3
# Si number density = 21.185912 Si / 1000 Ang^3
#
#
#
# Elastic Constant Matrix: (Units=GPa)
#
#
# Indices 1 2 3 4 5 6 
#
# 1 75.6822 1.4716 26.5254 0.0000 8.3939 0.0000
# 2 1.4716 54.5221 4.6294 0.0000 9.0288 0.0000
# 3 26.5254 4.6294 67.8791 0.0000 20.7518 0.0000
# 4 0.0000 0.0000 0.0000 16.2123 0.0000 -10.4631
# 5 8.3939 9.0288 20.7518 0.0000 35.5628 0.0000
# 6 0.0000 0.0000 0.0000 -10.4631 0.0000 18.4863
#
#
#
# Elastic Compliance Matrix: (Units=1/GPa)
#
#
# Indices 1 2 3 4 5 6 
#
# 1 0.015311 0.000121 -0.005936 0.000000 -0.000181 0.000000
# 2 0.000121 0.019150 0.000173 0.000000 -0.004991 0.000000
# 3 -0.005936 0.000173 0.020235 0.000000 -0.010450 0.000000
# 4 0.000000 0.000000 0.000000 0.097180 0.000000 0.055003
# 5 -0.000181 -0.004991 -0.010450 0.000000 0.035527 0.000000
# 6 0.000000 0.000000 0.000000 0.055003 0.000000 0.085226
#
#
# Mechanical properties :
#
#
# Convention : Reuss Voigt Hill
#
# Bulk Modulus (GPa) = 23.03609 29.25957 26.14783
# Shear Modulus (GPa) = 16.75691 25.08275 20.91983
#
# Velocity S-wave (km/s) = 2.81543 3.44457 3.14577
# Velocity P-wave (km/s) = 4.63311 5.44618 5.05602
#
# Compressibility (1/GPa) = 0.04341014
#
# Stress axis : x y z
#
# Youngs Moduli (GPa) = 65.31080 52.21992 49.41968
#
# Poissons Ratio (x) = -0.00630 0.29337
# Poissons Ratio (y) = -0.00788 -0.00853
# Poissons Ratio (z) = 0.38770 -0.00902
#
# Static dielectric constant tensor:
#      x y z
#    x 1.777540 0.000000 0.013060 
#    y 0.000000 1.773660 0.000000 
#    z 0.013060 0.000000 1.782290 
# 
# From -- ./inp_files/50352.got.cif
#   From: 2010.05.17/outbox.cif.g08.bks.cpg/sg5_26_cif.got.tgz:50352.got - 2010.06.03 18:56:24.
