data_PCOD9126108
_publ_section_title
;
Structure prediction by ZEFSAII (Michael W. Deem and Ramdas Pophale) SiO2 
 PCOD9126108
Probable space group: C 2
;
_chemical_formula_sum "Si O2"
_cell_formula_units_Z 30
_cell_length_a 12.225202
_cell_length_b 16.692074
_cell_length_c 14.233556
_cell_angle_alpha 90.000000
_cell_angle_beta 31.309721
_cell_angle_gamma 90.000000
_cell_volume 1509.393425
_symmetry_space_group_name_H-M "C 2"
_symmetry_group_IT_number 5
_symmetry_cell_setting 'monoclinic'
loop_
_space_group_symop_operation_xyz
x,y,z
-x,y,-z
1/2+x,1/2+y,z
1/2-x,1/2+y,-z
loop_
_atom_site_type_symbol
_atom_site_label
_atom_site_fract_x
_atom_site_fract_y
_atom_site_fract_z
Si Si1 0.288736 0.835400 0.212110
Si Si2 0.267258 0.695099 0.468583
Si Si3 0.588527 0.182381 0.804613
Si Si4 0.690451 0.616385 0.172977
Si Si5 0.503399 0.443456 0.703622
Si Si6 0.500000 0.196759 0.500000
Si Si7 0.107631 0.375144 0.659884
Si Si8 0.896503 0.862058 0.977400
O O1 0.120352 0.880934 0.272030
O O2 0.350280 0.884780 0.259957
O O3 0.181866 0.753877 0.324844
O O4 0.500000 0.820327 0.000000
O O5 0.203967 0.675454 0.621148
O O6 0.498720 0.666475 0.273157
O O7 0.282614 0.791152 0.450032
O O8 0.105403 0.657092 0.512913
O O9 0.739880 0.158240 0.780126
O O10 0.486840 0.271557 0.891658
O O11 0.393409 0.121948 0.958124
O O12 0.602988 0.527414 0.244126
O O13 0.751833 0.440323 0.497479
O O14 0.463472 0.416508 0.839943
O O15 0.857855 0.366886 0.827043
O O16 0.000000 0.887255 0.000000
#
# Coordination Sequence:
#
# PCOD9126108 Si02
#       8
#     4   4   4   4   4   2   4   4
#     4  11  20  35  62  94 129 169 214 277 340 390
#     4  11  21  40  62  94 132 175 223 277 336 408
#     4  11  22  42  69  99 133 175 225 282 344 407
#     4  11  26  41  65 100 135 171 225 291 348 398
#     4  12  25  43  64 102 141 173 229 292 345 404
#     4  10  22  38  62  94 120 170 228 264 322 414
#     4  11  22  38  69  95 135 178 231 280 338 410
#     4  12  23  42  70  99 133 182 236 275 336 426
#
# _framework density 19.875533000000001
#
# number of rings (size 3 to 8) (size 9 to 14) (size 15 to 20)
#    0.000    0.800    8.000    0.400    1.867    3.733 
#    0.000    2.667    0.000    0.000    0.000    0.000 
#    0.000    0.000    0.000    0.000    0.000    0.000 
#
# Total GULP energy -83741.459166 kJ/mol
# GULP energy per Si atom -5582.763944 kJ/mol
# Density = 1.983030 g / cm^3
# Si number density = 19.875533 Si / 1000 Ang^3
#
#
#
# Elastic Constant Matrix: (Units=GPa)
#
#
# Indices 1 2 3 4 5 6 
#
# 1 125.2976 13.7289 34.5301 -0.0053 -10.2214 0.0044
# 2 13.7289 35.7376 17.4609 -0.0105 -4.5912 0.0021
# 3 34.5301 17.4609 93.9142 -0.0180 -10.0925 0.0119
# 4 -0.0053 -0.0105 -0.0180 12.8144 0.0076 -12.3557
# 5 -10.2214 -4.5912 -10.0925 0.0076 39.3002 -0.0041
# 6 0.0044 0.0021 0.0119 -12.3557 -0.0041 14.5873
#
#
#
# Elastic Compliance Matrix: (Units=1/GPa)
#
#
# Indices 1 2 3 4 5 6 
#
# 1 0.009088 -0.001926 -0.002831 -0.000013 0.001411 -0.000011
# 2 -0.001926 0.031370 -0.004920 0.000095 0.001900 0.000081
# 3 -0.002831 -0.004920 0.012817 0.000020 0.001980 0.000008
# 4 -0.000013 0.000095 0.000020 0.425708 -0.000032 0.360580
# 5 0.001411 0.001900 0.001980 -0.000032 0.026543 -0.000022
# 6 -0.000011 0.000081 0.000008 0.360580 -0.000022 0.373968
#
#
# Mechanical properties :
#
#
# Convention : Reuss Voigt Hill
#
# Bulk Modulus (GPa) = 29.48247 42.93214 36.20731
# Shear Modulus (GPa) = 5.49358 25.95570 15.72464
#
# Velocity S-wave (km/s) = 1.66433 3.61766 2.81580
# Velocity P-wave (km/s) = 4.30802 6.25279 5.36919
#
# Compressibility (1/GPa) = 0.03391846
#
# Stress axis : x y z
#
# Youngs Moduli (GPa) = 110.04125 31.87794 78.02374
#
# Poissons Ratio (x) = 0.06141 0.22092
# Poissons Ratio (y) = 0.21197 0.38387
# Poissons Ratio (z) = 0.31158 0.15684
#
# Static dielectric constant tensor:
#      x y z
#    x 1.717350 0.000000 0.000860 
#    y 0.000000 1.766380 0.000000 
#    z 0.000860 0.000000 1.696010 
# 
# From -- ./inp_files/53417.got.cif
#   From: 2010.05.17/outbox.cif.g08.bks.cpg/sg5_27_cif.got.tgz:53417.got - 2010.06.03 18:56:24.
