data_PCOD9126518
_publ_section_title
;
Structure prediction by ZEFSAII (Michael W. Deem and Ramdas Pophale) SiO2 
 PCOD9126518
Probable space group: C 2
;
_chemical_formula_sum "Si O2"
_cell_formula_units_Z 26
_cell_length_a 19.698863
_cell_length_b 9.420303
_cell_length_c 7.870853
_cell_angle_alpha 90.000000
_cell_angle_beta 126.801310
_cell_angle_gamma 90.000000
_cell_volume 1169.518910
_symmetry_space_group_name_H-M "C 2"
_symmetry_group_IT_number 5
_symmetry_cell_setting 'monoclinic'
loop_
_space_group_symop_operation_xyz
x,y,z
-x,y,-z
1/2+x,1/2+y,z
1/2-x,1/2+y,-z
loop_
_atom_site_type_symbol
_atom_site_label
_atom_site_fract_x
_atom_site_fract_y
_atom_site_fract_z
Si Si1 0.683586 0.360250 0.916130
Si Si2 0.970801 0.558682 0.641625
Si Si3 0.791510 0.577970 0.241153
Si Si4 0.497210 0.392779 0.296359
Si Si5 0.686363 0.752921 0.345330
Si Si6 0.500000 0.872919 0.000000
Si Si7 0.677195 0.485529 0.527773
O O1 0.682699 0.193297 0.866545
O O2 0.600839 0.408774 0.898485
O O3 0.680238 0.438424 0.728279
O O4 0.764127 0.427594 0.126414
O O5 0.869391 0.553827 0.484374
O O6 0.000000 0.508375 0.500000
O O7 0.989936 0.724192 0.687763
O O8 0.012148 0.470627 0.852822
O O9 0.718033 0.657865 0.233761
O O10 0.500000 0.437621 0.500000
O O11 0.578773 0.458227 0.326680
O O12 0.588415 0.792981 0.168254
O O13 0.695825 0.648829 0.519791
O O14 0.752582 0.883684 0.452975
#
# Coordination Sequence:
#
# PCOD9126518 Si02
#       7
#     4   4   4   4   4   2   4
#     4  10  22  40  71 100 134 174 236 281 340 412
#     4  11  22  48  72  98 138 184 230 283 344 419
#     4  11  23  42  68  99 136 178 229 285 339 416
#     4   9  17  41  69  97 129 176 230 278 329 416
#     4  11  25  44  64  98 144 176 229 285 349 413
#     4  12  30  44  66 108 142 176 234 292 348 414
#     4  10  22  43  69  92 137 179 222 284 341 409
#
# _framework density 22.231365
#
# number of rings (size 3 to 8) (size 9 to 14) (size 15 to 20)
#    0.000    1.538    6.154    0.923    6.462    2.462 
#    2.769    0.000    0.000    0.000    0.000    0.000 
#    0.000    0.000    0.000    0.000    0.000    0.000 
#
# Total GULP energy -72567.596209 kJ/mol
# GULP energy per Si atom -5582.122785 kJ/mol
# Density = 2.218077 g / cm^3
# Si number density = 22.231365 Si / 1000 Ang^3
#
#
#
# Elastic Constant Matrix: (Units=GPa)
#
#
# Indices 1 2 3 4 5 6 
#
# 1 103.1252 24.3195 12.3445 0.0000 18.4579 0.0000
# 2 24.3195 57.8563 43.6408 0.0000 8.2310 0.0000
# 3 12.3445 43.6408 46.0430 0.0000 12.0371 0.0000
# 4 0.0000 0.0000 0.0000 34.6531 0.0000 3.8081
# 5 18.4579 8.2310 12.0371 0.0000 34.4327 0.0000
# 6 0.0000 0.0000 0.0000 3.8081 0.0000 20.6571
#
#
#
# Elastic Compliance Matrix: (Units=1/GPa)
#
#
# Indices 1 2 3 4 5 6 
#
# 1 0.012502 -0.010953 0.008911 0.000000 -0.007199 0.000000
# 2 -0.010953 0.071441 -0.068068 0.000000 0.012589 0.000000
# 3 0.008911 -0.068068 0.088973 0.000000 -0.019609 0.000000
# 4 0.000000 0.000000 0.000000 0.029454 0.000000 -0.005430
# 5 -0.007199 0.012589 -0.019609 0.000000 0.036747 0.000000
# 6 0.000000 0.000000 0.000000 -0.005430 0.000000 0.049411
#
#
# Mechanical properties :
#
#
# Convention : Reuss Voigt Hill
#
# Bulk Modulus (GPa) = 30.58446 40.84824 35.71635
# Shear Modulus (GPa) = 11.37283 26.39657 18.88470
#
# Velocity S-wave (km/s) = 2.26424 3.44954 2.91772
# Velocity P-wave (km/s) = 4.54125 5.85490 5.23941
#
# Compressibility (1/GPa) = 0.03269634
#
# Stress axis : x y z
#
# Youngs Moduli (GPa) = 79.98988 13.99762 11.23938
#
# Poissons Ratio (x) = 0.15331 -0.10016
# Poissons Ratio (y) = 0.87611 0.76504
# Poissons Ratio (z) = -0.71283 0.95279
#
# Static dielectric constant tensor:
#      x y z
#    x 1.901760 0.000000 0.005680 
#    y 0.000000 1.790100 0.000000 
#    z 0.005680 0.000000 1.839000 
# 
# From -- ./inp_files/29151.got.cif
#   From: 2010.05.17/outbox.cif.g08.bks.cpg/sg5_15_cif.got.tgz:29151.got - 2010.06.03 18:56:24.
