data_PCOD9126621
_publ_section_title
;
Structure prediction by ZEFSAII (Michael W. Deem and Ramdas Pophale) SiO2 
 PCOD9126621
Probable space group: C 2
;
_chemical_formula_sum "Si O2"
_cell_formula_units_Z 32
_cell_length_a 13.443644
_cell_length_b 25.718189
_cell_length_c 9.806475
_cell_angle_alpha 90.000000
_cell_angle_beta 152.294728
_cell_angle_gamma 90.000000
_cell_volume 1576.346992
_symmetry_space_group_name_H-M "C 2"
_symmetry_group_IT_number 5
_symmetry_cell_setting 'monoclinic'
loop_
_space_group_symop_operation_xyz
x,y,z
-x,y,-z
1/2+x,1/2+y,z
1/2-x,1/2+y,-z
loop_
_atom_site_type_symbol
_atom_site_label
_atom_site_fract_x
_atom_site_fract_y
_atom_site_fract_z
Si Si1 0.136565 0.263270 0.287005
Si Si2 0.629627 0.459744 0.792020
Si Si3 0.959907 0.377390 0.104713
Si Si4 0.507969 0.690878 0.348756
Si Si5 0.662366 0.436129 0.304206
Si Si6 0.974453 0.707228 0.314022
Si Si7 0.466956 0.027823 0.614786
Si Si8 0.141252 0.619382 0.310443
O O1 0.381865 0.259561 0.531666
O O2 0.001750 0.315940 0.144840
O O3 0.147504 0.235065 0.445424
O O4 0.000000 0.234729 0.000000
O O5 0.500000 0.477232 0.500000
O O6 0.465121 0.452544 0.715618
O O7 0.743399 0.404197 0.894454
O O8 0.819551 0.498749 0.069221
O O9 0.149605 0.397688 0.428551
O O10 0.000000 0.398203 0.000000
O O11 0.500000 0.691683 0.500000
O O12 0.615942 0.636349 0.433458
O O13 0.275623 0.707132 0.015692
O O14 0.778761 0.485258 0.377264
O O15 0.500000 0.412157 0.000000
O O16 0.000000 0.690074 0.500000
O O17 0.060524 0.664876 0.312343
O O18 0.500000 0.048348 0.500000
O O19 0.392345 0.068463 0.639114
O O20 0.000000 0.617585 0.000000
#
# Coordination Sequence:
#
# PCOD9126621 Si02
#       8
#     4   4   4   4   4   4   4   4
#     4  10  22  41  66 100 128 172 225 267 319 400
#     4  11  23  42  70  94 135 180 216 272 331 384
#     4  10  22  41  65  98 134 171 226 267 321 394
#     4  11  23  45  65  94 133 170 212 274 335 387
#     4  11  23  44  64  96 133 174 215 273 329 386
#     4  11  22  43  69  93 131 173 214 270 332 388
#     4  11  25  45  66  97 132 171 224 272 328 398
#     4  11  25  42  66  97 129 168 223 274 327 403
#
# _framework density 20.300098999999999
#
# number of rings (size 3 to 8) (size 9 to 14) (size 15 to 20)
#    0.000    1.250    5.000    0.375    1.750    2.000 
#    6.750    0.000    0.000    0.000    0.000    0.000 
#    0.000    0.000    0.000    0.000    0.000    0.000 
#
# Total GULP energy -89167.402642 kJ/mol
# GULP energy per Si atom -5572.962665 kJ/mol
# Density = 2.025389 g / cm^3
# Si number density = 20.300099 Si / 1000 Ang^3
#
#
#
# Elastic Constant Matrix: (Units=GPa)
#
#
# Indices 1 2 3 4 5 6 
#
# 1 123.0867 18.2530 33.1756 0.0000 -17.9490 0.0000
# 2 18.2530 51.2725 9.5577 0.0000 -4.4734 0.0000
# 3 33.1756 9.5577 109.5553 0.0000 -3.9591 0.0000
# 4 0.0000 0.0000 0.0000 9.7367 0.0000 -3.4340
# 5 -17.9490 -4.4734 -3.9591 0.0000 40.1909 0.0000
# 6 0.0000 0.0000 0.0000 -3.4340 0.0000 28.0645
#
#
#
# Elastic Compliance Matrix: (Units=1/GPa)
#
#
# Indices 1 2 3 4 5 6 
#
# 1 0.009773 -0.002664 -0.002589 0.000000 0.003813 0.000000
# 2 -0.002664 0.020721 -0.000964 0.000000 0.001022 0.000000
# 3 -0.002589 -0.000964 0.009986 0.000000 -0.000280 0.000000
# 4 0.000000 0.000000 0.000000 0.107336 0.000000 0.013134
# 5 0.003813 0.001022 -0.000280 0.000000 0.026670 0.000000
# 6 0.000000 0.000000 0.000000 0.013134 0.000000 0.037239
#
#
# Mechanical properties :
#
#
# Convention : Reuss Voigt Hill
#
# Bulk Modulus (GPa) = 35.65657 45.09855 40.37756
# Shear Modulus (GPa) = 21.41243 30.46030 25.93637
#
# Velocity S-wave (km/s) = 3.25128 3.87783 3.57830
# Velocity P-wave (km/s) = 5.63004 6.50494 6.08324
#
# Compressibility (1/GPa) = 0.02804532
#
# Stress axis : x y z
#
# Youngs Moduli (GPa) = 102.31887 48.26055 100.14103
#
# Poissons Ratio (x) = 0.12856 0.25930
# Poissons Ratio (y) = 0.27257 0.09654
# Poissons Ratio (z) = 0.26494 0.04653
#
# Static dielectric constant tensor:
#      x y z
#    x 1.750440 0.000000 0.055350 
#    y 0.000000 1.750770 0.000000 
#    z 0.055350 0.000000 1.754510 
# 
# From -- ./inp_files/22239.got.cif
#   From: 2010.05.17/outbox.cif.g08.bks.cpg/sg5_12_cif.got.tgz:22239.got - 2010.06.03 18:56:24.
