data_PCOD9126963
_publ_section_title
;
Structure prediction by ZEFSAII (Michael W. Deem and Ramdas Pophale) SiO2 
 PCOD9126963
Probable space group: C 2
;
_chemical_formula_sum "Si O2"
_cell_formula_units_Z 26
_cell_length_a 13.658191
_cell_length_b 14.404667
_cell_length_c 8.820435
_cell_angle_alpha 90.000000
_cell_angle_beta 136.270187
_cell_angle_gamma 90.000000
_cell_volume 1199.573588
_symmetry_space_group_name_H-M "C 2"
_symmetry_group_IT_number 5
_symmetry_cell_setting 'monoclinic'
loop_
_space_group_symop_operation_xyz
x,y,z
-x,y,-z
1/2+x,1/2+y,z
1/2-x,1/2+y,-z
loop_
_atom_site_type_symbol
_atom_site_label
_atom_site_fract_x
_atom_site_fract_y
_atom_site_fract_z
Si Si1 0.728316 0.288180 0.992956
Si Si2 0.244796 0.722584 0.350894
Si Si3 0.649339 0.388461 0.440252
Si Si4 0.000000 0.770530 0.500000
Si Si5 0.342394 0.021960 0.783404
Si Si6 0.466506 0.683006 0.137534
Si Si7 0.145426 0.993906 0.860216
O O1 0.758900 0.240928 0.188306
O O2 0.865268 0.270371 0.045419
O O3 0.590378 0.241629 0.752557
O O4 0.712745 0.398954 0.001111
O O5 0.163594 0.812519 0.325483
O O6 0.158773 0.627606 0.273708
O O7 0.393329 0.701511 0.603878
O O8 0.627499 0.327491 0.566156
O O9 0.785509 0.452369 0.593047
O O10 0.517652 0.458317 0.312682
O O11 0.230208 0.012484 0.798124
O O12 0.500000 0.995152 0.000000
O O13 0.372368 0.593592 0.081507
O O14 0.500000 0.669723 0.000000
#
# Coordination Sequence:
#
# PCOD9126963 Si02
#       7
#     4   4   4   2   4   4   4
#     4  11  25  44  76 110 151 195 262 318 381 462
#     4  12  28  45  77 117 149 203 261 327 382 465
#     4  11  23  45  74 105 151 202 253 306 392 466
#     4  10  22  42  74 100 144 198 242 300 386 450
#     4  12  26  46  74 114 155 202 257 319 400 456
#     4  12  27  48  77 112 155 206 265 316 391 468
#     4  11  25  47  77 106 153 210 246 320 393 463
#
# _framework density 21.674368000000001
#
# number of rings (size 3 to 8) (size 9 to 14) (size 15 to 20)
#    0.000    0.615    6.154    1.385    8.615    0.000 
#    0.000    0.000    3.385    0.000    0.000    0.000 
#    0.000    0.000    0.000    0.000    0.000    0.000 
#
# Total GULP energy -72391.346099 kJ/mol
# GULP energy per Si atom -5568.565085 kJ/mol
# Density = 2.162504 g / cm^3
# Si number density = 21.674368 Si / 1000 Ang^3
#
#
#
# Elastic Constant Matrix: (Units=GPa)
#
#
# Indices 1 2 3 4 5 6 
#
# 1 81.1378 36.4244 26.4737 0.0000 -3.6047 0.0000
# 2 36.4244 73.4359 44.4746 0.0000 2.0451 0.0000
# 3 26.4737 44.4746 88.7543 0.0000 -5.0902 0.0000
# 4 0.0000 0.0000 0.0000 28.2863 0.0000 3.8963
# 5 -3.6047 2.0451 -5.0902 0.0000 33.7563 0.0000
# 6 0.0000 0.0000 0.0000 3.8963 0.0000 38.7357
#
#
#
# Elastic Compliance Matrix: (Units=1/GPa)
#
#
# Indices 1 2 3 4 5 6 
#
# 1 0.016069 -0.007458 -0.000940 0.000000 0.002026 0.000000
# 2 -0.007458 0.023256 -0.009639 0.000000 -0.003659 0.000000
# 3 -0.000940 -0.009639 0.016548 0.000000 0.002979 0.000000
# 4 0.000000 0.000000 0.000000 0.035849 0.000000 -0.003606
# 5 0.002026 -0.003659 0.002979 0.000000 0.030511 0.000000
# 6 0.000000 0.000000 0.000000 -0.003606 0.000000 0.026179
#
#
# Mechanical properties :
#
#
# Convention : Reuss Voigt Hill
#
# Bulk Modulus (GPa) = 50.50355 50.89703 50.70029
# Shear Modulus (GPa) = 26.16632 29.21936 27.69284
#
# Velocity S-wave (km/s) = 3.47832 3.67564 3.57834
# Velocity P-wave (km/s) = 6.28357 6.44572 6.36516
#
# Compressibility (1/GPa) = 0.01980059
#
# Stress axis : x y z
#
# Youngs Moduli (GPa) = 62.23066 43.00033 60.42938
#
# Poissons Ratio (x) = 0.32068 0.05680
# Poissons Ratio (y) = 0.46409 0.58246
# Poissons Ratio (z) = 0.05850 0.41447
#
# Static dielectric constant tensor:
#      x y z
#    x 1.875450 0.000000 -0.034550 
#    y 0.000000 1.846220 0.000000 
#    z -0.034550 0.000000 1.883500 
# 
# From -- ./inp_files/24754.got.cif
#   From: 2010.05.17/outbox.cif.g08.bks.cpg/sg5_13_cif.got.tgz:24754.got - 2010.06.03 18:56:24.
