data_PCOD9126325
_publ_section_title
;
Structure prediction by ZEFSAII (Michael W. Deem and Ramdas Pophale) SiO2 
 PCOD9126325
Probable space group: C 2
;
_chemical_formula_sum "Si O2"
_cell_formula_units_Z 26
_cell_length_a 12.582433
_cell_length_b 4.968426
_cell_length_c 20.124664
_cell_angle_alpha 90.000000
_cell_angle_beta 67.978392
_cell_angle_gamma 90.000000
_cell_volume 1166.303936
_symmetry_space_group_name_H-M "C 2"
_symmetry_group_IT_number 5
_symmetry_cell_setting 'monoclinic'
loop_
_space_group_symop_operation_xyz
x,y,z
-x,y,-z
1/2+x,1/2+y,z
1/2-x,1/2+y,-z
loop_
_atom_site_type_symbol
_atom_site_label
_atom_site_fract_x
_atom_site_fract_y
_atom_site_fract_z
Si Si1 0.234869 0.625000 0.460136
Si Si2 0.465293 0.171151 0.161849
Si Si3 0.315053 0.670449 0.170196
Si Si4 0.000000 0.335304 0.500000
Si Si5 0.212327 0.676891 0.048198
Si Si6 0.929086 0.535978 0.720032
Si Si7 0.024792 0.032353 0.632776
O O1 0.262116 0.433487 0.517748
O O2 0.111977 0.521349 0.467313
O O3 0.339357 0.567756 0.385871
O O4 0.417412 0.470209 0.164936
O O5 0.577024 0.130125 0.089894
O O6 0.508088 0.113036 0.226217
O O7 0.362838 0.969625 0.167853
O O8 0.204102 0.605612 0.240751
O O9 0.274123 0.628078 0.104092
O O10 0.993137 0.149805 0.436477
O O11 0.236301 0.978233 0.018602
O O12 0.952538 0.226210 0.697739
O O13 0.986663 0.727142 0.651231
#
# Coordination Sequence:
#
# PCOD9126325 Si02
#       7
#     4   4   4   2   4   4   4
#     4  10  22  40  60  87 120 154 196 249 310 378
#     4  11  24  43  65  91 129 170 212 259 304 363
#     4  11  24  43  67  94 127 170 212 251 308 368
#     4  10  24  42  64  90 124 160 200 260 324 384
#     4  11  24  41  65 100 135 165 207 259 305 362
#     4  11  25  43  62  92 125 161 213 263 305 368
#     4  11  23  41  65  90 122 161 206 259 320 378
#
# _framework density 22.292648
#
# number of rings (size 3 to 8) (size 9 to 14) (size 15 to 20)
#    0.000    1.231    0.000    5.538    0.000   17.846 
#    0.000    4.615    0.000    0.000    0.000    0.000 
#    0.000    0.000    0.000    0.000    0.000    0.000 
#
# Total GULP energy -72808.877157 kJ/mol
# GULP energy per Si atom -5600.682858 kJ/mol
# Density = 2.224191 g / cm^3
# Si number density = 22.292648 Si / 1000 Ang^3
#
#
#
# Elastic Constant Matrix: (Units=GPa)
#
#
# Indices 1 2 3 4 5 6 
#
# 1 93.4174 -9.2656 29.2827 0.0000 -18.5998 0.0003
# 2 -9.2656 55.8869 -9.0596 0.0002 0.6455 0.0008
# 3 29.2827 -9.0596 62.1839 0.0000 -16.4898 0.0001
# 4 0.0000 0.0002 0.0000 40.9219 0.0000 -7.0181
# 5 -18.5998 0.6455 -16.4898 0.0000 28.9846 0.0000
# 6 0.0003 0.0008 0.0001 -7.0181 0.0000 35.2239
#
#
#
# Elastic Compliance Matrix: (Units=1/GPa)
#
#
# Indices 1 2 3 4 5 6 
#
# 1 0.013469 0.001428 -0.004535 0.000000 0.006031 0.000000
# 2 0.001428 0.018520 0.002543 0.000000 0.001951 0.000000
# 3 -0.004535 0.002543 0.020963 0.000000 0.008959 0.000000
# 4 0.000000 0.000000 0.000000 0.025301 0.000000 0.005041
# 5 0.006031 0.001951 0.008959 0.000000 0.043425 0.000000
# 6 0.000000 0.000000 0.000000 0.005041 0.000000 0.029394
#
#
# Mechanical properties :
#
#
# Convention : Reuss Voigt Hill
#
# Bulk Modulus (GPa) = 19.29619 25.93368 22.61493
# Shear Modulus (GPa) = 29.50291 34.39480 31.94885
#
# Velocity S-wave (km/s) = 3.64185 3.93221 3.78981
# Velocity P-wave (km/s) = 5.13408 5.68110 5.41450
#
# Compressibility (1/GPa) = 0.05182371
#
# Stress axis : x y z
#
# Youngs Moduli (GPa) = 74.24618 53.99642 47.70256
#
# Poissons Ratio (x) = -0.07712 0.21633
# Poissons Ratio (y) = -0.10604 -0.12130
# Poissons Ratio (z) = 0.33671 -0.13731
#
# Static dielectric constant tensor:
#      x y z
#    x 1.811790 0.000000 0.000870 
#    y 0.000000 1.745190 0.000000 
#    z 0.000870 0.000000 1.818190 
# 
# From -- ./inp_files/64937.got.cif
#   From: 2010.05.17/outbox.cif.g08.bks.cpg/sg5_33_cif.got.tgz:64937.got - 2010.06.03 18:56:24.
