data_PCOD9126859
_publ_section_title
;
Structure prediction by ZEFSAII (Michael W. Deem and Ramdas Pophale) SiO2 
 PCOD9126859
Probable space group: C 2
;
_chemical_formula_sum "Si O2"
_cell_formula_units_Z 28
_cell_length_a 17.806529
_cell_length_b 5.026370
_cell_length_c 18.491035
_cell_angle_alpha 90.000000
_cell_angle_beta 140.420336
_cell_angle_gamma 90.000000
_cell_volume 1054.476621
_symmetry_space_group_name_H-M "C 2"
_symmetry_group_IT_number 5
_symmetry_cell_setting 'monoclinic'
loop_
_space_group_symop_operation_xyz
x,y,z
-x,y,-z
1/2+x,1/2+y,z
1/2-x,1/2+y,-z
loop_
_atom_site_type_symbol
_atom_site_label
_atom_site_fract_x
_atom_site_fract_y
_atom_site_fract_z
Si Si1 0.951326 0.746940 0.336773
Si Si2 0.500000 0.054689 0.000000
Si Si3 0.814002 0.141181 0.074407
Si Si4 0.753969 0.525024 0.843456
Si Si5 0.670062 0.090839 0.417545
Si Si6 0.950333 0.865642 0.811244
Si Si7 0.781545 0.423485 0.307379
Si Si8 0.500000 0.643435 0.500000
O O1 0.844285 0.613977 0.298755
O O2 0.049975 0.570475 0.374851
O O3 0.870356 0.903087 0.220052
O O4 0.000297 0.954697 0.430725
O O5 0.618639 0.894261 0.069790
O O6 0.516595 0.227360 0.086952
O O7 0.761022 0.267830 0.111209
O O8 0.780345 0.397866 0.001134
O O9 0.942031 0.035240 0.141579
O O10 0.740638 0.656483 0.754756
O O11 0.748059 0.333521 0.509374
O O12 0.613878 0.171327 0.296975
O O13 0.834591 0.040291 0.744554
O O14 0.890372 0.334548 0.436748
#
# Coordination Sequence:
#
# PCOD9126859 Si02
#       8
#     4   2   4   4   4   4   4   2
#     4  11  24  42  74 106 143 203 254 319 377 459
#     4  10  22  50  76 112 156 198 260 320 384 464
#     4  12  27  47  78 109 150 200 251 314 386 454
#     4  10  23  43  70 106 145 196 245 312 383 452
#     4  12  30  50  80 114 159 204 257 320 385 460
#     4  11  25  49  77 116 154 202 260 320 385 462
#     4  10  24  43  73 100 153 188 260 311 386 448
#     4  10  22  42  68 104 144 198 252 316 380 456
#
# _framework density 26.553459
#
# number of rings (size 3 to 8) (size 9 to 14) (size 15 to 20)
#    0.000    1.143    2.857    1.286   10.000    2.286 
#    2.571    0.714    0.000    0.000    0.000    0.000 
#    0.000    0.000    0.000    0.000    0.000    0.000 
#
# Total GULP energy -77949.434584 kJ/mol
# GULP energy per Si atom -5567.816756 kJ/mol
# Density = 2.649302 g / cm^3
# Si number density = 26.553459 Si / 1000 Ang^3
#
#
#
# Elastic Constant Matrix: (Units=GPa)
#
#
# Indices 1 2 3 4 5 6 
#
# 1 102.7491 113.4626 85.0992 -0.0024 -12.8589 -0.0053
# 2 113.4626 -61.7823 -31.7700 0.0053 71.2567 0.0099
# 3 85.0992 -31.7700 76.4384 0.0005 23.4180 0.0018
# 4 -0.0024 0.0053 0.0005 12.9016 -0.0014 -0.5643
# 5 -12.8589 71.2567 23.4180 -0.0014 42.4519 -0.0026
# 6 -0.0053 0.0099 0.0018 -0.5643 -0.0026 33.0904
#
#
#
# Elastic Compliance Matrix: (Units=1/GPa)
#
#
# Indices 1 2 3 4 5 6 
#
# 1 0.005479 0.005002 -0.002355 -0.000002 -0.005437 -0.000001
# 2 0.005002 0.000734 -0.006439 0.000001 0.003835 0.000001
# 3 -0.002355 -0.006439 0.011956 0.000002 0.003498 0.000001
# 4 -0.000002 0.000001 0.000002 0.077568 -0.000001 0.001323
# 5 -0.005437 0.003835 0.003498 -0.000001 0.013542 -0.000001
# 6 -0.000001 0.000001 0.000001 0.001323 -0.000001 0.030243
#
#
# Mechanical properties :
#
#
# Convention : Reuss Voigt Hill
#
# Bulk Modulus (GPa) = 94.46175 50.10986 72.28580
# Shear Modulus (GPa) = 33.19297 14.39633 23.79465
#
# Velocity S-wave (km/s) = 3.53943 2.33097 2.99675
# Velocity P-wave (km/s) = 7.23566 5.11437 6.26545
#
# Compressibility (1/GPa) = 0.01058630
#
# Stress axis : x y z
#
# Youngs Moduli (GPa) = 182.51729 1362.46557 83.63669
#
# Poissons Ratio (x) = -6.81500 0.19696
# Poissons Ratio (y) = -0.91294 0.53850
# Poissons Ratio (z) = 0.42983 8.77225
#
# Static dielectric constant tensor:
#      x y z
#    x 2.133570 0.000010 -0.035830 
#    y 0.000010 3.598100 0.000000 
#    z -0.035830 0.000000 2.124270 
# 
# From -- ./inp_files/66479.got.cif
#   From: 2010.05.17/outbox.cif.g08.bks.cpg/sg5_34_cif.got.tgz:66479.got - 2010.06.03 18:56:24.
