data_PCOD9126157
_publ_section_title
;
Structure prediction by ZEFSAII (Michael W. Deem and Ramdas Pophale) SiO2 
 PCOD9126157
Probable space group: C 2
;
_chemical_formula_sum "Si O2"
_cell_formula_units_Z 24
_cell_length_a 23.107079
_cell_length_b 9.956348
_cell_length_c 8.529143
_cell_angle_alpha 90.000000
_cell_angle_beta 137.453825
_cell_angle_gamma 90.000000
_cell_volume 1326.830691
_symmetry_space_group_name_H-M "C 2"
_symmetry_group_IT_number 5
_symmetry_cell_setting 'monoclinic'
loop_
_space_group_symop_operation_xyz
x,y,z
-x,y,-z
1/2+x,1/2+y,z
1/2-x,1/2+y,-z
loop_
_atom_site_type_symbol
_atom_site_label
_atom_site_fract_x
_atom_site_fract_y
_atom_site_fract_z
Si Si1 0.245539 0.046310 0.352750
Si Si2 0.178479 0.956354 0.897994
Si Si3 0.000000 0.078980 0.500000
Si Si4 0.850148 0.298787 0.694570
Si Si5 0.000000 0.539211 0.500000
Si Si6 0.997450 0.307776 0.241961
Si Si7 0.680030 0.158662 0.803122
O O1 0.200237 0.161417 0.365226
O O2 0.311078 0.123537 0.364539
O O3 0.289897 0.926790 0.538182
O O4 0.183584 0.976834 0.097668
O O5 0.203513 0.809297 0.892775
O O6 0.084863 0.991893 0.649976
O O7 0.249649 0.060694 0.979962
O O8 0.016376 0.178669 0.677176
O O9 0.914968 0.284934 0.677959
O O10 0.915260 0.324756 0.967711
O O11 0.993668 0.439566 0.634800
O O12 0.085658 0.626027 0.674096
#
# Coordination Sequence:
#
# PCOD9126157 Si02
#       7
#     4   4   2   4   2   4   4
#     4  10  24  40  62  96 128 178 210 270 328 394
#     4  10  23  40  64 100 129 169 226 278 337 378
#     4  11  21  40  68  96 130 170 232 280 326 378
#     4  11  22  42  62  93 136 172 222 257 340 410
#     4  11  21  40  68  96 130 170 232 280 326 378
#     4  10  22  38  66  94 126 180 216 272 328 400
#     4  10  23  40  64 100 129 169 226 278 337 378
#
# _framework density 18.088215000000002
#
# number of rings (size 3 to 8) (size 9 to 14) (size 15 to 20)
#    1.000    0.667    3.333    0.500    9.333    2.667 
#    0.000    0.000    0.000    0.000    0.000    0.000 
#    0.000    0.000    0.000    0.000    0.000    0.000 
#
# Total GULP energy -66883.179647 kJ/mol
# GULP energy per Si atom -5573.598304 kJ/mol
# Density = 1.804704 g / cm^3
# Si number density = 18.088215 Si / 1000 Ang^3
#
#
#
# Elastic Constant Matrix: (Units=GPa)
#
#
# Indices 1 2 3 4 5 6 
#
# 1 -1.8018 -36.5193 -14.3521 0.0000 4.5463 0.0000
# 2 -36.5193 62.9413 -13.2476 0.0000 4.7821 0.0000
# 3 -14.3521 -13.2476 17.1753 0.0000 9.4884 0.0000
# 4 0.0000 0.0000 0.0000 16.1855 0.0000 17.5605
# 5 4.5463 4.7821 9.4884 0.0000 35.0668 0.0000
# 6 0.0000 0.0000 0.0000 17.5605 0.0000 30.4726
#
#
#
# Elastic Compliance Matrix: (Units=1/GPa)
#
#
# Indices 1 2 3 4 5 6 
#
# 1 -0.012989 -0.014303 -0.028093 0.000000 0.011236 0.000000
# 2 -0.014303 0.005165 -0.010115 0.000000 0.003887 0.000000
# 3 -0.028093 -0.010115 0.028420 0.000000 -0.002668 0.000000
# 4 0.000000 0.000000 0.000000 0.164859 0.000000 -0.095004
# 5 0.011236 0.003887 -0.002668 0.000000 0.027252 0.000000
# 6 0.000000 0.000000 0.000000 -0.095004 0.000000 0.087565
#
#
# Mechanical properties :
#
#
# Convention : Reuss Voigt Hill
#
# Bulk Modulus (GPa) = -11.84480 -5.54704 -8.69592
# Shear Modulus (GPa) = 13.25726 25.84056 19.54891
#
# Velocity S-wave (km/s) = 2.71019 3.78376 3.29105
# Velocity P-wave (km/s) = 1.79748 4.00198 3.10216
#
# Compressibility (1/GPa) = -0.08442527
#
# Stress axis : x y z
#
# Youngs Moduli (GPa) = -76.99004 193.61553 35.18636
#
# Poissons Ratio (x) = 2.76923 0.98848
# Poissons Ratio (y) = -1.10117 0.35592
# Poissons Ratio (z) = -2.16286 1.95848
#
# Static dielectric constant tensor:
#      x y z
#    x 1.641140 0.000000 -0.000240 
#    y 0.000000 1.594200 0.000000 
#    z -0.000240 0.000000 1.635250 
# 
# From -- ./inp_files/30614.got.cif
#   From: 2010.05.17/outbox.cif.g08.bks.cpg/sg5_16_cif.got.tgz:30614.got - 2010.06.03 18:56:24.
