data_PCOD9126201
_publ_section_title
;
Structure prediction by ZEFSAII (Michael W. Deem and Ramdas Pophale) SiO2 
 PCOD9126201
Probable space group: C 2
;
_chemical_formula_sum "Si O2"
_cell_formula_units_Z 20
_cell_length_a 16.341694
_cell_length_b 8.645134
_cell_length_c 10.900591
_cell_angle_alpha 90.000000
_cell_angle_beta 142.176574
_cell_angle_gamma 90.000000
_cell_volume 944.370229
_symmetry_space_group_name_H-M "C 2"
_symmetry_group_IT_number 5
_symmetry_cell_setting 'monoclinic'
loop_
_space_group_symop_operation_xyz
x,y,z
-x,y,-z
1/2+x,1/2+y,z
1/2-x,1/2+y,-z
loop_
_atom_site_type_symbol
_atom_site_label
_atom_site_fract_x
_atom_site_fract_y
_atom_site_fract_z
Si Si1 0.000000 0.809011 0.500000
Si Si2 0.133136 0.057007 0.507377
Si Si3 0.500000 0.825104 0.500000
Si Si4 0.815682 0.571725 0.147920
Si Si5 0.975181 0.149125 0.107419
Si Si6 0.606039 0.005974 0.033409
O O1 0.878930 0.706463 0.307019
O O2 0.965351 0.919834 0.571179
O O3 0.088783 0.213072 0.522711
O O4 0.107915 0.100570 0.337949
O O5 0.268655 0.998562 0.727204
O O6 0.398154 0.924857 0.297212
O O7 0.850551 0.583829 0.044166
O O8 0.657520 0.577632 0.986310
O O9 0.948984 0.334851 0.068000
O O10 0.000000 0.092908 0.000000
O O11 0.500000 0.085028 0.000000
#
# Coordination Sequence:
#
# PCOD9126201 Si02
#       6
#     2   4   2   4   4   4
#     4  10  22  38  72 102 134 186 234 272 354 410
#     4  11  22  42  68  99 136 186 226 283 344 419
#     4  10  22  38  72 102 134 186 234 272 354 410
#     4  11  22  43  66 102 142 181 228 291 336 416
#     4  11  25  45  70 102 141 182 231 291 344 409
#     4  11  25  45  70 102 141 182 231 291 344 409
#
# _framework density 21.178135999999999
#
# number of rings (size 3 to 8) (size 9 to 14) (size 15 to 20)
#    0.000    1.200    4.000    2.400    0.000    3.200 
#    0.000    2.000    0.000    0.000    0.000    0.000 
#    0.000    0.000    0.000    0.000    0.000    0.000 
#
# Total GULP energy -55775.988091 kJ/mol
# GULP energy per Si atom -5577.598809 kJ/mol
# Density = 2.112993 g / cm^3
# Si number density = 21.178136 Si / 1000 Ang^3
#
#
#
# Elastic Constant Matrix: (Units=GPa)
#
#
# Indices 1 2 3 4 5 6 
#
# 1 129.5206 5.6275 20.9319 0.0000 -28.7777 0.0000
# 2 5.6275 61.0441 22.0409 0.0000 -6.9164 0.0000
# 3 20.9319 22.0409 90.8224 0.0000 -39.2815 0.0000
# 4 0.0000 0.0000 0.0000 23.0947 0.0000 -12.4157
# 5 -28.7777 -6.9164 -39.2815 0.0000 41.4535 0.0000
# 6 0.0000 0.0000 0.0000 -12.4157 0.0000 11.6229
#
#
#
# Elastic Compliance Matrix: (Units=1/GPa)
#
#
# Indices 1 2 3 4 5 6 
#
# 1 0.009203 -0.000441 0.001216 0.000000 0.007467 0.000000
# 2 -0.000441 0.018067 -0.005272 0.000000 -0.002288 0.000000
# 3 0.001216 -0.005272 0.020324 0.000000 0.019223 0.000000
# 4 0.000000 0.000000 0.000000 0.101707 0.000000 0.108645
# 5 0.007467 -0.002288 0.019223 0.000000 0.047142 0.000000
# 6 0.000000 0.000000 0.000000 0.108645 0.000000 0.202092
#
#
# Mechanical properties :
#
#
# Convention : Reuss Voigt Hill
#
# Bulk Modulus (GPa) = 25.90842 42.06531 33.98686
# Shear Modulus (GPa) = 11.89356 30.75335 21.32345
#
# Velocity S-wave (km/s) = 2.37237 3.81481 3.17655
# Velocity P-wave (km/s) = 4.44571 6.26973 5.43479
#
# Compressibility (1/GPa) = 0.03859749
#
# Stress axis : x y z
#
# Youngs Moduli (GPa) = 108.66575 55.35050 49.20258
#
# Poissons Ratio (x) = 0.02443 -0.05981
# Poissons Ratio (y) = 0.04795 0.25941
# Poissons Ratio (z) = -0.13210 0.29183
#
# Static dielectric constant tensor:
#      x y z
#    x 1.808040 0.000000 0.061910 
#    y 0.000000 1.766500 0.000000 
#    z 0.061910 0.000000 1.827730 
# 
# From -- ./inp_files/15599.got.cif
#   From: 2010.05.17/outbox.cif.g08.bks.cpg/sg5_8_cif.got.tgz:15599.got - 2010.06.03 18:56:24.
