data_PCOD9126217
_publ_section_title
;
Structure prediction by ZEFSAII (Michael W. Deem and Ramdas Pophale) SiO2 
 PCOD9126217
Probable space group: C 2
;
_chemical_formula_sum "Si O2"
_cell_formula_units_Z 24
_cell_length_a 12.799523
_cell_length_b 13.004249
_cell_length_c 14.943986
_cell_angle_alpha 90.000000
_cell_angle_beta 31.413640
_cell_angle_gamma 90.000000
_cell_volume 1296.464411
_symmetry_space_group_name_H-M "C 2"
_symmetry_group_IT_number 5
_symmetry_cell_setting 'monoclinic'
loop_
_space_group_symop_operation_xyz
x,y,z
-x,y,-z
1/2+x,1/2+y,z
1/2-x,1/2+y,-z
loop_
_atom_site_type_symbol
_atom_site_label
_atom_site_fract_x
_atom_site_fract_y
_atom_site_fract_z
Si Si1 0.000000 0.130980 0.000000
Si Si2 0.427786 0.040044 0.654028
Si Si3 0.526309 0.809843 0.309233
Si Si4 0.206513 0.136201 0.306003
Si Si5 0.329164 0.804432 0.998597
Si Si6 0.598773 0.216802 0.656569
Si Si7 0.500000 0.978436 0.000000
O O1 0.808021 0.064182 0.165642
O O2 0.938921 0.206247 0.963216
O O3 0.500000 0.054272 0.500000
O O4 0.538371 0.121725 0.637452
O O5 0.467661 0.924225 0.655990
O O6 0.642089 0.731310 0.290260
O O7 0.295602 0.772642 0.474706
O O8 0.626080 0.807510 0.138925
O O9 0.343026 0.175639 0.287735
O O10 0.000000 0.095118 0.500000
O O11 0.324285 0.050773 0.165069
O O12 0.094706 0.789616 0.192197
O O13 0.417038 0.904864 0.982600
#
# Coordination Sequence:
#
# PCOD9126217 Si02
#       7
#     2   4   4   4   4   4   2
#     4   9  22  41  58  82 116 151 192 233 278 336
#     4  11  22  38  61  86 114 150 189 234 285 336
#     4  11  23  38  60  86 116 150 189 235 283 336
#     4  10  22  40  58  83 116 151 189 234 281 335
#     4  10  22  39  59  85 114 151 191 233 282 335
#     4  10  22  40  60  83 115 151 191 234 279 336
#     4  11  22  37  60  86 116 149 188 235 286 336
#
# _framework density 18.511883999999998
#
# number of rings (size 3 to 8) (size 9 to 14) (size 15 to 20)
#    0.000    1.667    0.000    4.500    0.000    8.667 
#    0.000    1.667    0.000    0.000    0.000    0.000 
#    0.000    0.000    0.000    0.000    0.000    0.000 
#
# Total GULP energy -67072.501923 kJ/mol
# GULP energy per Si atom -5589.375160 kJ/mol
# Density = 1.846975 g / cm^3
# Si number density = 18.511884 Si / 1000 Ang^3
#
#
#
# Elastic Constant Matrix: (Units=GPa)
#
#
# Indices 1 2 3 4 5 6 
#
# 1 118.9868 60.1152 78.7942 0.0051 0.7920 0.0003
# 2 60.1152 127.7411 100.5189 0.0131 -14.0906 0.0009
# 3 78.7942 100.5189 141.1117 0.0116 7.3061 0.0012
# 4 0.0051 0.0131 0.0116 -345.4783 -0.0060 46.0565
# 5 0.7920 -14.0906 7.3061 -0.0060 38.1413 -0.0003
# 6 0.0003 0.0009 0.0012 46.0565 -0.0003 6.0981
#
#
#
# Elastic Compliance Matrix: (Units=1/GPa)
#
#
# Indices 1 2 3 4 5 6 
#
# 1 0.013407 -0.000668 -0.007053 0.000000 0.000826 0.000001
# 2 -0.000668 0.021641 -0.015612 0.000000 0.010999 0.000000
# 3 -0.007053 -0.015612 0.022662 0.000000 -0.009962 -0.000002
# 4 0.000000 0.000000 0.000000 -0.001442 0.000000 0.010893
# 5 0.000826 0.010999 -0.009962 0.000000 0.032173 0.000003
# 6 0.000001 0.000000 -0.000002 0.010893 0.000003 0.081712
#
#
# Mechanical properties :
#
#
# Convention : Reuss Voigt Hill
#
# Bulk Modulus (GPa) = 90.55406 96.29959 93.42683
# Shear Modulus (GPa) = 22.67564 -50.35371 -13.83903
#
# Velocity S-wave (km/s) = 3.50369 -5.22109 -2.73715
# Velocity P-wave (km/s) = 8.08645 3.97328 6.37094
#
# Compressibility (1/GPa) = 0.01104313
#
# Stress axis : x y z
#
# Youngs Moduli (GPa) = 74.58826 46.20778 44.12749
#
# Poissons Ratio (x) = 0.03089 0.31122
# Poissons Ratio (y) = 0.04986 0.68893
# Poissons Ratio (z) = 0.52605 0.72140
#
# Static dielectric constant tensor:
#      x y z
#    x 1.631650 0.000000 -0.000780 
#    y 0.000000 1.601620 0.000000 
#    z -0.000780 0.000000 1.639870 
# 
# From -- ./inp_files/54418.got.cif
#   From: 2010.05.17/outbox.cif.g08.bks.cpg/sg5_28_cif.got.tgz:54418.got - 2010.06.03 18:56:24.
