data_PCOD9126644
_publ_section_title
;
Structure prediction by ZEFSAII (Michael W. Deem and Ramdas Pophale) SiO2 
 PCOD9126644
Probable space group: C 2
;
_chemical_formula_sum "Si O2"
_cell_formula_units_Z 22
_cell_length_a 13.586356
_cell_length_b 4.728273
_cell_length_c 19.321723
_cell_angle_alpha 90.000000
_cell_angle_beta 42.079664
_cell_angle_gamma 90.000000
_cell_volume 831.825020
_symmetry_space_group_name_H-M "C 2"
_symmetry_group_IT_number 5
_symmetry_cell_setting 'monoclinic'
loop_
_space_group_symop_operation_xyz
x,y,z
-x,y,-z
1/2+x,1/2+y,z
1/2-x,1/2+y,-z
loop_
_atom_site_type_symbol
_atom_site_label
_atom_site_fract_x
_atom_site_fract_y
_atom_site_fract_z
Si Si1 0.847311 0.814270 0.954229
Si Si2 0.721829 0.715426 0.782237
Si Si3 0.292810 0.836462 0.520963
Si Si4 0.928235 0.527754 0.264659
Si Si5 0.084745 0.216343 0.309252
Si Si6 0.500000 0.004757 0.000000
O O1 0.955699 0.722165 0.836778
O O2 0.915892 0.703216 0.989391
O O3 0.695042 0.641357 0.023793
O O4 0.650852 0.823371 0.748693
O O5 0.873168 0.889514 0.714612
O O6 0.614893 0.809810 0.899112
O O7 0.764899 0.389081 0.758359
O O8 0.235083 0.660645 0.483560
O O9 0.194578 0.719283 0.633719
O O10 0.465793 0.776314 0.430963
O O11 0.015543 0.340261 0.275307
#
# Coordination Sequence:
#
# PCOD9126644 Si02
#       6
#     4   4   4   4   4   2
#     4  11  24  41  66  95 128 170 210 256 316 376
#     4  11  25  41  67  96 127 169 211 257 317 377
#     4  10  22  41  67  93 126 168 209 262 317 369
#     4  10  24  43  66  94 130 167 211 261 315 374
#     4  11  23  43  64  92 129 167 211 262 313 372
#     4  10  24  42  64  98 132 162 212 264 308 376
#
# _framework density 26.447870999999999
#
# number of rings (size 3 to 8) (size 9 to 14) (size 15 to 20)
#    0.000    1.455    0.000    4.364    0.000   15.273 
#    0.000    5.455    0.000    0.000    0.000    0.000 
#    0.000    0.000    0.000    0.000    0.000    0.000 
#
# Total GULP energy -61843.460319 kJ/mol
# GULP energy per Si atom -5622.132756 kJ/mol
# Density = 2.638767 g / cm^3
# Si number density = 26.447871 Si / 1000 Ang^3
#
#
#
# Elastic Constant Matrix: (Units=GPa)
#
#
# Indices 1 2 3 4 5 6 
#
# 1 110.9859 17.7538 44.2778 -0.0020 12.4173 0.0048
# 2 17.7538 97.3046 13.6162 -0.0046 -1.0413 0.0147
# 3 44.2778 13.6162 158.0423 -0.0034 4.0372 0.0018
# 4 -0.0020 -0.0046 -0.0034 44.1800 -0.0004 -13.3565
# 5 12.4173 -1.0413 4.0372 -0.0004 40.7452 -0.0004
# 6 0.0048 0.0147 0.0018 -13.3565 -0.0004 39.3951
#
#
#
# Elastic Compliance Matrix: (Units=1/GPa)
#
#
# Indices 1 2 3 4 5 6 
#
# 1 0.010717 -0.001598 -0.002787 0.000000 -0.003031 -0.000001
# 2 -0.001598 0.010646 -0.000490 0.000000 0.000808 -0.000004
# 3 -0.002787 -0.000490 0.007147 0.000000 0.000129 0.000000
# 4 0.000000 0.000000 0.000000 0.025220 0.000000 0.008550
# 5 -0.003031 0.000808 0.000129 0.000000 0.025474 0.000000
# 6 -0.000001 -0.000004 0.000000 0.008550 0.000000 0.028283
#
#
# Mechanical properties :
#
#
# Convention : Reuss Voigt Hill
#
# Bulk Modulus (GPa) = 53.30706 57.51426 55.41066
# Shear Modulus (GPa) = 40.48900 44.24307 42.36604
#
# Velocity S-wave (km/s) = 3.91691 4.09447 4.00668
# Velocity P-wave (km/s) = 6.37617 6.64428 6.51161
#
# Compressibility (1/GPa) = 0.01875924
#
# Stress axis : x y z
#
# Youngs Moduli (GPa) = 93.31104 93.93414 139.91304
#
# Poissons Ratio (x) = 0.15008 0.38999
# Poissons Ratio (y) = 0.14909 0.06858
# Poissons Ratio (z) = 0.26010 0.04605
#
# Static dielectric constant tensor:
#      x y z
#    x 2.068950 0.000000 -0.015820 
#    y 0.000000 1.952030 0.000000 
#    z -0.015820 0.000000 2.036020 
# 
# From -- ./inp_files/48206.got.cif
#   From: 2010.05.17/outbox.cif.g08.bks.cpg/sg5_25_cif.got.tgz:48206.got - 2010.06.03 18:56:24.
