data_PCOD9126395
_publ_section_title
;
Structure prediction by ZEFSAII (Michael W. Deem and Ramdas Pophale) SiO2 
 PCOD9126395
Probable space group: C 2
;
_chemical_formula_sum "Si O2"
_cell_formula_units_Z 24
_cell_length_a 14.790517
_cell_length_b 15.492159
_cell_length_c 8.463334
_cell_angle_alpha 90.000000
_cell_angle_beta 37.898330
_cell_angle_gamma 90.000000
_cell_volume 1191.216148
_symmetry_space_group_name_H-M "C 2"
_symmetry_group_IT_number 5
_symmetry_cell_setting 'monoclinic'
loop_
_space_group_symop_operation_xyz
x,y,z
-x,y,-z
1/2+x,1/2+y,z
1/2-x,1/2+y,-z
loop_
_atom_site_type_symbol
_atom_site_label
_atom_site_fract_x
_atom_site_fract_y
_atom_site_fract_z
Si Si1 0.544600 0.482070 0.618508
Si Si2 0.938611 0.802425 0.255428
Si Si3 0.935146 0.160007 0.911263
Si Si4 0.113140 0.651276 0.461948
Si Si5 0.910654 0.325291 0.289293
Si Si6 0.131927 0.511811 0.698813
O O1 0.500000 0.465298 0.500000
O O2 0.504942 0.397629 0.776258
O O3 0.468370 0.570533 0.778837
O O4 0.719675 0.493849 0.406664
O O5 0.970438 0.732998 0.347013
O O6 0.760683 0.803360 0.495093
O O7 0.000000 0.777530 0.000000
O O8 0.013399 0.244535 0.729113
O O9 0.762152 0.176058 0.167149
O O10 0.000000 0.150566 0.000000
O O11 0.157550 0.589246 0.543835
O O12 0.000000 0.606370 0.500000
O O13 0.909982 0.425033 0.341490
O O14 0.000000 0.329494 0.000000
O O15 0.000000 0.532211 0.000000
#
# Coordination Sequence:
#
# PCOD9126395 Si02
#       6
#     4   4   4   4   4   4
#     4  11  24  40  67  98 127 173 221 269 323 392
#     4  11  22  40  68  98 129 165 222 273 328 384
#     4  11  20  43  67  88 129 177 219 258 332 391
#     4  12  25  41  64  97 134 171 217 276 324 382
#     4   9  18  39  68  87 118 175 213 256 324 386
#     4  10  22  40  64  92 130 167 216 269 326 382
#
# _framework density 20.147478
#
# number of rings (size 3 to 8) (size 9 to 14) (size 15 to 20)
#    0.000    1.333    5.000    1.500    4.667    0.000 
#    0.000    0.833    0.000    0.000    0.000    0.000 
#    0.000    0.000    0.000    0.000    0.000    0.000 
#
# Total GULP energy -66951.108721 kJ/mol
# GULP energy per Si atom -5579.259060 kJ/mol
# Density = 2.010162 g / cm^3
# Si number density = 20.147478 Si / 1000 Ang^3
#
#
#
# Elastic Constant Matrix: (Units=GPa)
#
#
# Indices 1 2 3 4 5 6 
#
# 1 73.7593 4.2768 22.7585 0.0000 -11.4561 0.0000
# 2 4.2768 121.5332 20.5532 0.0000 0.5104 0.0000
# 3 22.7585 20.5532 78.3852 0.0000 -6.7658 0.0000
# 4 0.0000 0.0000 0.0000 31.9124 0.0000 -0.4636
# 5 -11.4561 0.5104 -6.7658 0.0000 14.8765 0.0000
# 6 0.0000 0.0000 0.0000 -0.4636 0.0000 8.8115
#
#
#
# Elastic Compliance Matrix: (Units=1/GPa)
#
#
# Indices 1 2 3 4 5 6 
#
# 1 0.016434 0.000025 -0.003836 0.000000 0.010910 0.000000
# 2 0.000025 0.008637 -0.002390 0.000000 -0.001364 0.000000
# 3 -0.003836 -0.002390 0.014832 0.000000 0.003873 0.000000
# 4 0.000000 0.000000 0.000000 0.031360 0.000000 0.001650
# 5 0.010910 -0.001364 0.003873 0.000000 0.077430 0.000000
# 6 0.000000 0.000000 0.000000 0.001650 0.000000 0.113575
#
#
# Mechanical properties :
#
#
# Convention : Reuss Voigt Hill
#
# Bulk Modulus (GPa) = 36.36205 40.98384 38.67295
# Shear Modulus (GPa) = 17.61566 26.19270 21.90418
#
# Velocity S-wave (km/s) = 2.96012 3.60953 3.30084
# Velocity P-wave (km/s) = 5.45621 6.14473 5.81068
#
# Compressibility (1/GPa) = 0.02750120
#
# Stress axis : x y z
#
# Youngs Moduli (GPa) = 60.84792 115.77837 67.42052
#
# Poissons Ratio (x) = -0.00285 0.25865
# Poissons Ratio (y) = -0.00150 0.16111
# Poissons Ratio (z) = 0.23343 0.27667
#
# Static dielectric constant tensor:
#      x y z
#    x 1.688940 0.000000 -0.010790 
#    y 0.000000 1.781020 0.000000 
#    z -0.010790 0.000000 1.694610 
# 
# From -- ./inp_files/24498.got.cif
#   From: 2010.05.17/outbox.cif.g08.bks.cpg/sg5_13_cif.got.tgz:24498.got - 2010.06.03 18:56:24.
