data_PCOD9126820
_publ_section_title
;
Structure prediction by ZEFSAII (Michael W. Deem and Ramdas Pophale) SiO2 
 PCOD9126820
Probable space group: C 2
;
_chemical_formula_sum "Si O2"
_cell_formula_units_Z 32
_cell_length_a 12.051951
_cell_length_b 7.687314
_cell_length_c 15.354747
_cell_angle_alpha 90.000000
_cell_angle_beta 88.036020
_cell_angle_gamma 90.000000
_cell_volume 1421.737604
_symmetry_space_group_name_H-M "C 2"
_symmetry_group_IT_number 5
_symmetry_cell_setting 'monoclinic'
loop_
_space_group_symop_operation_xyz
x,y,z
-x,y,-z
1/2+x,1/2+y,z
1/2-x,1/2+y,-z
loop_
_atom_site_type_symbol
_atom_site_label
_atom_site_fract_x
_atom_site_fract_y
_atom_site_fract_z
Si Si1 0.230581 0.038710 0.091246
Si Si2 0.001877 0.096494 0.900966
Si Si3 0.379377 0.035499 0.481720
Si Si4 0.548081 0.965693 0.842709
Si Si5 0.174850 0.637166 0.099199
Si Si6 0.161777 0.983400 0.763047
Si Si7 0.286883 0.776914 0.621464
Si Si8 0.468959 0.775248 0.335400
O O1 0.123613 0.150169 0.119506
O O2 0.335677 0.061700 0.149464
O O3 0.183520 0.844214 0.100093
O O4 0.269300 0.073368 0.991919
O O5 0.065570 0.280251 0.891898
O O6 0.060102 0.963231 0.834084
O O7 0.000000 0.034491 0.000000
O O8 0.500000 0.121434 0.500000
O O9 0.323006 0.951038 0.568026
O O10 0.289664 0.156076 0.436744
O O11 0.414949 0.875581 0.417779
O O12 0.449825 0.069209 0.890291
O O13 0.521308 0.912974 0.744525
O O14 0.241137 0.561608 0.179720
O O15 0.212235 0.829868 0.705450
O O16 0.111435 0.125350 0.697646
O O17 0.407980 0.703822 0.645792
#
# Coordination Sequence:
#
# PCOD9126820 Si02
#       8
#     4   4   4   4   4   4   4   4
#     4  12  24  42  63  88 130 177 224 277 323 377
#     4  11  22  43  62  88 132 174 221 275 324 377
#     4  10  24  44  72 101 130 164 208 262 325 405
#     4  11  23  42  64  93 129 174 221 270 328 381
#     4  12  23  42  64  90 130 177 224 277 324 373
#     4  11  23  43  65  94 136 174 217 272 322 382
#     4  11  23  45  70  99 133 166 210 266 328 394
#     4  10  22  42  66  97 132 171 210 262 330 389
#
# _framework density 22.507667999999999
#
# number of rings (size 3 to 8) (size 9 to 14) (size 15 to 20)
#    0.000    1.000    5.000    2.625    0.000    5.000 
#    4.500    0.000    0.000    0.000    0.000    0.000 
#    0.000    0.000    0.000    0.000    0.000    0.000 
#
# Total GULP energy -89520.474376 kJ/mol
# GULP energy per Si atom -5595.029648 kJ/mol
# Density = 2.245644 g / cm^3
# Si number density = 22.507668 Si / 1000 Ang^3
#
#
#
# Elastic Constant Matrix: (Units=GPa)
#
#
# Indices 1 2 3 4 5 6 
#
# 1 165.8302 25.9376 31.9654 0.0000 7.7157 0.0000
# 2 25.9376 39.4456 15.8250 0.0000 -0.0945 0.0000
# 3 31.9654 15.8250 87.8609 0.0000 -2.9828 0.0000
# 4 0.0000 0.0000 0.0000 33.1380 0.0000 7.6688
# 5 7.7157 -0.0945 -2.9828 0.0000 49.9151 0.0000
# 6 0.0000 0.0000 0.0000 7.6688 0.0000 29.4188
#
#
#
# Elastic Compliance Matrix: (Units=1/GPa)
#
#
# Indices 1 2 3 4 5 6 
#
# 1 0.007062 -0.003880 -0.001912 0.000000 -0.001213 0.000000
# 2 -0.003880 0.029460 -0.003880 0.000000 0.000424 0.000000
# 3 -0.001912 -0.003880 0.012812 0.000000 0.001054 0.000000
# 4 0.000000 0.000000 0.000000 0.032114 0.000000 -0.008371
# 5 -0.001213 0.000424 0.001054 0.000000 0.020285 0.000000
# 6 0.000000 0.000000 0.000000 -0.008371 0.000000 0.036174
#
#
# Mechanical properties :
#
#
# Convention : Reuss Voigt Hill
#
# Bulk Modulus (GPa) = 33.34368 48.95475 41.14922
# Shear Modulus (GPa) = 29.89576 37.12163 33.50869
#
# Velocity S-wave (km/s) = 3.64847 4.06555 3.86264
# Velocity P-wave (km/s) = 5.70920 6.62085 6.18185
#
# Compressibility (1/GPa) = 0.02999069
#
# Stress axis : x y z
#
# Youngs Moduli (GPa) = 141.60240 33.94416 78.05289
#
# Poissons Ratio (x) = 0.13169 0.14921
# Poissons Ratio (y) = 0.54936 0.30287
# Poissons Ratio (z) = 0.27070 0.13171
#
# Static dielectric constant tensor:
#      x y z
#    x 1.875520 0.000000 0.020830 
#    y 0.000000 1.810800 0.000000 
#    z 0.020830 0.000000 1.821330 
# 
# From -- ./inp_files/52441.got.cif
#   From: 2010.05.17/outbox.cif.g08.bks.cpg/sg5_27_cif.got.tgz:52441.got - 2010.06.03 18:56:24.
