data_PCOD9126185
_publ_section_title
;
Structure prediction by ZEFSAII (Michael W. Deem and Ramdas Pophale) SiO2 
 PCOD9126185
Probable space group: C 2
;
_chemical_formula_sum "Si O2"
_cell_formula_units_Z 26
_cell_length_a 18.603414
_cell_length_b 8.525898
_cell_length_c 17.441586
_cell_angle_alpha 90.000000
_cell_angle_beta 153.736899
_cell_angle_gamma 90.000000
_cell_volume 1224.125378
_symmetry_space_group_name_H-M "C 2"
_symmetry_group_IT_number 5
_symmetry_cell_setting 'monoclinic'
loop_
_space_group_symop_operation_xyz
x,y,z
-x,y,-z
1/2+x,1/2+y,z
1/2-x,1/2+y,-z
loop_
_atom_site_type_symbol
_atom_site_label
_atom_site_fract_x
_atom_site_fract_y
_atom_site_fract_z
Si Si1 0.227408 0.287520 0.257335
Si Si2 0.000000 0.002086 0.000000
Si Si3 0.409563 0.329563 0.066977
Si Si4 0.108954 0.667384 0.368185
Si Si5 0.917488 0.331639 0.730674
Si Si6 0.347585 0.598372 0.123394
Si Si7 0.945456 0.849369 0.331495
O O1 0.148058 0.115767 0.168974
O O2 0.097685 0.362085 0.192661
O O3 0.282739 0.345745 0.226378
O O4 0.396936 0.317097 0.465125
O O5 0.937202 0.896281 0.009599
O O6 0.581063 0.284179 0.270062
O O7 0.326870 0.463469 0.040195
O O8 0.303789 0.172371 0.976405
O O9 0.106832 0.491983 0.337514
O O10 0.271695 0.713903 0.567627
O O11 0.960313 0.710566 0.283155
O O12 0.070896 0.238908 0.845982
O O13 0.454792 0.510158 0.291646
#
# Coordination Sequence:
#
# PCOD9126185 Si02
#       7
#     4   2   4   4   4   4   4
#     4  10  22  40  65  92 134 170 213 263 333 383
#     4  12  26  40  64 100 134 172 210 278 328 390
#     4  11  25  42  61  98 131 170 217 267 333 379
#     4  10  22  38  68  94 129 169 224 267 315 386
#     4  11  21  40  67  94 127 174 220 266 317 385
#     4  11  23  42  66  96 129 172 220 267 319 387
#     4   9  22  42  66  91 130 175 219 259 320 391
#
# _framework density 21.239654000000002
#
# number of rings (size 3 to 8) (size 9 to 14) (size 15 to 20)
#    0.000    1.538    1.538    3.692    8.615    2.462 
#    0.000    0.000    0.000    0.000    0.000    0.000 
#    0.000    0.000    0.000    0.000    0.000    0.000 
#
# Total GULP energy -72455.834922 kJ/mol
# GULP energy per Si atom -5573.525763 kJ/mol
# Density = 2.119131 g / cm^3
# Si number density = 21.239654 Si / 1000 Ang^3
#
#
#
# Elastic Constant Matrix: (Units=GPa)
#
#
# Indices 1 2 3 4 5 6 
#
# 1 157.0488 42.2524 19.3536 0.0000 1.3222 0.0000
# 2 42.2524 69.0724 -4.8402 0.0000 -1.4313 0.0000
# 3 19.3536 -4.8402 56.2057 0.0000 4.1646 0.0000
# 4 0.0000 0.0000 0.0000 39.1664 0.0000 -3.0625
# 5 1.3222 -1.4313 4.1646 0.0000 26.5828 0.0000
# 6 0.0000 0.0000 0.0000 -3.0625 0.0000 36.5423
#
#
#
# Elastic Compliance Matrix: (Units=1/GPa)
#
#
# Indices 1 2 3 4 5 6 
#
# 1 0.008178 -0.005234 -0.003254 0.000000 -0.000179 0.000000
# 2 -0.005234 0.017925 0.003293 0.000000 0.000709 0.000000
# 3 -0.003254 0.003293 0.019396 0.000000 -0.002699 0.000000
# 4 0.000000 0.000000 0.000000 0.025701 0.000000 0.002154
# 5 -0.000179 0.000709 -0.002699 0.000000 0.038088 0.000000
# 6 0.000000 0.000000 0.000000 0.002154 0.000000 0.027546
#
#
# Mechanical properties :
#
#
# Convention : Reuss Voigt Hill
#
# Bulk Modulus (GPa) = 28.48200 43.98430 36.23315
# Shear Modulus (GPa) = 31.46121 35.49571 33.47846
#
# Velocity S-wave (km/s) = 3.85287 4.09247 3.97448
# Velocity P-wave (km/s) = 5.76470 6.56388 6.17723
#
# Compressibility (1/GPa) = 0.03510989
#
# Stress axis : x y z
#
# Youngs Moduli (GPa) = 122.27704 55.78812 51.55776
#
# Poissons Ratio (x) = 0.29202 0.16774
# Poissons Ratio (y) = 0.64004 -0.16980
# Poissons Ratio (z) = 0.39783 -0.18373
#
# Static dielectric constant tensor:
#      x y z
#    x 1.827100 0.000000 -0.019440 
#    y 0.000000 1.719860 0.000000 
#    z -0.019440 0.000000 1.882090 
# 
# From -- ./inp_files/29015.got.cif
#   From: 2010.05.17/outbox.cif.g08.bks.cpg/sg5_15_cif.got.tgz:29015.got - 2010.06.03 18:56:24.
