data_PCOD9126977
_publ_section_title
;
Structure prediction by ZEFSAII (Michael W. Deem and Ramdas Pophale) SiO2 
 PCOD9126977
Probable space group: C 2
;
_chemical_formula_sum "Si O2"
_cell_formula_units_Z 22
_cell_length_a 25.022927
_cell_length_b 5.014523
_cell_length_c 9.321870
_cell_angle_alpha 90.000000
_cell_angle_beta 130.922018
_cell_angle_gamma 90.000000
_cell_volume 883.819879
_symmetry_space_group_name_H-M "C 2"
_symmetry_group_IT_number 5
_symmetry_cell_setting 'monoclinic'
loop_
_space_group_symop_operation_xyz
x,y,z
-x,y,-z
1/2+x,1/2+y,z
1/2-x,1/2+y,-z
loop_
_atom_site_type_symbol
_atom_site_label
_atom_site_fract_x
_atom_site_fract_y
_atom_site_fract_z
Si Si1 0.803800 0.293030 0.279306
Si Si2 0.474221 0.337456 0.226151
Si Si3 0.000000 0.219050 0.000000
Si Si4 0.664273 0.240826 0.152864
Si Si5 0.110761 0.784954 0.645032
Si Si6 0.154052 0.278826 0.317596
O O1 0.719393 0.326999 0.126890
O O2 0.849122 0.504661 0.268799
O O3 0.820967 0.327187 0.478390
O O4 0.830905 0.999177 0.294300
O O5 0.486977 0.547778 0.121933
O O6 0.550273 0.241971 0.415981
O O7 0.432777 0.411628 0.299124
O O8 0.411467 0.161763 0.047244
O O9 0.071825 0.366359 0.166091
O O10 0.657118 0.481624 0.255802
O O11 0.694364 0.980567 0.284032
#
# Coordination Sequence:
#
# PCOD9126977 Si02
#       6
#     4   4   2   4   4   4
#     4  12  24  44  67  98 135 182 210 280 334 398
#     4  10  25  46  67 103 129 181 218 282 319 406
#     4  10  22  42  74  98 136 166 236 270 334 376
#     4  11  25  41  69  98 137 169 231 269 331 389
#     4  11  26  44  69  95 141 170 226 264 345 389
#     4  11  23  40  68 102 134 173 221 279 326 393
#
# _framework density 24.891950000000001
#
# number of rings (size 3 to 8) (size 9 to 14) (size 15 to 20)
#    0.000    1.091    1.818    3.273    5.091    8.000 
#    0.000    0.000    0.000    0.000    0.000    0.000 
#    0.000    0.000    0.000    0.000    0.000    0.000 
#
# Total GULP energy -61446.324399 kJ/mol
# GULP energy per Si atom -5586.029491 kJ/mol
# Density = 2.483529 g / cm^3
# Si number density = 24.891950 Si / 1000 Ang^3
#
#
#
# Elastic Constant Matrix: (Units=GPa)
#
#
# Indices 1 2 3 4 5 6 
#
# 1 101.8501 12.4742 24.4856 0.0000 -1.0514 0.0000
# 2 12.4742 72.8196 6.9477 0.0000 -5.4507 0.0000
# 3 24.4856 6.9477 90.7261 0.0000 -6.1276 0.0000
# 4 0.0000 0.0000 0.0000 8.0728 0.0000 5.7938
# 5 -1.0514 -5.4507 -6.1276 0.0000 45.2860 0.0000
# 6 0.0000 0.0000 0.0000 5.7938 0.0000 28.0450
#
#
#
# Elastic Compliance Matrix: (Units=1/GPa)
#
#
# Indices 1 2 3 4 5 6 
#
# 1 0.010678 -0.001588 -0.002782 0.000000 -0.000320 0.000000
# 2 -0.001588 0.014176 -0.000549 0.000000 0.001595 0.000000
# 3 -0.002782 -0.000549 0.011915 0.000000 0.001482 0.000000
# 4 0.000000 0.000000 0.000000 0.145438 0.000000 -0.030046
# 5 -0.000320 0.001595 0.001482 0.000000 0.022467 0.000000
# 6 0.000000 0.000000 0.000000 -0.030046 0.000000 0.041864
#
#
# Mechanical properties :
#
#
# Convention : Reuss Voigt Hill
#
# Bulk Modulus (GPa) = 37.13089 39.24563 38.18826
# Shear Modulus (GPa) = 18.84277 31.04663 24.94470
#
# Velocity S-wave (km/s) = 2.75432 3.53548 3.16906
# Velocity P-wave (km/s) = 5.00642 5.69796 5.36335
#
# Compressibility (1/GPa) = 0.02693176
#
# Stress axis : x y z
#
# Youngs Moduli (GPa) = 93.64781 70.53999 83.92708
#
# Poissons Ratio (x) = 0.11200 0.23348
# Poissons Ratio (y) = 0.14869 0.04611
# Poissons Ratio (z) = 0.26052 0.03875
#
# Static dielectric constant tensor:
#      x y z
#    x 2.004660 0.000000 0.004290 
#    y 0.000000 1.905790 0.000000 
#    z 0.004290 0.000000 2.050140 
# 
# From -- ./inp_files/28307.got.cif
#   From: 2010.05.17/outbox.cif.g08.bks.cpg/sg5_15_cif.got.tgz:28307.got - 2010.06.03 18:56:24.
