data_PCOD9126667
_publ_section_title
;
Structure prediction by ZEFSAII (Michael W. Deem and Ramdas Pophale) SiO2 
 PCOD9126667
Probable space group: C 2
;
_chemical_formula_sum "Si O2"
_cell_formula_units_Z 20
_cell_length_a 20.759423
_cell_length_b 4.984589
_cell_length_c 9.312500
_cell_angle_alpha 90.000000
_cell_angle_beta 110.571744
_cell_angle_gamma 90.000000
_cell_volume 902.183405
_symmetry_space_group_name_H-M "C 2"
_symmetry_group_IT_number 5
_symmetry_cell_setting 'monoclinic'
loop_
_space_group_symop_operation_xyz
x,y,z
-x,y,-z
1/2+x,1/2+y,z
1/2-x,1/2+y,-z
loop_
_atom_site_type_symbol
_atom_site_label
_atom_site_fract_x
_atom_site_fract_y
_atom_site_fract_z
Si Si1 0.959150 0.983620 0.686008
Si Si2 0.744620 0.414996 0.893796
Si Si3 0.881564 0.178414 0.884596
Si Si4 0.901376 0.920741 0.336213
Si Si5 0.934221 0.661995 0.095070
O O1 0.918192 0.880764 0.515359
O O2 0.987786 0.759297 0.818430
O O3 0.032759 0.084877 0.678175
O O4 0.910357 0.161766 0.746251
O O5 0.804626 0.295279 0.839539
O O6 0.676123 0.508469 0.756093
O O7 0.768130 0.670137 0.005285
O O8 0.926244 0.385525 0.011115
O O9 0.893327 0.896075 0.976615
O O10 0.907500 0.659451 0.239043
#
# Coordination Sequence:
#
# PCOD9126667 Si02
#       5
#     4   4   4   4   4
#     4   9  21  42  66 100 136 174 228 282 344 394
#     4  12  21  41  68  97 131 179 232 274 342 413
#     4  12  22  41  68 102 130 178 229 286 328 413
#     4   9  20  44  68  97 139 181 225 284 347 412
#     4  10  22  41  68  97 133 178 225 280 336 406
#
# _framework density 22.168438999999999
#
# number of rings (size 3 to 8) (size 9 to 14) (size 15 to 20)
#    1.200    0.400    4.000    0.600    0.000    3.200 
#    0.000   14.000    0.000    0.000    0.000    0.000 
#    0.000    0.000    0.000    0.000    0.000    0.000 
#
# Total GULP energy -55716.834378 kJ/mol
# GULP energy per Si atom -5571.683438 kJ/mol
# Density = 2.211798 g / cm^3
# Si number density = 22.168439 Si / 1000 Ang^3
#
#
#
# Elastic Constant Matrix: (Units=GPa)
#
#
# Indices 1 2 3 4 5 6 
#
# 1 171.4960 26.1179 83.6406 0.0000 5.2660 0.0000
# 2 26.1179 84.2138 22.0093 0.0000 -8.8142 0.0000
# 3 83.6406 22.0093 115.7649 0.0000 3.6074 0.0000
# 4 0.0000 0.0000 0.0000 16.6306 0.0000 0.3658
# 5 5.2660 -8.8142 3.6074 0.0000 44.7474 0.0000
# 6 0.0000 0.0000 0.0000 0.3658 0.0000 26.6767
#
#
#
# Elastic Compliance Matrix: (Units=1/GPa)
#
#
# Indices 1 2 3 4 5 6 
#
# 1 0.009139 -0.001263 -0.006338 0.000000 -0.000813 0.000000
# 2 -0.001263 0.012994 -0.001646 0.000000 0.002841 0.000000
# 3 -0.006338 -0.001646 0.013551 0.000000 -0.000671 0.000000
# 4 0.000000 0.000000 0.000000 0.060148 0.000000 -0.000825
# 5 -0.000813 0.002841 -0.000671 0.000000 0.023057 0.000000
# 6 0.000000 0.000000 0.000000 -0.000825 0.000000 0.037497
#
#
# Mechanical properties :
#
#
# Convention : Reuss Voigt Hill
#
# Bulk Modulus (GPa) = 58.17340 70.55671 64.36505
# Shear Modulus (GPa) = 27.68373 33.59139 30.63756
#
# Velocity S-wave (km/s) = 3.53766 3.89688 3.72161
# Velocity P-wave (km/s) = 6.55631 7.22110 6.89672
#
# Compressibility (1/GPa) = 0.01718999
#
# Stress axis : x y z
#
# Youngs Moduli (GPa) = 109.41660 76.95919 73.79465
#
# Poissons Ratio (x) = 0.09722 0.46769
# Poissons Ratio (y) = 0.13822 0.12148
# Poissons Ratio (z) = 0.69345 0.12669
#
# Static dielectric constant tensor:
#      x y z
#    x 1.937740 0.000000 -0.020420 
#    y 0.000000 1.832240 0.000000 
#    z -0.020420 0.000000 1.808500 
# 
# From -- ./inp_files/30141.got.cif
#   From: 2010.05.17/outbox.cif.g08.bks.cpg/sg5_16_cif.got.tgz:30141.got - 2010.06.03 18:56:24.
