data_PCOD9126778
_publ_section_title
;
Structure prediction by ZEFSAII (Michael W. Deem and Ramdas Pophale) SiO2 
 PCOD9126778
Probable space group: C 2
;
_chemical_formula_sum "Si O2"
_cell_formula_units_Z 28
_cell_length_a 21.704997
_cell_length_b 4.910762
_cell_length_c 20.264852
_cell_angle_alpha 90.000000
_cell_angle_beta 149.377491
_cell_angle_gamma 90.000000
_cell_volume 1100.255470
_symmetry_space_group_name_H-M "C 2"
_symmetry_group_IT_number 5
_symmetry_cell_setting 'monoclinic'
loop_
_space_group_symop_operation_xyz
x,y,z
-x,y,-z
1/2+x,1/2+y,z
1/2-x,1/2+y,-z
loop_
_atom_site_type_symbol
_atom_site_label
_atom_site_fract_x
_atom_site_fract_y
_atom_site_fract_z
Si Si1 0.473278 0.134860 0.547906
Si Si2 0.127680 0.519556 0.153859
Si Si3 0.820043 0.311115 0.585250
Si Si4 0.790801 0.291138 0.194890
Si Si5 0.295748 0.502000 0.699867
Si Si6 0.314869 0.461614 0.032604
Si Si7 0.981327 0.993913 0.291650
O O1 0.500000 0.262716 0.500000
O O2 0.349705 0.961113 0.429863
O O3 0.448467 0.333299 0.586857
O O4 0.595776 0.973940 0.678147
O O5 0.222698 0.655441 0.191902
O O6 0.167582 0.217550 0.209760
O O7 0.134158 0.722327 0.222504
O O8 0.000000 0.516649 0.000000
O O9 0.722917 0.120086 0.456736
O O10 0.943361 0.258537 0.659514
O O11 0.827035 0.164924 0.662110
O O12 0.856717 0.057800 0.213586
O O13 0.699795 0.433373 0.059231
O O14 0.437931 0.367315 0.182197
O O15 0.287922 0.770481 0.029107
#
# Coordination Sequence:
#
# PCOD9126778 Si02
#       7
#     4   4   4   4   4   4   4
#     4  12  23  44  77 110 154 189 255 322 384 450
#     4  12  29  53  76 108 157 204 260 313 387 473
#     4  12  26  47  73 107 153 197 248 307 385 464
#     4  11  25  45  74 110 147 200 254 320 382 451
#     4  12  27  50  75 112 150 203 255 318 394 458
#     4  10  22  42  65 101 142 184 241 301 367 437
#     4  11  25  44  71 106 151 193 252 316 376 453
#
# _framework density 25.448634999999999
#
# number of rings (size 3 to 8) (size 9 to 14) (size 15 to 20)
#    0.000    0.571    4.286    3.000    4.000    0.571 
#   10.286    0.000    0.000    0.000    0.000    0.000 
#    0.000    0.000    0.000    0.000    0.000    0.000 
#
# Total GULP energy -78380.660216 kJ/mol
# GULP energy per Si atom -5598.618587 kJ/mol
# Density = 2.539071 g / cm^3
# Si number density = 25.448635 Si / 1000 Ang^3
#
#
#
# Elastic Constant Matrix: (Units=GPa)
#
#
# Indices 1 2 3 4 5 6 
#
# 1 90.2040 -1.7400 22.7783 -0.0003 -4.4079 -0.0007
# 2 -1.7400 88.4791 34.9362 -0.0008 -0.1637 -0.0011
# 3 22.7783 34.9362 152.5777 -0.0003 -17.4315 -0.0004
# 4 -0.0003 -0.0008 -0.0003 43.5603 0.0000 -8.1988
# 5 -4.4079 -0.1637 -17.4315 0.0000 35.2879 0.0001
# 6 -0.0007 -0.0011 -0.0004 -8.1988 0.0001 27.4136
#
#
#
# Elastic Compliance Matrix: (Units=1/GPa)
#
#
# Indices 1 2 3 4 5 6 
#
# 1 0.011609 0.000979 -0.001898 0.000000 0.000517 0.000000
# 2 0.000979 0.012576 -0.003185 0.000000 -0.001393 0.000001
# 3 -0.001898 -0.003185 0.007989 0.000000 0.003694 0.000000
# 4 0.000000 0.000000 0.000000 0.024326 0.000000 0.007275
# 5 0.000517 -0.001393 0.003694 0.000000 0.030221 0.000000
# 6 0.000000 0.000001 0.000000 0.007275 0.000000 0.038654
#
#
# Mechanical properties :
#
#
# Convention : Reuss Voigt Hill
#
# Bulk Modulus (GPa) = 41.72591 49.24553 45.48572
# Shear Modulus (GPa) = 35.31737 39.60479 37.46108
#
# Velocity S-wave (km/s) = 3.72935 3.94923 3.84086
# Velocity P-wave (km/s) = 5.91403 6.33942 6.13041
#
# Compressibility (1/GPa) = 0.02396592
#
# Stress axis : x y z
#
# Youngs Moduli (GPa) = 86.13659 79.51450 125.17606
#
# Poissons Ratio (x) = -0.07783 0.23761
# Poissons Ratio (y) = -0.08431 0.39867
# Poissons Ratio (z) = 0.16351 0.25324
#
# Static dielectric constant tensor:
#      x y z
#    x 2.014920 0.000000 -0.048230 
#    y 0.000000 1.977830 0.000000 
#    z -0.048230 0.000000 2.089840 
# 
# From -- ./inp_files/67248.got.cif
#   From: 2010.05.17/outbox.cif.g08.bks.cpg/sg5_34_cif.got.tgz:67248.got - 2010.06.03 18:56:24.
