data_PCOD9126787
_publ_section_title
;
Structure prediction by ZEFSAII (Michael W. Deem and Ramdas Pophale) SiO2 
 PCOD9126787
Probable space group: C 2
;
_chemical_formula_sum "Si O2"
_cell_formula_units_Z 32
_cell_length_a 11.672110
_cell_length_b 7.053036
_cell_length_c 21.025817
_cell_angle_alpha 90.000000
_cell_angle_beta 49.715766
_cell_angle_gamma 90.000000
_cell_volume 1320.430002
_symmetry_space_group_name_H-M "C 2"
_symmetry_group_IT_number 5
_symmetry_cell_setting 'monoclinic'
loop_
_space_group_symop_operation_xyz
x,y,z
-x,y,-z
1/2+x,1/2+y,z
1/2-x,1/2+y,-z
loop_
_atom_site_type_symbol
_atom_site_label
_atom_site_fract_x
_atom_site_fract_y
_atom_site_fract_z
Si Si1 0.776455 0.897920 0.913952
Si Si2 0.211589 0.415613 0.802980
Si Si3 0.087160 0.204664 0.319244
Si Si4 0.498816 0.704727 0.221115
Si Si5 0.966757 0.666250 0.945330
Si Si6 0.401225 0.002197 0.438774
Si Si7 0.172319 0.085680 0.417443
Si Si8 0.800644 0.631748 0.612095
O O1 0.739655 0.804641 0.858658
O O2 0.865182 0.772450 0.931610
O O3 0.883323 0.075773 0.857943
O O4 0.626696 0.980193 0.999663
O O5 0.368786 0.490641 0.718408
O O6 0.098538 0.325749 0.793336
O O7 0.121846 0.603426 0.858154
O O8 0.082096 0.305563 0.251263
O O9 0.931901 0.287606 0.403534
O O10 0.193025 0.203044 0.344560
O O11 0.365012 0.589606 0.303782
O O12 0.000000 0.771725 0.000000
O O13 0.298387 0.112253 0.425639
O O14 0.337748 0.026867 0.532536
O O15 0.570838 0.079466 0.383214
O O16 0.181813 0.858492 0.402904
O O17 0.000000 0.120442 0.500000
#
# Coordination Sequence:
#
# PCOD9126787 Si02
#       8
#     4   4   4   4   4   4   4   4
#     4  10  23  40  69 100 133 175 211 264 323 389
#     4  10  22  42  65  95 134 173 214 269 326 391
#     4  11  23  42  65  91 128 173 219 271 333 384
#     4  11  22  46  65  96 136 170 220 274 326 393
#     4  10  22  43  67 102 134 170 215 259 320 392
#     4  11  25  42  61  94 122 168 224 281 321 395
#     4  12  24  43  66  86 123 173 216 273 338 386
#     4  11  24  44  60  93 128 165 220 274 332 386
#
# _framework density 24.234531
#
# number of rings (size 3 to 8) (size 9 to 14) (size 15 to 20)
#    0.000    1.250    3.750    1.500    3.500    1.000 
#    6.750    0.000    0.000    0.000    0.000    0.000 
#    0.000    0.000    0.000    0.000    0.000    0.000 
#
# Total GULP energy -89222.955877 kJ/mol
# GULP energy per Si atom -5576.434742 kJ/mol
# Density = 2.417937 g / cm^3
# Si number density = 24.234531 Si / 1000 Ang^3
#
#
#
# Elastic Constant Matrix: (Units=GPa)
#
#
# Indices 1 2 3 4 5 6 
#
# 1 242.5826 41.1599 58.7871 0.0000 39.8858 -0.0001
# 2 41.1599 53.0219 30.1305 0.0000 10.1928 -0.0001
# 3 58.7871 30.1305 87.7609 0.0000 7.6032 0.0000
# 4 0.0000 0.0000 0.0000 18.8746 0.0000 -0.6116
# 5 39.8858 10.1928 7.6032 0.0000 62.5960 0.0000
# 6 -0.0001 -0.0001 0.0000 -0.6116 0.0000 53.0679
#
#
#
# Elastic Compliance Matrix: (Units=1/GPa)
#
#
# Indices 1 2 3 4 5 6 
#
# 1 0.005651 -0.002263 -0.002757 0.000000 -0.002897 0.000000
# 2 -0.002263 0.024859 -0.006865 0.000000 -0.001772 0.000000
# 3 -0.002757 -0.006865 0.015513 0.000000 0.000991 0.000000
# 4 0.000000 0.000000 0.000000 0.053001 0.000000 0.000611
# 5 -0.002897 -0.001772 0.000991 0.000000 0.017990 0.000000
# 6 0.000000 0.000000 0.000000 0.000611 0.000000 0.018851
#
#
# Mechanical properties :
#
#
# Convention : Reuss Voigt Hill
#
# Bulk Modulus (GPa) = 44.94098 71.50227 58.22162
# Shear Modulus (GPa) = 29.93077 43.79356 36.86217
#
# Velocity S-wave (km/s) = 3.51814 4.25558 3.90431
# Velocity P-wave (km/s) = 5.92347 7.32905 6.66342
#
# Compressibility (1/GPa) = 0.02225141
#
# Stress axis : x y z
#
# Youngs Moduli (GPa) = 176.96514 40.22737 64.46255
#
# Poissons Ratio (x) = 0.09102 0.17775
# Poissons Ratio (y) = 0.40043 0.44256
# Poissons Ratio (z) = 0.48796 0.27618
#
# Static dielectric constant tensor:
#      x y z
#    x 1.991080 0.000000 0.075460 
#    y 0.000000 1.970730 0.000000 
#    z 0.075460 0.000000 1.947040 
# 
# From -- ./inp_files/65118.got.cif
#   From: 2010.05.17/outbox.cif.g08.bks.cpg/sg5_33_cif.got.tgz:65118.got - 2010.06.03 18:56:24.
