data_PCOD9126800
_publ_section_title
;
Structure prediction by ZEFSAII (Michael W. Deem and Ramdas Pophale) SiO2 
 PCOD9126800
Probable space group: C 2
;
_chemical_formula_sum "Si O2"
_cell_formula_units_Z 28
_cell_length_a 26.819974
_cell_length_b 8.777480
_cell_length_c 5.185192
_cell_angle_alpha 90.000000
_cell_angle_beta 98.921855
_cell_angle_gamma 90.000000
_cell_volume 1205.886330
_symmetry_space_group_name_H-M "C 2"
_symmetry_group_IT_number 5
_symmetry_cell_setting 'monoclinic'
loop_
_space_group_symop_operation_xyz
x,y,z
-x,y,-z
1/2+x,1/2+y,z
1/2-x,1/2+y,-z
loop_
_atom_site_type_symbol
_atom_site_label
_atom_site_fract_x
_atom_site_fract_y
_atom_site_fract_z
Si Si1 0.775689 0.109060 0.517345
Si Si2 0.000000 0.658042 0.500000
Si Si3 0.403203 0.268529 0.672701
Si Si4 0.141955 0.994313 0.040011
Si Si5 0.390942 0.923437 0.814852
Si Si6 0.153945 0.280102 0.735415
Si Si7 0.299398 0.307921 0.279177
Si Si8 0.000000 0.444523 0.000000
O O1 0.789836 0.235455 0.313276
O O2 0.732698 0.160248 0.678730
O O3 0.767659 0.950839 0.365161
O O4 0.826991 0.088635 0.722631
O O5 0.049024 0.756233 0.474074
O O6 0.992033 0.549707 0.246157
O O7 0.351959 0.292565 0.473551
O O8 0.397993 0.104984 0.805425
O O9 0.404802 0.406777 0.875668
O O10 0.181184 0.862366 0.981872
O O11 0.131998 0.113735 0.803346
O O12 0.372978 0.863594 0.523315
O O13 0.353487 0.881304 0.016570
O O14 0.447057 0.858129 0.918673
#
# Coordination Sequence:
#
# PCOD9126800 Si02
#       8
#     4   2   4   4   4   4   4   2
#     4  10  23  44  62 100 136 188 222 287 336 420
#     4  10  22  42  72 100 142 172 232 296 352 390
#     4  10  24  42  69 107 131 185 233 298 338 419
#     4  10  23  44  66  97 145 182 231 286 348 416
#     4  11  23  41  75 101 135 179 238 282 354 404
#     4  11  23  43  68  99 137 188 217 286 346 418
#     4  10  24  41  67  96 142 176 237 278 347 410
#     4  10  22  42  66 110 138 170 224 308 338 412
#
# _framework density 23.219436000000002
#
# number of rings (size 3 to 8) (size 9 to 14) (size 15 to 20)
#    0.000    1.714    1.429    1.714    8.000    4.571 
#    0.000    0.000    9.429    0.000    0.000    0.000 
#    0.000    0.000    0.000    0.000    0.000    0.000 
#
# Total GULP energy -78237.415080 kJ/mol
# GULP energy per Si atom -5588.386791 kJ/mol
# Density = 2.316659 g / cm^3
# Si number density = 23.219436 Si / 1000 Ang^3
#
#
#
# Elastic Constant Matrix: (Units=GPa)
#
#
# Indices 1 2 3 4 5 6 
#
# 1 66.6944 35.2931 28.6076 0.0000 -23.0105 0.0000
# 2 35.2931 42.5894 20.2816 0.0000 -14.5773 0.0000
# 3 28.6076 20.2816 126.6604 0.0000 -21.5589 0.0000
# 4 0.0000 0.0000 0.0000 42.9011 0.0000 -12.7371
# 5 -23.0105 -14.5773 -21.5589 0.0000 40.9921 0.0000
# 6 0.0000 0.0000 0.0000 -12.7371 0.0000 15.3580
#
#
#
# Elastic Compliance Matrix: (Units=1/GPa)
#
#
# Indices 1 2 3 4 5 6 
#
# 1 0.029726 -0.020880 -0.001971 0.000000 0.008225 0.000000
# 2 -0.020880 0.042424 -0.001652 0.000000 0.002497 0.000000
# 3 -0.001971 -0.001652 0.009134 0.000000 0.003110 0.000000
# 4 0.000000 0.000000 0.000000 0.030924 0.000000 0.025646
# 5 0.008225 0.002497 0.003110 0.000000 0.031536 0.000000
# 6 0.000000 0.000000 0.000000 0.025646 0.000000 0.086383
#
#
# Mechanical properties :
#
#
# Convention : Reuss Voigt Hill
#
# Bulk Modulus (GPa) = 30.97993 44.92321 37.95157
# Shear Modulus (GPa) = 17.24790 29.96768 23.60779
#
# Velocity S-wave (km/s) = 2.72843 3.59643 3.19207
# Velocity P-wave (km/s) = 4.82670 6.05268 5.47412
#
# Compressibility (1/GPa) = 0.03227896
#
# Stress axis : x y z
#
# Youngs Moduli (GPa) = 33.64091 23.57153 109.47917
#
# Poissons Ratio (x) = 0.49216 0.21574
# Poissons Ratio (y) = 0.70241 0.18089
# Poissons Ratio (z) = 0.06629 0.03895
#
# Static dielectric constant tensor:
#      x y z
#    x 1.867040 0.000000 0.008710 
#    y 0.000000 1.908300 0.000000 
#    z 0.008710 0.000000 1.904410 
# 
# From -- ./inp_files/10802.got.cif
#   From: 2010.05.17/outbox.cif.g08.bks.cpg/sg5_6_cif.got.tgz:10802.got - 2010.06.03 18:56:24.
