data_PCOD9126481
_publ_section_title
;
Structure prediction by ZEFSAII (Michael W. Deem and Ramdas Pophale) SiO2 
 PCOD9126481
Probable space group: C 2
;
_chemical_formula_sum "Si O2"
_cell_formula_units_Z 22
_cell_length_a 20.670705
_cell_length_b 7.881622
_cell_length_c 13.509499
_cell_angle_alpha 90.000000
_cell_angle_beta 156.540384
_cell_angle_gamma 90.000000
_cell_volume 876.203822
_symmetry_space_group_name_H-M "C 2"
_symmetry_group_IT_number 5
_symmetry_cell_setting 'monoclinic'
loop_
_space_group_symop_operation_xyz
x,y,z
-x,y,-z
1/2+x,1/2+y,z
1/2-x,1/2+y,-z
loop_
_atom_site_type_symbol
_atom_site_label
_atom_site_fract_x
_atom_site_fract_y
_atom_site_fract_z
Si Si1 0.444001 0.574240 0.701894
Si Si2 0.314465 0.426403 0.241607
Si Si3 0.802593 0.199079 0.095099
Si Si4 0.500000 0.966628 0.500000
Si Si5 0.765914 0.153750 0.742086
Si Si6 0.658252 0.347716 0.288595
O O1 0.563066 0.588988 0.775708
O O2 0.387193 0.391030 0.661622
O O3 0.297588 0.706233 0.479157
O O4 0.563951 0.630147 0.960415
O O5 0.500000 0.482491 0.500000
O O6 0.215983 0.582905 0.055969
O O7 0.263994 0.354043 0.277405
O O8 0.298081 0.281100 0.134827
O O9 0.888019 0.348920 0.274498
O O10 0.617138 0.070100 0.592928
O O11 0.778601 0.030532 0.665451
O O12 0.500000 0.301683 0.000000
#
# Coordination Sequence:
#
# PCOD9126481 Si02
#       6
#     4   4   4   2   4   4
#     4  10  22  43  67  94 128 173 221 269 324 384
#     4  11  23  39  61  98 133 172 214 261 326 394
#     4  11  23  40  64  97 135 172 220 266 330 395
#     4  12  20  42  72  94 138 178 206 280 336 394
#     4  10  22  40  68  96 133 170 213 270 334 386
#     4  10  22  44  67  92 127 173 219 273 322 381
#
# _framework density 25.108312999999999
#
# number of rings (size 3 to 8) (size 9 to 14) (size 15 to 20)
#    0.000    1.455    3.636    2.182    0.000    1.455 
#    0.000   13.636    0.000    0.000    0.000    0.000 
#    0.000    0.000    0.000    0.000    0.000    0.000 
#
# Total GULP energy -61427.859486 kJ/mol
# GULP energy per Si atom -5584.350862 kJ/mol
# Density = 2.505117 g / cm^3
# Si number density = 25.108313 Si / 1000 Ang^3
#
#
#
# Elastic Constant Matrix: (Units=GPa)
#
#
# Indices 1 2 3 4 5 6 
#
# 1 78.9705 16.1046 23.5616 0.0000 -2.5120 0.0000
# 2 16.1046 73.4761 24.8237 0.0000 0.7269 0.0000
# 3 23.5616 24.8237 77.2510 0.0000 -9.3663 0.0000
# 4 0.0000 0.0000 0.0000 45.8677 0.0000 -6.2117
# 5 -2.5120 0.7269 -9.3663 0.0000 44.1629 0.0000
# 6 0.0000 0.0000 0.0000 -6.2117 0.0000 40.1338
#
#
#
# Elastic Compliance Matrix: (Units=1/GPa)
#
#
# Indices 1 2 3 4 5 6 
#
# 1 0.014150 -0.001846 -0.003717 0.000000 0.000047 0.000000
# 2 -0.001846 0.015584 -0.004607 0.000000 -0.001339 0.000000
# 3 -0.003717 -0.004607 0.015953 0.000000 0.003248 0.000000
# 4 0.000000 0.000000 0.000000 0.022269 0.000000 0.003447
# 5 0.000047 -0.001339 0.003248 0.000000 0.023357 0.000000
# 6 0.000000 0.000000 0.000000 0.003447 0.000000 0.025450
#
#
# Mechanical properties :
#
#
# Convention : Reuss Voigt Hill
#
# Bulk Modulus (GPa) = 39.45272 39.85304 39.65288
# Shear Modulus (GPa) = 34.35219 37.04675 35.69947
#
# Velocity S-wave (km/s) = 3.70288 3.84536 3.77479
# Velocity P-wave (km/s) = 5.83343 5.96847 5.90133
#
# Compressibility (1/GPa) = 0.02534680
#
# Stress axis : x y z
#
# Youngs Moduli (GPa) = 70.67196 64.16751 62.68568
#
# Poissons Ratio (x) = 0.11846 0.23299
# Poissons Ratio (y) = 0.13047 0.28879
# Poissons Ratio (z) = 0.26267 0.29562
#
# Static dielectric constant tensor:
#      x y z
#    x 2.032810 0.000000 -0.030810 
#    y 0.000000 2.064230 0.000000 
#    z -0.030810 0.000000 1.979300 
# 
# From -- ./inp_files/47817.got.cif
#   From: 2010.05.17/outbox.cif.g08.bks.cpg/sg5_24_cif.got.tgz:47817.got - 2010.06.03 18:56:24.
