data_PCOD9126262
_publ_section_title
;
Structure prediction by ZEFSAII (Michael W. Deem and Ramdas Pophale) SiO2 
 PCOD9126262
Probable space group: C 2
;
_chemical_formula_sum "Si O2"
_cell_formula_units_Z 28
_cell_length_a 17.487087
_cell_length_b 10.468182
_cell_length_c 20.540813
_cell_angle_alpha 90.000000
_cell_angle_beta 160.141643
_cell_angle_gamma 90.000000
_cell_volume 1277.311622
_symmetry_space_group_name_H-M "C 2"
_symmetry_group_IT_number 5
_symmetry_cell_setting 'monoclinic'
loop_
_space_group_symop_operation_xyz
x,y,z
-x,y,-z
1/2+x,1/2+y,z
1/2-x,1/2+y,-z
loop_
_atom_site_type_symbol
_atom_site_label
_atom_site_fract_x
_atom_site_fract_y
_atom_site_fract_z
Si Si1 0.613920 0.757310 0.696318
Si Si2 0.473379 0.411365 0.671024
Si Si3 0.403441 0.029209 0.564246
Si Si4 0.545347 0.160361 0.122753
Si Si5 0.655606 0.285530 0.562365
Si Si6 0.132811 0.652726 0.338747
Si Si7 0.009259 0.377068 0.936186
O O1 0.521455 0.901067 0.633243
O O2 0.740674 0.743931 0.728626
O O3 0.402787 0.662675 0.539646
O O4 0.819408 0.715550 0.908710
O O5 0.360939 0.514273 0.628552
O O6 0.370726 0.388403 0.516515
O O7 0.409752 0.282623 0.657159
O O8 0.737344 0.415669 0.875830
O O9 0.417803 0.150028 0.527902
O O10 0.478535 0.054163 0.699267
O O11 0.517546 0.153359 0.177133
O O12 0.608378 0.015633 0.151881
O O13 0.500000 0.313599 0.500000
O O14 0.900624 0.295515 0.791453
O O15 0.000000 0.312488 0.000000
#
# Coordination Sequence:
#
# PCOD9126262 Si02
#       7
#     4   4   4   4   4   4   4
#     4  10  22  43  64  98 137 172 231 274 335 405
#     4  10  23  42  62  96 130 174 225 277 332 401
#     4  10  23  43  66  96 141 178 220 282 342 408
#     4  11  23  39  69 100 128 178 223 281 335 395
#     4  11  24  43  70  96 134 183 225 278 340 397
#     4  10  22  39  63  92 133 175 221 270 340 397
#     4  12  23  40  68  97 130 170 233 283 324 400
#
# _framework density 21.921040000000001
#
# number of rings (size 3 to 8) (size 9 to 14) (size 15 to 20)
#    0.000    1.429    2.857    2.143    0.000    9.143 
#    0.000   10.000    0.000    0.000    0.000    0.000 
#    0.000    0.000    0.000    0.000    0.000    0.000 
#
# Total GULP energy -78054.363745 kJ/mol
# GULP energy per Si atom -5575.311696 kJ/mol
# Density = 2.187115 g / cm^3
# Si number density = 21.921040 Si / 1000 Ang^3
#
#
#
# Elastic Constant Matrix: (Units=GPa)
#
#
# Indices 1 2 3 4 5 6 
#
# 1 105.4862 32.3378 16.1130 0.0009 -19.0897 -0.0072
# 2 32.3378 82.8832 14.6170 -0.0128 -8.3469 -0.0205
# 3 16.1130 14.6170 78.4893 0.0042 -13.1409 -0.0230
# 4 0.0009 -0.0128 0.0042 20.1995 0.0051 10.9922
# 5 -19.0897 -8.3469 -13.1409 0.0051 41.3351 -0.0040
# 6 -0.0072 -0.0205 -0.0230 10.9922 -0.0040 127.2841
#
#
#
# Elastic Compliance Matrix: (Units=1/GPa)
#
#
# Indices 1 2 3 4 5 6 
#
# 1 0.011600 -0.003931 -0.000935 -0.000004 0.004266 0.000000
# 2 -0.003931 0.013947 -0.001714 0.000009 0.000456 0.000001
# 3 -0.000935 -0.001714 0.013859 -0.000006 0.003628 0.000003
# 4 -0.000004 0.000009 -0.000006 0.051947 -0.000009 -0.004486
# 5 0.004266 0.000456 0.003628 -0.000009 0.027408 0.000003
# 6 0.000000 0.000001 0.000003 -0.004486 0.000003 0.008244
#
#
# Mechanical properties :
#
#
# Convention : Reuss Voigt Hill
#
# Bulk Modulus (GPa) = 38.10148 43.66604 40.88376
# Shear Modulus (GPa) = 33.57621 51.34980 42.46301
#
# Velocity S-wave (km/s) = 3.91793 4.84518 4.40601
# Velocity P-wave (km/s) = 6.15515 7.15988 6.67644
#
# Compressibility (1/GPa) = 0.02624570
#
# Stress axis : x y z
#
# Youngs Moduli (GPa) = 86.20730 71.69896 72.15448
#
# Poissons Ratio (x) = 0.28187 0.06746
# Poissons Ratio (y) = 0.33891 0.12367
# Poissons Ratio (z) = 0.08060 0.12289
#
# Static dielectric constant tensor:
#      x y z
#    x 1.815660 0.000000 -0.006390 
#    y 0.000000 1.852170 0.000000 
#    z -0.006390 0.000000 1.830710 
# 
# From -- ./inp_files/66717.got.cif
#   From: 2010.05.17/outbox.cif.g08.bks.cpg/sg5_34_cif.got.tgz:66717.got - 2010.06.03 18:56:24.
