data_PCOD9126925
_publ_section_title
;
Structure prediction by ZEFSAII (Michael W. Deem and Ramdas Pophale) SiO2 
 PCOD9126925
Probable space group: C 2
;
_chemical_formula_sum "Si O2"
_cell_formula_units_Z 24
_cell_length_a 12.683007
_cell_length_b 12.135020
_cell_length_c 9.176555
_cell_angle_alpha 90.000000
_cell_angle_beta 52.794269
_cell_angle_gamma 90.000000
_cell_volume 1124.893784
_symmetry_space_group_name_H-M "C 2"
_symmetry_group_IT_number 5
_symmetry_cell_setting 'monoclinic'
loop_
_space_group_symop_operation_xyz
x,y,z
-x,y,-z
1/2+x,1/2+y,z
1/2-x,1/2+y,-z
loop_
_atom_site_type_symbol
_atom_site_label
_atom_site_fract_x
_atom_site_fract_y
_atom_site_fract_z
Si Si1 0.500000 0.690901 0.000000
Si Si2 0.777726 0.232233 0.710106
Si Si3 0.080300 0.002412 0.717198
Si Si4 0.190565 0.389134 0.586129
Si Si5 0.500000 0.311301 0.000000
Si Si6 0.387216 0.865862 0.888425
Si Si7 0.673817 0.481535 0.258195
O O1 0.558864 0.611314 0.828507
O O2 0.398368 0.768430 0.998812
O O3 0.797634 0.283872 0.531860
O O4 0.630353 0.240381 0.898639
O O5 0.858466 0.308875 0.756621
O O6 0.805515 0.103412 0.693882
O O7 0.975534 0.992715 0.674496
O O8 0.235961 0.985989 0.563162
O O9 0.033118 0.894691 0.843844
O O10 0.961761 0.410777 0.245981
O O11 0.282128 0.393384 0.654822
O O12 0.274190 0.950328 0.039292
#
# Coordination Sequence:
#
# PCOD9126925 Si02
#       7
#     2   4   4   4   2   4   4
#     4  11  22  43  72 100 136 183 224 279 342 422
#     4  11  25  43  70  96 140 187 227 283 351 401
#     4  10  22  42  70  98 130 183 229 274 337 412
#     4  11  26  41  63 101 139 169 230 289 325 402
#     4   9  20  41  64  98 136 169 228 281 332 404
#     4  12  24  45  68 103 136 177 232 288 342 412
#     4  12  24  42  73 100 133 185 232 277 349 415
#
# _framework density 21.335346999999999
#
# number of rings (size 3 to 8) (size 9 to 14) (size 15 to 20)
#    0.000    1.000    5.000    1.000    4.667    1.333 
#    0.000    0.000    0.000    2.000    0.000    0.000 
#    0.000    0.000    0.000    0.000    0.000    0.000 
#
# Total GULP energy -66876.320984 kJ/mol
# GULP energy per Si atom -5573.026749 kJ/mol
# Density = 2.128679 g / cm^3
# Si number density = 21.335347 Si / 1000 Ang^3
#
#
#
# Elastic Constant Matrix: (Units=GPa)
#
#
# Indices 1 2 3 4 5 6 
#
# 1 113.7183 36.3932 43.0730 0.0000 -11.6547 0.0000
# 2 36.3932 90.5923 43.5667 0.0000 0.6870 0.0000
# 3 43.0730 43.5667 97.9773 0.0000 -5.5222 0.0000
# 4 0.0000 0.0000 0.0000 47.3192 0.0000 8.5644
# 5 -11.6547 0.6870 -5.5222 0.0000 51.8533 0.0000
# 6 0.0000 0.0000 0.0000 8.5644 0.0000 23.5832
#
#
#
# Elastic Compliance Matrix: (Units=1/GPa)
#
#
# Indices 1 2 3 4 5 6 
#
# 1 0.011278 -0.002827 -0.003578 0.000000 0.002191 0.000000
# 2 -0.002827 0.014787 -0.005412 0.000000 -0.001408 0.000000
# 3 -0.003578 -0.005412 0.014230 0.000000 0.000783 0.000000
# 4 0.000000 0.000000 0.000000 0.022620 0.000000 -0.008215
# 5 0.002191 -0.001408 0.000783 0.000000 0.019880 0.000000
# 6 0.000000 0.000000 0.000000 -0.008215 0.000000 0.045386
#
#
# Mechanical properties :
#
#
# Convention : Reuss Voigt Hill
#
# Bulk Modulus (GPa) = 60.01492 60.92818 60.47155
# Shear Modulus (GPa) = 31.77265 36.50148 34.13707
#
# Velocity S-wave (km/s) = 3.86321 4.14072 4.00437
# Velocity P-wave (km/s) = 6.93466 7.17497 7.05584
#
# Compressibility (1/GPa) = 0.01666252
#
# Stress axis : x y z
#
# Youngs Moduli (GPa) = 88.66850 67.62505 70.27465
#
# Poissons Ratio (x) = 0.19116 0.25141
# Poissons Ratio (y) = 0.25064 0.38033
# Poissons Ratio (z) = 0.31722 0.36599
#
# Static dielectric constant tensor:
#      x y z
#    x 1.824180 0.000000 0.017730 
#    y 0.000000 1.737310 0.000000 
#    z 0.017730 0.000000 1.867550 
# 
# From -- ./inp_files/19308.got.cif
#   From: 2010.05.17/outbox.cif.g08.bks.cpg/sg5_10_cif.got.tgz:19308.got - 2010.06.03 18:56:24.
