data_PCOD9126548
_publ_section_title
;
Structure prediction by ZEFSAII (Michael W. Deem and Ramdas Pophale) SiO2 
 PCOD9126548
Probable space group: C 2
;
_chemical_formula_sum "Si O2"
_cell_formula_units_Z 30
_cell_length_a 29.453207
_cell_length_b 8.481700
_cell_length_c 17.410929
_cell_angle_alpha 90.000000
_cell_angle_beta 161.679877
_cell_angle_gamma 90.000000
_cell_volume 1367.154483
_symmetry_space_group_name_H-M "C 2"
_symmetry_group_IT_number 5
_symmetry_cell_setting 'monoclinic'
loop_
_space_group_symop_operation_xyz
x,y,z
-x,y,-z
1/2+x,1/2+y,z
1/2-x,1/2+y,-z
loop_
_atom_site_type_symbol
_atom_site_label
_atom_site_fract_x
_atom_site_fract_y
_atom_site_fract_z
Si Si1 0.941750 0.460390 0.329925
Si Si2 0.851631 0.183096 0.381230
Si Si3 0.932816 0.168495 0.149245
Si Si4 0.795121 0.748580 0.080812
Si Si5 0.349855 0.901993 0.569209
Si Si6 0.394449 0.189265 0.759326
Si Si7 0.000000 0.971116 0.500000
Si Si8 0.629928 0.404647 0.076155
O O1 0.871012 0.596927 0.167089
O O2 0.000000 0.540562 0.500000
O O3 0.061864 0.349351 0.488574
O O4 0.812828 0.343337 0.146280
O O5 0.692382 0.241804 0.140131
O O6 0.930342 0.105771 0.581219
O O7 0.889407 0.076882 0.370100
O O8 0.998153 0.327477 0.216100
O O9 0.805716 0.200217 0.007764
O O10 0.882246 0.044000 0.004828
O O11 0.914440 0.867219 0.302166
O O12 0.261350 0.754932 0.464289
O O13 0.242104 0.946976 0.325116
O O14 0.375134 0.047470 0.667540
O O15 0.500000 0.138980 0.000000
O O16 0.475316 0.347072 0.858131
#
# Coordination Sequence:
#
# PCOD9126548 Si02
#       8
#     4   4   4   4   4   4   2   4
#     4  11  21  41  60  83 118 163 213 266 317 365
#     4  10  23  40  61  87 126 166 214 267 308 366
#     4  10  22  41  59  91 127 161 207 256 309 371
#     4  11  24  39  62  88 122 167 216 266 319 374
#     4  10  22  41  65  97 125 157 203 244 303 377
#     4  10  22  41  68  95 124 159 196 246 305 372
#     4  12  24  40  60  94 124 170 228 266 316 378
#     4  10  22  42  63  88 128 164 198 253 312 362
#
# _framework density 21.943387999999999
#
# number of rings (size 3 to 8) (size 9 to 14) (size 15 to 20)
#    0.000    1.600    1.333    3.200    1.867    1.067 
#    2.400    0.000    0.000    0.000    0.000    0.000 
#    0.000    0.000    0.000    0.000    0.000    0.000 
#
# Total GULP energy -83729.712101 kJ/mol
# GULP energy per Si atom -5581.980807 kJ/mol
# Density = 2.189344 g / cm^3
# Si number density = 21.943388 Si / 1000 Ang^3
#
#
#
# Elastic Constant Matrix: (Units=GPa)
#
#
# Indices 1 2 3 4 5 6 
#
# 1 52.9093 37.2197 24.9394 0.0000 -15.4253 0.0000
# 2 37.2197 88.3078 30.7497 0.0000 -18.9586 0.0000
# 3 24.9394 30.7497 67.7516 0.0000 -8.3299 0.0000
# 4 0.0000 0.0000 0.0000 31.8052 0.0000 -11.3005
# 5 -15.4253 -18.9586 -8.3299 0.0000 39.4079 0.0000
# 6 0.0000 0.0000 0.0000 -11.3005 0.0000 28.9282
#
#
#
# Elastic Compliance Matrix: (Units=1/GPa)
#
#
# Indices 1 2 3 4 5 6 
#
# 1 0.030040 -0.009235 -0.006126 0.000000 0.006020 0.000000
# 2 -0.009235 0.017470 -0.004046 0.000000 0.003934 0.000000
# 3 -0.006126 -0.004046 0.018805 0.000000 -0.000369 0.000000
# 4 0.000000 0.000000 0.000000 0.036509 0.000000 0.014262
# 5 0.006020 0.003934 -0.000369 0.000000 0.029547 0.000000
# 6 0.000000 0.000000 0.000000 0.014262 0.000000 0.040140
#
#
# Mechanical properties :
#
#
# Convention : Reuss Voigt Hill
#
# Bulk Modulus (GPa) = 36.36179 43.86514 40.11347
# Shear Modulus (GPa) = 22.67663 27.76558 25.22110
#
# Velocity S-wave (km/s) = 3.21817 3.56100 3.39392
# Velocity P-wave (km/s) = 5.51502 6.07793 5.80330
#
# Compressibility (1/GPa) = 0.02750139
#
# Stress axis : x y z
#
# Youngs Moduli (GPa) = 33.28924 57.24118 53.17600
#
# Poissons Ratio (x) = 0.52865 0.32575
# Poissons Ratio (y) = 0.30744 0.21513
# Poissons Ratio (z) = 0.20392 0.23158
#
# Static dielectric constant tensor:
#      x y z
#    x 1.854260 0.000000 0.010330 
#    y 0.000000 1.780140 0.000000 
#    z 0.010330 0.000000 1.815870 
# 
# From -- ./inp_files/63808.got.cif
#   From: 2010.05.17/outbox.cif.g08.bks.cpg/sg5_32_cif.got.tgz:63808.got - 2010.06.03 18:56:24.
