data_PCOD9126815
_publ_section_title
;
Structure prediction by ZEFSAII (Michael W. Deem and Ramdas Pophale) SiO2 
 PCOD9126815
Probable space group: C 2
;
_chemical_formula_sum "Si O2"
_cell_formula_units_Z 20
_cell_length_a 13.735859
_cell_length_b 7.761626
_cell_length_c 19.894383
_cell_angle_alpha 90.000000
_cell_angle_beta 156.582221
_cell_angle_gamma 90.000000
_cell_volume 842.951439
_symmetry_space_group_name_H-M "C 2"
_symmetry_group_IT_number 5
_symmetry_cell_setting 'monoclinic'
loop_
_space_group_symop_operation_xyz
x,y,z
-x,y,-z
1/2+x,1/2+y,z
1/2-x,1/2+y,-z
loop_
_atom_site_type_symbol
_atom_site_label
_atom_site_fract_x
_atom_site_fract_y
_atom_site_fract_z
Si Si1 0.000000 0.510931 0.000000
Si Si2 0.000000 0.599643 0.500000
Si Si3 0.587935 0.736835 0.702943
Si Si4 0.058888 0.889243 0.174797
Si Si5 0.041251 0.634395 0.373124
Si Si6 0.324400 0.732418 0.972161
O O1 0.235686 0.630440 0.136657
O O2 0.987583 0.382692 0.928490
O O3 0.751638 0.485677 0.345828
O O4 0.997425 0.685402 0.572585
O O5 0.323694 0.652258 0.531387
O O6 0.764875 0.754397 0.750778
O O7 0.534519 0.935601 0.684159
O O8 0.833280 0.790949 0.064413
O O9 0.951809 0.047179 0.062133
O O10 0.869153 0.731103 0.211678
#
# Coordination Sequence:
#
# PCOD9126815 Si02
#       6
#     2   2   4   4   4   4
#     4  12  22  40  68 102 140 186 228 284 344 410
#     4  10  22  42  66  96 134 178 230 280 336 404
#     4  11  23  42  69 103 142 182 231 285 346 415
#     4  11  24  44  69 103 141 184 232 288 349 422
#     4  11  24  44  70  99 141 189 232 287 345 411
#     4  12  25  45  71 104 143 185 232 288 352 417
#
# _framework density 23.726158999999999
#
# number of rings (size 3 to 8) (size 9 to 14) (size 15 to 20)
#    0.000    0.800    0.000    9.600    0.000    1.600 
#    0.000    4.000    0.000    1.200    0.000    0.000 
#    0.000    0.000    0.000    0.000    0.000    0.000 
#
# Total GULP energy -55873.310263 kJ/mol
# GULP energy per Si atom -5587.331026 kJ/mol
# Density = 2.367216 g / cm^3
# Si number density = 23.726159 Si / 1000 Ang^3
#
#
#
# Elastic Constant Matrix: (Units=GPa)
#
#
# Indices 1 2 3 4 5 6 
#
# 1 118.8188 59.7383 41.7114 0.0007 21.9162 0.0001
# 2 59.7383 73.5796 36.1480 0.0005 11.9448 0.0000
# 3 41.7114 36.1480 144.2077 0.0029 12.9508 0.0017
# 4 0.0007 0.0005 0.0029 54.3661 0.0010 7.7732
# 5 21.9162 11.9448 12.9508 0.0010 53.0390 -0.0001
# 6 0.0001 0.0000 0.0017 7.7732 -0.0001 40.7126
#
#
#
# Elastic Compliance Matrix: (Units=1/GPa)
#
#
# Indices 1 2 3 4 5 6 
#
# 1 0.015040 -0.011027 -0.001279 0.000000 -0.003419 0.000000
# 2 -0.011027 0.023943 -0.002798 0.000000 -0.000152 0.000000
# 3 -0.001279 -0.002798 0.008079 0.000000 -0.000814 0.000000
# 4 0.000000 0.000000 0.000000 0.018910 0.000000 -0.003610
# 5 -0.003419 -0.000152 -0.000814 0.000000 0.020500 0.000000
# 6 0.000000 0.000000 0.000000 -0.003610 0.000000 0.025252
#
#
# Mechanical properties :
#
#
# Convention : Reuss Voigt Hill
#
# Bulk Modulus (GPa) = 59.33847 67.97793 63.65820
# Shear Modulus (GPa) = 33.88654 42.89078 38.38866
#
# Velocity S-wave (km/s) = 3.78330 4.25637 4.02679
# Velocity P-wave (km/s) = 6.64443 7.27109 6.96482
#
# Compressibility (1/GPa) = 0.01685247
#
# Stress axis : x y z
#
# Youngs Moduli (GPa) = 66.48921 41.76535 123.77813
#
# Poissons Ratio (x) = 0.46056 0.15831
# Poissons Ratio (y) = 0.73321 0.34639
# Poissons Ratio (z) = 0.08504 0.11688
#
# Static dielectric constant tensor:
#      x y z
#    x 1.952680 0.000000 -0.043410 
#    y 0.000000 1.949870 0.000000 
#    z -0.043410 0.000000 1.937330 
# 
# From -- ./inp_files/65947.got.cif
#   From: 2010.05.17/outbox.cif.g08.bks.cpg/sg5_33_cif.got.tgz:65947.got - 2010.06.03 18:56:24.
