data_PCOD9126078
_publ_section_title
;
Structure prediction by ZEFSAII (Michael W. Deem and Ramdas Pophale) SiO2 
 PCOD9126078
Probable space group: C 2
;
_chemical_formula_sum "Si O2"
_cell_formula_units_Z 28
_cell_length_a 23.677184
_cell_length_b 9.143129
_cell_length_c 6.105790
_cell_angle_alpha 90.000000
_cell_angle_beta 108.491553
_cell_angle_gamma 90.000000
_cell_volume 1253.558949
_symmetry_space_group_name_H-M "C 2"
_symmetry_group_IT_number 5
_symmetry_cell_setting 'monoclinic'
loop_
_space_group_symop_operation_xyz
x,y,z
-x,y,-z
1/2+x,1/2+y,z
1/2-x,1/2+y,-z
loop_
_atom_site_type_symbol
_atom_site_label
_atom_site_fract_x
_atom_site_fract_y
_atom_site_fract_z
Si Si1 0.655232 0.176510 0.314662
Si Si2 0.663314 0.853262 0.427255
Si Si3 0.000000 0.962956 0.500000
Si Si4 0.271303 0.669356 0.167080
Si Si5 0.548398 0.212269 0.864352
Si Si6 0.000000 0.464164 0.500000
Si Si7 0.952040 0.209002 0.747299
Si Si8 0.217774 0.849714 0.720015
O O1 0.720369 0.166097 0.289122
O O2 0.661607 0.297409 0.510008
O O3 0.640153 0.019288 0.399001
O O4 0.610357 0.214316 0.066825
O O5 0.679844 0.783887 0.683282
O O6 0.615266 0.743239 0.260418
O O7 0.723900 0.863014 0.362268
O O8 0.040558 0.069445 0.400956
O O9 0.035957 0.856124 0.706144
O O10 0.294069 0.504034 0.177923
O O11 0.238150 0.726098 0.913345
O O12 0.540418 0.072299 0.696330
O O13 0.500000 0.201980 0.000000
O O14 0.032558 0.352922 0.376069
O O15 0.000000 0.195862 0.000000
#
# Coordination Sequence:
#
# PCOD9126078 Si02
#       8
#     4   4   2   4   4   2   4   4
#     4  10  22  40  62  88 120 160 206 255 308 364
#     4  10  22  40  62  89 120 160 205 254 309 367
#     4  10  26  42  60  92 126 166 210 250 322 382
#     4  10  22  38  60  89 124 160 204 254 303 372
#     4  11  23  42  64  91 127 164 208 262 312 375
#     4  10  22  38  64  96 118 162 212 252 320 376
#     4  11  23  42  64  91 127 163 207 262 312 374
#     4  10  22  40  62  90 122 163 205 252 313 365
#
# _framework density 22.336404000000002
#
# number of rings (size 3 to 8) (size 9 to 14) (size 15 to 20)
#    0.000    1.714    0.000    3.429    0.000   12.571 
#    0.000    0.000    0.000    0.000    0.000    0.000 
#    0.000    0.000    0.000    0.000    0.000    0.000 
#
# Total GULP energy -78245.248785 kJ/mol
# GULP energy per Si atom -5588.946342 kJ/mol
# Density = 2.228556 g / cm^3
# Si number density = 22.336404 Si / 1000 Ang^3
#
#
#
# Elastic Constant Matrix: (Units=GPa)
#
#
# Indices 1 2 3 4 5 6 
#
# 1 29.6571 19.0166 9.2781 0.0000 8.0490 0.0000
# 2 19.0166 175.3882 84.4807 0.0000 13.2238 0.0000
# 3 9.2781 84.4807 149.7810 0.0000 28.3038 0.0000
# 4 0.0000 0.0000 0.0000 30.2383 0.0000 0.4508
# 5 8.0490 13.2238 28.3038 0.0000 36.0814 0.0000
# 6 0.0000 0.0000 0.0000 0.4508 0.0000 13.9961
#
#
#
# Elastic Compliance Matrix: (Units=1/GPa)
#
#
# Indices 1 2 3 4 5 6 
#
# 1 0.038199 -0.004298 0.001609 0.000000 -0.008208 0.000000
# 2 -0.004298 0.008327 -0.004737 0.000000 0.001623 0.000000
# 3 0.001609 -0.004737 0.010553 0.000000 -0.006901 0.000000
# 4 0.000000 0.000000 0.000000 0.033087 0.000000 -0.001066
# 5 -0.008208 0.001623 -0.006901 0.000000 0.034365 0.000000
# 6 0.000000 0.000000 0.000000 -0.001066 0.000000 0.071483
#
#
# Mechanical properties :
#
#
# Convention : Reuss Voigt Hill
#
# Bulk Modulus (GPa) = 23.68170 64.48635 44.08403
# Shear Modulus (GPa) = 22.22813 32.19988 27.21400
#
# Velocity S-wave (km/s) = 3.15803 3.80094 3.49430
# Velocity P-wave (km/s) = 4.89110 6.94234 6.00495
#
# Compressibility (1/GPa) = 0.04222669
#
# Stress axis : x y z
#
# Youngs Moduli (GPa) = 26.17869 120.09035 94.76302
#
# Poissons Ratio (x) = 0.51614 -0.15248
# Poissons Ratio (y) = 0.11251 0.44891
# Poissons Ratio (z) = -0.04212 0.56889
#
# Static dielectric constant tensor:
#      x y z
#    x 1.893160 0.000000 0.008000 
#    y 0.000000 1.819510 0.000000 
#    z 0.008000 0.000000 1.800580 
# 
# From -- ./inp_files/11212.got.cif
#   From: 2010.05.17/outbox.cif.g08.bks.cpg/sg5_6_cif.got.tgz:11212.got - 2010.06.03 18:56:24.
