data_PCOD9126452
_publ_section_title
;
Structure prediction by ZEFSAII (Michael W. Deem and Ramdas Pophale) SiO2 
 PCOD9126452
Probable space group: C 2
;
_chemical_formula_sum "Si O2"
_cell_formula_units_Z 30
_cell_length_a 18.032866
_cell_length_b 14.807065
_cell_length_c 11.864283
_cell_angle_alpha 90.000000
_cell_angle_beta 152.131183
_cell_angle_gamma 90.000000
_cell_volume 1480.843785
_symmetry_space_group_name_H-M "C 2"
_symmetry_group_IT_number 5
_symmetry_cell_setting 'monoclinic'
loop_
_space_group_symop_operation_xyz
x,y,z
-x,y,-z
1/2+x,1/2+y,z
1/2-x,1/2+y,-z
loop_
_atom_site_type_symbol
_atom_site_label
_atom_site_fract_x
_atom_site_fract_y
_atom_site_fract_z
Si Si1 0.678020 0.766050 0.206718
Si Si2 0.786863 0.964625 0.304958
Si Si3 0.500000 0.084434 0.000000
Si Si4 0.688293 0.238820 0.382954
Si Si5 0.868750 0.790456 0.047757
Si Si6 0.793967 0.177479 0.998410
Si Si7 0.591983 0.771157 0.517696
Si Si8 0.372633 0.482759 0.158263
O O1 0.769345 0.859871 0.312969
O O2 0.739320 0.714050 0.398885
O O3 0.500000 0.791023 0.000000
O O4 0.688491 0.712149 0.104680
O O5 0.825578 0.970669 0.225135
O O6 0.936990 0.998941 0.579565
O O7 0.626158 0.019962 0.107853
O O8 0.387770 0.150221 0.775620
O O9 0.534938 0.297355 0.208152
O O10 0.815665 0.292594 0.476157
O O11 0.829013 0.891528 0.033880
O O12 0.852586 0.727540 0.136429
O O13 0.747502 0.743147 0.797425
O O14 0.952075 0.207537 0.282021
O O15 0.786971 0.070364 0.994934
O O16 0.500000 0.822032 0.500000
#
# Coordination Sequence:
#
# PCOD9126452 Si02
#       8
#     4   4   2   4   4   4   4   4
#     4  12  24  44  65  98 143 182 216 280 357 405
#     4  11  24  41  66  97 137 173 231 279 327 415
#     4  12  24  42  68 102 126 174 240 288 326 400
#     4  12  23  40  69 101 131 176 228 284 342 396
#     4  11  22  41  69 100 134 168 230 291 330 396
#     4  11  24  43  69  96 137 183 221 279 343 413
#     4  10  22  40  67  94 129 180 222 271 334 398
#     4  11  24  41  67 102 129 180 230 271 344 406
#
# _framework density 20.258718999999999
#
# number of rings (size 3 to 8) (size 9 to 14) (size 15 to 20)
#    0.000    0.800    6.000    1.600    7.467    0.533 
#    0.000    4.000    5.867    0.000    0.000    0.000 
#    0.000    0.000    0.000    0.000    0.000    0.000 
#
# Total GULP energy -83512.935920 kJ/mol
# GULP energy per Si atom -5567.529061 kJ/mol
# Density = 2.021261 g / cm^3
# Si number density = 20.258719 Si / 1000 Ang^3
#
#
#
# Elastic Constant Matrix: (Units=GPa)
#
#
# Indices 1 2 3 4 5 6 
#
# 1 137.1793 47.1465 29.4180 0.0000 5.0552 0.0000
# 2 47.1465 101.8017 10.2312 0.0000 -2.3893 0.0000
# 3 29.4180 10.2312 60.5842 0.0000 -3.0686 0.0000
# 4 0.0000 0.0000 0.0000 -22.2676 0.0000 -59.2564
# 5 5.0552 -2.3893 -3.0686 0.0000 43.3842 0.0000
# 6 0.0000 0.0000 0.0000 -59.2564 0.0000 -54.5647
#
#
#
# Elastic Compliance Matrix: (Units=1/GPa)
#
#
# Indices 1 2 3 4 5 6 
#
# 1 0.009627 -0.004088 -0.004067 0.000000 -0.001635 0.000000
# 2 -0.004088 0.011737 0.000060 0.000000 0.001127 0.000000
# 3 -0.004067 0.000060 0.018561 0.000000 0.001790 0.000000
# 4 0.000000 0.000000 0.000000 0.023762 0.000000 -0.025805
# 5 -0.001635 0.001127 0.001790 0.000000 0.023429 0.000000
# 6 0.000000 0.000000 0.000000 -0.025805 0.000000 0.009697
#
#
# Mechanical properties :
#
#
# Convention : Reuss Voigt Hill
#
# Bulk Modulus (GPa) = 42.13185 52.57294 47.35240
# Shear Modulus (GPa) = 41.35121 7.49501 24.42311
#
# Velocity S-wave (km/s) = 4.52282 1.92553 3.47588
# Velocity P-wave (km/s) = 6.93661 5.56333 6.28758
#
# Compressibility (1/GPa) = 0.02373501
#
# Stress axis : x y z
#
# Youngs Moduli (GPa) = 103.87250 85.20257 53.87544
#
# Poissons Ratio (x) = 0.34832 0.21912
# Poissons Ratio (y) = 0.42465 -0.00324
# Poissons Ratio (z) = 0.42246 -0.00512
#
# Static dielectric constant tensor:
#      x y z
#    x 1.842290 0.000000 0.093910 
#    y 0.000000 1.692250 0.000000 
#    z 0.093910 0.000000 1.826790 
# 
# From -- ./inp_files/44909.got.cif
#   From: 2010.05.17/outbox.cif.g08.bks.cpg/sg5_23_cif.got.tgz:44909.got - 2010.06.03 18:56:24.
