data_PCOD9126913
_publ_section_title
;
Structure prediction by ZEFSAII (Michael W. Deem and Ramdas Pophale) SiO2 
 PCOD9126913
Probable space group: C 2
;
_chemical_formula_sum "Si O2"
_cell_formula_units_Z 28
_cell_length_a 16.923330
_cell_length_b 5.105948
_cell_length_c 13.995215
_cell_angle_alpha 90.000000
_cell_angle_beta 119.804683
_cell_angle_gamma 90.000000
_cell_volume 1049.358321
_symmetry_space_group_name_H-M "C 2"
_symmetry_group_IT_number 5
_symmetry_cell_setting 'monoclinic'
loop_
_space_group_symop_operation_xyz
x,y,z
-x,y,-z
1/2+x,1/2+y,z
1/2-x,1/2+y,-z
loop_
_atom_site_type_symbol
_atom_site_label
_atom_site_fract_x
_atom_site_fract_y
_atom_site_fract_z
Si Si1 0.191563 0.932330 0.682477
Si Si2 0.034829 0.233286 0.819686
Si Si3 0.500000 0.006643 0.000000
Si Si4 0.132551 0.855252 0.003244
Si Si5 0.697487 0.109890 0.868683
Si Si6 0.767014 0.913905 0.630994
Si Si7 0.000000 0.784727 0.500000
Si Si8 0.396750 0.018291 0.607537
O O1 0.251798 0.707275 0.664175
O O2 0.090958 0.944965 0.576358
O O3 0.174065 0.829284 0.777863
O O4 0.236026 0.213140 0.695442
O O5 0.948701 0.305285 0.703446
O O6 0.013707 0.355111 0.911308
O O7 0.121071 0.381588 0.822777
O O8 0.064560 0.948826 0.877431
O O9 0.415300 0.199072 0.943282
O O10 0.195755 0.068266 0.087652
O O11 0.200049 0.679501 0.982410
O O12 0.856687 0.770845 0.641403
O O13 0.689878 0.900689 0.501122
O O14 0.030121 0.613179 0.427143
#
# Coordination Sequence:
#
# PCOD9126913 Si02
#       8
#     4   4   2   4   4   4   2   4
#     4  11  26  45  73 107 145 197 244 305 377 446
#     4  11  24  47  74 105 146 196 248 309 376 455
#     4  10  26  44  68 112 144 194 248 308 384 440
#     4  11  24  44  72 105 150 195 250 323 361 466
#     4  11  24  43  73 107 146 196 253 305 388 436
#     4  11  27  47  72 106 148 191 244 312 372 450
#     4  10  22  42  70 102 142 180 248 302 354 446
#     4  11  24  49  73 105 144 194 245 309 377 452
#
# _framework density 26.682971999999999
#
# number of rings (size 3 to 8) (size 9 to 14) (size 15 to 20)
#    0.000    1.143    2.857    2.143    4.000    5.714 
#   10.286    0.000    0.000    0.000    0.000    0.000 
#    0.000    0.000    0.000    0.000    0.000    0.000 
#
# Total GULP energy -78332.746285 kJ/mol
# GULP energy per Si atom -5595.196163 kJ/mol
# Density = 2.662224 g / cm^3
# Si number density = 26.682972 Si / 1000 Ang^3
#
#
#
# Elastic Constant Matrix: (Units=GPa)
#
#
# Indices 1 2 3 4 5 6 
#
# 1 121.0127 26.9952 21.0502 0.0000 -27.5148 0.0000
# 2 26.9952 76.7282 -2.9829 0.0001 -2.7465 0.0000
# 3 21.0502 -2.9829 80.9979 0.0000 6.2718 0.0000
# 4 0.0000 0.0001 0.0000 13.0651 0.0000 -1.9819
# 5 -27.5148 -2.7465 6.2718 0.0000 49.6090 0.0000
# 6 0.0000 0.0000 0.0000 -1.9819 0.0000 42.0477
#
#
#
# Elastic Compliance Matrix: (Units=1/GPa)
#
#
# Indices 1 2 3 4 5 6 
#
# 1 0.011208 -0.003850 -0.003554 0.000000 0.006452 0.000000
# 2 -0.003850 0.014397 0.001651 0.000000 -0.001547 0.000000
# 3 -0.003554 0.001651 0.013609 0.000000 -0.003600 0.000000
# 4 0.000000 0.000000 0.000000 0.077091 0.000000 0.003634
# 5 0.006452 -0.001547 -0.003600 0.000000 0.024106 0.000000
# 6 0.000000 0.000000 0.000000 0.003634 0.000000 0.023954
#
#
# Mechanical properties :
#
#
# Convention : Reuss Voigt Hill
#
# Bulk Modulus (GPa) = 36.09369 40.98487 38.53928
# Shear Modulus (GPa) = 27.01132 36.52277 31.76704
#
# Velocity S-wave (km/s) = 3.18513 3.70370 3.45416
# Velocity P-wave (km/s) = 5.20413 5.80372 5.51208
#
# Compressibility (1/GPa) = 0.02770567
#
# Stress axis : x y z
#
# Youngs Moduli (GPa) = 89.22271 69.46121 73.47939
#
# Poissons Ratio (x) = 0.26746 0.26116
# Poissons Ratio (y) = 0.34355 -0.12129
# Poissons Ratio (z) = 0.31711 -0.11466
#
# Static dielectric constant tensor:
#      x y z
#    x 2.118010 0.000000 0.044210 
#    y 0.000000 2.186360 0.000000 
#    z 0.044210 0.000000 2.062840 
# 
# From -- ./inp_files/55337.got.cif
#   From: 2010.05.17/outbox.cif.g08.bks.cpg/sg5_28_cif.got.tgz:55337.got - 2010.06.03 18:56:24.
