data_PCOD9126167
_publ_section_title
;
Structure prediction by ZEFSAII (Michael W. Deem and Ramdas Pophale) SiO2 
 PCOD9126167
Probable space group: C 2
;
_chemical_formula_sum "Si O2"
_cell_formula_units_Z 24
_cell_length_a 14.644910
_cell_length_b 7.894979
_cell_length_c 13.775630
_cell_angle_alpha 90.000000
_cell_angle_beta 36.338841
_cell_angle_gamma 90.000000
_cell_volume 943.802310
_symmetry_space_group_name_H-M "C 2"
_symmetry_group_IT_number 5
_symmetry_cell_setting 'monoclinic'
loop_
_space_group_symop_operation_xyz
x,y,z
-x,y,-z
1/2+x,1/2+y,z
1/2-x,1/2+y,-z
loop_
_atom_site_type_symbol
_atom_site_label
_atom_site_fract_x
_atom_site_fract_y
_atom_site_fract_z
Si Si1 0.850840 0.806830 0.562833
Si Si2 0.378348 0.833077 0.690215
Si Si3 0.397723 0.682254 0.875989
Si Si4 0.111933 0.010747 0.818950
Si Si5 0.064444 0.493090 0.837141
Si Si6 0.444114 0.171494 0.765852
O O1 0.747927 0.642965 0.677259
O O2 0.746677 0.968859 0.673633
O O3 0.000000 0.811440 0.500000
O O4 0.922657 0.783115 0.396182
O O5 0.500000 0.804185 0.500000
O O6 0.378724 0.694763 0.776421
O O7 0.210228 0.859724 0.784444
O O8 0.428669 0.004533 0.707474
O O9 0.489311 0.517024 0.835159
O O10 0.501932 0.833444 0.828006
O O11 0.234627 0.716704 0.067602
O O12 0.000000 0.076596 0.000000
O O13 0.000546 0.641060 0.826612
O O14 0.000000 0.491305 0.000000
#
# Coordination Sequence:
#
# PCOD9126167 Si02
#       6
#     4   4   4   4   4   4
#     4  11  18  36  67  89 119 165 218 260 323 399
#     4  11  21  39  68  98 129 173 218 276 333 398
#     4  10  22  38  67  96 125 170 220 267 327 400
#     4  11  18  36  65  94 129 170 218 265 330 398
#     4  10  23  39  62  91 124 170 212 264 330 395
#     4  11  20  41  63  91 133 164 215 278 324 390
#
# _framework density 25.429053
#
# number of rings (size 3 to 8) (size 9 to 14) (size 15 to 20)
#    0.000    1.333    5.000    3.000    0.000    0.000 
#    3.000    9.167    0.000    0.000    0.000    0.000 
#    0.000    0.000    0.000    0.000    0.000    0.000 
#
# Total GULP energy -67090.755837 kJ/mol
# GULP energy per Si atom -5590.896320 kJ/mol
# Density = 2.537118 g / cm^3
# Si number density = 25.429053 Si / 1000 Ang^3
#
#
#
# Elastic Constant Matrix: (Units=GPa)
#
#
# Indices 1 2 3 4 5 6 
#
# 1 158.9073 25.4301 71.8180 0.0000 5.3210 0.0000
# 2 25.4301 50.1785 17.7959 0.0000 2.9942 0.0000
# 3 71.8180 17.7959 158.9990 0.0000 -19.2422 0.0000
# 4 0.0000 0.0000 0.0000 31.8859 0.0000 19.4165
# 5 5.3210 2.9942 -19.2422 0.0000 46.6067 0.0000
# 6 0.0000 0.0000 0.0000 19.4165 0.0000 51.5990
#
#
#
# Elastic Compliance Matrix: (Units=1/GPa)
#
#
# Indices 1 2 3 4 5 6 
#
# 1 0.008561 -0.002836 -0.003837 0.000000 -0.002380 0.000000
# 2 -0.002836 0.021953 -0.001377 0.000000 -0.001655 0.000000
# 3 -0.003837 -0.001377 0.008674 0.000000 0.004108 0.000000
# 4 0.000000 0.000000 0.000000 0.040684 0.000000 -0.015309
# 5 -0.002380 -0.001655 0.004108 0.000000 0.023530 0.000000
# 6 0.000000 0.000000 0.000000 -0.015309 0.000000 0.025141
#
#
# Mechanical properties :
#
#
# Convention : Reuss Voigt Hill
#
# Bulk Modulus (GPa) = 43.31181 66.46365 54.88773
# Shear Modulus (GPa) = 32.82173 42.88769 37.85471
#
# Velocity S-wave (km/s) = 3.59655 4.11123 3.86248
# Velocity P-wave (km/s) = 5.85801 6.98068 6.44384
#
# Compressibility (1/GPa) = 0.02308839
#
# Stress axis : x y z
#
# Youngs Moduli (GPa) = 116.81230 45.55214 115.28929
#
# Poissons Ratio (x) = 0.12917 0.44241
# Poissons Ratio (y) = 0.33123 0.15870
# Poissons Ratio (z) = 0.44825 0.06270
#
# Static dielectric constant tensor:
#      x y z
#    x 1.991470 0.000000 -0.098320 
#    y 0.000000 2.235850 0.000000 
#    z -0.098320 0.000000 1.801810 
# 
# From -- ./inp_files/54537.got.cif
#   From: 2010.05.17/outbox.cif.g08.bks.cpg/sg5_28_cif.got.tgz:54537.got - 2010.06.03 18:56:24.
