data_PCOD9126819
_publ_section_title
;
Structure prediction by ZEFSAII (Michael W. Deem and Ramdas Pophale) SiO2 
 PCOD9126819
Probable space group: C 2
;
_chemical_formula_sum "Si O2"
_cell_formula_units_Z 28
_cell_length_a 11.288214
_cell_length_b 9.007050
_cell_length_c 12.260468
_cell_angle_alpha 90.000000
_cell_angle_beta 74.795918
_cell_angle_gamma 90.000000
_cell_volume 1202.932296
_symmetry_space_group_name_H-M "C 2"
_symmetry_group_IT_number 5
_symmetry_cell_setting 'monoclinic'
loop_
_space_group_symop_operation_xyz
x,y,z
-x,y,-z
1/2+x,1/2+y,z
1/2-x,1/2+y,-z
loop_
_atom_site_type_symbol
_atom_site_label
_atom_site_fract_x
_atom_site_fract_y
_atom_site_fract_z
Si Si1 0.500000 0.648021 0.500000
Si Si2 0.911949 0.868761 0.615350
Si Si3 0.924430 0.572800 0.725754
Si Si4 0.395896 0.909651 0.946047
Si Si5 0.345529 0.610039 0.188353
Si Si6 0.725828 0.185929 0.987992
Si Si7 0.500000 0.399135 0.000000
Si Si8 0.370865 0.840106 0.371526
O O1 0.459157 0.537239 0.607394
O O2 0.392571 0.746096 0.475839
O O3 0.930427 0.749373 0.705448
O O4 0.771292 0.880099 0.611016
O O5 0.000000 0.802610 0.500000
O O6 0.943314 0.526662 0.846573
O O7 0.780486 0.536619 0.730561
O O8 0.031537 0.474963 0.645315
O O9 0.302231 0.016883 0.035252
O O10 0.500000 0.856657 0.000000
O O11 0.329502 0.777278 0.899386
O O12 0.285506 0.682441 0.094007
O O13 0.394229 0.732399 0.260792
O O14 0.446215 0.499752 0.112080
O O15 0.609269 0.290696 0.007639
#
# Coordination Sequence:
#
# PCOD9126819 Si02
#       8
#     2   4   4   4   4   4   2   4
#     4  10  26  44  70 102 122 170 224 266 354 408
#     4   9  24  45  68  97 133 168 207 281 341 399
#     4  10  22  42  66  97 130 170 220 267 327 386
#     4  11  23  39  62  94 132 174 223 262 314 383
#     4  10  25  41  63 100 138 176 226 269 325 384
#     4  11  22  39  61  94 128 180 224 258 323 370
#     4  12  22  40  68  90 146 182 214 282 310 388
#     4  11  24  43  72  99 127 173 223 277 331 400
#
# _framework density 23.276456
#
# number of rings (size 3 to 8) (size 9 to 14) (size 15 to 20)
#    0.429    1.143    3.571    0.857    6.000    4.571 
#    0.000    4.286    0.000    0.000    0.000    0.000 
#    0.000    0.000    0.000    0.000    0.000    0.000 
#
# Total GULP energy -78018.604324 kJ/mol
# GULP energy per Si atom -5572.757452 kJ/mol
# Density = 2.322348 g / cm^3
# Si number density = 23.276456 Si / 1000 Ang^3
#
#
#
# Elastic Constant Matrix: (Units=GPa)
#
#
# Indices 1 2 3 4 5 6 
#
# 1 130.4801 57.4178 4.7953 0.0000 -12.3749 0.0000
# 2 57.4178 92.5790 -7.5635 0.0000 -8.3826 0.0000
# 3 4.7953 -7.5635 8.5193 0.0000 -6.4840 0.0000
# 4 0.0000 0.0000 0.0000 27.3126 0.0000 11.9376
# 5 -12.3749 -8.3826 -6.4840 0.0000 33.0115 0.0000
# 6 0.0000 0.0000 0.0000 11.9376 0.0000 30.3478
#
#
#
# Elastic Compliance Matrix: (Units=1/GPa)
#
#
# Indices 1 2 3 4 5 6 
#
# 1 0.011990 -0.008722 -0.015000 0.000000 -0.000666 0.000000
# 2 -0.008722 0.019044 0.027053 0.000000 0.006880 0.000000
# 3 -0.015000 0.027053 0.177293 0.000000 0.036070 0.000000
# 4 0.000000 0.000000 0.000000 0.044215 0.000000 -0.017392
# 5 -0.000666 0.006880 0.036070 0.000000 0.038874 0.000000
# 6 0.000000 0.000000 0.000000 -0.017392 0.000000 0.039793
#
#
# Mechanical properties :
#
#
# Convention : Reuss Voigt Hill
#
# Bulk Modulus (GPa) = 4.65136 37.87527 21.26332
# Shear Modulus (GPa) = 12.61956 29.92962 21.27459
#
# Velocity S-wave (km/s) = 2.33096 3.58974 3.02652
# Velocity P-wave (km/s) = 3.04091 5.78696 4.62256
#
# Compressibility (1/GPa) = 0.21499070
#
# Stress axis : x y z
#
# Youngs Moduli (GPa) = 83.40110 52.50934 5.64038
#
# Poissons Ratio (x) = 0.45799 0.08460
# Poissons Ratio (y) = 0.72744 -0.15259
# Poissons Ratio (z) = 1.25098 -1.42055
#
# Static dielectric constant tensor:
#      x y z
#    x 1.915080 0.000000 -0.132880 
#    y 0.000000 1.961340 0.000000 
#    z -0.132880 0.000000 2.002630 
# 
# From -- ./inp_files/52106.got.cif
#   From: 2010.05.17/outbox.cif.g08.bks.cpg/sg5_27_cif.got.tgz:52106.got - 2010.06.03 18:56:24.
