data_PCOD9126782
_publ_section_title
;
Structure prediction by ZEFSAII (Michael W. Deem and Ramdas Pophale) SiO2 
 PCOD9126782
Probable space group: C 2
;
_chemical_formula_sum "Si O2"
_cell_formula_units_Z 24
_cell_length_a 23.763954
_cell_length_b 5.429750
_cell_length_c 8.820055
_cell_angle_alpha 90.000000
_cell_angle_beta 108.193666
_cell_angle_gamma 90.000000
_cell_volume 1081.176110
_symmetry_space_group_name_H-M "C 2"
_symmetry_group_IT_number 5
_symmetry_cell_setting 'monoclinic'
loop_
_space_group_symop_operation_xyz
x,y,z
-x,y,-z
1/2+x,1/2+y,z
1/2-x,1/2+y,-z
loop_
_atom_site_type_symbol
_atom_site_label
_atom_site_fract_x
_atom_site_fract_y
_atom_site_fract_z
Si Si1 0.277979 0.234570 0.093311
Si Si2 0.489756 0.632850 0.325538
Si Si3 0.511867 0.030093 0.160001
Si Si4 0.604789 0.398096 0.271154
Si Si5 0.899018 0.880188 0.065384
Si Si6 0.222939 0.828195 0.545949
O O1 0.346506 0.231595 0.098414
O O2 0.272836 0.276603 0.270364
O O3 0.250907 0.478073 0.987434
O O4 0.500000 0.537197 0.500000
O O5 0.496047 0.922519 0.309204
O O6 0.546904 0.541758 0.278926
O O7 0.425409 0.575791 0.204658
O O8 0.578579 0.123128 0.228261
O O9 0.459508 0.227239 0.087695
O O10 0.500000 0.863206 0.000000
O O11 0.657071 0.398788 0.434182
O O12 0.622059 0.479887 0.115753
O O13 0.240080 0.572213 0.473863
#
# Coordination Sequence:
#
# PCOD9126782 Si02
#       6
#     4   4   4   4   4   4
#     4  12  27  48  73 103 140 184 235 288 347 412
#     4  11  22  36  61  95 131 169 215 273 338 403
#     4   9  20  38  63  91 125 169 215 269 338 401
#     4  10  22  42  65  92 128 171 223 278 338 403
#     4  10  22  42  65  92 128 171 223 278 338 403
#     4  12  27  48  73 103 140 184 235 288 347 412
#
# _framework density 22.198046000000001
#
# number of rings (size 3 to 8) (size 9 to 14) (size 15 to 20)
#    0.000    1.333    0.000    6.500    4.667    4.000 
#    0.000    0.000    0.000    0.000    0.000    0.000 
#    0.000    0.000    0.000    0.000    0.000    0.000 
#
# Total GULP energy -66849.456967 kJ/mol
# GULP energy per Si atom -5570.788081 kJ/mol
# Density = 2.214752 g / cm^3
# Si number density = 22.198046 Si / 1000 Ang^3
#
#
#
# Elastic Constant Matrix: (Units=GPa)
#
#
# Indices 1 2 3 4 5 6 
#
# 1 83.2616 3.4492 22.8159 0.0000 8.4501 0.0000
# 2 3.4492 49.4710 24.8730 0.0000 5.3924 0.0000
# 3 22.8159 24.8730 134.7316 0.0000 -1.8008 0.0000
# 4 0.0000 0.0000 0.0000 26.8796 0.0000 0.7721
# 5 8.4501 5.3924 -1.8008 0.0000 42.4443 0.0000
# 6 0.0000 0.0000 0.0000 0.7721 0.0000 16.1786
#
#
#
# Elastic Compliance Matrix: (Units=1/GPa)
#
#
# Indices 1 2 3 4 5 6 
#
# 1 0.012902 0.000569 -0.002327 0.000000 -0.002740 0.000000
# 2 0.000569 0.022697 -0.004329 0.000000 -0.003181 0.000000
# 3 -0.002327 -0.004329 0.008634 0.000000 0.001379 0.000000
# 4 0.000000 0.000000 0.000000 0.037254 0.000000 -0.001778
# 5 -0.002740 -0.003181 0.001379 0.000000 0.024568 0.000000
# 6 0.000000 0.000000 0.000000 -0.001778 0.000000 0.061895
#
#
# Mechanical properties :
#
#
# Convention : Reuss Voigt Hill
#
# Bulk Modulus (GPa) = 31.19155 41.08227 36.13691
# Shear Modulus (GPa) = 26.20393 31.52226 28.86309
#
# Velocity S-wave (km/s) = 3.43951 3.77244 3.60982
# Velocity P-wave (km/s) = 5.46403 6.12555 5.80422
#
# Compressibility (1/GPa) = 0.03205997
#
# Stress axis : x y z
#
# Youngs Moduli (GPa) = 77.50526 44.05788 115.82423
#
# Poissons Ratio (x) = -0.02506 0.26947
# Poissons Ratio (y) = -0.04408 0.50141
# Poissons Ratio (z) = 0.18032 0.19073
#
# Static dielectric constant tensor:
#      x y z
#    x 1.790280 0.000000 -0.078130 
#    y 0.000000 2.083380 0.000000 
#    z -0.078130 0.000000 2.010530 
# 
# From -- ./inp_files/30340.got.cif
#   From: 2010.05.17/outbox.cif.g08.bks.cpg/sg5_16_cif.got.tgz:30340.got - 2010.06.03 18:56:24.
