data_PCOD9126790
_publ_section_title
;
Structure prediction by ZEFSAII (Michael W. Deem and Ramdas Pophale) SiO2 
 PCOD9126790
Probable space group: C 2
;
_chemical_formula_sum "Si O2"
_cell_formula_units_Z 28
_cell_length_a 8.133960
_cell_length_b 14.235525
_cell_length_c 19.952979
_cell_angle_alpha 90.000000
_cell_angle_beta 145.307447
_cell_angle_gamma 90.000000
_cell_volume 1315.004677
_symmetry_space_group_name_H-M "C 2"
_symmetry_group_IT_number 5
_symmetry_cell_setting 'monoclinic'
loop_
_space_group_symop_operation_xyz
x,y,z
-x,y,-z
1/2+x,1/2+y,z
1/2-x,1/2+y,-z
loop_
_atom_site_type_symbol
_atom_site_label
_atom_site_fract_x
_atom_site_fract_y
_atom_site_fract_z
Si Si1 0.904352 0.383970 0.084968
Si Si2 0.240543 0.994653 0.308932
Si Si3 0.955877 0.811000 0.688211
Si Si4 0.213685 0.869189 0.167487
Si Si5 0.115897 0.577586 0.105890
Si Si6 0.311451 0.700359 0.277141
Si Si7 0.747327 0.643127 0.528002
O O1 0.824087 0.408782 0.134523
O O2 0.201904 0.326980 0.189240
O O3 0.961412 0.478003 0.062285
O O4 0.620454 0.339380 0.956453
O O5 0.238098 0.939966 0.237206
O O6 0.194521 0.914016 0.351213
O O7 0.514512 0.062789 0.400629
O O8 0.955336 0.058170 0.213949
O O9 0.845338 0.753120 0.714990
O O10 0.868589 0.744462 0.596082
O O11 0.390289 0.777140 0.247733
O O12 0.090596 0.631545 0.166832
O O13 0.000000 0.625993 0.000000
O O14 0.587957 0.654432 0.403712
O O15 0.500000 0.616254 0.500000
#
# Coordination Sequence:
#
# PCOD9126790 Si02
#       7
#     4   4   4   4   4   4   4
#     4  10  22  42  67  95 133 171 221 285 347 416
#     4  10  22  43  70  95 134 181 220 281 347 400
#     4   9  22  45  70  96 135 181 226 280 351 405
#     4  10  22  42  65  99 133 172 226 276 350 414
#     4  11  23  42  66  99 132 167 224 280 342 416
#     4  10  24  42  62  97 134 170 227 279 332 412
#     4  10  23  46  67  98 140 176 238 280 330 418
#
# _framework density 21.292698999999999
#
# number of rings (size 3 to 8) (size 9 to 14) (size 15 to 20)
#    0.000    2.000    1.429    0.000    8.000    0.571 
#   23.143    1.429    0.000    0.000    0.000    0.000 
#    0.000    0.000    0.000    0.000    0.000    0.000 
#
# Total GULP energy -78133.731714 kJ/mol
# GULP energy per Si atom -5580.980837 kJ/mol
# Density = 2.124424 g / cm^3
# Si number density = 21.292699 Si / 1000 Ang^3
#
#
#
# Elastic Constant Matrix: (Units=GPa)
#
#
# Indices 1 2 3 4 5 6 
#
# 1 48.6721 25.1432 42.6262 0.0000 6.0072 -0.0002
# 2 25.1432 67.0286 52.9239 0.0000 3.8330 -0.0001
# 3 42.6262 52.9239 132.8385 0.0002 -3.7638 -0.0005
# 4 0.0000 0.0000 0.0002 38.2196 -0.0001 5.2974
# 5 6.0072 3.8330 -3.7638 -0.0001 42.9390 -0.0002
# 6 -0.0002 -0.0001 -0.0005 5.2974 -0.0002 -7.5423
#
#
#
# Elastic Compliance Matrix: (Units=1/GPa)
#
#
# Indices 1 2 3 4 5 6 
#
# 1 0.030662 -0.004918 -0.008009 0.000000 -0.004553 0.000000
# 2 -0.004918 0.022874 -0.007592 0.000000 -0.002019 0.000000
# 3 -0.008009 -0.007592 0.013206 0.000000 0.002956 -0.000001
# 4 0.000000 0.000000 0.000000 0.023843 0.000000 0.016746
# 5 -0.004553 -0.002019 0.002956 0.000000 0.024365 -0.000001
# 6 0.000000 0.000000 -0.000001 0.016746 -0.000001 -0.120823
#
#
# Mechanical properties :
#
#
# Convention : Reuss Voigt Hill
#
# Bulk Modulus (GPa) = 38.90366 54.43618 46.66992
# Shear Modulus (GPa) = 114.32925 23.24633 68.78779
#
# Velocity S-wave (km/s) = 7.33558 3.30775 5.68999
# Velocity P-wave (km/s) = 9.48990 6.34109 8.07055
#
# Compressibility (1/GPa) = 0.02570452
#
# Stress axis : x y z
#
# Youngs Moduli (GPa) = 32.61380 43.71806 75.72092
#
# Poissons Ratio (x) = 0.21500 0.60643
# Poissons Ratio (y) = 0.16039 0.57489
# Poissons Ratio (z) = 0.26119 0.33192
#
# Static dielectric constant tensor:
#      x y z
#    x 1.769390 0.000000 -0.009130 
#    y 0.000000 1.827710 0.000000 
#    z -0.009130 0.000000 1.765880 
# 
# From -- ./inp_files/64690.got.cif
#   From: 2010.05.17/outbox.cif.g08.bks.cpg/sg5_33_cif.got.tgz:64690.got - 2010.06.03 18:56:24.
