data_PCOD9126435
_publ_section_title
;
Structure prediction by ZEFSAII (Michael W. Deem and Ramdas Pophale) SiO2 
 PCOD9126435
Probable space group: C 2
;
_chemical_formula_sum "Si O2"
_cell_formula_units_Z 16
_cell_length_a 7.289031
_cell_length_b 20.488325
_cell_length_c 8.302814
_cell_angle_alpha 90.000000
_cell_angle_beta 36.928403
_cell_angle_gamma 90.000000
_cell_volume 744.978033
_symmetry_space_group_name_H-M "C 2"
_symmetry_group_IT_number 5
_symmetry_cell_setting 'monoclinic'
loop_
_space_group_symop_operation_xyz
x,y,z
-x,y,-z
1/2+x,1/2+y,z
1/2-x,1/2+y,-z
loop_
_atom_site_type_symbol
_atom_site_label
_atom_site_fract_x
_atom_site_fract_y
_atom_site_fract_z
Si Si1 0.000000 0.399801 0.000000
Si Si2 0.208628 0.773946 0.099737
Si Si3 0.500000 0.484922 0.500000
Si Si4 0.850571 0.060304 0.277536
Si Si5 0.590239 0.699645 0.610677
O O1 0.248896 0.351473 0.909471
O O2 0.194508 0.441780 0.737989
O O3 0.897420 0.742780 0.380548
O O4 0.500000 0.749877 0.000000
O O5 0.313467 0.746902 0.855173
O O6 0.478207 0.524773 0.347683
O O7 0.500000 0.042687 0.500000
O O8 0.874796 0.137481 0.299450
O O9 0.000000 0.046154 0.000000
O O10 0.500000 0.672480 0.500000
#
# Coordination Sequence:
#
# PCOD9126435 Si02
#       5
#     2   4   2   4   4
#     4  10  24  44  74  90 142 196 226 284 348 412
#     4  10  22  40  66  95 128 192 223 272 359 401
#     4  12  24  50  70 104 140 186 250 274 344 434
#     4  12  26  44  71 106 140 187 229 295 360 412
#     4  12  22  40  65 106 146 171 232 294 352 425
#
# _framework density 21.477145
#
# number of rings (size 3 to 8) (size 9 to 14) (size 15 to 20)
#    0.750    0.000    1.250    8.250    0.000    0.000 
#    0.000   12.500    0.000    0.000    0.000    0.000 
#    0.000    0.000    0.000    0.000    0.000    0.000 
#
# Total GULP energy -44639.241584 kJ/mol
# GULP energy per Si atom -5579.905198 kJ/mol
# Density = 2.142826 g / cm^3
# Si number density = 21.477145 Si / 1000 Ang^3
#
#
#
# Elastic Constant Matrix: (Units=GPa)
#
#
# Indices 1 2 3 4 5 6 
#
# 1 99.3264 30.6933 47.5956 0.0000 9.9327 0.0000
# 2 30.6933 108.4913 67.2225 0.0000 6.4429 0.0000
# 3 47.5956 67.2225 192.3964 0.0000 3.8737 0.0000
# 4 0.0000 0.0000 0.0000 130.1661 0.0000 -43.0414
# 5 9.9327 6.4429 3.8737 0.0000 45.1306 0.0000
# 6 0.0000 0.0000 0.0000 -43.0414 0.0000 21.7195
#
#
#
# Elastic Compliance Matrix: (Units=1/GPa)
#
#
# Indices 1 2 3 4 5 6 
#
# 1 0.011941 -0.001846 -0.002265 0.000000 -0.002170 0.000000
# 2 -0.001846 0.012130 -0.003761 0.000000 -0.001003 0.000000
# 3 -0.002265 -0.003761 0.007064 0.000000 0.000429 0.000000
# 4 0.000000 0.000000 0.000000 0.022286 0.000000 0.044164
# 5 -0.002170 -0.001003 0.000429 0.000000 0.022742 0.000000
# 6 0.000000 0.000000 0.000000 0.044164 0.000000 0.133561
#
#
# Mechanical properties :
#
#
# Convention : Reuss Voigt Hill
#
# Bulk Modulus (GPa) = 64.98037 76.80412 70.89225
# Shear Modulus (GPa) = 21.68289 56.38340 39.03315
#
# Velocity S-wave (km/s) = 3.18084 5.12930 4.26775
# Velocity P-wave (km/s) = 6.61903 8.42129 7.57396
#
# Compressibility (1/GPa) = 0.01538926
#
# Stress axis : x y z
#
# Youngs Moduli (GPa) = 83.74733 82.44340 141.57200
#
# Poissons Ratio (x) = 0.15216 0.32071
# Poissons Ratio (y) = 0.15457 0.53249
# Poissons Ratio (z) = 0.18972 0.31009
#
# Static dielectric constant tensor:
#      x y z
#    x 1.749910 0.000000 -0.077670 
#    y 0.000000 1.790430 0.000000 
#    z -0.077670 0.000000 1.586170 
# 
# From -- ./inp_files/16260.got.cif
#   From: 2010.05.17/outbox.cif.g08.bks.cpg/sg5_9_cif.got.tgz:16260.got - 2010.06.03 18:56:24.
