data_PCOD9126700
_publ_section_title
;
Structure prediction by ZEFSAII (Michael W. Deem and Ramdas Pophale) SiO2 
 PCOD9126700
Probable space group: C 2
;
_chemical_formula_sum "Si O2"
_cell_formula_units_Z 32
_cell_length_a 10.479746
_cell_length_b 10.452334
_cell_length_c 12.362250
_cell_angle_alpha 90.000000
_cell_angle_beta 107.276557
_cell_angle_gamma 90.000000
_cell_volume 1293.038461
_symmetry_space_group_name_H-M "C 2"
_symmetry_group_IT_number 5
_symmetry_cell_setting 'monoclinic'
loop_
_space_group_symop_operation_xyz
x,y,z
-x,y,-z
1/2+x,1/2+y,z
1/2-x,1/2+y,-z
loop_
_atom_site_type_symbol
_atom_site_label
_atom_site_fract_x
_atom_site_fract_y
_atom_site_fract_z
Si Si1 0.397593 0.417060 0.713254
Si Si2 0.949262 0.282698 0.702892
Si Si3 0.258020 0.586593 0.026923
Si Si4 0.729775 0.968532 0.460131
Si Si5 0.972653 0.691374 0.604799
Si Si6 0.738085 0.115240 0.784877
Si Si7 0.396064 0.850821 0.066655
Si Si8 0.654008 0.565558 0.732576
O O1 0.330493 0.467494 0.585003
O O2 0.407141 0.269201 0.686809
O O3 0.307763 0.476812 0.784142
O O4 0.547587 0.469649 0.762742
O O5 0.858241 0.342458 0.586326
O O6 0.849872 0.210839 0.762432
O O7 0.033027 0.379631 0.800304
O O8 0.062697 0.188747 0.685426
O O9 0.375620 0.696068 0.059605
O O10 0.231073 0.590810 0.149252
O O11 0.196565 0.637748 0.898489
O O12 0.235395 0.434972 0.994072
O O13 0.625604 0.080553 0.453808
O O14 0.798020 0.000397 0.363589
O O15 0.000000 0.769572 0.500000
O O16 0.109601 0.635770 0.681284
O O17 0.500000 0.886419 0.000000
#
# Coordination Sequence:
#
# PCOD9126700 Si02
#       8
#     4   4   4   4   4   4   4   4
#     4  11  25  42  72  97 139 183 231 287 347 421
#     4  10  22  41  71  94 140 180 230 282 350 410
#     4  11  25  42  75 103 147 180 243 289 357 424
#     4  12  24  44  67 102 138 180 234 288 345 428
#     4  12  25  44  69 103 142 180 231 298 354 415
#     4  11  23  46  70 106 133 189 233 287 352 429
#     4  11  22  44  69 101 137 194 223 293 351 422
#     4  10  24  43  69 102 131 191 225 285 354 419
#
# _framework density 24.747910999999998
#
# number of rings (size 3 to 8) (size 9 to 14) (size 15 to 20)
#    0.000    1.000    2.500    4.125    3.500    3.000 
#    0.000    0.625    2.750    0.000    0.000    0.000 
#    0.000    0.000    0.000    0.000    0.000    0.000 
#
# Total GULP energy -89216.303346 kJ/mol
# GULP energy per Si atom -5576.018959 kJ/mol
# Density = 2.469158 g / cm^3
# Si number density = 24.747911 Si / 1000 Ang^3
#
#
#
# Elastic Constant Matrix: (Units=GPa)
#
#
# Indices 1 2 3 4 5 6 
#
# 1 75.9654 26.8562 33.4837 0.0000 5.6812 0.0000
# 2 26.8562 77.7978 12.1756 0.0000 1.7344 0.0000
# 3 33.4837 12.1756 100.6959 0.0000 -6.2766 0.0000
# 4 0.0000 0.0000 0.0000 2.9019 0.0000 19.5978
# 5 5.6812 1.7344 -6.2766 0.0000 21.7767 0.0000
# 6 0.0000 0.0000 0.0000 19.5978 0.0000 26.2842
#
#
#
# Elastic Compliance Matrix: (Units=1/GPa)
#
#
# Indices 1 2 3 4 5 6 
#
# 1 0.017953 -0.005171 -0.005713 0.000000 -0.005919 0.000000
# 2 -0.005171 0.014641 -0.000040 0.000000 0.000171 0.000000
# 3 -0.005713 -0.000040 0.012147 0.000000 0.004995 0.000000
# 4 0.000000 0.000000 0.000000 -0.085395 0.000000 0.063671
# 5 -0.005919 0.000171 0.004995 0.000000 0.048891 0.000000
# 6 0.000000 0.000000 0.000000 0.063671 0.000000 -0.009428
#
#
# Mechanical properties :
#
#
# Convention : Reuss Voigt Hill
#
# Bulk Modulus (GPa) = 43.68395 44.38778 44.03587
# Shear Modulus (GPa) = 176.74237 22.32215 99.53226
#
# Velocity S-wave (km/s) = 8.46003 3.00656 6.34868
# Velocity P-wave (km/s) = 10.63576 5.47973 8.46011
#
# Compressibility (1/GPa) = 0.02289170
#
# Stress axis : x y z
#
# Youngs Moduli (GPa) = 55.70066 68.29916 82.32539
#
# Poissons Ratio (x) = 0.35320 0.47036
# Poissons Ratio (y) = 0.28805 0.00330
# Poissons Ratio (z) = 0.31824 0.00274
#
# Static dielectric constant tensor:
#      x y z
#    x 2.024910 0.000000 -0.069550 
#    y 0.000000 2.072050 0.000000 
#    z -0.069550 0.000000 1.961690 
# 
# From -- ./inp_files/39432.got.cif
#   From: 2010.05.17/outbox.cif.g08.bks.cpg/sg5_20_cif.got.tgz:39432.got - 2010.06.03 18:56:24.
