data_PCOD9126066
_publ_section_title
;
Structure prediction by ZEFSAII (Michael W. Deem and Ramdas Pophale) SiO2 
 PCOD9126066
Probable space group: C 2
;
_chemical_formula_sum "Si O2"
_cell_formula_units_Z 30
_cell_length_a 13.649445
_cell_length_b 8.110847
_cell_length_c 22.787885
_cell_angle_alpha 90.000000
_cell_angle_beta 38.136308
_cell_angle_gamma 90.000000
_cell_volume 1557.924458
_symmetry_space_group_name_H-M "C 2"
_symmetry_group_IT_number 5
_symmetry_cell_setting 'monoclinic'
loop_
_space_group_symop_operation_xyz
x,y,z
-x,y,-z
1/2+x,1/2+y,z
1/2-x,1/2+y,-z
loop_
_atom_site_type_symbol
_atom_site_label
_atom_site_fract_x
_atom_site_fract_y
_atom_site_fract_z
Si Si1 0.549073 0.213080 0.159127
Si Si2 0.822493 0.320275 0.368609
Si Si3 0.947965 0.320203 0.841614
Si Si4 0.500000 0.120237 0.500000
Si Si5 0.029093 0.329836 0.571195
Si Si6 0.749790 0.696377 0.367972
Si Si7 0.089665 0.217998 0.016342
Si Si8 0.911969 0.819821 0.982780
O O1 0.414106 0.272788 0.266997
O O2 0.501577 0.249398 0.114772
O O3 0.559860 0.016961 0.163355
O O4 0.728838 0.279533 0.076311
O O5 0.656975 0.222985 0.442054
O O6 0.911097 0.319803 0.390227
O O7 0.780680 0.508735 0.371824
O O8 0.941063 0.254536 0.262066
O O9 0.997658 0.284898 0.884868
O O10 0.767732 0.255724 0.926807
O O11 0.472620 0.005289 0.570700
O O12 0.176264 0.284850 0.459243
O O13 0.883768 0.210439 0.620370
O O14 0.092766 0.018811 0.020300
O O15 0.000000 0.263327 0.000000
O O16 0.000000 0.775136 0.000000
#
# Coordination Sequence:
#
# PCOD9126066 Si02
#       8
#     4   4   4   2   4   4   4   4
#     4   9  18  34  55  75 109 143 182 222 271 332
#     4  11  21  39  60  83 120 149 188 238 286 333
#     4   9  20  35  51  80 110 141 180 226 273 331
#     4  10  22  38  58  90 110 150 196 234 276 348
#     4  10  22  39  61  83 117 150 190 235 288 335
#     4   9  20  38  58  83 115 152 187 236 282 341
#     4   9  18  35  53  78 112 141 178 228 276 321
#     4   9  18  32  55  80 103 144 180 220 271 327
#
# _framework density 19.25639
#
# number of rings (size 3 to 8) (size 9 to 14) (size 15 to 20)
#    0.000    2.667    0.000    1.600    1.867    2.667 
#    9.600    0.000    2.933    0.000    0.000    0.000 
#    0.000    0.000    0.000    0.000    0.000    0.000 
#
# Total GULP energy -83558.887169 kJ/mol
# GULP energy per Si atom -5570.592478 kJ/mol
# Density = 1.921256 g / cm^3
# Si number density = 19.256390 Si / 1000 Ang^3
#
#
#
# Elastic Constant Matrix: (Units=GPa)
#
#
# Indices 1 2 3 4 5 6 
#
# 1 117.3145 21.2406 57.3181 0.0000 19.7720 0.0000
# 2 21.2406 21.3767 12.3201 0.0000 2.9816 0.0000
# 3 57.3181 12.3201 130.0823 0.0000 10.7631 0.0000
# 4 0.0000 0.0000 0.0000 18.5583 0.0000 1.1588
# 5 19.7720 2.9816 10.7631 0.0000 14.9574 0.0000
# 6 0.0000 0.0000 0.0000 1.1588 0.0000 17.1190
#
#
#
# Elastic Compliance Matrix: (Units=1/GPa)
#
#
# Indices 1 2 3 4 5 6 
#
# 1 0.015023 -0.010335 -0.004432 0.000000 -0.014609 0.000000
# 2 -0.010335 0.057271 -0.001123 0.000000 0.003054 0.000000
# 3 -0.004432 -0.001123 0.009829 0.000000 -0.000990 0.000000
# 4 0.000000 0.000000 0.000000 0.054113 0.000000 -0.003663
# 5 -0.014609 0.003054 -0.000990 0.000000 0.086272 0.000000
# 6 0.000000 0.000000 0.000000 -0.003663 0.000000 0.058663
#
#
# Mechanical properties :
#
#
# Convention : Reuss Voigt Hill
#
# Bulk Modulus (GPa) = 19.86411 50.05904 34.96157
# Shear Modulus (GPa) = 15.16389 21.98658 18.57524
#
# Velocity S-wave (km/s) = 2.80924 3.38269 3.10921
# Velocity P-wave (km/s) = 4.56732 6.42723 5.57538
#
# Compressibility (1/GPa) = 0.05034205
#
# Stress axis : x y z
#
# Youngs Moduli (GPa) = 66.56462 17.46098 101.74457
#
# Poissons Ratio (x) = 0.18047 0.45092
# Poissons Ratio (y) = 0.68797 0.11423
# Poissons Ratio (z) = 0.29501 0.01960
#
# Static dielectric constant tensor:
#      x y z
#    x 1.682510 0.000000 -0.013910 
#    y 0.000000 1.704040 0.000000 
#    z -0.013910 0.000000 1.685790 
# 
# From -- ./inp_files/65828.got.cif
#   From: 2010.05.17/outbox.cif.g08.bks.cpg/sg5_33_cif.got.tgz:65828.got - 2010.06.03 18:56:24.
