data_PCOD9126412
_publ_section_title
;
Structure prediction by ZEFSAII (Michael W. Deem and Ramdas Pophale) SiO2 
 PCOD9126412
Probable space group: C 2
;
_chemical_formula_sum "Si O2"
_cell_formula_units_Z 20
_cell_length_a 10.729850
_cell_length_b 9.300943
_cell_length_c 9.429217
_cell_angle_alpha 90.000000
_cell_angle_beta 69.391115
_cell_angle_gamma 90.000000
_cell_volume 880.794138
_symmetry_space_group_name_H-M "C 2"
_symmetry_group_IT_number 5
_symmetry_cell_setting 'monoclinic'
loop_
_space_group_symop_operation_xyz
x,y,z
-x,y,-z
1/2+x,1/2+y,z
1/2-x,1/2+y,-z
loop_
_atom_site_type_symbol
_atom_site_label
_atom_site_fract_x
_atom_site_fract_y
_atom_site_fract_z
Si Si1 0.287135 0.589740 0.598903
Si Si2 0.789298 0.139336 0.151796
Si Si3 0.350399 0.279434 0.530694
Si Si4 0.495102 0.667038 0.724150
Si Si5 0.388031 0.914801 0.938962
O O1 0.264564 0.424792 0.569159
O O2 0.165003 0.692782 0.609818
O O3 0.356720 0.601393 0.723492
O O4 0.397952 0.650557 0.444110
O O5 0.693433 0.178930 0.321847
O O6 0.928900 0.096541 0.172435
O O7 0.717442 0.023518 0.083613
O O8 0.818700 0.285099 0.053747
O O9 0.500000 0.328097 0.500000
O O10 0.463700 0.829701 0.782358
O O11 0.500000 0.979044 0.000000
#
# Coordination Sequence:
#
# PCOD9126412 Si02
#       5
#     4   4   4   4   4
#     4  10  22  40  65  95 127 166 203 259 316 376
#     4  10  24  43  65  95 124 169 214 255 314 371
#     4  11  24  41  62  98 128 161 214 254 317 375
#     4   9  20  41  67  88 128 161 205 256 319 363
#     4  10  23  44  64  93 127 167 211 261 309 371
#
# _framework density 22.706782
#
# number of rings (size 3 to 8) (size 9 to 14) (size 15 to 20)
#    0.000    2.000    2.000    0.000    8.400    4.800 
#    3.600    0.000    0.000    0.000    0.000    0.000 
#    0.000    0.000    0.000    0.000    0.000    0.000 
#
# Total GULP energy -55830.112376 kJ/mol
# GULP energy per Si atom -5583.011238 kJ/mol
# Density = 2.265510 g / cm^3
# Si number density = 22.706782 Si / 1000 Ang^3
#
#
#
# Elastic Constant Matrix: (Units=GPa)
#
#
# Indices 1 2 3 4 5 6 
#
# 1 122.9141 72.1951 31.5881 0.0000 53.8743 0.0000
# 2 72.1951 98.8575 22.3201 0.0000 51.5862 0.0000
# 3 31.5881 22.3201 79.2527 0.0000 19.2442 0.0000
# 4 0.0000 0.0000 0.0000 23.1596 0.0000 10.8160
# 5 53.8743 51.5862 19.2442 0.0000 45.7837 0.0000
# 6 0.0000 0.0000 0.0000 10.8160 0.0000 42.6559
#
#
#
# Elastic Compliance Matrix: (Units=1/GPa)
#
#
# Indices 1 2 3 4 5 6 
#
# 1 0.018117 -0.005077 -0.002231 0.000000 -0.014660 0.000000
# 2 -0.005077 0.025976 0.000406 0.000000 -0.023465 0.000000
# 3 -0.002231 0.000406 0.014329 0.000000 -0.003854 0.000000
# 4 0.000000 0.000000 0.000000 0.048979 0.000000 -0.012419
# 5 -0.014660 -0.023465 -0.003854 0.000000 0.067151 0.000000
# 6 0.000000 0.000000 0.000000 -0.012419 0.000000 0.026592
#
#
# Mechanical properties :
#
#
# Convention : Reuss Voigt Hill
#
# Bulk Modulus (GPa) = 22.41320 61.47010 41.94165
# Shear Modulus (GPa) = 21.75603 33.98123 27.86863
#
# Velocity S-wave (km/s) = 3.09872 3.87269 3.50712
# Velocity P-wave (km/s) = 4.76392 6.86491 5.90855
#
# Compressibility (1/GPa) = 0.04461657
#
# Stress axis : x y z
#
# Youngs Moduli (GPa) = 55.19745 38.49712 69.78918
#
# Poissons Ratio (x) = 0.19544 0.15572
# Poissons Ratio (y) = 0.28022 -0.02830
# Poissons Ratio (z) = 0.12316 -0.01561
#
# Static dielectric constant tensor:
#      x y z
#    x 1.939960 0.000000 0.004680 
#    y 0.000000 1.788930 0.000000 
#    z 0.004680 0.000000 1.916930 
# 
# From -- ./inp_files/18252.got.cif
#   From: 2010.05.17/outbox.cif.g08.bks.cpg/sg5_10_cif.got.tgz:18252.got - 2010.06.03 18:56:24.
