data_PCOD9126904
_publ_section_title
;
Structure prediction by ZEFSAII (Michael W. Deem and Ramdas Pophale) SiO2 
 PCOD9126904
Probable space group: C 2
;
_chemical_formula_sum "Si O2"
_cell_formula_units_Z 24
_cell_length_a 12.062631
_cell_length_b 7.390229
_cell_length_c 27.830829
_cell_angle_alpha 90.000000
_cell_angle_beta 155.161671
_cell_angle_gamma 90.000000
_cell_volume 1042.165391
_symmetry_space_group_name_H-M "C 2"
_symmetry_group_IT_number 5
_symmetry_cell_setting 'monoclinic'
loop_
_space_group_symop_operation_xyz
x,y,z
-x,y,-z
1/2+x,1/2+y,z
1/2-x,1/2+y,-z
loop_
_atom_site_type_symbol
_atom_site_label
_atom_site_fract_x
_atom_site_fract_y
_atom_site_fract_z
Si Si1 0.849658 0.723020 0.116088
Si Si2 0.556018 0.801779 0.638867
Si Si3 0.366329 0.922938 0.056652
Si Si4 0.642334 0.435337 0.405870
Si Si5 0.638347 0.478833 0.799531
Si Si6 0.699286 0.670765 0.252069
O O1 0.750875 0.534765 0.055795
O O2 0.740530 0.816199 0.120930
O O3 0.157392 0.710595 0.251486
O O4 0.814929 0.862848 0.058258
O O5 0.377049 0.651105 0.593824
O O6 0.411143 0.856811 0.532643
O O7 0.623232 0.994085 0.690352
O O8 0.605481 0.046576 0.128701
O O9 0.511191 0.748844 0.136534
O O10 0.565158 0.407450 0.320262
O O11 0.409225 0.331326 0.343252
O O12 0.483930 0.611063 0.774965
#
# Coordination Sequence:
#
# PCOD9126904 Si02
#       6
#     4   4   4   4   4   4
#     4  11  22  40  70  96 135 180 220 273 343 390
#     4  11  21  41  70  97 136 182 217 280 343 394
#     4  11  23  46  67 100 141 175 224 287 327 408
#     4  11  22  43  68  97 140 175 227 283 333 399
#     4  10  23  43  68  96 136 173 225 281 334 396
#     4  10  22  42  69  98 134 177 224 274 342 392
#
# _framework density 23.028973000000001
#
# number of rings (size 3 to 8) (size 9 to 14) (size 15 to 20)
#    0.000    1.333    5.000    2.500    0.000    2.667 
#    6.000    1.667    7.333    0.000    0.000    0.000 
#    0.000    0.000    0.000    0.000    0.000    0.000 
#
# Total GULP energy -66916.834743 kJ/mol
# GULP energy per Si atom -5576.402895 kJ/mol
# Density = 2.297656 g / cm^3
# Si number density = 23.028973 Si / 1000 Ang^3
#
#
#
# Elastic Constant Matrix: (Units=GPa)
#
#
# Indices 1 2 3 4 5 6 
#
# 1 101.4631 34.6680 42.8226 -0.0007 -11.2484 0.0001
# 2 34.6680 118.5367 19.4740 -0.0006 -11.0037 0.0002
# 3 42.8226 19.4740 149.8361 0.0008 -31.8473 -0.0001
# 4 -0.0007 -0.0006 0.0008 42.9982 -0.0002 -3.9967
# 5 -11.2484 -11.0037 -31.8473 -0.0002 41.0895 0.0000
# 6 0.0001 0.0002 -0.0001 -3.9967 0.0000 37.9094
#
#
#
# Elastic Compliance Matrix: (Units=1/GPa)
#
#
# Indices 1 2 3 4 5 6 
#
# 1 0.012207 -0.003053 -0.003059 0.000000 0.000153 0.000000
# 2 -0.003053 0.009487 0.000002 0.000000 0.001707 0.000000
# 3 -0.003059 0.000002 0.008824 0.000000 0.006002 0.000000
# 4 0.000000 0.000000 0.000000 0.023487 0.000000 0.002476
# 5 0.000153 0.001707 0.006002 0.000000 0.029488 0.000000
# 6 0.000000 0.000000 0.000000 0.002476 0.000000 0.026640
#
#
# Mechanical properties :
#
#
# Convention : Reuss Voigt Hill
#
# Bulk Modulus (GPa) = 54.65304 62.64057 58.64680
# Shear Modulus (GPa) = 38.92468 42.59084 40.75776
#
# Velocity S-wave (km/s) = 4.11572 4.30518 4.21152
# Velocity P-wave (km/s) = 6.80951 7.20920 7.01220
#
# Compressibility (1/GPa) = 0.01829724
#
# Stress axis : x y z
#
# Youngs Moduli (GPa) = 81.91836 105.40454 113.33012
#
# Poissons Ratio (x) = 0.32184 0.34673
# Poissons Ratio (y) = 0.25013 -0.00026
# Poissons Ratio (z) = 0.25063 -0.00025
#
# Static dielectric constant tensor:
#      x y z
#    x 1.864540 0.000000 0.053880 
#    y 0.000000 1.906060 0.000000 
#    z 0.053880 0.000000 1.887960 
# 
# From -- ./inp_files/70324.got.cif
#   From: 2010.05.17/outbox.cif.g08.bks.cpg/sg5_36_cif.got.tgz:70324.got - 2010.06.03 18:56:24.
