data_PCOD9126935
_publ_section_title
;
Structure prediction by ZEFSAII (Michael W. Deem and Ramdas Pophale) SiO2 
 PCOD9126935
Probable space group: C 2
;
_chemical_formula_sum "Si O2"
_cell_formula_units_Z 20
_cell_length_a 5.269707
_cell_length_b 18.255755
_cell_length_c 9.592472
_cell_angle_alpha 90.000000
_cell_angle_beta 78.428278
_cell_angle_gamma 90.000000
_cell_volume 904.062706
_symmetry_space_group_name_H-M "C 2"
_symmetry_group_IT_number 5
_symmetry_cell_setting 'monoclinic'
loop_
_space_group_symop_operation_xyz
x,y,z
-x,y,-z
1/2+x,1/2+y,z
1/2-x,1/2+y,-z
loop_
_atom_site_type_symbol
_atom_site_label
_atom_site_fract_x
_atom_site_fract_y
_atom_site_fract_z
Si Si1 0.293677 0.115520 0.733103
Si Si2 0.569533 0.251362 0.652066
Si Si3 0.944128 0.469801 0.343447
Si Si4 0.000000 0.206085 0.000000
Si Si5 0.000000 0.071581 0.500000
Si Si6 0.985727 0.312243 0.226003
O O1 0.550325 0.165513 0.691170
O O2 0.150580 0.119432 0.598768
O O3 0.359155 0.030577 0.736496
O O4 0.142804 0.151009 0.878060
O O5 0.500000 0.263048 0.500000
O O6 0.840260 0.286271 0.663165
O O7 0.312354 0.285997 0.751545
O O8 0.680140 0.515922 0.390744
O O9 0.000000 0.449798 0.500000
O O10 0.962033 0.399183 0.244533
O O11 0.132744 0.266100 0.088415
#
# Coordination Sequence:
#
# PCOD9126935 Si02
#       6
#     4   4   4   2   2   4
#     4  10  24  42  70  99 142 183 239 291 352 423
#     4  11  23  40  69 102 135 185 234 298 346 410
#     4  10  22  42  71 103 136 180 235 300 353 416
#     4  10  26  50  64 104 142 196 228 286 346 438
#     4  10  22  42  74 106 136 178 246 298 358 410
#     4  11  26  43  67 100 146 183 235 286 355 422
#
# _framework density 22.122358999999999
#
# number of rings (size 3 to 8) (size 9 to 14) (size 15 to 20)
#    0.000    1.600    0.000    3.600   18.200    3.200 
#    3.600    0.000    0.000    0.000    0.000    0.000 
#    0.000    0.000    0.000    0.000    0.000    0.000 
#
# Total GULP energy -55712.240222 kJ/mol
# GULP energy per Si atom -5571.224022 kJ/mol
# Density = 2.207201 g / cm^3
# Si number density = 22.122359 Si / 1000 Ang^3
#
#
#
# Elastic Constant Matrix: (Units=GPa)
#
#
# Indices 1 2 3 4 5 6 
#
# 1 66.5872 40.7782 14.7831 0.0000 -4.8850 0.0000
# 2 40.7782 173.7707 71.4215 0.0000 -7.7457 0.0000
# 3 14.7831 71.4215 123.1221 0.0000 -19.8876 0.0000
# 4 0.0000 0.0000 0.0000 20.0919 0.0000 -0.7376
# 5 -4.8850 -7.7457 -19.8876 0.0000 20.6189 0.0000
# 6 0.0000 0.0000 0.0000 -0.7376 0.0000 27.3510
#
#
#
# Elastic Compliance Matrix: (Units=1/GPa)
#
#
# Indices 1 2 3 4 5 6 
#
# 1 0.017762 -0.004423 0.001000 0.000000 0.003511 0.000000
# 2 -0.004423 0.008705 -0.004927 0.000000 -0.002530 0.000000
# 3 0.001000 -0.004927 0.012556 0.000000 0.010496 0.000000
# 4 0.000000 0.000000 0.000000 0.049821 0.000000 0.001344
# 5 0.003511 -0.002530 0.010496 0.000000 0.058505 0.000000
# 6 0.000000 0.000000 0.000000 0.001344 0.000000 0.036598
#
#
# Mechanical properties :
#
#
# Convention : Reuss Voigt Hill
#
# Bulk Modulus (GPa) = 44.79751 68.60505 56.70128
# Shear Modulus (GPa) = 24.02849 29.37884 26.70367
#
# Velocity S-wave (km/s) = 3.29927 3.64815 3.47809
# Velocity P-wave (km/s) = 5.89978 6.98744 6.46652
#
# Compressibility (1/GPa) = 0.02232267
#
# Stress axis : x y z
#
# Youngs Moduli (GPa) = 56.30027 114.87733 79.64547
#
# Poissons Ratio (x) = 0.50806 -0.07965
# Poissons Ratio (y) = 0.24900 0.39244
# Poissons Ratio (z) = -0.05630 0.56603
#
# Static dielectric constant tensor:
#      x y z
#    x 1.948940 0.000000 -0.056490 
#    y 0.000000 1.804730 0.000000 
#    z -0.056490 0.000000 1.936070 
# 
# From -- ./inp_files/12065.got.cif
#   From: 2010.05.17/outbox.cif.g08.bks.cpg/sg5_7_cif.got.tgz:12065.got - 2010.06.03 18:56:24.
