data_PCOD9126560
_publ_section_title
;
Structure prediction by ZEFSAII (Michael W. Deem and Ramdas Pophale) SiO2 
 PCOD9126560
Probable space group: C 2
;
_chemical_formula_sum "Si O2"
_cell_formula_units_Z 32
_cell_length_a 9.020411
_cell_length_b 11.411307
_cell_length_c 13.497483
_cell_angle_alpha 90.000000
_cell_angle_beta 93.196015
_cell_angle_gamma 90.000000
_cell_volume 1387.198135
_symmetry_space_group_name_H-M "C 2"
_symmetry_group_IT_number 5
_symmetry_cell_setting 'monoclinic'
loop_
_space_group_symop_operation_xyz
x,y,z
-x,y,-z
1/2+x,1/2+y,z
1/2-x,1/2+y,-z
loop_
_atom_site_type_symbol
_atom_site_label
_atom_site_fract_x
_atom_site_fract_y
_atom_site_fract_z
Si Si1 0.983077 0.304130 0.681077
Si Si2 0.276160 0.197563 0.638551
Si Si3 0.837602 0.768699 0.419428
Si Si4 0.960091 0.910573 0.699178
Si Si5 0.766842 0.024347 0.197751
Si Si6 0.073841 0.232589 0.898279
Si Si7 0.956618 0.493177 0.100831
Si Si8 0.666562 0.044813 0.708629
O O1 0.825994 0.305210 0.622746
O O2 0.979674 0.247842 0.791938
O O3 0.101178 0.224429 0.627890
O O4 0.065910 0.430266 0.683588
O O5 0.334065 0.220435 0.530588
O O6 0.358001 0.295049 0.710883
O O7 0.281942 0.076755 0.697356
O O8 0.881214 0.657878 0.353146
O O9 0.944379 0.876233 0.394142
O O10 0.835993 0.011425 0.688021
O O11 0.086951 0.945287 0.782353
O O12 0.809303 0.134417 0.130008
O O13 0.620355 0.965314 0.150467
O O14 0.124083 0.367794 0.917885
O O15 0.000000 0.197746 0.000000
O O16 0.860603 0.564579 0.175661
O O17 0.000000 0.552672 0.000000
#
# Coordination Sequence:
#
# PCOD9126560 Si02
#       8
#     4   4   4   4   4   4   4   4
#     4   9  20  39  62  89 126 168 212 266 318 371
#     4  10  23  41  60  91 130 167 215 265 308 370
#     4  12  23  39  64  90 125 173 216 258 314 373
#     4  11  24  39  60  90 123 162 212 261 308 366
#     4  11  23  42  66  91 127 169 207 259 320 374
#     4   9  19  39  65  91 122 160 205 259 316 374
#     4  10  22  42  68  96 127 163 206 257 316 382
#     4  10  22  41  62  90 128 164 207 263 316 370
#
# _framework density 23.068079999999998
#
# number of rings (size 3 to 8) (size 9 to 14) (size 15 to 20)
#    0.000    1.750    0.000    5.250    0.000    5.000 
#    0.000   10.000    0.000    3.750    0.000    0.000 
#    0.000    0.000    0.000    0.000    0.000    0.000 
#
# Total GULP energy -89277.330653 kJ/mol
# GULP energy per Si atom -5579.833166 kJ/mol
# Density = 2.301558 g / cm^3
# Si number density = 23.068080 Si / 1000 Ang^3
#
#
#
# Elastic Constant Matrix: (Units=GPa)
#
#
# Indices 1 2 3 4 5 6 
#
# 1 129.2484 30.2618 38.0337 0.0000 -3.6088 0.0000
# 2 30.2618 68.2181 30.4845 0.0000 -11.4068 0.0000
# 3 38.0337 30.4845 133.0573 0.0000 -43.2074 0.0000
# 4 0.0000 0.0000 0.0000 15.2152 0.0000 -12.4732
# 5 -3.6088 -11.4068 -43.2074 0.0000 34.9973 0.0000
# 6 0.0000 0.0000 0.0000 -12.4732 0.0000 44.8947
#
#
#
# Elastic Compliance Matrix: (Units=1/GPa)
#
#
# Indices 1 2 3 4 5 6 
#
# 1 0.009373 -0.003401 -0.003249 0.000000 -0.004153 0.000000
# 2 -0.003401 0.017594 -0.002188 0.000000 0.002683 0.000000
# 3 -0.003249 -0.002188 0.014363 0.000000 0.016685 0.000000
# 4 0.000000 0.000000 0.000000 0.085108 0.000000 0.023646
# 5 -0.004153 0.002683 0.016685 0.000000 0.049619 0.000000
# 6 0.000000 0.000000 0.000000 0.023646 0.000000 0.028844
#
#
# Mechanical properties :
#
#
# Convention : Reuss Voigt Hill
#
# Bulk Modulus (GPa) = 42.27152 58.67597 50.47375
# Shear Modulus (GPa) = 21.69567 34.47103 28.08335
#
# Velocity S-wave (km/s) = 3.07009 3.86983 3.49293
# Velocity P-wave (km/s) = 5.56163 6.74231 6.18023
#
# Compressibility (1/GPa) = 0.02365659
#
# Stress axis : x y z
#
# Youngs Moduli (GPa) = 106.68605 56.83890 69.62114
#
# Poissons Ratio (x) = 0.19329 0.22618
# Poissons Ratio (y) = 0.36280 0.15230
# Poissons Ratio (z) = 0.34659 0.12434
#
# Static dielectric constant tensor:
#      x y z
#    x 1.896160 0.000000 0.001870 
#    y 0.000000 1.884810 0.000000 
#    z 0.001870 0.000000 1.933710 
# 
# From -- ./inp_files/50488.got.cif
#   From: 2010.05.17/outbox.cif.g08.bks.cpg/sg5_26_cif.got.tgz:50488.got - 2010.06.03 18:56:24.
