data_PCOD9126515
_publ_section_title
;
Structure prediction by ZEFSAII (Michael W. Deem and Ramdas Pophale) SiO2 
 PCOD9126515
Probable space group: C 2
;
_chemical_formula_sum "Si O2"
_cell_formula_units_Z 28
_cell_length_a 21.010533
_cell_length_b 10.789923
_cell_length_c 11.204321
_cell_angle_alpha 90.000000
_cell_angle_beta 27.756399
_cell_angle_gamma 90.000000
_cell_volume 1182.931648
_symmetry_space_group_name_H-M "C 2"
_symmetry_group_IT_number 5
_symmetry_cell_setting 'monoclinic'
loop_
_space_group_symop_operation_xyz
x,y,z
-x,y,-z
1/2+x,1/2+y,z
1/2-x,1/2+y,-z
loop_
_atom_site_type_symbol
_atom_site_label
_atom_site_fract_x
_atom_site_fract_y
_atom_site_fract_z
Si Si1 0.269176 0.417660 0.669777
Si Si2 0.888403 0.669833 0.361775
Si Si3 0.836480 0.773977 0.035198
Si Si4 0.259772 0.537606 0.192997
Si Si5 0.500000 0.819645 0.000000
Si Si6 0.817419 0.179487 0.498443
Si Si7 0.500000 0.922065 0.500000
Si Si8 0.202695 0.287480 0.005252
O O1 0.347676 0.297737 0.493099
O O2 0.338927 0.539542 0.504187
O O3 0.116068 0.401634 0.870621
O O4 0.261784 0.397161 0.823919
O O5 0.800497 0.564774 0.575356
O O6 0.827691 0.680495 0.331561
O O7 0.049495 0.673523 0.117132
O O8 0.709553 0.752179 0.334801
O O9 0.798452 0.759246 0.959938
O O10 0.860969 0.920927 0.016573
O O11 0.125713 0.502659 0.338801
O O12 0.315812 0.665054 0.044251
O O13 0.424889 0.736752 0.226219
O O14 0.563675 0.837356 0.291490
#
# Coordination Sequence:
#
# PCOD9126515 Si02
#       8
#     4   4   4   4   2   4   2   4
#     4  10  25  44  72 102 138 186 228 294 355 412
#     4  10  24  45  66 103 139 180 234 291 352 414
#     4  11  25  41  72 106 136 187 237 280 361 421
#     4  10  23  43  67  96 142 182 226 298 342 408
#     4  10  26  48  68 104 138 178 238 292 348 416
#     4  11  26  44  72 101 136 188 233 288 355 413
#     4  10  22  40  70  98 140 186 230 282 352 416
#     4  10  24  44  68 107 138 185 239 281 357 421
#
# _framework density 23.670007999999999
#
# number of rings (size 3 to 8) (size 9 to 14) (size 15 to 20)
#    0.000    1.714    0.000    1.286   16.000    5.143 
#    0.000    0.000    0.000    0.000    0.000    0.000 
#    0.000    0.000    0.000    0.000    0.000    0.000 
#
# Total GULP energy -78274.934763 kJ/mol
# GULP energy per Si atom -5591.066769 kJ/mol
# Density = 2.361613 g / cm^3
# Si number density = 23.670008 Si / 1000 Ang^3
#
#
#
# Elastic Constant Matrix: (Units=GPa)
#
#
# Indices 1 2 3 4 5 6 
#
# 1 81.6680 -8.3485 41.7982 0.0000 6.1817 0.0000
# 2 -8.3485 83.8296 22.7145 0.0000 12.7685 0.0000
# 3 41.7982 22.7145 71.2438 0.0000 20.4587 0.0000
# 4 0.0000 0.0000 0.0000 29.6992 0.0000 7.7435
# 5 6.1817 12.7685 20.4587 0.0000 41.9533 0.0000
# 6 0.0000 0.0000 0.0000 7.7435 0.0000 19.3824
#
#
#
# Elastic Compliance Matrix: (Units=1/GPa)
#
#
# Indices 1 2 3 4 5 6 
#
# 1 0.019783 0.005415 -0.013980 0.000000 0.002255 0.000000
# 2 0.005415 0.014726 -0.007391 0.000000 -0.001676 0.000000
# 3 -0.013980 -0.007391 0.027161 0.000000 -0.008936 0.000000
# 4 0.000000 0.000000 0.000000 0.037586 0.000000 -0.015016
# 5 0.002255 -0.001676 -0.008936 0.000000 0.028371 0.000000
# 6 0.000000 0.000000 0.000000 -0.015016 0.000000 0.057592
#
#
# Mechanical properties :
#
#
# Convention : Reuss Voigt Hill
#
# Bulk Modulus (GPa) = 33.60514 38.78552 36.19533
# Shear Modulus (GPa) = 22.02150 30.24545 26.13348
#
# Velocity S-wave (km/s) = 3.05348 3.57851 3.32637
# Velocity P-wave (km/s) = 5.16332 5.78755 5.48432
#
# Compressibility (1/GPa) = 0.02975735
#
# Stress axis : x y z
#
# Youngs Moduli (GPa) = 50.54910 67.90692 36.81776
#
# Poissons Ratio (x) = -0.36770 0.51472
# Poissons Ratio (y) = -0.27371 0.27211
# Poissons Ratio (z) = 0.70669 0.50188
#
# Static dielectric constant tensor:
#      x y z
#    x 1.927510 0.000000 -0.039900 
#    y 0.000000 1.908690 0.000000 
#    z -0.039900 0.000000 1.985740 
# 
# From -- ./inp_files/47446.got.cif
#   From: 2010.05.17/outbox.cif.g08.bks.cpg/sg5_24_cif.got.tgz:47446.got - 2010.06.03 18:56:24.
