data_PCOD9126394
_publ_section_title
;
Structure prediction by ZEFSAII (Michael W. Deem and Ramdas Pophale) SiO2 
 PCOD9126394
Probable space group: C 2
;
_chemical_formula_sum "Si O2"
_cell_formula_units_Z 32
_cell_length_a 8.092930
_cell_length_b 19.207532
_cell_length_c 14.704880
_cell_angle_alpha 90.000000
_cell_angle_beta 141.338860
_cell_angle_gamma 90.000000
_cell_volume 1427.971418
_symmetry_space_group_name_H-M "C 2"
_symmetry_group_IT_number 5
_symmetry_cell_setting 'monoclinic'
loop_
_space_group_symop_operation_xyz
x,y,z
-x,y,-z
1/2+x,1/2+y,z
1/2-x,1/2+y,-z
loop_
_atom_site_type_symbol
_atom_site_label
_atom_site_fract_x
_atom_site_fract_y
_atom_site_fract_z
Si Si1 0.501816 0.293250 0.134712
Si Si2 0.600865 0.136883 0.644664
Si Si3 0.350445 0.657056 0.034126
Si Si4 0.708882 0.006764 0.976878
Si Si5 0.199842 0.486400 0.756796
Si Si6 0.942372 0.337999 0.676711
Si Si7 0.203698 0.763745 0.410259
Si Si8 0.511185 0.868494 0.903529
O O1 0.790853 0.291997 0.215658
O O2 0.550432 0.303432 0.263706
O O3 0.335365 0.223590 0.047419
O O4 0.321026 0.353768 0.015212
O O5 0.500000 0.146937 0.500000
O O6 0.572966 0.055616 0.659162
O O7 0.433933 0.189637 0.634856
O O8 0.906513 0.158558 0.790908
O O9 0.180012 0.588335 0.981134
O O10 0.500000 0.650060 0.000000
O O11 0.993324 0.986338 0.142874
O O12 0.720446 0.000071 0.872920
O O13 0.481469 0.951169 0.900770
O O14 0.039575 0.414065 0.680877
O O15 0.866003 0.342926 0.750455
O O16 0.734938 0.305118 0.518008
O O17 0.500000 0.754151 0.500000
O O18 0.500000 0.836075 0.000000
#
# Coordination Sequence:
#
# PCOD9126394 Si02
#       8
#     4   4   4   4   4   4   4   4
#     4  11  21  37  64  93 124 165 212 255 314 376
#     4  11  23  37  63  93 122 166 210 259 312 383
#     4  11  19  37  66  93 123 165 209 261 315 372
#     4   9  16  35  62  87 117 155 211 251 304 364
#     4   9  16  36  63  84 112 162 210 247 300 369
#     4  10  22  40  64  92 127 168 206 259 318 377
#     4  10  23  40  59  91 132 166 203 260 319 376
#     4  11  23  37  62  93 127 163 210 266 311 371
#
# _framework density 22.409412
#
# number of rings (size 3 to 8) (size 9 to 14) (size 15 to 20)
#    0.000    1.750    5.000    0.750    1.750    1.500 
#    0.000    1.250   13.750    0.750    0.000    0.000 
#    0.000    0.000    0.000    0.000    0.000    0.000 
#
# Total GULP energy -89298.482705 kJ/mol
# GULP energy per Si atom -5581.155169 kJ/mol
# Density = 2.235841 g / cm^3
# Si number density = 22.409412 Si / 1000 Ang^3
#
#
#
# Elastic Constant Matrix: (Units=GPa)
#
#
# Indices 1 2 3 4 5 6 
#
# 1 67.3098 12.3308 33.3346 0.0000 -20.5535 0.0000
# 2 12.3308 137.3330 38.9024 0.0000 5.7455 0.0000
# 3 33.3346 38.9024 130.6245 -0.0001 -14.0591 -0.0001
# 4 0.0000 0.0000 -0.0001 31.2672 0.0000 -4.9947
# 5 -20.5535 5.7455 -14.0591 0.0000 37.6044 0.0000
# 6 0.0000 0.0000 -0.0001 -4.9947 0.0000 10.6786
#
#
#
# Elastic Compliance Matrix: (Units=1/GPa)
#
#
# Indices 1 2 3 4 5 6 
#
# 1 0.019833 -0.001140 -0.003684 0.000000 0.009637 0.000000
# 2 -0.001140 0.008195 -0.002450 0.000000 -0.002791 0.000000
# 3 -0.003684 -0.002450 0.009533 0.000000 0.001924 0.000000
# 4 0.000000 0.000000 0.000000 0.034565 0.000000 0.016167
# 5 0.009637 -0.002791 0.001924 0.000000 0.033006 0.000000
# 6 0.000000 0.000000 0.000000 0.016167 0.000000 0.101207
#
#
# Mechanical properties :
#
#
# Convention : Reuss Voigt Hill
#
# Bulk Modulus (GPa) = 43.45769 56.04478 49.75123
# Shear Modulus (GPa) = 21.87629 32.62334 27.24981
#
# Velocity S-wave (km/s) = 3.12783 3.81962 3.49090
# Velocity P-wave (km/s) = 5.69904 6.67206 6.20466
#
# Compressibility (1/GPa) = 0.02301089
#
# Stress axis : x y z
#
# Youngs Moduli (GPa) = 50.42121 122.02955 104.90360
#
# Poissons Ratio (x) = 0.13914 0.38651
# Poissons Ratio (y) = 0.05749 0.25701
# Poissons Ratio (z) = 0.18577 0.29897
#
# Static dielectric constant tensor:
#      x y z
#    x 1.935520 0.000000 -0.028590 
#    y 0.000000 1.844830 0.000000 
#    z -0.028590 0.000000 1.826720 
# 
# From -- ./inp_files/51581.got.cif
#   From: 2010.05.17/outbox.cif.g08.bks.cpg/sg5_26_cif.got.tgz:51581.got - 2010.06.03 18:56:24.
