data_PCOD9126593
_publ_section_title
;
Structure prediction by ZEFSAII (Michael W. Deem and Ramdas Pophale) SiO2 
 PCOD9126593
Probable space group: C 2
;
_chemical_formula_sum "Si O2"
_cell_formula_units_Z 30
_cell_length_a 9.672145
_cell_length_b 26.885481
_cell_length_c 5.816443
_cell_angle_alpha 90.000000
_cell_angle_beta 105.736832
_cell_angle_gamma 90.000000
_cell_volume 1455.816921
_symmetry_space_group_name_H-M "C 2"
_symmetry_group_IT_number 5
_symmetry_cell_setting 'monoclinic'
loop_
_space_group_symop_operation_xyz
x,y,z
-x,y,-z
1/2+x,1/2+y,z
1/2-x,1/2+y,-z
loop_
_atom_site_type_symbol
_atom_site_label
_atom_site_fract_x
_atom_site_fract_y
_atom_site_fract_z
Si Si1 0.143740 0.767080 0.672998
Si Si2 0.581696 0.940699 0.282728
Si Si3 0.159521 0.648547 0.105748
Si Si4 0.358566 0.050894 0.591048
Si Si5 0.138575 0.201144 0.454339
Si Si6 0.140324 0.102473 0.193045
Si Si7 0.500000 0.330381 0.000000
Si Si8 0.846244 0.872610 0.541227
O O1 0.276865 0.730666 0.705459
O O2 0.181382 0.815163 0.536797
O O3 0.000000 0.742634 0.500000
O O4 0.092148 0.793352 0.881713
O O5 0.500000 0.938339 0.500000
O O6 0.718553 0.905657 0.389767
O O7 0.634302 0.997857 0.283714
O O8 0.500000 0.928864 0.000000
O O9 0.140697 0.598219 0.243925
O O10 0.251969 0.687710 0.291901
O O11 0.243039 0.628804 0.920242
O O12 0.000000 0.669195 0.000000
O O13 0.500000 0.054340 0.500000
O O14 0.219650 0.059504 0.369352
O O15 0.090012 0.148073 0.330406
O O16 0.000000 0.227326 0.500000
O O17 0.000000 0.083827 0.000000
O O18 0.614544 0.366877 0.174084
O O19 0.000000 0.886800 0.500000
#
# Coordination Sequence:
#
# PCOD9126593 Si02
#       8
#     4   4   4   4   4   4   2   4
#     4   9  21  39  65  92 127 171 227 273 339 406
#     4  11  26  44  71 106 142 175 228 286 347 414
#     4  11  22  39  65  84 127 173 223 267 333 404
#     4  10  22  41  64  93 127 175 222 273 334 405
#     4  11  24  40  58  94 133 167 223 281 341 395
#     4  11  23  41  59  91 130 175 217 283 336 393
#     4   8  18  42  70  94 130 170 236 280 328 424
#     4   9  21  44  69  96 132 175 223 279 341 413
#
# _framework density 20.606985999999999
#
# number of rings (size 3 to 8) (size 9 to 14) (size 15 to 20)
#    0.000    2.133    2.667    0.400    7.467    2.667 
#    4.800    0.667    0.000    0.000    0.000    0.000 
#    0.000    0.000    0.000    0.000    0.000    0.000 
#
# Total GULP energy -83626.016067 kJ/mol
# GULP energy per Si atom -5575.067738 kJ/mol
# Density = 2.056008 g / cm^3
# Si number density = 20.606986 Si / 1000 Ang^3
#
#
#
# Elastic Constant Matrix: (Units=GPa)
#
#
# Indices 1 2 3 4 5 6 
#
# 1 90.9527 34.8755 39.0811 0.0000 22.8293 0.0000
# 2 34.8755 63.8636 27.8243 0.0000 18.2631 0.0000
# 3 39.0811 27.8243 114.6185 0.0000 24.5101 0.0000
# 4 0.0000 0.0000 0.0000 17.9255 0.0000 4.5153
# 5 22.8293 18.2631 24.5101 0.0000 35.9287 0.0000
# 6 0.0000 0.0000 0.0000 4.5153 0.0000 26.0496
#
#
#
# Elastic Compliance Matrix: (Units=1/GPa)
#
#
# Indices 1 2 3 4 5 6 
#
# 1 0.015760 -0.005915 -0.002856 0.000000 -0.005059 0.000000
# 2 -0.005915 0.021389 -0.001937 0.000000 -0.005793 0.000000
# 3 -0.002856 -0.001937 0.011204 0.000000 -0.004844 0.000000
# 4 0.000000 0.000000 0.000000 0.058333 0.000000 -0.010111
# 5 -0.005059 -0.005793 -0.004844 0.000000 0.037296 0.000000
# 6 0.000000 0.000000 0.000000 -0.010111 0.000000 0.040141
#
#
# Mechanical properties :
#
#
# Convention : Reuss Voigt Hill
#
# Bulk Modulus (GPa) = 37.12309 52.55519 44.83914
# Shear Modulus (GPa) = 23.30795 27.15768 25.23282
#
# Velocity S-wave (km/s) = 3.36679 3.63421 3.50305
# Velocity P-wave (km/s) = 5.75913 6.57031 6.17805
#
# Compressibility (1/GPa) = 0.02693741
#
# Stress axis : x y z
#
# Youngs Moduli (GPa) = 63.45242 46.75289 89.25055
#
# Poissons Ratio (x) = 0.27657 0.25488
# Poissons Ratio (y) = 0.37535 0.17285
# Poissons Ratio (z) = 0.18121 0.09054
#
# Static dielectric constant tensor:
#      x y z
#    x 1.750370 0.000000 -0.026490 
#    y 0.000000 1.701510 0.000000 
#    z -0.026490 0.000000 1.856660 
# 
# From -- ./inp_files/3968.got.cif
#   From: 2010.05.17/outbox.cif.g08.bks.cpg/sg5_2_cif.got.tgz:3968.got - 2010.06.03 18:56:24.
