data_PCOD9126142
_publ_section_title
;
Structure prediction by ZEFSAII (Michael W. Deem and Ramdas Pophale) SiO2 
 PCOD9126142
Probable space group: C 2
;
_chemical_formula_sum "Si O2"
_cell_formula_units_Z 30
_cell_length_a 13.293884
_cell_length_b 18.777591
_cell_length_c 11.264681
_cell_angle_alpha 90.000000
_cell_angle_beta 34.006092
_cell_angle_gamma 90.000000
_cell_volume 1572.681438
_symmetry_space_group_name_H-M "C 2"
_symmetry_group_IT_number 5
_symmetry_cell_setting 'monoclinic'
loop_
_space_group_symop_operation_xyz
x,y,z
-x,y,-z
1/2+x,1/2+y,z
1/2-x,1/2+y,-z
loop_
_atom_site_type_symbol
_atom_site_label
_atom_site_fract_x
_atom_site_fract_y
_atom_site_fract_z
Si Si1 0.045212 0.396540 0.177816
Si Si2 0.964992 0.534719 0.395136
Si Si3 0.241426 0.642029 0.000744
Si Si4 0.337687 0.640360 0.380692
Si Si5 0.000000 0.491952 0.000000
Si Si6 0.206703 0.106482 0.316729
Si Si7 0.836723 0.798233 0.825881
Si Si8 0.753801 0.792628 0.632877
O O1 0.984781 0.452778 0.335993
O O2 0.891160 0.340313 0.293333
O O3 0.074532 0.444763 0.032788
O O4 0.226847 0.351582 0.017705
O O5 0.774945 0.571958 0.550798
O O6 0.000000 0.542300 0.500000
O O7 0.112732 0.581283 0.178814
O O8 0.448592 0.629043 0.834379
O O9 0.233292 0.642095 0.865305
O O10 0.183581 0.717987 0.108111
O O11 0.290835 0.652596 0.566014
O O12 0.281649 0.709866 0.362053
O O13 0.160197 0.540780 0.794911
O O14 0.000000 0.083077 0.500000
O O15 0.749371 0.802147 0.779402
O O16 0.046757 0.813672 0.604718
#
# Coordination Sequence:
#
# PCOD9126142 Si02
#       8
#     4   4   4   4   2   4   4   4
#     4  12  24  42  64  92 127 165 210 263 321 380
#     4  12  26  44  66  94 129 169 214 266 318 379
#     4  11  22  40  67  96 126 165 214 263 315 375
#     4  11  22  40  67  96 126 165 214 263 315 375
#     4  12  20  40  68  92 128 160 204 262 322 386
#     4  10  22  38  64  98 126 160 211 262 312 378
#     4  11  23  39  62  93 127 164 211 261 314 370
#     4  11  23  39  62  93 127 164 211 261 314 370
#
# _framework density 19.075702
#
# number of rings (size 3 to 8) (size 9 to 14) (size 15 to 20)
#    0.000    0.800    6.667    0.800    0.000    3.733 
#    2.400    0.000    0.000    0.000    0.000    0.000 
#    0.000    0.000    0.000    0.000    0.000    0.000 
#
# Total GULP energy -83817.925676 kJ/mol
# GULP energy per Si atom -5587.861712 kJ/mol
# Density = 1.903228 g / cm^3
# Si number density = 19.075702 Si / 1000 Ang^3
#
#
#
# Elastic Constant Matrix: (Units=GPa)
#
#
# Indices 1 2 3 4 5 6 
#
# 1 42.7032 7.5207 11.9200 -0.0049 2.3784 0.0133
# 2 7.5207 86.3943 30.0396 -0.0039 -6.1991 0.0169
# 3 11.9200 30.0396 71.9079 0.0048 -1.6694 0.0274
# 4 -0.0049 -0.0039 0.0048 25.7410 -0.0006 -7.6926
# 5 2.3784 -6.1991 -1.6694 -0.0006 25.1522 -0.0090
# 6 0.0133 0.0169 0.0274 -7.6926 -0.0090 20.0844
#
#
#
# Elastic Compliance Matrix: (Units=1/GPa)
#
#
# Indices 1 2 3 4 5 6 
#
# 1 0.024806 -0.001066 -0.003733 0.000002 -0.002856 -0.000011
# 2 -0.001066 0.013812 -0.005520 0.000003 0.003139 -0.000001
# 3 -0.003733 -0.005520 0.016834 -0.000011 0.000110 -0.000020
# 4 0.000002 0.000003 -0.000011 0.043870 0.000007 0.016803
# 5 -0.002856 0.003139 0.000110 0.000007 0.040809 0.000020
# 6 -0.000011 -0.000001 -0.000020 0.016803 0.000020 0.056225
#
#
# Mechanical properties :
#
#
# Convention : Reuss Voigt Hill
#
# Bulk Modulus (GPa) = 28.72465 33.32955 31.02710
# Shear Modulus (GPa) = 21.87215 24.29721 23.08468
#
# Velocity S-wave (km/s) = 3.38982 3.57280 3.48251
# Velocity P-wave (km/s) = 5.51472 5.87623 5.69834
#
# Compressibility (1/GPa) = 0.03481331
#
# Stress axis : x y z
#
# Youngs Moduli (GPa) = 40.31234 72.39887 59.40289
#
# Poissons Ratio (x) = 0.07721 0.22174
# Poissons Ratio (y) = 0.04299 0.32793
# Poissons Ratio (z) = 0.15048 0.39968
#
# Static dielectric constant tensor:
#      x y z
#    x 1.669470 0.000000 -0.003420 
#    y 0.000000 1.635320 0.000000 
#    z -0.003420 0.000000 1.663260 
# 
# From -- ./inp_files/43285.got.cif
#   From: 2010.05.17/outbox.cif.g08.bks.cpg/sg5_22_cif.got.tgz:43285.got - 2010.06.03 18:56:24.
