data_PCOD9126945
_publ_section_title
;
Structure prediction by ZEFSAII (Michael W. Deem and Ramdas Pophale) SiO2 
 PCOD9126945
Probable space group: C 2
;
_chemical_formula_sum "Si O2"
_cell_formula_units_Z 24
_cell_length_a 16.808642
_cell_length_b 11.196127
_cell_length_c 16.996515
_cell_angle_alpha 90.000000
_cell_angle_beta 160.777503
_cell_angle_gamma 90.000000
_cell_volume 1053.099788
_symmetry_space_group_name_H-M "C 2"
_symmetry_group_IT_number 5
_symmetry_cell_setting 'monoclinic'
loop_
_space_group_symop_operation_xyz
x,y,z
-x,y,-z
1/2+x,1/2+y,z
1/2-x,1/2+y,-z
loop_
_atom_site_type_symbol
_atom_site_label
_atom_site_fract_x
_atom_site_fract_y
_atom_site_fract_z
Si Si1 0.690305 0.756890 0.609110
Si Si2 0.150375 0.064585 0.990035
Si Si3 0.000000 0.869157 0.500000
Si Si4 0.624694 0.000832 0.247259
Si Si5 0.500000 0.439199 0.000000
Si Si6 0.334150 0.801722 0.923059
Si Si7 0.171806 0.450057 0.461524
O O1 0.500000 0.718803 0.500000
O O2 0.845832 0.642866 0.726311
O O3 0.843104 0.853264 0.799752
O O4 0.609040 0.832409 0.455604
O O5 0.121054 0.206654 0.967451
O O6 0.420503 0.025809 0.217908
O O7 0.145187 0.020679 0.075727
O O8 0.913566 0.009821 0.725719
O O9 0.785173 0.954111 0.324912
O O10 0.928957 0.789442 0.359861
O O11 0.730764 0.940137 0.424600
O O12 0.373115 0.934748 0.993755
O O13 0.500000 0.778207 0.000000
#
# Coordination Sequence:
#
# PCOD9126945 Si02
#       7
#     4   4   2   4   2   4   4
#     4  11  23  45  74 100 147 187 247 299 368 445
#     4  11  24  46  74 103 145 186 245 305 367 443
#     4  10  24  42  70 100 138 188 242 296 370 442
#     4  11  26  45  68 107 142 195 241 305 370 442
#     4  10  22  42  72 102 132 188 244 298 362 430
#     4  10  24  42  71 101 139 186 242 304 373 438
#     4  11  28  46  72 109 141 197 242 307 369 438
#
# _framework density 22.789863
#
# number of rings (size 3 to 8) (size 9 to 14) (size 15 to 20)
#    0.000    1.333    3.333    0.000   12.833    0.000 
#    3.000    0.000    0.000    0.000    0.000    0.000 
#    0.000    0.000    0.000    0.000    0.000    0.000 
#
# Total GULP energy -66821.115572 kJ/mol
# GULP energy per Si atom -5568.426298 kJ/mol
# Density = 2.273799 g / cm^3
# Si number density = 22.789863 Si / 1000 Ang^3
#
#
#
# Elastic Constant Matrix: (Units=GPa)
#
#
# Indices 1 2 3 4 5 6 
#
# 1 80.9534 30.4100 24.1631 0.0050 -16.7077 0.0032
# 2 30.4100 98.1108 33.4398 0.0132 -4.2178 0.0053
# 3 24.1631 33.4398 98.8679 0.0164 -9.4001 0.0109
# 4 0.0050 0.0132 0.0164 19.8513 0.0049 -6.2737
# 5 -16.7077 -4.2178 -9.4001 0.0049 42.4338 -0.0013
# 6 0.0032 0.0053 0.0109 -6.2737 -0.0013 -25.9328
#
#
#
# Elastic Compliance Matrix: (Units=1/GPa)
#
#
# Indices 1 2 3 4 5 6 
#
# 1 0.015496 -0.003907 -0.001964 -0.000001 0.005278 0.000000
# 2 -0.003907 0.012509 -0.003375 -0.000004 -0.001043 0.000002
# 3 -0.001964 -0.003375 0.011881 -0.000006 0.001523 0.000005
# 4 -0.000001 -0.000004 -0.000006 0.046797 -0.000008 -0.011321
# 5 0.005278 -0.001043 0.001523 -0.000008 0.025878 0.000002
# 6 0.000000 0.000002 0.000005 -0.011321 0.000002 -0.035822
#
#
# Mechanical properties :
#
#
# Convention : Reuss Voigt Hill
#
# Bulk Modulus (GPa) = 46.74225 50.43976 48.59100
# Shear Modulus (GPa) = 48.84663 19.93174 34.38918
#
# Velocity S-wave (km/s) = 4.63465 2.96055 3.88876
# Velocity P-wave (km/s) = 7.01389 5.81954 6.44444
#
# Compressibility (1/GPa) = 0.02139392
#
# Stress axis : x y z
#
# Youngs Moduli (GPa) = 64.53350 79.94209 84.16865
#
# Poissons Ratio (x) = 0.31231 0.16531
# Poissons Ratio (y) = 0.25211 0.28409
# Poissons Ratio (z) = 0.12674 0.26982
#
# Static dielectric constant tensor:
#      x y z
#    x 1.925390 0.000000 0.043380 
#    y 0.000000 1.872970 0.000000 
#    z 0.043380 0.000000 2.001000 
# 
# From -- ./inp_files/8276.got.cif
#   From: 2010.05.17/outbox.cif.g08.bks.cpg/sg5_5_cif.got.tgz:8276.got - 2010.06.03 18:56:24.
