data_PCOD9126472
_publ_section_title
;
Structure prediction by ZEFSAII (Michael W. Deem and Ramdas Pophale) SiO2 
 PCOD9126472
Probable space group: C 2
;
_chemical_formula_sum "Si O2"
_cell_formula_units_Z 26
_cell_length_a 25.446175
_cell_length_b 8.777035
_cell_length_c 11.648002
_cell_angle_alpha 90.000000
_cell_angle_beta 27.713453
_cell_angle_gamma 90.000000
_cell_volume 1209.821652
_symmetry_space_group_name_H-M "C 2"
_symmetry_group_IT_number 5
_symmetry_cell_setting 'monoclinic'
loop_
_space_group_symop_operation_xyz
x,y,z
-x,y,-z
1/2+x,1/2+y,z
1/2-x,1/2+y,-z
loop_
_atom_site_type_symbol
_atom_site_label
_atom_site_fract_x
_atom_site_fract_y
_atom_site_fract_z
Si Si1 0.080189 0.839810 0.501250
Si Si2 0.842226 0.752359 0.393648
Si Si3 0.128074 0.065820 0.130714
Si Si4 0.500000 0.992258 0.000000
Si Si5 0.790229 0.357038 0.925182
Si Si6 0.000000 0.986352 0.000000
Si Si7 0.595058 0.732035 0.961216
Si Si8 0.000000 0.571209 0.500000
O O1 0.108035 0.807711 0.579670
O O2 0.194383 0.868409 0.208548
O O3 0.031667 0.683844 0.541893
O O4 0.989508 0.973163 0.649541
O O5 0.899176 0.598771 0.238587
O O6 0.889436 0.881476 0.216936
O O7 0.709550 0.732339 0.664861
O O8 0.223116 0.932348 0.946944
O O9 0.163366 0.183332 0.165154
O O10 0.127922 0.184284 0.025305
O O11 0.463111 0.888809 0.963151
O O12 0.896757 0.465329 0.735873
O O13 0.989719 0.099583 0.913949
#
# Coordination Sequence:
#
# PCOD9126472 Si02
#       8
#     4   4   4   2   4   2   4   2
#     4  12  24  44  67  97 140 183 234 283 344 410
#     4  11  22  42  66  97 134 179 223 286 340 397
#     4  12  24  45  69  99 142 181 232 282 345 411
#     4  10  26  42  68 102 136 180 232 282 340 406
#     4  12  25  45  67 101 135 186 225 287 339 414
#     4  10  22  40  68  92 134 178 224 282 342 394
#     4  11  22  44  65  99 134 174 227 281 337 407
#     4  12  26  42  68  96 138 180 232 284 336 420
#
# _framework density 21.490770000000001
#
# number of rings (size 3 to 8) (size 9 to 14) (size 15 to 20)
#    0.000    0.615    6.154    0.923    4.308    0.000 
#    0.000    0.000    0.000    0.000    0.000    0.000 
#    0.000    0.000    0.000    0.000    0.000    0.000 
#
# Total GULP energy -72550.474595 kJ/mol
# GULP energy per Si atom -5580.805738 kJ/mol
# Density = 2.144186 g / cm^3
# Si number density = 21.490770 Si / 1000 Ang^3
#
#
#
# Elastic Constant Matrix: (Units=GPa)
#
#
# Indices 1 2 3 4 5 6 
#
# 1 55.1412 20.2330 -15.3727 0.0000 -10.5450 0.0000
# 2 20.2330 143.2463 45.4542 0.0000 -22.0460 0.0000
# 3 -15.3727 45.4542 99.0350 0.0000 -29.1209 0.0000
# 4 0.0000 0.0000 0.0000 32.0252 0.0000 -13.9007
# 5 -10.5450 -22.0460 -29.1209 0.0000 23.2692 0.0000
# 6 0.0000 0.0000 0.0000 -13.9007 0.0000 9.6331
#
#
#
# Elastic Compliance Matrix: (Units=1/GPa)
#
#
# Indices 1 2 3 4 5 6 
#
# 1 0.029039 -0.004556 0.014555 0.000000 0.027059 0.000000
# 2 -0.004556 0.009243 -0.004717 0.000000 0.000788 0.000000
# 3 0.014555 -0.004717 0.023967 0.000000 0.032121 0.000000
# 4 0.000000 0.000000 0.000000 0.083568 0.000000 0.120590
# 5 0.027059 0.000788 0.032121 0.000000 0.096183 0.000000
# 6 0.000000 0.000000 0.000000 0.120590 0.000000 0.277823
#
#
# Mechanical properties :
#
#
# Convention : Reuss Voigt Hill
#
# Bulk Modulus (GPa) = 13.73380 44.22795 28.98087
# Shear Modulus (GPa) = 9.37153 29.45935 19.41544
#
# Velocity S-wave (km/s) = 2.09050 3.70644 3.00897
# Velocity P-wave (km/s) = 3.49733 6.24032 5.05830
#
# Compressibility (1/GPa) = 0.07281308
#
# Stress axis : x y z
#
# Youngs Moduli (GPa) = 34.43593 108.19289 41.72413
#
# Poissons Ratio (x) = 0.49291 -0.60731
# Poissons Ratio (y) = 0.15688 0.19683
# Poissons Ratio (z) = -0.50122 0.51040
#
# Static dielectric constant tensor:
#      x y z
#    x 1.888860 0.000000 0.031120 
#    y 0.000000 1.768090 0.000000 
#    z 0.031120 0.000000 1.786600 
# 
# From -- ./inp_files/38403.got.cif
#   From: 2010.05.17/outbox.cif.g08.bks.cpg/sg5_20_cif.got.tgz:38403.got - 2010.06.03 18:56:24.
