data_PCOD9126246
_publ_section_title
;
Structure prediction by ZEFSAII (Michael W. Deem and Ramdas Pophale) SiO2 
 PCOD9126246
Probable space group: C 2
;
_chemical_formula_sum "Si O2"
_cell_formula_units_Z 32
_cell_length_a 22.955579
_cell_length_b 12.532616
_cell_length_c 8.548749
_cell_angle_alpha 90.000000
_cell_angle_beta 145.036743
_cell_angle_gamma 90.000000
_cell_volume 1409.372622
_symmetry_space_group_name_H-M "C 2"
_symmetry_group_IT_number 5
_symmetry_cell_setting 'monoclinic'
loop_
_space_group_symop_operation_xyz
x,y,z
-x,y,-z
1/2+x,1/2+y,z
1/2-x,1/2+y,-z
loop_
_atom_site_type_symbol
_atom_site_label
_atom_site_fract_x
_atom_site_fract_y
_atom_site_fract_z
Si Si1 0.239977 0.271020 0.683017
Si Si2 0.897452 0.466002 0.709232
Si Si3 0.927135 0.882801 0.960830
Si Si4 0.184852 0.127281 0.993916
Si Si5 0.794425 0.345180 0.040484
Si Si6 0.097993 0.556648 0.623928
Si Si7 0.077207 0.944523 0.549850
Si Si8 0.283546 0.567115 0.572310
O O1 0.178121 0.368296 0.473821
O O2 0.356331 0.301105 0.899102
O O3 0.217793 0.291937 0.815250
O O4 0.202890 0.161583 0.522285
O O5 0.922288 0.521666 0.599124
O O6 0.836761 0.543452 0.691710
O O7 0.000000 0.422588 0.000000
O O8 0.854655 0.964422 0.705681
O O9 0.000000 0.823280 0.000000
O O10 0.002283 0.951913 0.237234
O O11 0.194940 0.088528 0.194952
O O12 0.298517 0.124139 0.168896
O O13 0.154124 0.250230 0.941189
O O14 0.116519 0.049827 0.733552
O O15 0.864011 0.449355 0.204345
O O16 0.681274 0.382066 0.741797
O O17 0.000000 0.599808 0.500000
O O18 0.000000 0.886638 0.500000
#
# Coordination Sequence:
#
# PCOD9126246 Si02
#       8
#     4   4   4   4   4   4   4   4
#     4  10  22  41  59  87 123 154 196 245 294 353
#     4   9  20  40  59  78 116 160 189 233 291 345
#     4  11  24  41  63  90 122 160 200 248 303 358
#     4  10  22  39  62  88 118 155 197 246 294 350
#     4  10  22  39  62  88 118 155 197 246 294 350
#     4   9  20  40  57  83 118 150 193 239 288 345
#     4  11  20  43  65  84 122 162 200 248 301 355
#     4  10  22  41  59  87 123 154 196 245 294 353
#
# _framework density 22.705138000000002
#
# number of rings (size 3 to 8) (size 9 to 14) (size 15 to 20)
#    0.000    2.000    2.500    1.500    3.500    4.000 
#    9.000    0.000    0.000    0.000    0.000    0.000 
#    0.000    0.000    0.000    0.000    0.000    0.000 
#
# Total GULP energy -89204.300907 kJ/mol
# GULP energy per Si atom -5575.268807 kJ/mol
# Density = 2.265346 g / cm^3
# Si number density = 22.705138 Si / 1000 Ang^3
#
#
#
# Elastic Constant Matrix: (Units=GPa)
#
#
# Indices 1 2 3 4 5 6 
#
# 1 43.0156 -20.5993 14.0210 0.0000 17.4145 0.0000
# 2 -20.5993 41.9453 -2.2270 0.0000 -11.1623 0.0000
# 3 14.0210 -2.2270 93.4234 0.0000 10.1685 0.0000
# 4 0.0000 0.0000 0.0000 11.1878 0.0000 -16.9210
# 5 17.4145 -11.1623 10.1685 0.0000 -3.0839 0.0000
# 6 0.0000 0.0000 0.0000 -16.9210 0.0000 52.7413
#
#
#
# Elastic Compliance Matrix: (Units=1/GPa)
#
#
# Indices 1 2 3 4 5 6 
#
# 1 0.021234 0.018614 -0.006227 0.000000 0.032004 0.000000
# 2 0.018614 0.030533 -0.001088 0.000000 -0.008987 0.000000
# 3 -0.006227 -0.001088 0.011047 0.000000 0.005200 0.000000
# 4 0.000000 0.000000 0.000000 0.173640 0.000000 0.055709
# 5 0.032004 -0.008987 0.005200 0.000000 -0.093870 0.000000
# 6 0.000000 0.000000 0.000000 0.055709 0.000000 0.036834
#
#
# Mechanical properties :
#
#
# Convention : Reuss Voigt Hill
#
# Bulk Modulus (GPa) = 11.70765 17.86374 14.78570
# Shear Modulus (GPa) = 26.98484 24.64836 25.81660
#
# Velocity S-wave (km/s) = 3.45119 3.29840 3.37566
# Velocity P-wave (km/s) = 4.58787 4.73188 4.66043
#
# Compressibility (1/GPa) = 0.08541423
#
# Stress axis : x y z
#
# Youngs Moduli (GPa) = 47.09318 32.75166 90.52592
#
# Poissons Ratio (x) = -0.60965 0.56366
# Poissons Ratio (y) = -0.87661 0.09846
# Poissons Ratio (z) = 0.29323 0.03562
#
# Static dielectric constant tensor:
#      x y z
#    x 1.417110 0.000000 0.357240 
#    y 0.000000 1.898770 0.000000 
#    z 0.357240 0.000000 1.525830 
# 
# From -- ./inp_files/31086.got.cif
#   From: 2010.05.17/outbox.cif.g08.bks.cpg/sg5_16_cif.got.tgz:31086.got - 2010.06.03 18:56:24.
