data_PCOD9126040
_publ_section_title
;
Structure prediction by ZEFSAII (Michael W. Deem and Ramdas Pophale) SiO2 
 PCOD9126040
Probable space group: C 2
;
_chemical_formula_sum "Si O2"
_cell_formula_units_Z 32
_cell_length_a 22.477900
_cell_length_b 12.046828
_cell_length_c 9.616823
_cell_angle_alpha 90.000000
_cell_angle_beta 145.442729
_cell_angle_gamma 90.000000
_cell_volume 1477.131119
_symmetry_space_group_name_H-M "C 2"
_symmetry_group_IT_number 5
_symmetry_cell_setting 'monoclinic'
loop_
_space_group_symop_operation_xyz
x,y,z
-x,y,-z
1/2+x,1/2+y,z
1/2-x,1/2+y,-z
loop_
_atom_site_type_symbol
_atom_site_label
_atom_site_fract_x
_atom_site_fract_y
_atom_site_fract_z
Si Si1 0.837508 0.813010 0.246212
Si Si2 0.959240 0.737191 0.735039
Si Si3 0.787145 0.757796 0.626239
Si Si4 0.351496 0.150400 0.025270
Si Si5 0.912594 0.198621 0.937315
Si Si6 0.676925 0.533749 0.854725
Si Si7 0.620004 0.447886 0.047932
Si Si8 0.596355 0.772395 0.769155
O O1 0.871311 0.747397 0.446335
O O2 0.874680 0.747185 0.182472
O O3 0.879843 0.937518 0.340366
O O4 0.712340 0.823875 0.986756
O O5 0.894555 0.726482 0.752366
O O6 0.036736 0.637929 0.835716
O O7 0.028732 0.852451 0.866227
O O8 0.695946 0.730328 0.344682
O O9 0.797548 0.886464 0.691531
O O10 0.779319 0.692405 0.757981
O O11 0.287586 0.062498 0.993529
O O12 0.918155 0.065467 0.968096
O O13 0.927673 0.254539 0.115634
O O14 0.000000 0.236816 0.000000
O O15 0.616959 0.649802 0.744598
O O16 0.674355 0.481876 0.005561
O O17 0.500000 0.825250 0.500000
#
# Coordination Sequence:
#
# PCOD9126040 Si02
#       8
#     4   4   4   4   4   4   4   4
#     4  11  21  40  63  97 125 166 224 276 321 394
#     4  11  21  39  69  96 136 164 224 276 337 387
#     4  11  22  42  64  97 139 170 216 275 341 397
#     4  10  22  37  63  96 131 174 206 273 337 382
#     4  11  24  40  65  97 127 172 219 267 336 401
#     4  10  22  37  65  97 126 162 226 268 329 386
#     4  10  22  41  66 101 127 173 216 283 328 388
#     4  10  24  41  61  91 133 170 211 273 331 390
#
# _framework density 21.663615
#
# number of rings (size 3 to 8) (size 9 to 14) (size 15 to 20)
#    0.000    1.500    3.750    2.625    7.000    1.000 
#    0.000    2.500    2.750    0.000    0.000    0.000 
#    0.000    0.000    0.000    0.000    0.000    0.000 
#
# Total GULP energy -89196.504302 kJ/mol
# GULP energy per Si atom -5574.781519 kJ/mol
# Density = 2.161431 g / cm^3
# Si number density = 21.663615 Si / 1000 Ang^3
#
#
#
# Elastic Constant Matrix: (Units=GPa)
#
#
# Indices 1 2 3 4 5 6 
#
# 1 154.0770 14.5239 29.5050 0.0000 -2.1176 0.0000
# 2 14.5239 26.2137 -4.4198 0.0000 -2.4160 0.0000
# 3 29.5050 -4.4198 105.1392 0.0000 -1.3989 0.0000
# 4 0.0000 0.0000 0.0000 16.1228 0.0000 -4.8197
# 5 -2.1176 -2.4160 -1.3989 0.0000 34.1801 0.0000
# 6 0.0000 0.0000 0.0000 -4.8197 0.0000 23.3459
#
#
#
# Elastic Compliance Matrix: (Units=1/GPa)
#
#
# Indices 1 2 3 4 5 6 
#
# 1 0.007340 -0.004441 -0.002246 0.000000 0.000049 0.000000
# 2 -0.004441 0.041374 0.003022 0.000000 0.002773 0.000000
# 3 -0.002246 0.003022 0.010275 0.000000 0.000495 0.000000
# 4 0.000000 0.000000 0.000000 0.066103 0.000000 0.013647
# 5 0.000049 0.002773 0.000495 0.000000 0.029476 0.000000
# 6 0.000000 0.000000 0.000000 0.013647 0.000000 0.045651
#
#
# Mechanical properties :
#
#
# Convention : Reuss Voigt Hill
#
# Bulk Modulus (GPa) = 19.35729 40.51646 29.93688
# Shear Modulus (GPa) = 22.24525 31.11783 26.68154
#
# Velocity S-wave (km/s) = 3.20792 3.79411 3.51326
# Velocity P-wave (km/s) = 4.76191 6.15929 5.50512
#
# Compressibility (1/GPa) = 0.05166011
#
# Stress axis : x y z
#
# Youngs Moduli (GPa) = 136.24759 24.16997 97.32314
#
# Poissons Ratio (x) = 0.10733 0.21856
# Poissons Ratio (y) = 0.60504 -0.29414
# Poissons Ratio (z) = 0.30597 -0.07305
#
# Static dielectric constant tensor:
#      x y z
#    x 1.834600 0.000000 0.017530 
#    y 0.000000 1.796720 0.000000 
#    z 0.017530 0.000000 1.848370 
# 
# From -- ./inp_files/29855.got.cif
#   From: 2010.05.17/outbox.cif.g08.bks.cpg/sg5_15_cif.got.tgz:29855.got - 2010.06.03 18:56:24.
