data_PCOD9126402
_publ_section_title
;
Structure prediction by ZEFSAII (Michael W. Deem and Ramdas Pophale) SiO2 
 PCOD9126402
Probable space group: C 2
;
_chemical_formula_sum "Si O2"
_cell_formula_units_Z 28
_cell_length_a 8.647146
_cell_length_b 11.279859
_cell_length_c 14.079900
_cell_angle_alpha 90.000000
_cell_angle_beta 64.486288
_cell_angle_gamma 90.000000
_cell_volume 1239.409132
_symmetry_space_group_name_H-M "C 2"
_symmetry_group_IT_number 5
_symmetry_cell_setting 'monoclinic'
loop_
_space_group_symop_operation_xyz
x,y,z
-x,y,-z
1/2+x,1/2+y,z
1/2-x,1/2+y,-z
loop_
_atom_site_type_symbol
_atom_site_label
_atom_site_fract_x
_atom_site_fract_y
_atom_site_fract_z
Si Si1 0.408345 0.112500 0.144909
Si Si2 0.640049 0.945048 0.668683
Si Si3 0.789882 0.315568 0.705003
Si Si4 0.282585 0.163131 0.457642
Si Si5 0.364099 0.530122 0.164038
Si Si6 0.753633 0.059186 0.992738
Si Si7 0.685529 0.216560 0.340482
O O1 0.275297 0.217516 0.201719
O O2 0.602009 0.151521 0.064595
O O3 0.418874 0.039415 0.238161
O O4 0.333460 0.024378 0.084049
O O5 0.472094 0.876419 0.677004
O O6 0.769980 0.853437 0.681027
O O7 0.732997 0.024955 0.564990
O O8 0.795449 0.249499 0.601810
O O9 0.652934 0.422056 0.757229
O O10 0.484985 0.192096 0.399629
O O11 0.230689 0.182248 0.579823
O O12 0.283197 0.489106 0.083759
O O13 0.262614 0.638075 0.237222
O O14 0.552169 0.579955 0.090756
#
# Coordination Sequence:
#
# PCOD9126402 Si02
#       7
#     4   4   4   4   4   4   4
#     4  10  22  44  62  98 139 175 228 276 333 406
#     4  11  23  45  69 101 136 179 222 285 338 408
#     4  11  22  43  72  95 137 182 216 288 343 399
#     4  10  25  44  68 101 136 173 227 284 341 409
#     4  11  22  42  66 102 134 178 232 270 341 405
#     4  10  22  40  64  97 139 177 223 277 329 399
#     4  11  24  44  69  99 134 180 223 282 341 401
#
# _framework density 22.59141
#
# number of rings (size 3 to 8) (size 9 to 14) (size 15 to 20)
#    0.000    1.429    2.857    1.714    4.000    2.857 
#    5.143    1.429    0.000    0.000    0.000    0.000 
#    0.000    0.000    0.000    0.000    0.000    0.000 
#
# Total GULP energy -77995.384034 kJ/mol
# GULP energy per Si atom -5571.098860 kJ/mol
# Density = 2.253999 g / cm^3
# Si number density = 22.591410 Si / 1000 Ang^3
#
#
#
# Elastic Constant Matrix: (Units=GPa)
#
#
# Indices 1 2 3 4 5 6 
#
# 1 68.8612 21.8733 19.3910 0.0000 21.3563 0.0000
# 2 21.8733 93.2611 13.6777 0.0000 2.3201 0.0000
# 3 19.3910 13.6777 79.2318 0.0000 11.3683 0.0000
# 4 0.0000 0.0000 0.0000 9.1619 0.0000 0.7995
# 5 21.3563 2.3201 11.3683 0.0000 28.1742 0.0000
# 6 0.0000 0.0000 0.0000 0.7995 0.0000 33.6165
#
#
#
# Elastic Compliance Matrix: (Units=1/GPa)
#
#
# Indices 1 2 3 4 5 6 
#
# 1 0.021078 -0.004238 -0.002319 0.000000 -0.014692 0.000000
# 2 -0.004238 0.011854 -0.001412 0.000000 0.002806 0.000000
# 3 -0.002319 -0.001412 0.013972 0.000000 -0.003764 0.000000
# 4 0.000000 0.000000 0.000000 0.109374 0.000000 -0.002601
# 5 -0.014692 0.002806 -0.003764 0.000000 0.047918 0.000000
# 6 0.000000 0.000000 0.000000 -0.002601 0.000000 0.029809
#
#
# Mechanical properties :
#
#
# Convention : Reuss Voigt Hill
#
# Bulk Modulus (GPa) = 32.29245 39.02648 35.65947
# Shear Modulus (GPa) = 19.21120 26.61800 22.91460
#
# Velocity S-wave (km/s) = 2.91928 3.43627 3.18827
# Velocity P-wave (km/s) = 5.06835 5.74946 5.41962
#
# Compressibility (1/GPa) = 0.03096699
#
# Stress axis : x y z
#
# Youngs Moduli (GPa) = 47.44340 84.36124 71.56939
#
# Poissons Ratio (x) = 0.35752 0.16596
# Poissons Ratio (y) = 0.20106 0.10104
# Poissons Ratio (z) = 0.11001 0.11909
#
# Static dielectric constant tensor:
#      x y z
#    x 1.888610 0.000000 0.009100 
#    y 0.000000 1.829890 0.000000 
#    z 0.009100 0.000000 1.862560 
# 
# From -- ./inp_files/50422.got.cif
#   From: 2010.05.17/outbox.cif.g08.bks.cpg/sg5_26_cif.got.tgz:50422.got - 2010.06.03 18:56:24.
