data_PCOD9126449
_publ_section_title
;
Structure prediction by ZEFSAII (Michael W. Deem and Ramdas Pophale) SiO2 
 PCOD9126449
Probable space group: C 2
;
_chemical_formula_sum "Si O2"
_cell_formula_units_Z 32
_cell_length_a 8.559702
_cell_length_b 11.448825
_cell_length_c 28.318173
_cell_angle_alpha 90.000000
_cell_angle_beta 147.580678
_cell_angle_gamma 90.000000
_cell_volume 1487.784109
_symmetry_space_group_name_H-M "C 2"
_symmetry_group_IT_number 5
_symmetry_cell_setting 'monoclinic'
loop_
_space_group_symop_operation_xyz
x,y,z
-x,y,-z
1/2+x,1/2+y,z
1/2-x,1/2+y,-z
loop_
_atom_site_type_symbol
_atom_site_label
_atom_site_fract_x
_atom_site_fract_y
_atom_site_fract_z
Si Si1 0.683918 0.575350 0.094399
Si Si2 0.494907 0.564456 0.617317
Si Si3 0.635844 0.262395 0.194550
Si Si4 0.656148 0.487218 0.906614
Si Si5 0.242568 0.813429 0.320273
Si Si6 0.688377 0.889321 0.234504
Si Si7 0.437207 0.631472 0.761605
Si Si8 0.026707 0.530952 0.580711
O O1 0.867776 0.692678 0.148367
O O2 0.469473 0.563939 0.083417
O O3 0.911528 0.467211 0.149715
O O4 0.500000 0.581662 0.000000
O O5 0.703246 0.675174 0.660718
O O6 0.679038 0.456071 0.685431
O O7 0.253810 0.576249 0.598284
O O8 0.296510 0.552702 0.520338
O O9 0.504000 0.362775 0.128808
O O10 0.802428 0.325501 0.279753
O O11 0.821697 0.163986 0.216098
O O12 0.563583 0.545096 0.833330
O O13 0.000000 0.474390 0.000000
O O14 0.934048 0.871256 0.256722
O O15 0.451906 0.891215 0.406111
O O16 0.616469 0.757391 0.229329
O O17 0.151088 0.585794 0.660966
#
# Coordination Sequence:
#
# PCOD9126449 Si02
#       8
#     4   4   4   4   4   4   4   4
#     4  12  26  48  70 102 139 179 229 288 344 411
#     4  10  22  42  67  99 139 180 233 282 346 402
#     4  12  23  46  72  99 135 185 230 276 349 409
#     4  12  28  46  70 104 140 178 231 286 346 417
#     4  11  21  42  73  94 136 189 224 285 347 403
#     4  11  25  42  69 100 140 181 229 286 344 412
#     4  12  24  44  69 102 140 181 229 286 344 412
#     4  10  22  40  67 102 134 182 232 285 338 413
#
# _framework density 21.508497999999999
#
# number of rings (size 3 to 8) (size 9 to 14) (size 15 to 20)
#    0.000    0.750    5.000    2.625    3.500    0.500 
#    2.250    0.000    0.000    0.000    0.000    0.000 
#    0.000    0.000    0.000    0.000    0.000    0.000 
#
# Total GULP energy -89307.959691 kJ/mol
# GULP energy per Si atom -5581.747481 kJ/mol
# Density = 2.145954 g / cm^3
# Si number density = 21.508498 Si / 1000 Ang^3
#
#
#
# Elastic Constant Matrix: (Units=GPa)
#
#
# Indices 1 2 3 4 5 6 
#
# 1 67.7362 0.7019 14.8083 0.0000 -10.8749 0.0000
# 2 0.7019 87.5079 23.6800 0.0000 -8.3384 0.0000
# 3 14.8083 23.6800 130.9506 0.0000 -24.3233 -0.0001
# 4 0.0000 0.0000 0.0000 12.8574 0.0000 -1.0313
# 5 -10.8749 -8.3384 -24.3233 0.0000 25.3646 0.0000
# 6 0.0000 0.0000 -0.0001 -1.0313 0.0000 42.7681
#
#
#
# Elastic Compliance Matrix: (Units=1/GPa)
#
#
# Indices 1 2 3 4 5 6 
#
# 1 0.015937 0.000678 -0.000747 0.000000 0.006339 0.000000
# 2 0.000678 0.012153 -0.001799 0.000000 0.002561 0.000000
# 3 -0.000747 -0.001799 0.009584 0.000000 0.008279 0.000000
# 4 0.000000 0.000000 0.000000 0.077927 0.000000 0.001879
# 5 0.006339 0.002561 0.008279 0.000000 0.050924 0.000000
# 6 0.000000 0.000000 0.000000 0.001879 0.000000 0.023427
#
#
# Mechanical properties :
#
#
# Convention : Reuss Voigt Hill
#
# Bulk Modulus (GPa) = 29.46465 40.50834 34.98649
# Shear Modulus (GPa) = 24.39019 32.66499 28.52759
#
# Velocity S-wave (km/s) = 3.37111 3.90128 3.64585
# Velocity P-wave (km/s) = 5.37414 6.25842 5.83306
#
# Compressibility (1/GPa) = 0.03393898
#
# Stress axis : x y z
#
# Youngs Moduli (GPa) = 62.74598 82.28514 104.34093
#
# Poissons Ratio (x) = -0.05583 0.07799
# Poissons Ratio (y) = -0.04257 0.18767
# Poissons Ratio (z) = 0.04690 0.14800
#
# Static dielectric constant tensor:
#      x y z
#    x 1.841960 0.000000 0.009910 
#    y 0.000000 1.771540 0.000000 
#    z 0.009910 0.000000 1.770800 
# 
# From -- ./inp_files/71594.got.cif
#   From: 2010.05.17/outbox.cif.g08.bks.cpg/sg5_36_cif.got.tgz:71594.got - 2010.06.03 18:56:24.
