data_PCOD9126814
_publ_section_title
;
Structure prediction by ZEFSAII (Michael W. Deem and Ramdas Pophale) SiO2 
 PCOD9126814
Probable space group: C 2
;
_chemical_formula_sum "Si O2"
_cell_formula_units_Z 30
_cell_length_a 5.610871
_cell_length_b 13.364403
_cell_length_c 19.194108
_cell_angle_alpha 90.000000
_cell_angle_beta 94.953082
_cell_angle_gamma 90.000000
_cell_volume 1433.913569
_symmetry_space_group_name_H-M "C 2"
_symmetry_group_IT_number 5
_symmetry_cell_setting 'monoclinic'
loop_
_space_group_symop_operation_xyz
x,y,z
-x,y,-z
1/2+x,1/2+y,z
1/2-x,1/2+y,-z
loop_
_atom_site_type_symbol
_atom_site_label
_atom_site_fract_x
_atom_site_fract_y
_atom_site_fract_z
Si Si1 0.336394 0.809110 0.327170
Si Si2 0.199295 0.446396 0.559922
Si Si3 0.330173 0.646163 0.613586
Si Si4 0.487821 0.057320 0.856137
Si Si5 0.981677 0.137729 0.082326
Si Si6 0.457182 0.823788 0.822785
Si Si7 0.572813 0.204832 0.741627
Si Si8 0.500000 0.269801 0.500000
O O1 0.406762 0.908954 0.369218
O O2 0.443321 0.716587 0.372581
O O3 0.423184 0.810052 0.249923
O O4 0.060791 0.783283 0.311595
O O5 0.372915 0.537514 0.582500
O O6 0.323494 0.347564 0.533607
O O7 0.000000 0.478427 0.500000
O O8 0.233172 0.643126 0.690653
O O9 0.145828 0.701746 0.557540
O O10 0.761869 0.089234 0.885335
O O11 0.437534 0.122114 0.784403
O O12 0.263438 0.081233 0.901307
O O13 0.479581 0.938756 0.843230
O O14 0.949957 0.247078 0.116747
O O15 0.000000 0.144204 0.000000
O O16 0.195967 0.778600 0.800238
#
# Coordination Sequence:
#
# PCOD9126814 Si02
#       8
#     4   4   4   4   4   4   4   2
#     4  11  22  42  66  94 126 169 222 275 331 409
#     4  12  25  39  62  86 122 169 216 272 340 404
#     4  11  24  41  61  88 124 166 214 274 341 400
#     4  11  24  44  71 101 141 181 228 279 341 402
#     4  11  25  44  68 105 142 181 230 279 332 406
#     4  10  24  43  70  98 136 178 222 276 339 400
#     4  10  22  42  66  96 131 169 219 284 330 405
#     4  12  24  40  56  86 120 158 218 274 334 408
#
# _framework density 20.921762000000001
#
# number of rings (size 3 to 8) (size 9 to 14) (size 15 to 20)
#    0.000    1.067    4.667    1.200    1.867    4.267 
#    0.000    0.000    0.000    0.000    0.000    0.000 
#    0.000    0.000    0.000    0.000    0.000    0.000 
#
# Total GULP energy -83618.545810 kJ/mol
# GULP energy per Si atom -5574.569721 kJ/mol
# Density = 2.087414 g / cm^3
# Si number density = 20.921762 Si / 1000 Ang^3
#
#
#
# Elastic Constant Matrix: (Units=GPa)
#
#
# Indices 1 2 3 4 5 6 
#
# 1 47.7075 20.4931 17.7745 0.0000 -3.8780 0.0000
# 2 20.4931 146.9893 52.6351 0.0000 -0.2002 0.0000
# 3 17.7745 52.6351 98.8837 0.0000 -2.8142 0.0000
# 4 0.0000 0.0000 0.0000 16.3899 0.0000 5.4289
# 5 -3.8780 -0.2002 -2.8142 0.0000 31.4155 0.0000
# 6 0.0000 0.0000 0.0000 5.4289 0.0000 11.7136
#
#
#
# Elastic Compliance Matrix: (Units=1/GPa)
#
#
# Indices 1 2 3 4 5 6 
#
# 1 0.023202 -0.002180 -0.002937 0.000000 0.002587 0.000000
# 2 -0.002180 0.008614 -0.004210 0.000000 -0.000591 0.000000
# 3 -0.002937 -0.004210 0.012904 0.000000 0.000767 0.000000
# 4 0.000000 0.000000 0.000000 0.072078 0.000000 -0.033406
# 5 0.002587 -0.000591 0.000767 0.000000 0.032216 0.000000
# 6 0.000000 0.000000 0.000000 -0.033406 0.000000 0.100854
#
#
# Mechanical properties :
#
#
# Convention : Reuss Voigt Hill
#
# Bulk Modulus (GPa) = 38.36375 52.82065 45.59220
# Shear Modulus (GPa) = 18.03693 25.41566 21.72629
#
# Velocity S-wave (km/s) = 2.93936 3.48917 3.22600
# Velocity P-wave (km/s) = 5.46776 6.44469 5.97622
#
# Compressibility (1/GPa) = 0.02606628
#
# Stress axis : x y z
#
# Youngs Moduli (GPa) = 43.10014 116.09136 77.49756
#
# Poissons Ratio (x) = 0.25304 0.22759
# Poissons Ratio (y) = 0.09394 0.32628
# Poissons Ratio (z) = 0.12657 0.48876
#
# Static dielectric constant tensor:
#      x y z
#    x 1.860750 0.000000 -0.026590 
#    y 0.000000 1.716130 0.000000 
#    z -0.026590 0.000000 1.811300 
# 
# From -- ./inp_files/58909.got.cif
#   From: 2010.05.17/outbox.cif.g08.bks.cpg/sg5_30_cif.got.tgz:58909.got - 2010.06.03 18:56:24.
