data_PCOD9126829
_publ_section_title
;
Structure prediction by ZEFSAII (Michael W. Deem and Ramdas Pophale) SiO2 
 PCOD9126829
Probable space group: C 2
;
_chemical_formula_sum "Si O2"
_cell_formula_units_Z 18
_cell_length_a 6.119924
_cell_length_b 26.284764
_cell_length_c 4.992213
_cell_angle_alpha 90.000000
_cell_angle_beta 86.961559
_cell_angle_gamma 90.000000
_cell_volume 801.922235
_symmetry_space_group_name_H-M "C 2"
_symmetry_group_IT_number 5
_symmetry_cell_setting 'monoclinic'
loop_
_space_group_symop_operation_xyz
x,y,z
-x,y,-z
1/2+x,1/2+y,z
1/2-x,1/2+y,-z
loop_
_atom_site_type_symbol
_atom_site_label
_atom_site_fract_x
_atom_site_fract_y
_atom_site_fract_z
Si Si1 0.842613 0.759880 0.258382
Si Si2 0.000000 0.179904 0.500000
Si Si3 0.500000 0.613225 0.000000
Si Si4 0.500000 0.951696 0.500000
Si Si5 0.850604 0.017177 0.773926
Si Si6 0.338948 0.373075 0.256675
O O1 0.672405 0.716444 0.341771
O O2 0.740086 0.816153 0.227800
O O3 0.000000 0.764715 0.500000
O O4 0.000000 0.747928 0.000000
O O5 0.084175 0.145404 0.741524
O O6 0.681658 0.574069 0.106764
O O7 0.656485 0.914973 0.318877
O O8 0.641220 0.986469 0.691810
O O9 0.000000 0.021536 0.500000
O O10 0.000000 0.992954 0.000000
O O11 0.500000 0.374740 0.500000
O O12 0.500000 0.380914 0.000000
#
# Coordination Sequence:
#
# PCOD9126829 Si02
#       6
#     4   2   2   2   4   4
#     4  10  22  42  67 104 141 173 222 286 344 416
#     4  12  21  42  76  96 132 190 229 272 362 420
#     4  10  22  46  66 100 146 174 228 314 332 392
#     4  12  25  44  80 100 132 206 233 268 370 420
#     4  10  24  47  65  99 145 181 234 302 341 401
#     4  10  24  44  66 104 147 174 227 292 338 417
#
# _framework density 22.446066999999999
#
# number of rings (size 3 to 8) (size 9 to 14) (size 15 to 20)
#    0.667    0.889    1.111    2.667    0.000    7.111 
#    2.000    8.889    0.000    0.000    0.000    0.000 
#    0.000    0.000    0.000    0.000    0.000    0.000 
#
# Total GULP energy -50306.186084 kJ/mol
# GULP energy per Si atom -5589.576232 kJ/mol
# Density = 2.239498 g / cm^3
# Si number density = 22.446067 Si / 1000 Ang^3
#
#
#
# Elastic Constant Matrix: (Units=GPa)
#
#
# Indices 1 2 3 4 5 6 
#
# 1 99.9765 86.1814 66.6221 0.0000 1.3178 0.0000
# 2 86.1814 188.3861 84.7549 0.0000 -10.6005 0.0000
# 3 66.6221 84.7549 214.0296 0.0000 -5.2977 0.0000
# 4 0.0000 0.0000 0.0000 30.9306 0.0000 33.2755
# 5 1.3178 -10.6005 -5.2977 0.0000 31.9574 0.0000
# 6 0.0000 0.0000 0.0000 33.2755 0.0000 26.1933
#
#
#
# Elastic Compliance Matrix: (Units=1/GPa)
#
#
# Indices 1 2 3 4 5 6 
#
# 1 0.018216 -0.007235 -0.002895 0.000000 -0.003631 0.000000
# 2 -0.007235 0.009429 -0.001403 0.000000 0.003193 0.000000
# 3 -0.002895 -0.001403 0.006145 0.000000 0.000673 0.000000
# 4 0.000000 0.000000 0.000000 -0.088168 0.000000 0.112007
# 5 -0.003631 0.003193 0.000673 0.000000 0.032612 0.000000
# 6 0.000000 0.000000 0.000000 0.112007 0.000000 -0.104114
#
#
# Mechanical properties :
#
#
# Convention : Reuss Voigt Hill
#
# Bulk Modulus (GPa) = 93.24112 108.61213 100.92663
# Shear Modulus (GPa) = -50.38423 35.47185 -7.45619
#
# Velocity S-wave (km/s) = -4.74294 3.97963 -1.82456
# Velocity P-wave (km/s) = 3.41119 8.34324 6.37361
#
# Compressibility (1/GPa) = 0.01072488
#
# Stress axis : x y z
#
# Youngs Moduli (GPa) = 54.89569 106.05648 162.72126
#
# Poissons Ratio (x) = 0.76735 0.47108
# Poissons Ratio (y) = 0.39719 0.22823
# Poissons Ratio (z) = 0.15892 0.14875
#
# Static dielectric constant tensor:
#      x y z
#    x 1.789620 0.000000 0.012650 
#    y 0.000000 1.927140 0.000000 
#    z 0.012650 0.000000 1.796830 
# 
# From -- ./inp_files/1116.got.cif
#   From: 2010.05.17/outbox.cif.g08.bks.cpg/sg5_1_cif.got.tgz:1116.got - 2010.06.03 18:56:24.
