data_PCOD9126434
_publ_section_title
;
Structure prediction by ZEFSAII (Michael W. Deem and Ramdas Pophale) SiO2 
 PCOD9126434
Probable space group: C 2
;
_chemical_formula_sum "Si O2"
_cell_formula_units_Z 20
_cell_length_a 22.951788
_cell_length_b 4.798013
_cell_length_c 8.238757
_cell_angle_alpha 90.000000
_cell_angle_beta 125.252432
_cell_angle_gamma 90.000000
_cell_volume 740.897424
_symmetry_space_group_name_H-M "C 2"
_symmetry_group_IT_number 5
_symmetry_cell_setting 'monoclinic'
loop_
_space_group_symop_operation_xyz
x,y,z
-x,y,-z
1/2+x,1/2+y,z
1/2-x,1/2+y,-z
loop_
_atom_site_type_symbol
_atom_site_label
_atom_site_fract_x
_atom_site_fract_y
_atom_site_fract_z
Si Si1 0.753393 0.739540 0.225438
Si Si2 0.872912 0.016196 0.581482
Si Si3 0.036858 0.486310 0.385347
Si Si4 0.828976 0.739175 0.009120
Si Si5 0.438896 0.589123 0.014273
O O1 0.795588 0.877425 0.439498
O O2 0.729404 0.421955 0.183313
O O3 0.684550 0.922480 0.062424
O O4 0.808412 0.776112 0.162760
O O5 0.927265 0.766135 0.622769
O O6 0.882722 0.143332 0.777810
O O7 0.897243 0.265392 0.502073
O O8 0.000000 0.521874 0.500000
O O9 0.979928 0.335868 0.173083
O O10 0.903433 0.875483 0.081743
O O11 0.500000 0.454416 0.000000
#
# Coordination Sequence:
#
# PCOD9126434 Si02
#       5
#     4   4   4   4   4
#     4  10  22  41  65  96 127 179 236 285 338 403
#     4  11  24  42  66  99 140 179 235 290 348 417
#     4  11  24  43  69  98 136 189 236 282 342 419
#     4  10  22  40  66  94 133 177 231 286 339 413
#     4  10  25  42  64  99 139 178 222 283 349 408
#
# _framework density 26.994289999999999
#
# number of rings (size 3 to 8) (size 9 to 14) (size 15 to 20)
#    0.000    1.600    0.000    3.000    0.000   20.000 
#    0.000    0.000    0.000    0.000    0.000    0.000 
#    0.000    0.000    0.000    0.000    0.000    0.000 
#
# Total GULP energy -56001.151476 kJ/mol
# GULP energy per Si atom -5600.115148 kJ/mol
# Density = 2.693285 g / cm^3
# Si number density = 26.994290 Si / 1000 Ang^3
#
#
#
# Elastic Constant Matrix: (Units=GPa)
#
#
# Indices 1 2 3 4 5 6 
#
# 1 106.2458 31.5612 -0.1372 0.0000 -15.7930 0.0000
# 2 31.5612 144.7325 13.8885 0.0000 -11.8476 0.0000
# 3 -0.1372 13.8885 113.2283 0.0000 1.4683 0.0000
# 4 0.0000 0.0000 0.0000 36.8342 0.0000 7.1833
# 5 -15.7930 -11.8476 1.4683 0.0000 37.4147 0.0000
# 6 0.0000 0.0000 0.0000 7.1833 0.0000 50.7536
#
#
#
# Elastic Compliance Matrix: (Units=1/GPa)
#
#
# Indices 1 2 3 4 5 6 
#
# 1 0.010578 -0.002014 0.000210 0.000000 0.003819 0.000000
# 2 -0.002014 0.007570 -0.000951 0.000000 0.001584 0.000000
# 3 0.000210 -0.000951 0.008956 0.000000 -0.000564 0.000000
# 4 0.000000 0.000000 0.000000 0.027919 0.000000 -0.003952
# 5 0.003819 0.001584 -0.000564 0.000000 0.028863 0.000000
# 6 0.000000 0.000000 0.000000 -0.003952 0.000000 0.020262
#
#
# Mechanical properties :
#
#
# Convention : Reuss Voigt Hill
#
# Bulk Modulus (GPa) = 46.31104 50.53685 48.42395
# Shear Modulus (GPa) = 42.78716 46.26011 44.52363
#
# Velocity S-wave (km/s) = 3.98558 4.14418 4.06565
# Velocity P-wave (km/s) = 6.19459 6.45452 6.32589
#
# Compressibility (1/GPa) = 0.02159312
#
# Stress axis : x y z
#
# Youngs Moduli (GPa) = 94.53140 132.10866 111.65716
#
# Poissons Ratio (x) = 0.26612 -0.02349
# Poissons Ratio (y) = 0.19042 0.10624
# Poissons Ratio (z) = -0.01989 0.12570
#
# Static dielectric constant tensor:
#      x y z
#    x 2.172550 0.000000 0.130230 
#    y 0.000000 2.012520 0.000000 
#    z 0.130230 0.000000 2.268830 
# 
# From -- ./inp_files/28390.got.cif
#   From: 2010.05.17/outbox.cif.g08.bks.cpg/sg5_15_cif.got.tgz:28390.got - 2010.06.03 18:56:24.
