data_PCOD9126424
_publ_section_title
;
Structure prediction by ZEFSAII (Michael W. Deem and Ramdas Pophale) SiO2 
 PCOD9126424
Probable space group: C 2
;
_chemical_formula_sum "Si O2"
_cell_formula_units_Z 30
_cell_length_a 7.280387
_cell_length_b 15.039314
_cell_length_c 13.821072
_cell_angle_alpha 90.000000
_cell_angle_beta 122.944854
_cell_angle_gamma 90.000000
_cell_volume 1269.950491
_symmetry_space_group_name_H-M "C 2"
_symmetry_group_IT_number 5
_symmetry_cell_setting 'monoclinic'
loop_
_space_group_symop_operation_xyz
x,y,z
-x,y,-z
1/2+x,1/2+y,z
1/2-x,1/2+y,-z
loop_
_atom_site_type_symbol
_atom_site_label
_atom_site_fract_x
_atom_site_fract_y
_atom_site_fract_z
Si Si1 0.046601 0.584870 0.413665
Si Si2 0.721168 0.115420 0.997419
Si Si3 0.322054 0.523529 0.831715
Si Si4 0.859093 0.811468 0.862431
Si Si5 0.607759 0.809410 0.236861
Si Si6 0.592283 0.255481 0.341378
Si Si7 0.244143 0.900535 0.531963
Si Si8 0.000000 0.278990 0.000000
O O1 0.169692 0.655315 0.381381
O O2 0.178383 0.496659 0.478146
O O3 0.000000 0.634836 0.500000
O O4 0.825876 0.552973 0.299388
O O5 0.875797 0.263436 0.189552
O O6 0.811703 0.209749 0.980393
O O7 0.500000 0.115123 0.000000
O O8 0.696144 0.058374 0.891617
O O9 0.342875 0.418108 0.847678
O O10 0.562392 0.568710 0.894322
O O11 0.922170 0.779020 0.774618
O O12 0.000000 0.799818 0.000000
O O13 0.622880 0.874717 0.332950
O O14 0.574437 0.836687 0.114132
O O15 0.838202 0.759311 0.303830
O O16 0.732504 0.326756 0.443625
O O17 0.000000 0.908061 0.500000
#
# Coordination Sequence:
#
# PCOD9126424 Si02
#       8
#     4   4   4   4   4   4   4   2
#     4  12  24  49  76 101 147 191 241 319 373 438
#     4  10  22  42  72 102 152 188 246 307 364 437
#     4  10  22  44  69 111 143 191 246 299 373 445
#     4  12  24  44  73 105 147 197 243 301 373 443
#     4  11  23  44  71  99 149 190 241 306 365 435
#     4  11  26  46  74 108 145 193 250 304 381 449
#     4  10  24  48  73 107 142 190 247 311 375 450
#     4  10  22  40  66 108 144 200 246 300 368 444
#
# _framework density 23.622966000000002
#
# number of rings (size 3 to 8) (size 9 to 14) (size 15 to 20)
#    0.000    1.333    2.667    4.400    0.000    3.733 
#    8.400    0.000    1.467    0.000    0.000    0.000 
#    0.000    0.000    0.000    0.000    0.000    0.000 
#
# Total GULP energy -83726.789523 kJ/mol
# GULP energy per Si atom -5581.785968 kJ/mol
# Density = 2.356920 g / cm^3
# Si number density = 23.622966 Si / 1000 Ang^3
#
#
#
# Elastic Constant Matrix: (Units=GPa)
#
#
# Indices 1 2 3 4 5 6 
#
# 1 143.0081 31.4968 53.9569 0.0000 -11.4004 0.0000
# 2 31.4968 118.1495 75.9365 0.0000 -9.2052 0.0000
# 3 53.9569 75.9365 196.8471 0.0000 -4.0428 0.0000
# 4 0.0000 0.0000 0.0000 38.3264 0.0000 -4.5184
# 5 -11.4004 -9.2052 -4.0428 0.0000 40.1228 0.0000
# 6 0.0000 0.0000 0.0000 -4.5184 0.0000 17.2369
#
#
#
# Elastic Compliance Matrix: (Units=1/GPa)
#
#
# Indices 1 2 3 4 5 6 
#
# 1 0.008019 -0.000800 -0.001850 0.000000 0.001909 0.000000
# 2 -0.000800 0.011522 -0.004185 0.000000 0.001995 0.000000
# 3 -0.001850 -0.004185 0.007186 0.000000 -0.000762 0.000000
# 4 0.000000 0.000000 0.000000 0.026924 0.000000 0.007058
# 5 0.001909 0.001995 -0.000762 0.000000 0.025847 0.000000
# 6 0.000000 0.000000 0.000000 0.007058 0.000000 0.059865
#
#
# Mechanical properties :
#
#
# Convention : Reuss Voigt Hill
#
# Bulk Modulus (GPa) = 76.58452 86.75391 81.66922
# Shear Modulus (GPa) = 31.76936 38.91152 35.34044
#
# Velocity S-wave (km/s) = 3.67120 4.06296 3.87204
# Velocity P-wave (km/s) = 7.10353 7.66905 7.39170
#
# Compressibility (1/GPa) = 0.01305747
#
# Stress axis : x y z
#
# Youngs Moduli (GPa) = 124.70320 86.79086 139.16189
#
# Poissons Ratio (x) = 0.06942 0.25749
# Poissons Ratio (y) = 0.09974 0.58233
# Poissons Ratio (z) = 0.23074 0.36318
#
# Static dielectric constant tensor:
#      x y z
#    x 1.973890 0.000000 0.010670 
#    y 0.000000 1.939050 0.000000 
#    z 0.010670 0.000000 1.939900 
# 
# From -- ./inp_files/36473.got.cif
#   From: 2010.05.17/outbox.cif.g08.bks.cpg/sg5_19_cif.got.tgz:36473.got - 2010.06.03 18:56:24.
