data_PCOD9126559
_publ_section_title
;
Structure prediction by ZEFSAII (Michael W. Deem and Ramdas Pophale) SiO2 
 PCOD9126559
Probable space group: C 2
;
_chemical_formula_sum "Si O2"
_cell_formula_units_Z 28
_cell_length_a 8.869229
_cell_length_b 9.846797
_cell_length_c 25.187306
_cell_angle_alpha 90.000000
_cell_angle_beta 35.498261
_cell_angle_gamma 90.000000
_cell_volume 1277.315340
_symmetry_space_group_name_H-M "C 2"
_symmetry_group_IT_number 5
_symmetry_cell_setting 'monoclinic'
loop_
_space_group_symop_operation_xyz
x,y,z
-x,y,-z
1/2+x,1/2+y,z
1/2-x,1/2+y,-z
loop_
_atom_site_type_symbol
_atom_site_label
_atom_site_fract_x
_atom_site_fract_y
_atom_site_fract_z
Si Si1 0.235169 0.321970 0.877001
Si Si2 0.582948 0.176058 0.695462
Si Si3 0.851679 0.764578 0.954632
Si Si4 0.121494 0.379338 0.221235
Si Si5 0.500000 0.054488 0.000000
Si Si6 0.431626 0.873752 0.640679
Si Si7 0.500000 0.317576 0.500000
Si Si8 0.823171 0.669373 0.657240
O O1 0.399158 0.281546 0.779736
O O2 0.601177 0.363852 0.886524
O O3 0.931714 0.318871 0.949058
O O4 0.311928 0.223221 0.904076
O O5 0.510145 0.180117 0.654680
O O6 0.865268 0.238013 0.627000
O O7 0.517720 0.026736 0.737889
O O8 0.904952 0.643121 0.978726
O O9 0.736980 0.965393 0.907618
O O10 0.167517 0.352277 0.270826
O O11 0.931925 0.258631 0.256746
O O12 0.740163 0.897610 0.558185
O O13 0.293656 0.007989 0.658005
O O14 0.427521 0.230659 0.572495
#
# Coordination Sequence:
#
# PCOD9126559 Si02
#       8
#     4   4   4   4   2   4   2   4
#     4  10  25  41  60  94 131 173 224 279 321 382
#     4  11  24  42  67  98 135 173 221 273 333 382
#     4  10  22  41  62  87 130 177 215 274 324 374
#     4  10  23  42  63  98 133 172 222 274 327 387
#     4  10  24  40  62  90 130 176 228 270 320 382
#     4  10  23  45  70  96 134 166 214 274 323 402
#     4  10  24  46  68 102 138 164 210 272 330 402
#     4  10  25  41  71 100 132 174 218 262 335 394
#
# _framework density 21.920976
#
# number of rings (size 3 to 8) (size 9 to 14) (size 15 to 20)
#    0.000    2.000    1.429    0.000    8.000    8.571 
#    2.571    0.000    0.000    0.857    0.000    0.000 
#    0.000    0.000    0.000    0.000    0.000    0.000 
#
# Total GULP energy -78056.307351 kJ/mol
# GULP energy per Si atom -5575.450525 kJ/mol
# Density = 2.187108 g / cm^3
# Si number density = 21.920976 Si / 1000 Ang^3
#
#
#
# Elastic Constant Matrix: (Units=GPa)
#
#
# Indices 1 2 3 4 5 6 
#
# 1 81.6903 65.2569 28.5015 -0.0003 -7.4779 0.0000
# 2 65.2569 119.1455 26.3077 -0.0002 -13.5299 -0.0001
# 3 28.5015 26.3077 75.2120 -0.0005 -16.4078 0.0001
# 4 -0.0003 -0.0002 -0.0005 22.1209 0.0003 0.3372
# 5 -7.4779 -13.5299 -16.4078 0.0003 38.6764 0.0000
# 6 0.0000 -0.0001 0.0001 0.3372 0.0000 31.4433
#
#
#
# Elastic Compliance Matrix: (Units=1/GPa)
#
#
# Indices 1 2 3 4 5 6 
#
# 1 0.023319 -0.011854 -0.005082 0.000000 -0.001794 0.000000
# 2 -0.011854 0.015267 -0.000201 0.000000 0.002963 0.000000
# 3 -0.005082 -0.000201 0.016598 0.000000 0.005989 0.000000
# 4 0.000000 0.000000 0.000000 0.045213 0.000000 -0.000485
# 5 -0.001794 0.002963 0.005989 0.000000 0.029086 0.000000
# 6 0.000000 0.000000 0.000000 -0.000485 0.000000 0.031808
#
#
# Mechanical properties :
#
#
# Convention : Reuss Voigt Hill
#
# Bulk Modulus (GPa) = 47.82449 57.35332 52.58891
# Shear Modulus (GPa) = 24.68686 28.84690 26.76688
#
# Velocity S-wave (km/s) = 3.35949 3.63154 3.49816
# Velocity P-wave (km/s) = 6.07556 6.61850 6.35283
#
# Compressibility (1/GPa) = 0.02090979
#
# Stress axis : x y z
#
# Youngs Moduli (GPa) = 42.88263 65.50277 60.24644
#
# Poissons Ratio (x) = 0.77646 0.30617
# Poissons Ratio (y) = 0.50832 0.01214
# Poissons Ratio (z) = 0.21793 0.01320
#
# Static dielectric constant tensor:
#      x y z
#    x 1.837410 0.000000 -0.051030 
#    y 0.000000 1.850550 0.000000 
#    z -0.051030 0.000000 1.865430 
# 
# From -- ./inp_files/70159.got.cif
#   From: 2010.05.17/outbox.cif.g08.bks.cpg/sg5_36_cif.got.tgz:70159.got - 2010.06.03 18:56:24.
