data_PCOD9126122
_publ_section_title
;
Structure prediction by ZEFSAII (Michael W. Deem and Ramdas Pophale) SiO2 
 PCOD9126122
Probable space group: C 2
;
_chemical_formula_sum "Si O2"
_cell_formula_units_Z 30
_cell_length_a 8.242509
_cell_length_b 11.582462
_cell_length_c 20.018567
_cell_angle_alpha 90.000000
_cell_angle_beta 44.260780
_cell_angle_gamma 90.000000
_cell_volume 1333.835249
_symmetry_space_group_name_H-M "C 2"
_symmetry_group_IT_number 5
_symmetry_cell_setting 'monoclinic'
loop_
_space_group_symop_operation_xyz
x,y,z
-x,y,-z
1/2+x,1/2+y,z
1/2-x,1/2+y,-z
loop_
_atom_site_type_symbol
_atom_site_label
_atom_site_fract_x
_atom_site_fract_y
_atom_site_fract_z
Si Si1 0.819900 0.676560 0.311081
Si Si2 0.046865 0.844386 0.843017
Si Si3 0.078833 0.341660 0.548900
Si Si4 0.000000 0.603606 0.000000
Si Si5 0.981064 0.419852 0.289668
Si Si6 0.753614 0.442241 0.173625
Si Si7 0.609931 0.741969 0.038430
Si Si8 0.564960 0.334568 0.348642
O O1 0.886281 0.729756 0.219166
O O2 0.555440 0.718535 0.403705
O O3 0.888006 0.545127 0.299463
O O4 0.972389 0.742077 0.322698
O O5 0.269700 0.891499 0.815131
O O6 0.962068 0.934054 0.812903
O O7 0.819664 0.823991 0.952679
O O8 0.995129 0.411614 0.637573
O O9 0.355365 0.344696 0.462462
O O10 0.000000 0.388577 0.500000
O O11 0.076113 0.533305 0.911163
O O12 0.241485 0.665465 0.953072
O O13 0.801132 0.321262 0.319948
O O14 0.630521 0.443827 0.281592
O O15 0.904699 0.322296 0.128174
O O16 0.500000 0.692096 0.000000
#
# Coordination Sequence:
#
# PCOD9126122 Si02
#       8
#     4   4   4   2   4   4   4   4
#     4   9  21  41  64  89 128 171 205 264 329 382
#     4   9  20  42  61  93 136 164 212 278 319 384
#     4   9  20  42  61  88 131 163 202 270 318 376
#     4  12  24  42  74  90 130 188 218 274 346 388
#     4  11  22  39  68  96 124 170 217 258 329 400
#     4  10  22  46  60  95 137 168 221 280 319 392
#     4  10  23  45  65  95 139 173 226 281 329 396
#     4  10  22  38  63  93 127 161 215 269 313 389
#
# _framework density 22.491534000000001
#
# number of rings (size 3 to 8) (size 9 to 14) (size 15 to 20)
#    0.000    2.133    2.000    1.200    3.733    6.400 
#    1.200    9.333    0.000    0.000    0.000    0.000 
#    0.000    0.000    0.000    0.000    0.000    0.000 
#
# Total GULP energy -83514.050925 kJ/mol
# GULP energy per Si atom -5567.603395 kJ/mol
# Density = 2.244034 g / cm^3
# Si number density = 22.491534 Si / 1000 Ang^3
#
#
#
# Elastic Constant Matrix: (Units=GPa)
#
#
# Indices 1 2 3 4 5 6 
#
# 1 78.1764 35.8144 23.3614 0.0000 -26.3061 0.0000
# 2 35.8144 60.6011 9.9293 0.0003 -7.5331 -0.0001
# 3 23.3614 9.9293 111.7967 0.0004 -39.1651 -0.0002
# 4 0.0000 0.0003 0.0004 14.4707 0.0000 -4.2093
# 5 -26.3061 -7.5331 -39.1651 0.0000 39.8194 0.0000
# 6 0.0000 -0.0001 -0.0002 -4.2093 0.0000 11.2080
#
#
#
# Elastic Compliance Matrix: (Units=1/GPa)
#
#
# Indices 1 2 3 4 5 6 
#
# 1 0.022458 -0.011753 0.001174 0.000000 0.013768 0.000000
# 2 -0.011753 0.023075 -0.001197 0.000000 -0.004576 0.000000
# 3 0.001174 -0.001197 0.013729 0.000000 0.014052 0.000000
# 4 0.000000 0.000000 0.000000 0.077581 -0.000001 0.029136
# 5 0.013768 -0.004576 0.014052 -0.000001 0.047165 0.000000
# 6 0.000000 0.000000 0.000000 0.029136 0.000000 0.100165
#
#
# Mechanical properties :
#
#
# Convention : Reuss Voigt Hill
#
# Bulk Modulus (GPa) = 28.00340 43.19829 35.60084
# Shear Modulus (GPa) = 15.64329 25.19755 20.42042
#
# Velocity S-wave (km/s) = 2.64013 3.35074 3.01643
# Velocity P-wave (km/s) = 4.66598 5.84962 5.29101
#
# Compressibility (1/GPa) = 0.03570995
#
# Stress axis : x y z
#
# Youngs Moduli (GPa) = 44.52742 43.33767 72.84065
#
# Poissons Ratio (x) = 0.50936 -0.08553
# Poissons Ratio (y) = 0.52335 0.08716
# Poissons Ratio (z) = -0.05229 0.05185
#
# Static dielectric constant tensor:
#      x y z
#    x 1.964710 0.000000 0.033670 
#    y 0.000000 1.882120 0.000000 
#    z 0.033670 0.000000 1.866440 
# 
# From -- ./inp_files/67962.got.cif
#   From: 2010.05.17/outbox.cif.g08.bks.cpg/sg5_34_cif.got.tgz:67962.got - 2010.06.03 18:56:24.
