data_PCOD9126320
_publ_section_title
;
Structure prediction by ZEFSAII (Michael W. Deem and Ramdas Pophale) SiO2 
 PCOD9126320
Probable space group: C 2
;
_chemical_formula_sum "Si O2"
_cell_formula_units_Z 22
_cell_length_a 15.100408
_cell_length_b 12.504348
_cell_length_c 12.554300
_cell_angle_alpha 90.000000
_cell_angle_beta 27.326829
_cell_angle_gamma 90.000000
_cell_volume 1088.220716
_symmetry_space_group_name_H-M "C 2"
_symmetry_group_IT_number 5
_symmetry_cell_setting 'monoclinic'
loop_
_space_group_symop_operation_xyz
x,y,z
-x,y,-z
1/2+x,1/2+y,z
1/2-x,1/2+y,-z
loop_
_atom_site_type_symbol
_atom_site_label
_atom_site_fract_x
_atom_site_fract_y
_atom_site_fract_z
Si Si1 0.846470 0.131280 0.247340
Si Si2 0.043278 0.330341 0.724168
Si Si3 0.270863 0.523573 0.536598
Si Si4 0.890488 0.874534 0.823251
Si Si5 0.500000 0.247541 0.500000
Si Si6 0.120673 0.751621 0.763870
O O1 0.948706 0.221521 0.213681
O O2 0.671579 0.180800 0.368715
O O3 0.759602 0.048735 0.423293
O O4 0.000000 0.086273 0.000000
O O5 0.147138 0.417791 0.687845
O O6 0.174295 0.307936 0.480052
O O7 0.836034 0.374634 0.913381
O O8 0.493874 0.486699 0.311024
O O9 0.179790 0.626112 0.691423
O O10 0.913260 0.819258 0.685407
O O11 0.993925 0.798969 0.801012
O O12 0.000000 0.771087 0.000000
#
# Coordination Sequence:
#
# PCOD9126320 Si02
#       6
#     4   4   4   4   2   4
#     4  11  22  39  67  93 132 167 214 274 323 384
#     4  10  22  41  64  92 133 169 219 267 327 384
#     4  10  22  40  59 100 124 167 216 273 317 387
#     4  11  23  40  68  95 131 173 219 267 331 385
#     4  12  20  40  70  96 120 172 216 264 324 382
#     4  10  23  43  64  90 137 172 214 268 330 389
#
# _framework density 20.216487000000001
#
# number of rings (size 3 to 8) (size 9 to 14) (size 15 to 20)
#    0.000    1.455    7.273    0.000    0.000   10.182 
#    0.000    0.000    0.000    0.000    0.000    0.000 
#    0.000    0.000    0.000    0.000    0.000    0.000 
#
# Total GULP energy -61316.222155 kJ/mol
# GULP energy per Si atom -5574.202014 kJ/mol
# Density = 2.017047 g / cm^3
# Si number density = 20.216487 Si / 1000 Ang^3
#
#
#
# Elastic Constant Matrix: (Units=GPa)
#
#
# Indices 1 2 3 4 5 6 
#
# 1 62.5899 -2.0280 34.5378 0.0001 -2.9806 0.0000
# 2 -2.0280 34.8997 -8.9399 0.0002 -12.4648 -0.0001
# 3 34.5378 -8.9399 130.0201 0.0001 -9.5703 0.0001
# 4 0.0001 0.0002 0.0001 12.4969 -0.0001 -10.6096
# 5 -2.9806 -12.4648 -9.5703 -0.0001 36.9614 0.0000
# 6 0.0000 -0.0001 0.0001 -10.6096 0.0000 24.5904
#
#
#
# Elastic Compliance Matrix: (Units=1/GPa)
#
#
# Indices 1 2 3 4 5 6 
#
# 1 0.018723 -0.000119 -0.004968 0.000000 0.000183 0.000000
# 2 -0.000119 0.033858 0.003262 0.000000 0.012253 0.000000
# 3 -0.004968 0.003262 0.009467 0.000000 0.003151 0.000000
# 4 0.000000 0.000000 0.000000 0.126274 0.000000 0.054481
# 5 0.000183 0.012253 0.003151 0.000000 0.032018 0.000000
# 6 0.000000 0.000000 0.000000 0.054481 0.000000 0.064172
#
#
# Mechanical properties :
#
#
# Convention : Reuss Voigt Hill
#
# Bulk Modulus (GPa) = 17.12413 30.51662 23.82038
# Shear Modulus (GPa) = 16.25327 28.40572 22.32949
#
# Velocity S-wave (km/s) = 2.83850 3.75250 3.32704
# Velocity P-wave (km/s) = 4.38538 5.82260 5.15433
#
# Compressibility (1/GPa) = 0.05839712
#
# Stress axis : x y z
#
# Youngs Moduli (GPa) = 53.40901 29.53471 105.62983
#
# Poissons Ratio (x) = 0.00352 0.52480
# Poissons Ratio (y) = 0.00637 -0.34452
# Poissons Ratio (z) = 0.26535 -0.09633
#
# Static dielectric constant tensor:
#      x y z
#    x 1.742020 0.000000 -0.057760 
#    y 0.000000 1.776840 0.000000 
#    z -0.057760 0.000000 1.783840 
# 
# From -- ./inp_files/42642.got.cif
#   From: 2010.05.17/outbox.cif.g08.bks.cpg/sg5_22_cif.got.tgz:42642.got - 2010.06.03 18:56:24.
