data_PCOD9126200
_publ_section_title
;
Structure prediction by ZEFSAII (Michael W. Deem and Ramdas Pophale) SiO2 
 PCOD9126200
Probable space group: C 2
;
_chemical_formula_sum "Si O2"
_cell_formula_units_Z 24
_cell_length_a 6.571749
_cell_length_b 18.235878
_cell_length_c 11.385338
_cell_angle_alpha 90.000000
_cell_angle_beta 70.448193
_cell_angle_gamma 90.000000
_cell_volume 1285.762831
_symmetry_space_group_name_H-M "C 2"
_symmetry_group_IT_number 5
_symmetry_cell_setting 'monoclinic'
loop_
_space_group_symop_operation_xyz
x,y,z
-x,y,-z
1/2+x,1/2+y,z
1/2-x,1/2+y,-z
loop_
_atom_site_type_symbol
_atom_site_label
_atom_site_fract_x
_atom_site_fract_y
_atom_site_fract_z
Si Si1 0.000000 0.765651 0.500000
Si Si2 0.508864 0.422521 0.857557
Si Si3 0.421076 0.594009 0.879760
Si Si4 0.914616 0.212140 0.318415
Si Si5 0.500000 0.186192 0.000000
Si Si6 0.198948 0.336318 0.374494
Si Si7 0.277131 0.792001 0.112115
O O1 0.207006 0.714138 0.440574
O O2 0.093173 0.817567 0.585415
O O3 0.457218 0.508010 0.853521
O O4 0.718140 0.391206 0.745348
O O5 0.314162 0.372382 0.852151
O O6 0.500000 0.408734 0.000000
O O7 0.537485 0.635000 0.749973
O O8 0.500000 0.609659 0.000000
O O9 0.186189 0.631591 0.919849
O O10 0.833345 0.259004 0.224838
O O11 0.109076 0.259935 0.335874
O O12 0.605980 0.240255 0.076395
O O13 0.000000 0.361091 0.500000
O O14 0.500000 0.793439 0.000000
#
# Coordination Sequence:
#
# PCOD9126200 Si02
#       7
#     2   4   4   4   2   4   4
#     4  10  22  38  70  88 114 164 222 254 300 366
#     4  11  23  40  63  95 130 163 203 259 315 369
#     4  11  24  39  58  95 134 158 197 257 321 367
#     4  11  20  39  63  89 120 160 211 257 299 365
#     4  12  20  38  58  90 122 170 194 250 310 362
#     4  10  22  42  68  91 121 164 215 259 305 370
#     4  12  21  35  64  91 119 161 210 250 304 365
#
# _framework density 18.665963000000001
#
# number of rings (size 3 to 8) (size 9 to 14) (size 15 to 20)
#    0.000    1.000    5.833    2.000    1.167    0.000 
#    1.500    0.000    5.500    0.000    0.000    0.000 
#    0.000    0.000    0.000    0.000    0.000    0.000 
#
# Total GULP energy -66824.365081 kJ/mol
# GULP energy per Si atom -5568.697090 kJ/mol
# Density = 1.862348 g / cm^3
# Si number density = 18.665963 Si / 1000 Ang^3
#
#
#
# Elastic Constant Matrix: (Units=GPa)
#
#
# Indices 1 2 3 4 5 6 
#
# 1 92.3213 32.9471 35.2138 0.0000 2.0612 0.0000
# 2 32.9471 112.8875 52.5986 0.0000 -11.3060 0.0000
# 3 35.2138 52.5986 99.7769 0.0000 -10.0414 0.0000
# 4 0.0000 0.0000 0.0000 36.1493 0.0000 6.5813
# 5 2.0612 -11.3060 -10.0414 0.0000 40.1379 0.0000
# 6 0.0000 0.0000 0.0000 6.5813 0.0000 55.7288
#
#
#
# Elastic Compliance Matrix: (Units=1/GPa)
#
#
# Indices 1 2 3 4 5 6 
#
# 1 0.013101 -0.002371 -0.003599 0.000000 -0.002241 0.000000
# 2 -0.002371 0.012301 -0.005423 0.000000 0.002230 0.000000
# 3 -0.003599 -0.005423 0.014378 0.000000 0.002254 0.000000
# 4 0.000000 0.000000 0.000000 0.028271 0.000000 -0.003339
# 5 -0.002241 0.002230 0.002254 0.000000 0.026221 0.000000
# 6 0.000000 0.000000 0.000000 -0.003339 0.000000 0.018338
#
#
# Mechanical properties :
#
#
# Convention : Reuss Voigt Hill
#
# Bulk Modulus (GPa) = 58.84817 60.72273 59.78545
# Shear Modulus (GPa) = 35.44557 38.68494 37.06525
#
# Velocity S-wave (km/s) = 4.36241 4.55739 4.46097
# Velocity P-wave (km/s) = 7.54782 7.76499 7.65717
#
# Compressibility (1/GPa) = 0.01699288
#
# Stress axis : x y z
#
# Youngs Moduli (GPa) = 76.33143 81.29702 69.54879
#
# Poissons Ratio (x) = 0.19275 0.25032
# Poissons Ratio (y) = 0.18098 0.37718
# Poissons Ratio (z) = 0.27473 0.44089
#
# Static dielectric constant tensor:
#      x y z
#    x 1.578950 0.000000 0.153220 
#    y 0.000000 1.628400 0.000000 
#    z 0.153220 0.000000 1.410560 
# 
# From -- ./inp_files/33498.got.cif
#   From: 2010.05.17/outbox.cif.g08.bks.cpg/sg5_17_cif.got.tgz:33498.got - 2010.06.03 18:56:24.
