data_PCOD9126546
_publ_section_title
;
Structure prediction by ZEFSAII (Michael W. Deem and Ramdas Pophale) SiO2 
 PCOD9126546
Probable space group: C 2
;
_chemical_formula_sum "Si O2"
_cell_formula_units_Z 26
_cell_length_a 10.271602
_cell_length_b 8.820133
_cell_length_c 20.375301
_cell_angle_alpha 90.000000
_cell_angle_beta 138.550722
_cell_angle_gamma 90.000000
_cell_volume 1221.931820
_symmetry_space_group_name_H-M "C 2"
_symmetry_group_IT_number 5
_symmetry_cell_setting 'monoclinic'
loop_
_space_group_symop_operation_xyz
x,y,z
-x,y,-z
1/2+x,1/2+y,z
1/2-x,1/2+y,-z
loop_
_atom_site_type_symbol
_atom_site_label
_atom_site_fract_x
_atom_site_fract_y
_atom_site_fract_z
Si Si1 0.490993 0.800950 0.111454
Si Si2 0.140150 0.743489 0.270001
Si Si3 0.000000 0.093930 0.000000
Si Si4 0.603673 0.256229 0.404007
Si Si5 0.953311 0.397238 0.604964
Si Si6 0.236138 0.391453 0.327829
Si Si7 0.855145 0.612702 0.057635
O O1 0.610058 0.812524 0.222862
O O2 0.282406 0.713014 0.040391
O O3 0.475267 0.971234 0.076716
O O4 0.585199 0.697698 0.090706
O O5 0.056863 0.790757 0.309826
O O6 0.320215 0.849682 0.316573
O O7 0.218379 0.572326 0.312137
O O8 0.983709 0.721985 0.152326
O O9 0.806169 0.023606 0.957341
O O10 0.823910 0.312857 0.501198
O O11 0.458816 0.344150 0.398326
O O12 0.575468 0.078328 0.407861
O O13 0.859299 0.348301 0.639085
#
# Coordination Sequence:
#
# PCOD9126546 Si02
#       7
#     4   4   2   4   4   4   4
#     4   9  19  38  56  84 116 151 192 240 285 340
#     4  10  22  41  59  87 121 157 194 245 294 351
#     4   8  18  36  56  78 116 150 194 234 286 334
#     4  11  23  40  64  85 117 159 196 244 296 352
#     4  11  24  40  60  91 118 152 201 243 299 350
#     4  10  22  41  59  86 123 155 194 245 295 346
#     4   9  19  38  57  83 117 151 193 239 288 340
#
# _framework density 21.277782999999999
#
# number of rings (size 3 to 8) (size 9 to 14) (size 15 to 20)
#    0.923    1.231    0.000    2.769    0.000    7.385 
#   11.077    0.000    0.000    0.000    0.000    0.000 
#    0.000    0.000    0.000    0.000    0.000    0.000 
#
# Total GULP energy -72452.787880 kJ/mol
# GULP energy per Si atom -5573.291375 kJ/mol
# Density = 2.122935 g / cm^3
# Si number density = 21.277783 Si / 1000 Ang^3
#
#
#
# Elastic Constant Matrix: (Units=GPa)
#
#
# Indices 1 2 3 4 5 6 
#
# 1 68.1655 1.8202 -11.9731 0.0000 1.1634 0.0000
# 2 1.8202 12.9276 -12.3603 0.0000 -3.5009 0.0000
# 3 -11.9731 -12.3603 42.2157 0.0000 9.0395 0.0000
# 4 0.0000 0.0000 0.0000 12.6818 0.0000 0.2139
# 5 1.1634 -3.5009 9.0395 0.0000 31.5722 0.0000
# 6 0.0000 0.0000 0.0000 0.2139 0.0000 11.3053
#
#
#
# Elastic Compliance Matrix: (Units=1/GPa)
#
#
# Indices 1 2 3 4 5 6 
#
# 1 0.015617 0.002654 0.005611 0.000000 -0.001888 0.000000
# 2 0.002654 0.108164 0.031826 0.000000 0.002784 0.000000
# 3 0.005611 0.031826 0.036099 0.000000 -0.007013 0.000000
# 4 0.000000 0.000000 0.000000 0.078879 0.000000 -0.001492
# 5 -0.001888 0.002784 -0.007013 0.000000 0.034060 0.000000
# 6 0.000000 0.000000 0.000000 -0.001492 0.000000 0.088482
#
#
# Mechanical properties :
#
#
# Convention : Reuss Voigt Hill
#
# Bulk Modulus (GPa) = 4.16560 8.69802 6.43181
# Shear Modulus (GPa) = 13.84509 20.83333 17.33921
#
# Velocity S-wave (km/s) = 2.55362 3.13247 2.85774
# Velocity P-wave (km/s) = 3.26444 4.14486 3.73071
#
# Compressibility (1/GPa) = 0.24006148
#
# Stress axis : x y z
#
# Youngs Moduli (GPa) = 64.03270 9.24526 27.70148
#
# Poissons Ratio (x) = -0.02454 -0.15542
# Poissons Ratio (y) = -0.16997 -0.88162
# Poissons Ratio (z) = -0.35926 -0.29424
#
# Static dielectric constant tensor:
#      x y z
#    x 1.790110 0.000000 -0.009280 
#    y 0.000000 1.736060 0.000000 
#    z -0.009280 0.000000 1.776670 
# 
# From -- ./inp_files/64339.got.cif
#   From: 2010.05.17/outbox.cif.g08.bks.cpg/sg5_33_cif.got.tgz:64339.got - 2010.06.03 18:56:24.
