data_PCOD9126252
_publ_section_title
;
Structure prediction by ZEFSAII (Michael W. Deem and Ramdas Pophale) SiO2 
 PCOD9126252
Probable space group: C 2
;
_chemical_formula_sum "Si O2"
_cell_formula_units_Z 18
_cell_length_a 20.700828
_cell_length_b 6.934413
_cell_length_c 6.033959
_cell_angle_alpha 90.000000
_cell_angle_beta 78.305956
_cell_angle_gamma 90.000000
_cell_volume 848.185110
_symmetry_space_group_name_H-M "C 2"
_symmetry_group_IT_number 5
_symmetry_cell_setting 'monoclinic'
loop_
_space_group_symop_operation_xyz
x,y,z
-x,y,-z
1/2+x,1/2+y,z
1/2-x,1/2+y,-z
loop_
_atom_site_type_symbol
_atom_site_label
_atom_site_fract_x
_atom_site_fract_y
_atom_site_fract_z
Si Si1 0.614718 0.738070 0.227224
Si Si2 0.000000 0.325910 0.000000
Si Si3 0.211200 0.247752 0.782145
Si Si4 0.603878 0.017629 0.619873
Si Si5 0.839558 0.916634 0.490125
O O1 0.556795 0.709976 0.089415
O O2 0.617341 0.567789 0.402161
O O3 0.603279 0.935498 0.370200
O O4 0.684571 0.741187 0.050551
O O5 0.961251 0.452151 0.206940
O O6 0.164323 0.404917 0.694930
O O7 0.284952 0.316593 0.685811
O O8 0.196955 0.043416 0.672428
O O9 0.616890 0.242887 0.629740
#
# Coordination Sequence:
#
# PCOD9126252 Si02
#       5
#     4   2   4   4   4
#     4  10  24  40  66  94 127 172 211 263 311 375
#     4  10  22  48  64  86 134 172 216 262 306 370
#     4  10  22  39  62  97 138 159 203 265 320 380
#     4  10  22  43  66  92 127 172 209 260 315 374
#     4  11  22  39  64 102 128 164 211 257 328 380
#
# _framework density 21.221782999999999
#
# number of rings (size 3 to 8) (size 9 to 14) (size 15 to 20)
#    0.000    1.778    2.222    0.667    3.111    3.556 
#    0.000   26.667    0.000    0.000    0.000    0.000 
#    0.000    0.000    0.000    0.000    0.000    0.000 
#
# Total GULP energy -50305.629414 kJ/mol
# GULP energy per Si atom -5589.514379 kJ/mol
# Density = 2.117348 g / cm^3
# Si number density = 21.221783 Si / 1000 Ang^3
#
#
#
# Elastic Constant Matrix: (Units=GPa)
#
#
# Indices 1 2 3 4 5 6 
#
# 1 53.6547 10.8680 -2.0399 0.0000 -13.1185 0.0000
# 2 10.8680 113.0763 20.9327 0.0000 4.2332 0.0000
# 3 -2.0399 20.9327 68.9250 0.0000 -20.5356 0.0000
# 4 0.0000 0.0000 0.0000 8.8868 0.0000 -6.0555
# 5 -13.1185 4.2332 -20.5356 0.0000 37.6816 0.0000
# 6 0.0000 0.0000 0.0000 -6.0555 0.0000 17.6416
#
#
#
# Elastic Compliance Matrix: (Units=1/GPa)
#
#
# Indices 1 2 3 4 5 6 
#
# 1 0.022157 -0.003442 0.004912 0.000000 0.010777 0.000000
# 2 -0.003442 0.010220 -0.004662 0.000000 -0.004887 0.000000
# 3 0.004912 -0.004662 0.019979 0.000000 0.013122 0.000000
# 4 0.000000 0.000000 0.000000 0.146882 0.000000 0.050418
# 5 0.010777 -0.004887 0.013122 0.000000 0.037991 0.000000
# 6 0.000000 0.000000 0.000000 0.050418 0.000000 0.073990
#
#
# Mechanical properties :
#
#
# Convention : Reuss Voigt Hill
#
# Bulk Modulus (GPa) = 21.75214 32.79750 27.27482
# Shear Modulus (GPa) = 15.01829 26.56836 20.79332
#
# Velocity S-wave (km/s) = 2.66312 3.54211 3.13359
# Velocity P-wave (km/s) = 4.44167 5.67600 5.09634
#
# Compressibility (1/GPa) = 0.04597249
#
# Stress axis : x y z
#
# Youngs Moduli (GPa) = 45.13290 97.84334 50.05156
#
# Poissons Ratio (x) = 0.33681 -0.24587
# Poissons Ratio (y) = 0.15536 0.23334
# Poissons Ratio (z) = -0.22170 0.45614
#
# Static dielectric constant tensor:
#      x y z
#    x 1.765890 0.000000 0.010090 
#    y 0.000000 1.732370 0.000000 
#    z 0.010090 0.000000 1.800180 
# 
# From -- ./inp_files/9092.got.cif
#   From: 2010.05.17/outbox.cif.g08.bks.cpg/sg5_5_cif.got.tgz:9092.got - 2010.06.03 18:56:24.
