data_PCOD9126753
_publ_section_title
;
Structure prediction by ZEFSAII (Michael W. Deem and Ramdas Pophale) SiO2 
 PCOD9126753
Probable space group: C 2
;
_chemical_formula_sum "Si O2"
_cell_formula_units_Z 28
_cell_length_a 14.270307
_cell_length_b 19.837575
_cell_length_c 9.262089
_cell_angle_alpha 90.000000
_cell_angle_beta 30.772582
_cell_angle_gamma 90.000000
_cell_volume 1341.492804
_symmetry_space_group_name_H-M "C 2"
_symmetry_group_IT_number 5
_symmetry_cell_setting 'monoclinic'
loop_
_space_group_symop_operation_xyz
x,y,z
-x,y,-z
1/2+x,1/2+y,z
1/2-x,1/2+y,-z
loop_
_atom_site_type_symbol
_atom_site_label
_atom_site_fract_x
_atom_site_fract_y
_atom_site_fract_z
Si Si1 0.058805 0.347090 0.258894
Si Si2 0.587330 0.249282 0.221394
Si Si3 0.784901 0.534542 0.275820
Si Si4 0.672008 0.637295 0.187254
Si Si5 0.707942 0.395002 0.276882
Si Si6 0.922347 0.132381 0.248363
Si Si7 0.721535 0.785704 0.587893
O O1 0.000000 0.361345 0.500000
O O2 0.881275 0.320073 0.408679
O O3 0.223624 0.291655 0.029945
O O4 0.156432 0.406774 0.038256
O O5 0.500000 0.240468 0.500000
O O6 0.441132 0.281472 0.305426
O O7 0.645042 0.179371 0.072773
O O8 0.715472 0.570998 0.221305
O O9 0.698931 0.460336 0.389398
O O10 0.725587 0.585142 0.480482
O O11 0.000000 0.526177 0.000000
O O12 0.500000 0.671794 0.500000
O O13 0.590633 0.631523 0.136565
O O14 0.500000 0.380165 0.500000
O O15 0.801035 0.333185 0.240803
O O16 0.850523 0.208461 0.312403
O O17 0.000000 0.102748 0.000000
#
# Coordination Sequence:
#
# PCOD9126753 Si02
#       7
#     4   4   4   4   4   4   4
#     4  12  25  42  64 101 139 172 232 291 343 409
#     4  12  22  39  64 100 138 178 232 283 349 411
#     4  11  25  46  70  97 138 193 232 282 352 426
#     4  10  22  42  63  98 138 183 227 289 344 404
#     4  12  24  50  72  98 137 191 237 277 359 424
#     4  11  22  40  69 102 137 179 233 286 345 407
#     4  12  23  41  72 100 139 187 227 283 350 413
#
# _framework density 20.87227
#
# number of rings (size 3 to 8) (size 9 to 14) (size 15 to 20)
#    0.000    0.571    4.286    5.571    2.000    0.571 
#    0.000    6.429    0.000    0.000    0.000    0.000 
#    0.000    0.000    0.000    0.000    0.000    0.000 
#
# Total GULP energy -78100.294673 kJ/mol
# GULP energy per Si atom -5578.592477 kJ/mol
# Density = 2.082476 g / cm^3
# Si number density = 20.872270 Si / 1000 Ang^3
#
#
#
# Elastic Constant Matrix: (Units=GPa)
#
#
# Indices 1 2 3 4 5 6 
#
# 1 150.1259 23.6091 61.0094 -0.0005 -11.7032 0.0048
# 2 23.6091 85.5318 26.1364 0.0017 7.7474 -0.0005
# 3 61.0094 26.1364 79.3464 0.0025 2.9009 -0.0035
# 4 -0.0005 0.0017 0.0025 20.7006 0.0001 0.5709
# 5 -11.7032 7.7474 2.9009 0.0001 42.3931 -0.0052
# 6 0.0048 -0.0005 -0.0035 0.5709 -0.0052 23.6625
#
#
#
# Elastic Compliance Matrix: (Units=1/GPa)
#
#
# Indices 1 2 3 4 5 6 
#
# 1 0.010185 -0.000772 -0.007704 0.000001 0.003480 -0.000002
# 2 -0.000772 0.013246 -0.003682 -0.000001 -0.002382 -0.000001
# 3 -0.007704 -0.003682 0.019842 -0.000002 -0.002812 0.000004
# 4 0.000001 -0.000001 -0.000002 0.048340 0.000000 -0.001166
# 5 0.003480 -0.002382 -0.002812 0.000000 0.025177 0.000004
# 6 -0.000002 -0.000001 0.000004 -0.001166 0.000004 0.042289
#
#
# Mechanical properties :
#
#
# Convention : Reuss Voigt Hill
#
# Bulk Modulus (GPa) = 52.75417 59.61267 56.18342
# Shear Modulus (GPa) = 26.35554 30.96782 28.66168
#
# Velocity S-wave (km/s) = 3.55731 3.85604 3.70968
# Velocity P-wave (km/s) = 6.49633 6.96047 6.73240
#
# Compressibility (1/GPa) = 0.01895585
#
# Stress axis : x y z
#
# Youngs Moduli (GPa) = 98.18841 75.49640 50.39814
#
# Poissons Ratio (x) = 0.05831 0.38825
# Poissons Ratio (y) = 0.07584 0.18557
# Poissons Ratio (z) = 0.75641 0.27799
#
# Static dielectric constant tensor:
#      x y z
#    x 1.847750 -0.000010 0.018280 
#    y -0.000010 1.807750 0.000000 
#    z 0.018280 0.000000 1.794260 
# 
# From -- ./inp_files/25486.got.cif
#   From: 2010.05.17/outbox.cif.g08.bks.cpg/sg5_13_cif.got.tgz:25486.got - 2010.06.03 18:56:24.
