data_PCOD9126538
_publ_section_title
;
Structure prediction by ZEFSAII (Michael W. Deem and Ramdas Pophale) SiO2 
 PCOD9126538
Probable space group: C 2
;
_chemical_formula_sum "Si O2"
_cell_formula_units_Z 22
_cell_length_a 13.988203
_cell_length_b 4.919636
_cell_length_c 21.976299
_cell_angle_alpha 90.000000
_cell_angle_beta 31.684466
_cell_angle_gamma 90.000000
_cell_volume 794.342938
_symmetry_space_group_name_H-M "C 2"
_symmetry_group_IT_number 5
_symmetry_cell_setting 'monoclinic'
loop_
_space_group_symop_operation_xyz
x,y,z
-x,y,-z
1/2+x,1/2+y,z
1/2-x,1/2+y,-z
loop_
_atom_site_type_symbol
_atom_site_label
_atom_site_fract_x
_atom_site_fract_y
_atom_site_fract_z
Si Si1 0.483567 0.666050 0.133850
Si Si2 0.389483 0.614526 0.767697
Si Si3 0.136959 0.931782 0.356643
Si Si4 0.993181 0.665452 0.201629
Si Si5 0.256226 0.910246 0.453922
Si Si6 0.000000 0.495188 0.000000
O O1 0.439175 0.818368 0.320446
O O2 0.268890 0.681567 0.268747
O O3 0.568724 0.876756 0.137112
O O4 0.507632 0.798732 0.055121
O O5 0.462398 0.363790 0.879796
O O6 0.434946 0.340720 0.780936
O O7 0.181349 0.676472 0.897076
O O8 0.272968 0.124086 0.321502
O O9 0.928531 0.861969 0.483623
O O10 0.116942 0.068376 0.301047
O O11 0.264698 0.212005 0.476081
#
# Coordination Sequence:
#
# PCOD9126538 Si02
#       6
#     4   4   4   4   4   2
#     4   9  22  41  67 100 139 182 233 302 357 433
#     4  10  22  43  74 106 144 199 245 299 381 437
#     4   8  21  42  70  95 144 185 239 300 357 435
#     4  10  22  42  68 103 142 179 245 302 362 430
#     4  10  22  40  74 105 141 196 252 299 370 454
#     4  10  22  46  72 108 142 200 244 302 372 452
#
# _framework density 27.695844999999998
#
# number of rings (size 3 to 8) (size 9 to 14) (size 15 to 20)
#    1.091    1.455    0.000    0.000    5.091    5.091 
#    3.273    0.909   20.000    0.000    0.000    0.000 
#    0.000    0.000    0.000    0.000    0.000    0.000 
#
# Total GULP energy -61505.562173 kJ/mol
# GULP energy per Si atom -5591.414743 kJ/mol
# Density = 2.763281 g / cm^3
# Si number density = 27.695845 Si / 1000 Ang^3
#
#
#
# Elastic Constant Matrix: (Units=GPa)
#
#
# Indices 1 2 3 4 5 6 
#
# 1 124.8486 -4.2450 18.2875 -0.0357 -20.4877 0.0192
# 2 -4.2450 66.7861 24.6840 -0.1367 -2.2340 0.0538
# 3 18.2875 24.6840 230.6603 -0.0086 -27.4788 0.0066
# 4 -0.0357 -0.1367 -0.0086 27.0052 0.0161 0.5926
# 5 -20.4877 -2.2340 -27.4788 0.0161 54.1400 -0.0050
# 6 0.0192 0.0538 0.0066 0.5926 -0.0050 35.7206
#
#
#
# Elastic Compliance Matrix: (Units=1/GPa)
#
#
# Indices 1 2 3 4 5 6 
#
# 1 0.008602 0.000798 -0.000400 0.000014 0.003085 -0.000006
# 2 0.000798 0.015666 -0.001731 0.000080 0.000069 -0.000025
# 3 -0.000400 -0.001731 0.004817 -0.000009 0.002222 0.000002
# 4 0.000014 0.000080 -0.000009 0.037044 -0.000007 -0.000615
# 5 0.003085 0.000069 0.002222 -0.000007 0.020769 0.000001
# 6 -0.000006 -0.000025 0.000002 -0.000615 0.000001 0.028005
#
#
# Mechanical properties :
#
#
# Convention : Reuss Voigt Hill
#
# Bulk Modulus (GPa) = 37.85304 55.52753 46.69029
# Shear Modulus (GPa) = 39.56443 48.94440 44.25441
#
# Velocity S-wave (km/s) = 3.78369 4.20838 4.00168
# Velocity P-wave (km/s) = 5.72587 6.61109 6.18434
#
# Compressibility (1/GPa) = 0.02641795
#
# Stress axis : x y z
#
# Youngs Moduli (GPa) = 116.25686 63.83107 207.59364
#
# Poissons Ratio (x) = -0.05092 0.08300
# Poissons Ratio (y) = -0.09274 0.35945
# Poissons Ratio (z) = 0.04648 0.11052
#
# Static dielectric constant tensor:
#      x y z
#    x 2.244280 -0.000020 0.029210 
#    y -0.000020 2.136560 0.000040 
#    z 0.029210 0.000040 2.284080 
# 
# From -- ./inp_files/70476.got.cif
#   From: 2010.05.17/outbox.cif.g08.bks.cpg/sg5_36_cif.got.tgz:70476.got - 2010.06.03 18:56:24.
