data_PCOD9126393
_publ_section_title
;
Structure prediction by ZEFSAII (Michael W. Deem and Ramdas Pophale) SiO2 
 PCOD9126393
Probable space group: C 2
;
_chemical_formula_sum "Si O2"
_cell_formula_units_Z 22
_cell_length_a 7.907001
_cell_length_b 23.732581
_cell_length_c 5.563734
_cell_angle_alpha 90.000000
_cell_angle_beta 105.864494
_cell_angle_gamma 90.000000
_cell_volume 1004.287294
_symmetry_space_group_name_H-M "C 2"
_symmetry_group_IT_number 5
_symmetry_cell_setting 'monoclinic'
loop_
_space_group_symop_operation_xyz
x,y,z
-x,y,-z
1/2+x,1/2+y,z
1/2-x,1/2+y,-z
loop_
_atom_site_type_symbol
_atom_site_label
_atom_site_fract_x
_atom_site_fract_y
_atom_site_fract_z
Si Si1 0.204328 0.740060 0.095441
Si Si2 0.500000 0.940959 0.000000
Si Si3 0.791101 0.691366 0.402906
Si Si4 0.799775 0.468906 0.519847
Si Si5 0.104420 0.077721 0.291134
Si Si6 0.823032 0.357668 0.306483
O O1 0.281102 0.709508 0.362605
O O2 0.215286 0.806160 0.162009
O O3 0.279323 0.724812 0.860562
O O4 0.000000 0.722913 0.000000
O O5 0.654173 0.977158 0.182984
O O6 0.394387 0.898203 0.127267
O O7 0.752557 0.625944 0.343190
O O8 0.000000 0.702416 0.500000
O O9 0.681399 0.515174 0.353784
O O10 0.738410 0.404333 0.452297
O O11 0.000000 0.474029 0.500000
O O12 0.000000 0.088037 0.500000
O O13 0.000000 0.081978 0.000000
O O14 0.000000 0.334250 0.500000
#
# Coordination Sequence:
#
# PCOD9126393 Si02
#       6
#     4   2   4   4   4   4
#     4  10  22  40  64  92 123 161 211 257 305 373
#     4   8  18  38  62  90 114 172 210 246 296 402
#     4  10  23  45  64  87 123 173 213 249 311 383
#     4   9  21  41  65  88 126 171 214 245 314 384
#     4  12  27  43  63  99 129 160 211 273 322 362
#     4   9  20  36  60  93 122 162 207 247 313 369
#
# _framework density 21.906082999999999
#
# number of rings (size 3 to 8) (size 9 to 14) (size 15 to 20)
#    0.000    2.545    0.000    1.636   10.182    2.909 
#    4.909    0.000    0.000    0.000    0.000    0.000 
#    0.000    0.000    0.000    0.000    0.000    0.000 
#
# Total GULP energy -61259.518640 kJ/mol
# GULP energy per Si atom -5569.047149 kJ/mol
# Density = 2.185622 g / cm^3
# Si number density = 21.906083 Si / 1000 Ang^3
#
#
#
# Elastic Constant Matrix: (Units=GPa)
#
#
# Indices 1 2 3 4 5 6 
#
# 1 11.2175 -7.2412 19.5739 0.0000 -0.3364 0.0000
# 2 -7.2412 92.4997 47.2017 0.0000 10.8067 0.0000
# 3 19.5739 47.2017 175.7216 0.0000 -4.9709 0.0000
# 4 0.0000 0.0000 0.0000 33.0154 0.0000 11.3071
# 5 -0.3364 10.8067 -4.9709 0.0000 14.7987 0.0000
# 6 0.0000 0.0000 0.0000 11.3071 0.0000 22.7611
#
#
#
# Elastic Compliance Matrix: (Units=1/GPa)
#
#
# Indices 1 2 3 4 5 6 
#
# 1 0.148598 0.027007 -0.024502 0.000000 -0.024574 0.000000
# 2 0.027007 0.019243 -0.008639 0.000000 -0.016340 0.000000
# 3 -0.024502 -0.008639 0.011008 0.000000 0.009450 0.000000
# 4 0.000000 0.000000 0.000000 0.036499 0.000000 -0.018132
# 5 -0.024574 -0.016340 0.009450 0.000000 0.082121 0.000000
# 6 0.000000 0.000000 0.000000 -0.018132 0.000000 0.052942
#
#
# Mechanical properties :
#
#
# Convention : Reuss Voigt Hill
#
# Bulk Modulus (GPa) = 6.00315 44.27862 25.14089
# Shear Modulus (GPa) = 11.95583 28.77533 20.36558
#
# Velocity S-wave (km/s) = 2.33872 3.62826 3.05237
# Velocity P-wave (km/s) = 3.16847 6.14892 4.89124
#
# Compressibility (1/GPa) = 0.16657911
#
# Stress axis : x y z
#
# Youngs Moduli (GPa) = 6.72958 51.96789 90.84172
#
# Poissons Ratio (x) = -1.40349 2.22582
# Poissons Ratio (y) = -0.18174 0.78482
# Poissons Ratio (z) = 0.16489 0.44897
#
# Static dielectric constant tensor:
#      x y z
#    x 1.858030 0.000000 -0.113090 
#    y 0.000000 1.773880 0.000000 
#    z -0.113090 0.000000 2.140470 
# 
# From -- ./inp_files/3038.got.cif
#   From: 2010.05.17/outbox.cif.g08.bks.cpg/sg5_2_cif.got.tgz:3038.got - 2010.06.03 18:56:24.
