data_PCOD9126285
_publ_section_title
;
Structure prediction by ZEFSAII (Michael W. Deem and Ramdas Pophale) SiO2 
 PCOD9126285
Probable space group: C 2
;
_chemical_formula_sum "Si O2"
_cell_formula_units_Z 26
_cell_length_a 10.265858
_cell_length_b 10.292267
_cell_length_c 9.866596
_cell_angle_alpha 90.000000
_cell_angle_beta 80.275980
_cell_angle_gamma 90.000000
_cell_volume 1027.516411
_symmetry_space_group_name_H-M "C 2"
_symmetry_group_IT_number 5
_symmetry_cell_setting 'monoclinic'
loop_
_space_group_symop_operation_xyz
x,y,z
-x,y,-z
1/2+x,1/2+y,z
1/2-x,1/2+y,-z
loop_
_atom_site_type_symbol
_atom_site_label
_atom_site_fract_x
_atom_site_fract_y
_atom_site_fract_z
Si Si1 0.051680 0.646280 0.307941
Si Si2 0.268199 0.822565 0.379818
Si Si3 0.837952 0.033256 0.772125
Si Si4 0.004443 0.254423 0.145576
Si Si5 0.060783 0.839644 0.846923
Si Si6 0.805554 0.493031 0.925703
Si Si7 0.000000 0.405159 0.500000
O O1 0.140693 0.728969 0.398026
O O2 0.929235 0.724110 0.264279
O O3 0.146021 0.618126 0.163276
O O4 0.020711 0.506034 0.373666
O O5 0.219273 0.968485 0.352876
O O6 0.364228 0.779784 0.238709
O O7 0.367284 0.826664 0.489014
O O8 0.953448 0.933795 0.797328
O O9 0.907390 0.171986 0.765437
O O10 0.735181 0.027696 0.914780
O O11 0.080908 0.385620 0.097806
O O12 0.000000 0.181870 0.000000
O O13 0.186676 0.924269 0.864745
O O14 0.000000 0.792762 0.000000
#
# Coordination Sequence:
#
# PCOD9126285 Si02
#       7
#     4   4   4   4   4   4   2
#     4  11  25  44  66  88 130 163 213 271 309 379
#     4  11  25  46  64  96 126 169 219 263 321 373
#     4  10  22  39  65  97 135 166 204 254 317 394
#     4  12  22  38  67 100 136 167 201 257 322 390
#     4   9  21  39  62  99 128 163 204 248 319 389
#     4  11  22  37  66 100 130 165 201 253 322 387
#     4  12  28  44  62  96 120 168 232 270 316 364
#
# _framework density 25.303733999999999
#
# number of rings (size 3 to 8) (size 9 to 14) (size 15 to 20)
#    0.000    1.231    3.077    3.231    6.462    3.077 
#    0.000    0.000    0.000    0.000    0.000    0.000 
#    0.000    0.000    0.000    0.000    0.000    0.000 
#
# Total GULP energy -72781.130815 kJ/mol
# GULP energy per Si atom -5598.548524 kJ/mol
# Density = 2.524614 g / cm^3
# Si number density = 25.303734 Si / 1000 Ang^3
#
#
#
# Elastic Constant Matrix: (Units=GPa)
#
#
# Indices 1 2 3 4 5 6 
#
# 1 90.9812 19.2362 14.3778 0.0000 29.2139 0.0000
# 2 19.2362 57.3089 3.6366 0.0000 19.2348 0.0000
# 3 14.3778 3.6366 50.1754 0.0000 26.7794 0.0000
# 4 0.0000 0.0000 0.0000 26.7311 0.0000 11.0434
# 5 29.2139 19.2348 26.7794 0.0000 47.1971 0.0000
# 6 0.0000 0.0000 0.0000 11.0434 0.0000 27.0215
#
#
#
# Elastic Compliance Matrix: (Units=1/GPa)
#
#
# Indices 1 2 3 4 5 6 
#
# 1 0.013932 -0.001997 0.000460 0.000000 -0.008071 0.000000
# 2 -0.001997 0.021139 0.004272 0.000000 -0.009803 0.000000
# 3 0.000460 0.004272 0.029505 0.000000 -0.018767 0.000000
# 4 0.000000 0.000000 0.000000 0.045009 0.000000 -0.018395
# 5 -0.008071 -0.009803 -0.018767 0.000000 0.040827 0.000000
# 6 0.000000 0.000000 0.000000 -0.018395 0.000000 0.044525
#
#
# Mechanical properties :
#
#
# Convention : Reuss Voigt Hill
#
# Bulk Modulus (GPa) = 14.27631 30.32963 22.30297
# Shear Modulus (GPa) = 23.49463 30.93761 27.21612
#
# Velocity S-wave (km/s) = 3.05044 3.50043 3.28316
# Velocity P-wave (km/s) = 4.24984 5.32444 4.81720
#
# Compressibility (1/GPa) = 0.07004610
#
# Stress axis : x y z
#
# Youngs Moduli (GPa) = 71.77528 47.30685 33.89296
#
# Poissons Ratio (x) = 0.09446 -0.01559
# Poissons Ratio (y) = 0.14332 -0.14479
# Poissons Ratio (z) = -0.03302 -0.20209
#
# Static dielectric constant tensor:
#      x y z
#    x 2.002520 0.000000 0.004740 
#    y 0.000000 1.987280 0.000000 
#    z 0.004740 0.000000 2.112840 
# 
# From -- ./inp_files/19385.got.cif
#   From: 2010.05.17/outbox.cif.g08.bks.cpg/sg5_10_cif.got.tgz:19385.got - 2010.06.03 18:56:24.
