data_PCOD9126596
_publ_section_title
;
Structure prediction by ZEFSAII (Michael W. Deem and Ramdas Pophale) SiO2 
 PCOD9126596
Probable space group: C 2
;
_chemical_formula_sum "Si O2"
_cell_formula_units_Z 32
_cell_length_a 8.513936
_cell_length_b 24.000723
_cell_length_c 14.990329
_cell_angle_alpha 90.000000
_cell_angle_beta 150.121239
_cell_angle_gamma 90.000000
_cell_volume 1525.949859
_symmetry_space_group_name_H-M "C 2"
_symmetry_group_IT_number 5
_symmetry_cell_setting 'monoclinic'
loop_
_space_group_symop_operation_xyz
x,y,z
-x,y,-z
1/2+x,1/2+y,z
1/2-x,1/2+y,-z
loop_
_atom_site_type_symbol
_atom_site_label
_atom_site_fract_x
_atom_site_fract_y
_atom_site_fract_z
Si Si1 0.858469 0.152140 0.153402
Si Si2 0.270237 0.559583 0.969516
Si Si3 0.797618 0.144970 0.488543
Si Si4 0.824165 0.732582 0.316126
Si Si5 0.553675 0.532745 0.621232
Si Si6 0.695645 0.425346 0.008440
Si Si7 0.857496 0.859331 0.331444
Si Si8 0.641482 0.441010 0.340977
O O1 0.038450 0.153432 0.335396
O O2 0.985249 0.204772 0.161587
O O3 0.500000 0.158109 0.000000
O O4 0.896666 0.095076 0.115785
O O5 0.886062 0.566541 0.781719
O O6 0.500000 0.575880 0.000000
O O7 0.276328 0.492547 0.974433
O O8 0.508899 0.187339 0.347610
O O9 0.000000 0.156877 0.500000
O O10 0.768543 0.077674 0.478779
O O11 0.810601 0.795746 0.277150
O O12 0.000000 0.734104 0.500000
O O13 0.500000 0.501254 0.500000
O O14 0.533250 0.492642 0.695795
O O15 0.513179 0.418921 0.825725
O O16 0.500000 0.407860 0.000000
O O17 0.029918 0.393924 0.169078
O O18 0.000000 0.858085 0.500000
O O19 0.108601 0.890974 0.394136
O O20 0.000000 0.457697 0.500000
#
# Coordination Sequence:
#
# PCOD9126596 Si02
#       8
#     4   4   4   4   4   4   4   4
#     4  11  22  40  64  96 132 173 216 272 331 390
#     4  11  25  40  66 101 139 173 217 273 335 403
#     4  10  22  41  64  93 134 174 219 269 324 393
#     4   9  23  43  67  95 129 178 225 273 328 399
#     4  11  24  41  66 102 139 175 219 269 335 405
#     4  11  25  43  68  98 136 176 224 279 340 402
#     4  11  23  46  71  95 134 176 229 283 335 399
#     4  12  26  41  68 102 134 178 222 277 342 406
#
# _framework density 20.970545999999999
#
# number of rings (size 3 to 8) (size 9 to 14) (size 15 to 20)
#    0.000    1.250    2.500    2.250    7.000    2.500 
#    0.000    6.250    0.000    0.000    0.000    0.000 
#    0.000    0.000    0.000    0.000    0.000    0.000 
#
# Total GULP energy -89245.011971 kJ/mol
# GULP energy per Si atom -5577.813248 kJ/mol
# Density = 2.092282 g / cm^3
# Si number density = 20.970546 Si / 1000 Ang^3
#
#
#
# Elastic Constant Matrix: (Units=GPa)
#
#
# Indices 1 2 3 4 5 6 
#
# 1 129.6748 49.2115 36.6382 0.0000 4.9561 0.0000
# 2 49.2115 112.4449 12.6376 0.0000 8.1967 0.0000
# 3 36.6382 12.6376 70.4527 -0.0001 -6.3911 0.0000
# 4 0.0000 0.0000 -0.0001 16.5578 0.0000 9.2079
# 5 4.9561 8.1967 -6.3911 0.0000 32.4939 0.0000
# 6 0.0000 0.0000 0.0000 9.2079 0.0000 5.3162
#
#
#
# Elastic Compliance Matrix: (Units=1/GPa)
#
#
# Indices 1 2 3 4 5 6 
#
# 1 0.010704 -0.004007 -0.004993 -0.000001 -0.001604 0.000002
# 2 -0.004007 0.010807 -0.000048 0.000001 -0.002124 -0.000001
# 3 -0.004993 -0.000048 0.017176 0.000004 0.004152 -0.000008
# 4 -0.000001 0.000001 0.000004 1.641124 0.000005 -2.842486
# 5 -0.001604 -0.002124 0.004152 0.000005 0.032372 -0.000008
# 6 0.000002 -0.000001 -0.000008 -2.842486 -0.000008 5.111390
#
#
# Mechanical properties :
#
#
# Convention : Reuss Voigt Hill
#
# Bulk Modulus (GPa) = 48.56322 56.61635 52.58978
# Shear Modulus (GPa) = 0.73008 25.14592 12.93800
#
# Velocity S-wave (km/s) = 0.59068 3.46657 2.48656
# Velocity P-wave (km/s) = 4.86552 6.56349 5.77723
#
# Compressibility (1/GPa) = 0.02059171
#
# Stress axis : x y z
#
# Youngs Moduli (GPa) = 93.42083 92.53320 58.22104
#
# Poissons Ratio (x) = 0.37074 0.29073
# Poissons Ratio (y) = 0.37430 0.00277
# Poissons Ratio (z) = 0.46649 0.00441
#
# Static dielectric constant tensor:
#      x y z
#    x 1.784100 0.000000 -0.016760 
#    y 0.000000 1.757230 0.000000 
#    z -0.016760 0.000000 1.805230 
# 
# From -- ./inp_files/51706.got.cif
#   From: 2010.05.17/outbox.cif.g08.bks.cpg/sg5_26_cif.got.tgz:51706.got - 2010.06.03 18:56:24.
