data_PCOD9126426
_publ_section_title
;
Structure prediction by ZEFSAII (Michael W. Deem and Ramdas Pophale) SiO2 
 PCOD9126426
Probable space group: C 2
;
_chemical_formula_sum "Si O2"
_cell_formula_units_Z 24
_cell_length_a 9.516855
_cell_length_b 10.550204
_cell_length_c 21.960585
_cell_angle_alpha 90.000000
_cell_angle_beta 150.114593
_cell_angle_gamma 90.000000
_cell_volume 1098.652320
_symmetry_space_group_name_H-M "C 2"
_symmetry_group_IT_number 5
_symmetry_cell_setting 'monoclinic'
loop_
_space_group_symop_operation_xyz
x,y,z
-x,y,-z
1/2+x,1/2+y,z
1/2-x,1/2+y,-z
loop_
_atom_site_type_symbol
_atom_site_label
_atom_site_fract_x
_atom_site_fract_y
_atom_site_fract_z
Si Si1 0.873624 0.563690 0.586543
Si Si2 0.153862 0.013452 0.697404
Si Si3 0.134675 0.965560 0.286032
Si Si4 0.000000 0.279128 0.500000
Si Si5 0.500000 0.620406 0.000000
Si Si6 0.609084 0.916918 0.789037
Si Si7 0.014425 0.760590 0.147373
O O1 0.626552 0.517145 0.448780
O O2 0.749204 0.689892 0.569468
O O3 0.170520 0.580775 0.663434
O O4 0.941417 0.462891 0.665514
O O5 0.299444 0.151946 0.749546
O O6 0.374199 0.911783 0.753482
O O7 0.071674 0.992143 0.736251
O O8 0.368773 0.868353 0.399790
O O9 0.995002 0.890643 0.178296
O O10 0.312435 0.530223 0.887037
O O11 0.296875 0.702114 0.967490
O O12 0.810784 0.800015 0.847120
#
# Coordination Sequence:
#
# PCOD9126426 Si02
#       7
#     4   4   4   2   2   4   4
#     4  11  20  37  59  92 124 160 197 237 294 372
#     4  11  20  39  60  94 128 151 198 242 293 379
#     4  11  23  36  59  92 124 164 196 235 297 360
#     4  12  18  34  58  80 126 166 186 234 292 340
#     4  10  22  44  62  86 118 154 212 262 292 350
#     4  10  22  40  66  87 119 162 203 250 302 347
#     4  10  23  42  64  89 117 163 198 251 309 346
#
# _framework density 21.844946
#
# number of rings (size 3 to 8) (size 9 to 14) (size 15 to 20)
#    0.000    1.333    5.000    1.000    0.000    4.000 
#    0.000    5.000    0.000    0.000    0.000    0.000 
#    0.000    0.000    0.000    0.000    0.000    0.000 
#
# Total GULP energy -66982.631544 kJ/mol
# GULP energy per Si atom -5581.885962 kJ/mol
# Density = 2.179523 g / cm^3
# Si number density = 21.844946 Si / 1000 Ang^3
#
#
#
# Elastic Constant Matrix: (Units=GPa)
#
#
# Indices 1 2 3 4 5 6 
#
# 1 129.0667 19.8890 25.8576 0.0001 30.0927 -0.0001
# 2 19.8890 54.4494 17.9813 0.0003 13.1552 -0.0001
# 3 25.8576 17.9813 59.7057 0.0025 24.5970 -0.0007
# 4 0.0001 0.0003 0.0025 28.7823 0.0000 3.4406
# 5 30.0927 13.1552 24.5970 0.0000 23.0057 -0.0003
# 6 -0.0001 -0.0001 -0.0007 3.4406 -0.0003 32.6821
#
#
#
# Elastic Compliance Matrix: (Units=1/GPa)
#
#
# Indices 1 2 3 4 5 6 
#
# 1 0.011331 -0.000834 0.002240 0.000000 -0.016739 0.000000
# 2 -0.000834 0.021582 -0.002688 0.000000 -0.008376 0.000000
# 3 0.002240 -0.002688 0.030672 -0.000003 -0.034188 0.000001
# 4 0.000000 0.000000 -0.000003 0.035186 0.000003 -0.003704
# 5 -0.016739 -0.008376 -0.034188 0.000003 0.106705 0.000000
# 6 0.000000 0.000000 0.000001 -0.003704 0.000000 0.030988
#
#
# Mechanical properties :
#
#
# Convention : Reuss Voigt Hill
#
# Bulk Modulus (GPa) = 16.38780 41.18639 28.78710
# Shear Modulus (GPa) = 19.27765 28.86027 24.06896
#
# Velocity S-wave (km/s) = 2.97387 3.63869 3.32295
# Velocity P-wave (km/s) = 4.39432 6.04552 5.28481
#
# Compressibility (1/GPa) = 0.06102101
#
# Stress axis : x y z
#
# Youngs Moduli (GPa) = 88.25731 46.33560 32.60271
#
# Poissons Ratio (x) = 0.03866 -0.07304
# Poissons Ratio (y) = 0.07364 0.08762
# Poissons Ratio (z) = -0.19772 0.12453
#
# Static dielectric constant tensor:
#      x y z
#    x 1.877860 0.000000 0.015430 
#    y 0.000000 1.825010 0.000000 
#    z 0.015430 0.000000 1.795150 
# 
# From -- ./inp_files/35373.got.cif
#   From: 2010.05.17/outbox.cif.g08.bks.cpg/sg5_18_cif.got.tgz:35373.got - 2010.06.03 18:56:24.
