data_PCOD9126386
_publ_section_title
;
Structure prediction by ZEFSAII (Michael W. Deem and Ramdas Pophale) SiO2 
 PCOD9126386
Probable space group: C 2
;
_chemical_formula_sum "Si O2"
_cell_formula_units_Z 30
_cell_length_a 10.742913
_cell_length_b 18.460150
_cell_length_c 14.549259
_cell_angle_alpha 90.000000
_cell_angle_beta 150.536789
_cell_angle_gamma 90.000000
_cell_volume 1419.200442
_symmetry_space_group_name_H-M "C 2"
_symmetry_group_IT_number 5
_symmetry_cell_setting 'monoclinic'
loop_
_space_group_symop_operation_xyz
x,y,z
-x,y,-z
1/2+x,1/2+y,z
1/2-x,1/2+y,-z
loop_
_atom_site_type_symbol
_atom_site_label
_atom_site_fract_x
_atom_site_fract_y
_atom_site_fract_z
Si Si1 0.535694 0.347770 0.830760
Si Si2 0.628666 0.829391 0.222656
Si Si3 0.500000 0.404531 0.000000
Si Si4 0.449718 0.108283 0.575464
Si Si5 0.112434 0.768631 0.434877
Si Si6 0.006558 0.013648 0.746494
Si Si7 0.726384 0.038925 0.906334
Si Si8 0.746043 0.998347 0.278171
O O1 0.437609 0.356644 0.871467
O O2 0.377643 0.298198 0.661165
O O3 0.522057 0.428675 0.779265
O O4 0.827895 0.320870 0.019107
O O5 0.714592 0.812614 0.382175
O O6 0.822613 0.781447 0.286140
O O7 0.686608 0.912614 0.234606
O O8 0.285855 0.460733 0.898210
O O9 0.500000 0.114067 0.500000
O O10 0.325201 0.184260 0.521996
O O11 0.679751 0.093533 0.793197
O O12 0.261763 0.040168 0.463103
O O13 0.204449 0.027351 0.792223
O O14 0.061918 0.052055 0.879726
O O15 0.477849 0.034243 0.809002
O O16 0.000000 0.006463 0.500000
#
# Coordination Sequence:
#
# PCOD9126386 Si02
#       8
#     4   4   2   4   4   4   4   4
#     4  11  22  39  67  99 127 170 220 278 339 383
#     4  11  20  39  67 101 126 156 225 288 329 385
#     4  10  22  40  64 102 132 168 220 286 338 392
#     4  12  25  44  61  94 142 178 220 269 336 415
#     4  11  24  40  66  98 131 175 219 273 339 394
#     4  11  23  38  68 100 131 170 222 283 334 385
#     4  11  24  41  65  98 135 172 224 276 339 397
#     4  12  19  38  72 101 129 164 223 294 335 380
#
# _framework density 21.138663000000001
#
# number of rings (size 3 to 8) (size 9 to 14) (size 15 to 20)
#    0.000    0.800    8.000    2.400    0.000    1.067 
#    4.800    0.667    8.800    0.000    0.000    0.000 
#    0.000    0.000    0.000    0.000    0.000    0.000 
#
# Total GULP energy -83783.936088 kJ/mol
# GULP energy per Si atom -5585.595739 kJ/mol
# Density = 2.109055 g / cm^3
# Si number density = 21.138663 Si / 1000 Ang^3
#
#
#
# Elastic Constant Matrix: (Units=GPa)
#
#
# Indices 1 2 3 4 5 6 
#
# 1 106.7633 13.1164 28.1699 0.0002 -43.4665 0.0001
# 2 13.1164 36.6566 22.3475 0.0010 -15.8610 0.0005
# 3 28.1699 22.3475 88.0351 0.0014 -28.9083 0.0007
# 4 0.0002 0.0010 0.0014 6.1615 0.0002 -7.8439
# 5 -43.4665 -15.8610 -28.9083 0.0002 42.5175 -0.0002
# 6 0.0001 0.0005 0.0007 -7.8439 -0.0002 21.1777
#
#
#
# Elastic Compliance Matrix: (Units=1/GPa)
#
#
# Indices 1 2 3 4 5 6 
#
# 1 0.016125 0.001605 0.000055 -0.000002 0.017121 -0.000001
# 2 0.001605 0.034901 -0.005869 -0.000010 0.010669 -0.000004
# 3 0.000055 -0.005869 0.015618 -0.000006 0.008485 -0.000003
# 4 -0.000002 -0.000010 -0.000006 0.307109 -0.000011 0.113749
# 5 0.017121 0.010669 0.008485 -0.000011 0.050773 -0.000004
# 6 -0.000001 -0.000004 -0.000003 0.113749 -0.000004 0.089351
#
#
# Mechanical properties :
#
#
# Convention : Reuss Voigt Hill
#
# Bulk Modulus (GPa) = 17.17482 39.85806 28.51644
# Shear Modulus (GPa) = 9.23012 25.15940 17.19476
#
# Velocity S-wave (km/s) = 2.09188 3.45368 2.85516
# Velocity P-wave (km/s) = 3.73859 5.89918 4.93849
#
# Compressibility (1/GPa) = 0.05822477
#
# Stress axis : x y z
#
# Youngs Moduli (GPa) = 62.01358 28.65258 64.02931
#
# Poissons Ratio (x) = -0.04598 -0.00352
# Poissons Ratio (y) = -0.09952 0.37582
# Poissons Ratio (z) = -0.00341 0.16817
#
# Static dielectric constant tensor:
#      x y z
#    x 1.787310 0.000000 -0.002770 
#    y 0.000000 1.728780 0.000000 
#    z -0.002770 0.000000 1.785830 
# 
# From -- ./inp_files/53422.got.cif
#   From: 2010.05.17/outbox.cif.g08.bks.cpg/sg5_27_cif.got.tgz:53422.got - 2010.06.03 18:56:24.
