data_PCOD9126639
_publ_section_title
;
Structure prediction by ZEFSAII (Michael W. Deem and Ramdas Pophale) SiO2 
 PCOD9126639
Probable space group: C 2
;
_chemical_formula_sum "Si O2"
_cell_formula_units_Z 28
_cell_length_a 11.713051
_cell_length_b 19.786051
_cell_length_c 5.223175
_cell_angle_alpha 90.000000
_cell_angle_beta 108.945378
_cell_angle_gamma 90.000000
_cell_volume 1144.922634
_symmetry_space_group_name_H-M "C 2"
_symmetry_group_IT_number 5
_symmetry_cell_setting 'monoclinic'
loop_
_space_group_symop_operation_xyz
x,y,z
-x,y,-z
1/2+x,1/2+y,z
1/2-x,1/2+y,-z
loop_
_atom_site_type_symbol
_atom_site_label
_atom_site_fract_x
_atom_site_fract_y
_atom_site_fract_z
Si Si1 0.843336 0.029910 0.960256
Si Si2 0.810842 0.328312 0.129539
Si Si3 0.787420 0.917555 0.580027
Si Si4 0.000000 0.986178 0.500000
Si Si5 0.228561 0.157374 0.381496
Si Si6 0.639174 0.208945 0.005953
Si Si7 0.636160 0.973933 0.104677
Si Si8 0.500000 0.740202 0.000000
O O1 0.723084 0.028199 0.043517
O O2 0.816105 0.081418 0.712114
O O3 0.954867 0.035003 0.236731
O O4 0.852995 0.953669 0.861715
O O5 0.771714 0.347445 0.390566
O O6 0.694441 0.283182 0.974055
O O7 0.928471 0.284738 0.156804
O O8 0.839228 0.399707 0.007032
O O9 0.673486 0.962964 0.423954
O O10 0.887903 0.934237 0.446076
O O11 0.279959 0.178345 0.697896
O O12 0.107410 0.199173 0.216310
O O13 0.330825 0.170811 0.237940
O O14 0.500000 0.210501 0.000000
O O15 0.500000 0.993938 0.000000
#
# Coordination Sequence:
#
# PCOD9126639 Si02
#       8
#     4   4   4   2   4   4   4   2
#     4  10  24  42  67 103 140 186 240 292 374 433
#     4  10  23  43  72 100 144 184 243 300 367 433
#     4  10  23  40  68 102 139 181 233 299 363 436
#     4  10  22  42  70 104 140 178 234 302 372 438
#     4  11  27  47  72 107 142 195 246 306 363 432
#     4  11  27  48  70 103 143 196 246 298 365 438
#     4  10  22  41  67 105 139 186 236 303 355 437
#     4  10  24  44  74 106 140 192 246 308 362 428
#
# _framework density 24.4558
#
# number of rings (size 3 to 8) (size 9 to 14) (size 15 to 20)
#    0.000    1.714    0.714    0.857   10.000    9.714 
#    2.571    0.000    0.000    0.000    0.000    0.000 
#    0.000    0.000    0.000    0.000    0.000    0.000 
#
# Total GULP energy -77999.665299 kJ/mol
# GULP energy per Si atom -5571.404664 kJ/mol
# Density = 2.440014 g / cm^3
# Si number density = 24.455800 Si / 1000 Ang^3
#
#
#
# Elastic Constant Matrix: (Units=GPa)
#
#
# Indices 1 2 3 4 5 6 
#
# 1 153.6488 22.1392 6.5025 0.0000 18.3547 0.0000
# 2 22.1392 64.6857 0.7121 0.0000 -5.2694 0.0000
# 3 6.5025 0.7121 101.8227 0.0000 5.5420 0.0000
# 4 0.0000 0.0000 0.0000 26.8072 0.0000 -13.9458
# 5 18.3547 -5.2694 5.5420 0.0000 37.3275 0.0000
# 6 0.0000 0.0000 0.0000 -13.9458 0.0000 28.7508
#
#
#
# Elastic Compliance Matrix: (Units=1/GPa)
#
#
# Indices 1 2 3 4 5 6 
#
# 1 0.007410 -0.002860 -0.000235 0.000000 -0.004012 0.000000
# 2 -0.002860 0.016749 -0.000141 0.000000 0.003792 0.000000
# 3 -0.000235 -0.000141 0.009912 0.000000 -0.001376 0.000000
# 4 0.000000 0.000000 0.000000 0.049893 0.000000 0.024201
# 5 -0.004012 0.003792 -0.001376 0.000000 0.029502 0.000000
# 6 0.000000 0.000000 0.000000 0.024201 0.000000 0.046520
#
#
# Mechanical properties :
#
#
# Convention : Reuss Voigt Hill
#
# Bulk Modulus (GPa) = 36.23394 42.09610 39.16502
# Shear Modulus (GPa) = 28.46437 37.96400 33.21418
#
# Velocity S-wave (km/s) = 3.41531 3.94426 3.68928
# Velocity P-wave (km/s) = 5.51369 6.16388 5.84783
#
# Compressibility (1/GPa) = 0.02759843
#
# Stress axis : x y z
#
# Youngs Moduli (GPa) = 134.95723 59.70588 100.88919
#
# Poissons Ratio (x) = 0.17078 0.02369
# Poissons Ratio (y) = 0.38602 0.01421
# Poissons Ratio (z) = 0.03169 0.00841
#
# Static dielectric constant tensor:
#      x y z
#    x 1.977030 0.000000 -0.081450 
#    y 0.000000 2.003600 0.000000 
#    z -0.081450 0.000000 2.110280 
# 
# From -- ./inp_files/5679.got.cif
#   From: 2010.05.17/outbox.cif.g08.bks.cpg/sg5_3_cif.got.tgz:5679.got - 2010.06.03 18:56:24.
