data_PCOD9126522
_publ_section_title
;
Structure prediction by ZEFSAII (Michael W. Deem and Ramdas Pophale) SiO2 
 PCOD9126522
Probable space group: C 2
;
_chemical_formula_sum "Si O2"
_cell_formula_units_Z 20
_cell_length_a 7.554603
_cell_length_b 12.152695
_cell_length_c 8.710964
_cell_angle_alpha 90.000000
_cell_angle_beta 95.135908
_cell_angle_gamma 90.000000
_cell_volume 796.532189
_symmetry_space_group_name_H-M "C 2"
_symmetry_group_IT_number 5
_symmetry_cell_setting 'monoclinic'
loop_
_space_group_symop_operation_xyz
x,y,z
-x,y,-z
1/2+x,1/2+y,z
1/2-x,1/2+y,-z
loop_
_atom_site_type_symbol
_atom_site_label
_atom_site_fract_x
_atom_site_fract_y
_atom_site_fract_z
Si Si1 0.306475 0.410410 0.065279
Si Si2 0.333013 0.817096 0.242397
Si Si3 0.232126 0.529985 0.601601
Si Si4 0.049613 0.756194 0.675329
Si Si5 0.885614 0.082211 0.282326
O O1 0.317743 0.331590 0.215291
O O2 0.282508 0.533206 0.128827
O O3 0.500000 0.407596 0.000000
O O4 0.171592 0.369342 0.926152
O O5 0.446847 0.708526 0.276370
O O6 0.138489 0.761832 0.253593
O O7 0.360809 0.915612 0.363666
O O8 0.126949 0.634075 0.660454
O O9 0.277169 0.556627 0.428581
O O10 0.426461 0.518901 0.693754
O O11 0.000000 0.797832 0.500000
#
# Coordination Sequence:
#
# PCOD9126522 Si02
#       5
#     4   4   4   4   4
#     4  10  22  40  71  90 130 176 213 260 331 382
#     4  11  24  44  67  96 131 173 215 267 329 382
#     4  11  24  42  67  97 130 170 224 266 318 387
#     4  11  21  44  68  90 130 174 214 270 319 381
#     4  11  23  42  70  95 130 174 216 269 324 380
#
# _framework density 25.108839
#
# number of rings (size 3 to 8) (size 9 to 14) (size 15 to 20)
#    0.000    1.200    6.000    1.200    2.800    0.000 
#    7.200    0.000    0.000    0.000    0.000    0.000 
#    0.000    0.000    0.000    0.000    0.000    0.000 
#
# Total GULP energy -55973.314169 kJ/mol
# GULP energy per Si atom -5597.331417 kJ/mol
# Density = 2.505169 g / cm^3
# Si number density = 25.108839 Si / 1000 Ang^3
#
#
#
# Elastic Constant Matrix: (Units=GPa)
#
#
# Indices 1 2 3 4 5 6 
#
# 1 56.4150 19.7022 21.9335 0.0000 -14.3796 0.0000
# 2 19.7022 194.1757 77.5154 0.0000 -4.0741 0.0000
# 3 21.9335 77.5154 154.3044 0.0000 7.0520 0.0000
# 4 0.0000 0.0000 0.0000 49.3299 0.0000 -5.3426
# 5 -14.3796 -4.0741 7.0520 0.0000 26.1767 0.0000
# 6 0.0000 0.0000 0.0000 -5.3426 0.0000 31.7700
#
#
#
# Elastic Compliance Matrix: (Units=1/GPa)
#
#
# Indices 1 2 3 4 5 6 
#
# 1 0.022710 -0.000616 -0.003528 0.000000 0.013330 0.000000
# 2 -0.000616 0.006553 -0.003276 0.000000 0.001564 0.000000
# 3 -0.003528 -0.003276 0.008849 0.000000 -0.004832 0.000000
# 4 0.000000 0.000000 0.000000 0.020648 0.000000 0.003472
# 5 0.013330 0.001564 -0.004832 0.000000 0.047069 0.000000
# 6 0.000000 0.000000 0.000000 0.003472 0.000000 0.032060
#
#
# Mechanical properties :
#
#
# Convention : Reuss Voigt Hill
#
# Bulk Modulus (GPa) = 42.96995 71.46636 57.21815
# Shear Modulus (GPa) = 31.15534 40.50491 35.83012
#
# Velocity S-wave (km/s) = 3.52634 4.02079 3.78165
# Velocity P-wave (km/s) = 5.80781 7.07673 6.47344
#
# Compressibility (1/GPa) = 0.02327208
#
# Stress axis : x y z
#
# Youngs Moduli (GPa) = 44.03306 152.60111 113.01276
#
# Poissons Ratio (x) = 0.09406 0.39867
# Poissons Ratio (y) = 0.02714 0.37021
# Poissons Ratio (z) = 0.15534 0.49989
#
# Static dielectric constant tensor:
#      x y z
#    x 2.027670 0.000000 0.014120 
#    y 0.000000 2.025210 0.000000 
#    z 0.014120 0.000000 1.960180 
# 
# From -- ./inp_files/14239.got.cif
#   From: 2010.05.17/outbox.cif.g08.bks.cpg/sg5_8_cif.got.tgz:14239.got - 2010.06.03 18:56:24.
