data_PCOD9126146
_publ_section_title
;
Structure prediction by ZEFSAII (Michael W. Deem and Ramdas Pophale) SiO2 
 PCOD9126146
Probable space group: C 2
;
_chemical_formula_sum "Si O2"
_cell_formula_units_Z 16
_cell_length_a 15.170658
_cell_length_b 7.850297
_cell_length_c 9.465582
_cell_angle_alpha 90.000000
_cell_angle_beta 142.608117
_cell_angle_gamma 90.000000
_cell_volume 684.565260
_symmetry_space_group_name_H-M "C 2"
_symmetry_group_IT_number 5
_symmetry_cell_setting 'monoclinic'
loop_
_space_group_symop_operation_xyz
x,y,z
-x,y,-z
1/2+x,1/2+y,z
1/2-x,1/2+y,-z
loop_
_atom_site_type_symbol
_atom_site_label
_atom_site_fract_x
_atom_site_fract_y
_atom_site_fract_z
Si Si1 0.158260 0.560450 0.662029
Si Si2 0.873060 0.753283 0.635522
Si Si3 0.162652 0.368755 0.140943
Si Si4 0.810259 0.735897 0.888968
O O1 0.152098 0.577277 0.483407
O O2 0.287568 0.691193 0.868214
O O3 0.184985 0.372254 0.753775
O O4 0.000000 0.626703 0.500000
O O5 0.777550 0.874807 0.416151
O O6 0.831680 0.741924 0.745781
O O7 0.041834 0.801168 0.852041
O O8 0.192385 0.534750 0.084387
O O9 0.000000 0.366172 0.000000
#
# Coordination Sequence:
#
# PCOD9126146 Si02
#       4
#     4   4   4   4
#     4  10  25  44  60  96 135 163 207 263 323 371
#     4   9  22  40  63  98 121 161 222 249 310 382
#     4  10  22  38  65  96 122 165 211 261 305 375
#     4  11  20  42  66  92 125 167 213 258 308 372
#
# _framework density 23.372499000000001
#
# number of rings (size 3 to 8) (size 9 to 14) (size 15 to 20)
#    1.500    0.500    2.500    1.500    3.500    1.000 
#    4.500    0.000    0.000    0.000    0.000    0.000 
#    0.000    0.000    0.000    0.000    0.000    0.000 
#
# Total GULP energy -44540.480746 kJ/mol
# GULP energy per Si atom -5567.560093 kJ/mol
# Density = 2.331930 g / cm^3
# Si number density = 23.372499 Si / 1000 Ang^3
#
#
#
# Elastic Constant Matrix: (Units=GPa)
#
#
# Indices 1 2 3 4 5 6 
#
# 1 42.2280 29.0773 11.2178 0.0000 1.4203 0.0000
# 2 29.0773 114.1629 45.8467 0.0000 26.8787 0.0000
# 3 11.2178 45.8467 126.8217 0.0000 4.0074 0.0000
# 4 0.0000 0.0000 0.0000 24.5915 0.0000 -2.0243
# 5 1.4203 26.8787 4.0074 0.0000 25.9087 0.0000
# 6 0.0000 0.0000 0.0000 -2.0243 0.0000 10.5455
#
#
#
# Elastic Compliance Matrix: (Units=1/GPa)
#
#
# Indices 1 2 3 4 5 6 
#
# 1 0.030060 -0.009938 0.000663 0.000000 0.008560 0.000000
# 2 -0.009938 0.017077 -0.004775 0.000000 -0.016433 0.000000
# 3 0.000663 -0.004775 0.009443 0.000000 0.003457 0.000000
# 4 0.000000 0.000000 0.000000 0.041317 0.000000 0.007931
# 5 0.008560 -0.016433 0.003457 0.000000 0.054642 0.000000
# 6 0.000000 0.000000 0.000000 0.007931 0.000000 0.096350
#
#
# Mechanical properties :
#
#
# Convention : Reuss Voigt Hill
#
# Bulk Modulus (GPa) = 35.11118 50.61068 42.86093
# Shear Modulus (GPa) = 17.45302 25.34719 21.40010
#
# Velocity S-wave (km/s) = 2.73561 3.29673 3.02919
# Velocity P-wave (km/s) = 5.00331 6.01599 5.53287
#
# Compressibility (1/GPa) = 0.02848096
#
# Stress axis : x y z
#
# Youngs Moduli (GPa) = 33.26689 58.55687 105.89330
#
# Poissons Ratio (x) = 0.58193 -0.07023
# Poissons Ratio (y) = 0.33060 0.50567
# Poissons Ratio (z) = -0.02206 0.27962
#
# Static dielectric constant tensor:
#      x y z
#    x 1.923320 0.000000 -0.028540 
#    y 0.000000 1.991640 0.000000 
#    z -0.028540 0.000000 1.851160 
# 
# From -- ./inp_files/17974.got.cif
#   From: 2010.05.17/outbox.cif.g08.bks.cpg/sg5_9_cif.got.tgz:17974.got - 2010.06.03 18:56:24.
