data_PCOD9126602
_publ_section_title
;
Structure prediction by ZEFSAII (Michael W. Deem and Ramdas Pophale) SiO2 
 PCOD9126602
Probable space group: C 2
;
_chemical_formula_sum "Si O2"
_cell_formula_units_Z 24
_cell_length_a 8.796932
_cell_length_b 18.198083
_cell_length_c 9.999315
_cell_angle_alpha 90.000000
_cell_angle_beta 42.324266
_cell_angle_gamma 90.000000
_cell_volume 1077.835092
_symmetry_space_group_name_H-M "C 2"
_symmetry_group_IT_number 5
_symmetry_cell_setting 'monoclinic'
loop_
_space_group_symop_operation_xyz
x,y,z
-x,y,-z
1/2+x,1/2+y,z
1/2-x,1/2+y,-z
loop_
_atom_site_type_symbol
_atom_site_label
_atom_site_fract_x
_atom_site_fract_y
_atom_site_fract_z
Si Si1 0.926701 0.289160 0.409263
Si Si2 0.140995 0.524126 0.126267
Si Si3 0.080125 0.902268 0.590439
Si Si4 0.155889 0.036017 0.712055
Si Si5 0.644553 0.857751 0.035404
Si Si6 0.729149 0.627515 0.425780
O O1 0.737198 0.334249 0.456380
O O2 0.808486 0.215009 0.540536
O O3 0.000000 0.327384 0.500000
O O4 0.125641 0.298869 0.169337
O O5 0.218505 0.527422 0.230429
O O6 0.073410 0.440771 0.129441
O O7 0.947698 0.585179 0.224123
O O8 0.383008 0.539940 0.899506
O O9 0.000000 0.931321 0.500000
O O10 0.205621 0.966631 0.586443
O O11 0.892316 0.872067 0.814649
O O12 0.231059 0.105599 0.579785
O O13 0.500000 0.835023 0.000000
O O14 0.500000 0.601408 0.500000
#
# Coordination Sequence:
#
# PCOD9126602 Si02
#       6
#     4   4   4   4   4   4
#     4  11  25  44  64  97 136 181 221 272 335 399
#     4  10  23  41  67  96 129 172 218 281 333 393
#     4  11  22  40  69  99 130 172 223 280 333 393
#     4  10  22  41  64  99 129 169 223 274 336 394
#     4  11  23  42  70 102 129 171 223 280 330 393
#     4  11  25  41  64  94 134 179 222 268 331 401
#
# _framework density 22.266857000000002
#
# number of rings (size 3 to 8) (size 9 to 14) (size 15 to 20)
#    0.000    1.333    1.667    3.000    4.667    4.667 
#    3.000    3.333    0.000    0.000    0.000    0.000 
#    0.000    0.000    0.000    0.000    0.000    0.000 
#
# Total GULP energy -66910.419297 kJ/mol
# GULP energy per Si atom -5575.868275 kJ/mol
# Density = 2.221618 g / cm^3
# Si number density = 22.266857 Si / 1000 Ang^3
#
#
#
# Elastic Constant Matrix: (Units=GPa)
#
#
# Indices 1 2 3 4 5 6 
#
# 1 67.8409 19.7658 16.7577 0.0000 1.0219 0.0000
# 2 19.7658 61.6853 8.6158 0.0000 -14.1015 0.0000
# 3 16.7577 8.6158 97.6820 0.0000 -1.6008 0.0000
# 4 0.0000 0.0000 0.0000 12.1659 0.0000 3.6537
# 5 1.0219 -14.1015 -1.6008 0.0000 44.3893 0.0000
# 6 0.0000 0.0000 0.0000 3.6537 0.0000 13.6490
#
#
#
# Elastic Compliance Matrix: (Units=1/GPa)
#
#
# Indices 1 2 3 4 5 6 
#
# 1 0.017023 -0.005630 -0.002461 0.000000 -0.002269 0.000000
# 2 -0.005630 0.019551 -0.000655 0.000000 0.006317 0.000000
# 3 -0.002461 -0.000655 0.010721 0.000000 0.000235 0.000000
# 4 0.000000 0.000000 0.000000 0.089383 0.000000 -0.023927
# 5 -0.002269 0.006317 0.000235 0.000000 0.024595 0.000000
# 6 0.000000 0.000000 0.000000 -0.023927 0.000000 0.079670
#
#
# Mechanical properties :
#
#
# Convention : Reuss Voigt Hill
#
# Bulk Modulus (GPa) = 33.55337 35.27633 34.41485
# Shear Modulus (GPa) = 18.63108 26.17876 22.40492
#
# Velocity S-wave (km/s) = 2.89575 3.43254 3.17551
# Velocity P-wave (km/s) = 5.12659 5.62021 5.37906
#
# Compressibility (1/GPa) = 0.02980327
#
# Stress axis : x y z
#
# Youngs Moduli (GPa) = 58.74529 51.14888 93.27382
#
# Poissons Ratio (x) = 0.28795 0.22954
# Poissons Ratio (y) = 0.33071 0.06111
# Poissons Ratio (z) = 0.14457 0.03351
#
# Static dielectric constant tensor:
#      x y z
#    x 1.867310 0.000000 -0.043010 
#    y 0.000000 1.844690 0.000000 
#    z -0.043010 0.000000 1.942160 
# 
# From -- ./inp_files/16696.got.cif
#   From: 2010.05.17/outbox.cif.g08.bks.cpg/sg5_9_cif.got.tgz:16696.got - 2010.06.03 18:56:24.
