data_PCOD9126697
_publ_section_title
;
Structure prediction by ZEFSAII (Michael W. Deem and Ramdas Pophale) SiO2 
 PCOD9126697
Probable space group: C 2
;
_chemical_formula_sum "Si O2"
_cell_formula_units_Z 26
_cell_length_a 13.858778
_cell_length_b 9.414054
_cell_length_c 13.746229
_cell_angle_alpha 90.000000
_cell_angle_beta 40.351719
_cell_angle_gamma 90.000000
_cell_volume 1161.208434
_symmetry_space_group_name_H-M "C 2"
_symmetry_group_IT_number 5
_symmetry_cell_setting 'monoclinic'
loop_
_space_group_symop_operation_xyz
x,y,z
-x,y,-z
1/2+x,1/2+y,z
1/2-x,1/2+y,-z
loop_
_atom_site_type_symbol
_atom_site_label
_atom_site_fract_x
_atom_site_fract_y
_atom_site_fract_z
Si Si1 0.833114 0.809250 0.356993
Si Si2 0.000000 0.461471 0.000000
Si Si3 0.178469 0.264539 0.968162
Si Si4 0.501634 0.863361 0.615930
Si Si5 0.888944 0.936220 0.952608
Si Si6 0.052150 0.679411 0.348499
Si Si7 0.777733 0.711202 0.186837
O O1 0.671819 0.857870 0.518430
O O2 0.927999 0.740817 0.370569
O O3 0.792377 0.714825 0.292928
O O4 0.946006 0.920709 0.220300
O O5 0.028012 0.352517 0.066355
O O6 0.138885 0.567692 0.904707
O O7 0.278252 0.348220 0.968126
O O8 0.289544 0.255514 0.789492
O O9 0.145326 0.101803 0.016917
O O10 0.500000 0.868190 0.500000
O O11 0.391677 0.731733 0.720266
O O12 0.432200 0.014838 0.696473
O O13 0.859693 0.846927 0.074458
O O14 0.000000 0.687431 0.500000
#
# Coordination Sequence:
#
# PCOD9126697 Si02
#       7
#     4   2   4   4   4   4   4
#     4  10  22  41  71 102 134 189 233 280 359 414
#     4  12  26  40  66 108 140 180 240 286 350 414
#     4  11  26  43  69 105 139 188 235 292 350 414
#     4   9  20  40  69  95 131 184 233 279 347 417
#     4  11  22  44  73  99 143 181 230 292 352 412
#     4  10  22  46  66  99 143 185 237 287 345 425
#     4  11  21  42  71  99 141 179 232 292 342 423
#
# _framework density 22.390467000000001
#
# number of rings (size 3 to 8) (size 9 to 14) (size 15 to 20)
#    0.000    1.538    3.077    0.923    4.308    0.000 
#   13.846    0.769    0.000    0.000    0.000    0.000 
#    0.000    0.000    0.000    0.000    0.000    0.000 
#
# Total GULP energy -72472.376819 kJ/mol
# GULP energy per Si atom -5574.798217 kJ/mol
# Density = 2.233951 g / cm^3
# Si number density = 22.390467 Si / 1000 Ang^3
#
#
#
# Elastic Constant Matrix: (Units=GPa)
#
#
# Indices 1 2 3 4 5 6 
#
# 1 103.6877 43.3997 45.6783 0.0000 -20.2294 0.0000
# 2 43.3997 139.4102 41.8196 0.0000 -10.7162 0.0000
# 3 45.6783 41.8196 85.8163 0.0000 -15.7760 0.0000
# 4 0.0000 0.0000 0.0000 9.1925 0.0000 -11.0309
# 5 -20.2294 -10.7162 -15.7760 0.0000 44.8661 0.0000
# 6 0.0000 0.0000 0.0000 -11.0309 0.0000 26.7479
#
#
#
# Elastic Compliance Matrix: (Units=1/GPa)
#
#
# Indices 1 2 3 4 5 6 
#
# 1 0.013779 -0.002353 -0.005505 0.000000 0.003715 0.000000
# 2 -0.002353 0.008818 -0.003050 0.000000 -0.000027 0.000000
# 3 -0.005505 -0.003050 0.016549 0.000000 0.002608 0.000000
# 4 0.000000 0.000000 0.000000 0.215359 0.000000 0.088814
# 5 0.003715 -0.000027 0.002608 0.000000 0.024874 0.000000
# 6 0.000000 0.000000 0.000000 0.088814 0.000000 0.074013
#
#
# Mechanical properties :
#
#
# Convention : Reuss Voigt Hill
#
# Bulk Modulus (GPa) = 57.69969 65.63438 61.66704
# Shear Modulus (GPa) = 13.12387 29.36241 21.24314
#
# Velocity S-wave (km/s) = 2.42365 3.62523 3.08353
# Velocity P-wave (km/s) = 5.80154 6.84837 6.34657
#
# Compressibility (1/GPa) = 0.01733111
#
# Stress axis : x y z
#
# Youngs Moduli (GPa) = 72.57430 113.40020 60.42761
#
# Poissons Ratio (x) = 0.26679 0.33264
# Poissons Ratio (y) = 0.17074 0.18430
# Poissons Ratio (z) = 0.39951 0.34587
#
# Static dielectric constant tensor:
#      x y z
#    x 1.894630 0.000000 -0.007460 
#    y 0.000000 1.812930 0.000000 
#    z -0.007460 0.000000 1.937320 
# 
# From -- ./inp_files/54301.got.cif
#   From: 2010.05.17/outbox.cif.g08.bks.cpg/sg5_28_cif.got.tgz:54301.got - 2010.06.03 18:56:24.
