data_PCOD9126219
_publ_section_title
;
Structure prediction by ZEFSAII (Michael W. Deem and Ramdas Pophale) SiO2 
 PCOD9126219
Probable space group: C 2
;
_chemical_formula_sum "Si O2"
_cell_formula_units_Z 32
_cell_length_a 23.882469
_cell_length_b 7.149653
_cell_length_c 14.351186
_cell_angle_alpha 90.000000
_cell_angle_beta 33.573372
_cell_angle_gamma 90.000000
_cell_volume 1355.128756
_symmetry_space_group_name_H-M "C 2"
_symmetry_group_IT_number 5
_symmetry_cell_setting 'monoclinic'
loop_
_space_group_symop_operation_xyz
x,y,z
-x,y,-z
1/2+x,1/2+y,z
1/2-x,1/2+y,-z
loop_
_atom_site_type_symbol
_atom_site_label
_atom_site_fract_x
_atom_site_fract_y
_atom_site_fract_z
Si Si1 0.433141 0.383490 0.441895
Si Si2 0.480742 0.324522 0.176634
Si Si3 0.124864 0.464471 0.465187
Si Si4 0.654483 0.425458 0.176046
Si Si5 0.158443 0.857359 0.804990
Si Si6 0.272822 0.997453 0.177446
Si Si7 0.322917 0.987943 0.815162
Si Si8 0.047901 0.426073 0.178094
O O1 0.439910 0.426610 0.323712
O O2 0.435545 0.159443 0.453338
O O3 0.535921 0.466536 0.341977
O O4 0.325494 0.427647 0.633041
O O5 0.392866 0.308641 0.221971
O O6 0.519222 0.125285 0.166569
O O7 0.570890 0.426985 0.996333
O O8 0.240317 0.480089 0.340668
O O9 0.137123 0.412936 0.339288
O O10 0.059280 0.350300 0.632783
O O11 0.722381 0.554674 0.148257
O O12 0.667816 0.214165 0.195575
O O13 0.706184 0.441217 0.003153
O O14 0.190761 0.665362 0.809455
O O15 0.366646 0.863974 0.016458
O O16 0.388383 0.922539 0.813258
#
# Coordination Sequence:
#
# PCOD9126219 Si02
#       8
#     4   4   4   4   4   4   4   4
#     4  11  21  38  62  86 119 166 192 248 308 358
#     4   9  19  39  67  80 121 155 204 245 304 357
#     4  11  21  35  63  86 124 155 204 241 301 366
#     4  11  22  38  60  92 121 163 199 244 310 358
#     4  10  22  40  60  94 112 160 204 252 292 353
#     4  10  22  39  59  86 127 157 202 243 300 361
#     4  11  21  36  62  90 121 157 202 242 302 367
#     4   9  20  37  59  86 113 163 193 243 297 356
#
# _framework density 23.613990999999999
#
# number of rings (size 3 to 8) (size 9 to 14) (size 15 to 20)
#    0.000    1.750    3.750    1.500    3.500    2.000 
#    4.500    1.250    0.000    6.000    0.000    0.000 
#    0.000    0.000    0.000    0.000    0.000    0.000 
#
# Total GULP energy -89161.606267 kJ/mol
# GULP energy per Si atom -5572.600392 kJ/mol
# Density = 2.356024 g / cm^3
# Si number density = 23.613991 Si / 1000 Ang^3
#
#
#
# Elastic Constant Matrix: (Units=GPa)
#
#
# Indices 1 2 3 4 5 6 
#
# 1 105.2509 5.7103 45.6128 -0.0014 -6.1999 0.0010
# 2 5.7103 42.2073 11.0320 -0.0045 -1.3388 0.0054
# 3 45.6128 11.0320 227.3052 -0.0035 11.4451 0.0027
# 4 -0.0014 -0.0045 -0.0035 21.5161 0.0024 1.0677
# 5 -6.1999 -1.3388 11.4451 0.0024 39.4180 -0.0018
# 6 0.0010 0.0054 0.0027 1.0677 -0.0018 19.9741
#
#
#
# Elastic Compliance Matrix: (Units=1/GPa)
#
#
# Indices 1 2 3 4 5 6 
#
# 1 0.010637 -0.000788 -0.002211 0.000000 0.002288 0.000000
# 2 -0.000788 0.024109 -0.001062 0.000005 0.001003 -0.000007
# 3 -0.002211 -0.001062 0.004987 0.000001 -0.001832 0.000000
# 4 0.000000 0.000005 0.000001 0.046601 -0.000003 -0.002491
# 5 0.002288 0.001003 -0.001832 -0.000003 0.026295 0.000002
# 6 0.000000 -0.000007 0.000000 -0.002491 0.000002 0.050198
#
#
# Mechanical properties :
#
#
# Convention : Reuss Voigt Hill
#
# Bulk Modulus (GPa) = 31.63749 55.49708 43.56729
# Shear Modulus (GPa) = 27.55018 37.00886 32.27952
#
# Velocity S-wave (km/s) = 3.41939 3.96314 3.70126
# Velocity P-wave (km/s) = 5.38669 6.67044 6.06264
#
# Compressibility (1/GPa) = 0.03160807
#
# Stress axis : x y z
#
# Youngs Moduli (GPa) = 94.01082 41.47871 200.52371
#
# Poissons Ratio (x) = 0.03271 0.44345
# Poissons Ratio (y) = 0.07413 0.21303
# Poissons Ratio (z) = 0.20790 0.04407
#
# Static dielectric constant tensor:
#      x y z
#    x 1.862490 0.000000 0.000080 
#    y 0.000000 2.030060 0.000000 
#    z 0.000080 0.000000 2.045130 
# 
# From -- ./inp_files/54170.got.cif
#   From: 2010.05.17/outbox.cif.g08.bks.cpg/sg5_28_cif.got.tgz:54170.got - 2010.06.03 18:56:24.
