data_PCOD9126113
_publ_section_title
;
Structure prediction by ZEFSAII (Michael W. Deem and Ramdas Pophale) SiO2 
 PCOD9126113
Probable space group: C 2
;
_chemical_formula_sum "Si O2"
_cell_formula_units_Z 20
_cell_length_a 27.186168
_cell_length_b 8.436469
_cell_length_c 5.000680
_cell_angle_alpha 90.000000
_cell_angle_beta 136.795699
_cell_angle_gamma 90.000000
_cell_volume 785.191932
_symmetry_space_group_name_H-M "C 2"
_symmetry_group_IT_number 5
_symmetry_cell_setting 'monoclinic'
loop_
_space_group_symop_operation_xyz
x,y,z
-x,y,-z
1/2+x,1/2+y,z
1/2-x,1/2+y,-z
loop_
_atom_site_type_symbol
_atom_site_label
_atom_site_fract_x
_atom_site_fract_y
_atom_site_fract_z
Si Si1 0.918001 0.041620 0.074934
Si Si2 0.288784 0.883121 0.994877
Si Si3 0.724639 0.534123 0.240206
Si Si4 0.585053 0.890955 0.889787
Si Si5 0.448087 0.211821 0.038313
O O1 0.899623 0.221146 0.906604
O O2 0.000000 0.052780 0.500000
O O3 0.912835 0.885472 0.870156
O O4 0.861199 0.009006 0.086154
O O5 0.261831 0.710503 0.804297
O O6 0.249760 0.007213 0.642776
O O7 0.370784 0.890655 0.212824
O O8 0.265228 0.917336 0.201333
O O9 0.500000 0.893501 0.500000
O O10 0.600294 0.057607 0.098142
O O11 0.500000 0.227620 0.500000
O O12 0.500000 0.177731 0.000000
#
# Coordination Sequence:
#
# PCOD9126113 Si02
#       5
#     4   4   4   4   4
#     4   9  21  43  68  96 133 174 224 276 331 396
#     4  11  25  44  69  99 136 182 224 279 343 404
#     4  11  25  44  69  99 136 182 224 279 343 404
#     4   9  21  43  68  96 133 174 224 276 331 396
#     4  10  22  38  62  96 126 164 211 266 331 380
#
# _framework density 25.471478999999999
#
# number of rings (size 3 to 8) (size 9 to 14) (size 15 to 20)
#    0.000    2.000    0.000    1.200    5.600    7.200 
#    0.000   12.000    0.000    0.000    0.000    0.000 
#    0.000    0.000    0.000    0.000    0.000    0.000 
#
# Total GULP energy -55927.542497 kJ/mol
# GULP energy per Si atom -5592.754250 kJ/mol
# Density = 2.541350 g / cm^3
# Si number density = 25.471479 Si / 1000 Ang^3
#
#
#
# Elastic Constant Matrix: (Units=GPa)
#
#
# Indices 1 2 3 4 5 6 
#
# 1 120.6714 33.5925 33.2201 0.0000 23.5518 0.0000
# 2 33.5925 186.8422 6.7090 0.0000 12.9004 0.0000
# 3 33.2201 6.7090 65.4398 0.0000 14.0264 0.0000
# 4 0.0000 0.0000 0.0000 26.9078 0.0000 2.2087
# 5 23.5518 12.9004 14.0264 0.0000 47.5207 0.0000
# 6 0.0000 0.0000 0.0000 2.2087 0.0000 48.0639
#
#
#
# Elastic Compliance Matrix: (Units=1/GPa)
#
#
# Indices 1 2 3 4 5 6 
#
# 1 0.010631 -0.001506 -0.004484 0.000000 -0.003536 0.000000
# 2 -0.001506 0.005672 0.000377 0.000000 -0.000905 0.000000
# 3 -0.004484 0.000377 0.018217 0.000000 -0.003257 0.000000
# 4 0.000000 0.000000 0.000000 0.037305 0.000000 -0.001714
# 5 -0.003536 -0.000905 -0.003257 0.000000 0.024003 0.000000
# 6 0.000000 0.000000 0.000000 -0.001714 0.000000 0.020884
#
#
# Mechanical properties :
#
#
# Convention : Reuss Voigt Hill
#
# Bulk Modulus (GPa) = 42.93166 57.77740 50.35453
# Shear Modulus (GPa) = 36.84512 44.46062 40.65287
#
# Velocity S-wave (km/s) = 3.80745 4.18246 3.99935
# Velocity P-wave (km/s) = 6.01833 6.78648 6.41391
#
# Compressibility (1/GPa) = 0.02329284
#
# Stress axis : x y z
#
# Youngs Moduli (GPa) = 94.06487 176.31033 54.89350
#
# Poissons Ratio (x) = 0.26555 0.24616
# Poissons Ratio (y) = 0.14168 -0.02069
# Poissons Ratio (z) = 0.42182 -0.06647
#
# Static dielectric constant tensor:
#      x y z
#    x 1.925050 0.000000 0.049150 
#    y 0.000000 2.063070 0.000000 
#    z 0.049150 0.000000 2.035200 
# 
# From -- ./inp_files/8055.got.cif
#   From: 2010.05.17/outbox.cif.g08.bks.cpg/sg5_5_cif.got.tgz:8055.got - 2010.06.03 18:56:24.
