data_PCOD9126562
_publ_section_title
;
Structure prediction by ZEFSAII (Michael W. Deem and Ramdas Pophale) SiO2 
 PCOD9126562
Probable space group: C 2
;
_chemical_formula_sum "Si O2"
_cell_formula_units_Z 24
_cell_length_a 16.976351
_cell_length_b 9.202734
_cell_length_c 13.721187
_cell_angle_alpha 90.000000
_cell_angle_beta 146.099160
_cell_angle_gamma 90.000000
_cell_volume 1195.633690
_symmetry_space_group_name_H-M "C 2"
_symmetry_group_IT_number 5
_symmetry_cell_setting 'monoclinic'
loop_
_space_group_symop_operation_xyz
x,y,z
-x,y,-z
1/2+x,1/2+y,z
1/2-x,1/2+y,-z
loop_
_atom_site_type_symbol
_atom_site_label
_atom_site_fract_x
_atom_site_fract_y
_atom_site_fract_z
Si Si1 0.336068 0.034050 0.593869
Si Si2 0.155227 0.528053 0.629086
Si Si3 0.605864 0.353206 0.018998
Si Si4 0.574390 0.353175 0.339935
Si Si5 0.374740 0.342808 0.312371
Si Si6 0.911031 0.518362 0.009628
O O1 0.324960 0.006981 0.466281
O O2 0.347319 0.208190 0.618523
O O3 0.478943 0.976246 0.791716
O O4 0.197611 0.962098 0.499306
O O5 0.163309 0.698794 0.665271
O O6 0.000000 0.479471 0.500000
O O7 0.263220 0.442309 0.807567
O O8 0.519845 0.423163 0.841826
O O9 0.635107 0.185927 0.021823
O O10 0.500000 0.346031 0.000000
O O11 0.460097 0.302984 0.302148
O O12 0.500000 0.425231 0.500000
O O13 0.231397 0.426251 0.143420
O O14 0.000000 0.507933 0.000000
#
# Coordination Sequence:
#
# PCOD9126562 Si02
#       6
#     4   4   4   4   4   4
#     4  11  23  44  66  93 128 172 212 264 321 379
#     4  11  23  42  66  92 129 166 214 267 315 378
#     4  10  22  41  62  91 128 167 209 261 317 380
#     4  11  23  42  66  94 129 166 216 264 319 378
#     4  11  23  42  66  93 129 167 215 266 314 378
#     4  10  24  42  64  93 133 167 212 264 324 380
#
# _framework density 20.073036999999999
#
# number of rings (size 3 to 8) (size 9 to 14) (size 15 to 20)
#    0.000    1.333    5.000    1.000    2.333    2.667 
#    3.000    0.000    0.000    0.000    0.000    0.000 
#    0.000    0.000    0.000    0.000    0.000    0.000 
#
# Total GULP energy -66952.601672 kJ/mol
# GULP energy per Si atom -5579.383473 kJ/mol
# Density = 2.002735 g / cm^3
# Si number density = 20.073037 Si / 1000 Ang^3
#
#
#
# Elastic Constant Matrix: (Units=GPa)
#
#
# Indices 1 2 3 4 5 6 
#
# 1 48.7322 16.8897 26.8675 0.0000 3.0338 0.0000
# 2 16.8897 54.6411 69.4067 0.0000 21.1691 0.0000
# 3 26.8675 69.4067 208.3326 0.0000 7.5153 0.0000
# 4 0.0000 0.0000 0.0000 44.4887 0.0000 11.0478
# 5 3.0338 21.1691 7.5153 0.0000 38.7162 0.0000
# 6 0.0000 0.0000 0.0000 11.0478 0.0000 86.8506
#
#
#
# Elastic Compliance Matrix: (Units=1/GPa)
#
#
# Indices 1 2 3 4 5 6 
#
# 1 0.023248 -0.007181 -0.000687 0.000000 0.002238 0.000000
# 2 -0.007181 0.046750 -0.013844 0.000000 -0.022312 0.000000
# 3 -0.000687 -0.013844 0.009291 0.000000 0.005820 0.000000
# 4 0.000000 0.000000 0.000000 0.023211 0.000000 -0.002953
# 5 0.002238 -0.022312 0.005820 0.000000 0.036723 0.000000
# 6 0.000000 0.000000 0.000000 -0.002953 0.000000 0.011890
#
#
# Mechanical properties :
#
#
# Convention : Reuss Voigt Hill
#
# Bulk Modulus (GPa) = 27.88165 59.78150 43.83157
# Shear Modulus (GPa) = 24.21415 47.24722 35.73068
#
# Velocity S-wave (km/s) = 3.47695 4.85683 4.22362
# Velocity P-wave (km/s) = 5.48080 7.82932 6.75787
#
# Compressibility (1/GPa) = 0.03586589
#
# Stress axis : x y z
#
# Youngs Moduli (GPa) = 43.01386 21.39049 107.63395
#
# Poissons Ratio (x) = 0.15361 0.07390
# Poissons Ratio (y) = 0.30888 1.49007
# Poissons Ratio (z) = 0.02953 0.29613
#
# Static dielectric constant tensor:
#      x y z
#    x 1.697640 0.000000 0.072090 
#    y 0.000000 1.717340 0.000000 
#    z 0.072090 0.000000 1.381440 
# 
# From -- ./inp_files/55695.got.cif
#   From: 2010.05.17/outbox.cif.g08.bks.cpg/sg5_28_cif.got.tgz:55695.got - 2010.06.03 18:56:24.
