data_PCOD9126398
_publ_section_title
;
Structure prediction by ZEFSAII (Michael W. Deem and Ramdas Pophale) SiO2 
 PCOD9126398
Probable space group: C 2
;
_chemical_formula_sum "Si O2"
_cell_formula_units_Z 24
_cell_length_a 8.036559
_cell_length_b 27.535792
_cell_length_c 7.636073
_cell_angle_alpha 90.000000
_cell_angle_beta 143.250688
_cell_angle_gamma 90.000000
_cell_volume 1011.038415
_symmetry_space_group_name_H-M "C 2"
_symmetry_group_IT_number 5
_symmetry_cell_setting 'monoclinic'
loop_
_space_group_symop_operation_xyz
x,y,z
-x,y,-z
1/2+x,1/2+y,z
1/2-x,1/2+y,-z
loop_
_atom_site_type_symbol
_atom_site_label
_atom_site_fract_x
_atom_site_fract_y
_atom_site_fract_z
Si Si1 0.287400 0.086930 0.686035
Si Si2 0.778678 0.011669 0.657399
Si Si3 0.415476 0.259350 0.132625
Si Si4 0.705655 0.156968 0.831958
Si Si5 0.796158 0.426486 0.666462
Si Si6 0.921116 0.319524 0.639780
O O1 0.147389 0.048561 0.435034
O O2 0.520071 0.122496 0.799328
O O3 0.000000 0.114384 0.500000
O O4 0.500000 0.060147 0.000000
O O5 0.500000 0.034969 0.500000
O O6 0.685508 0.962089 0.484428
O O7 0.000000 0.005702 0.000000
O O8 0.198061 0.302847 0.970427
O O9 0.500000 0.255564 0.000000
O O10 0.267140 0.209336 0.056148
O O11 0.692286 0.276998 0.464449
O O12 0.500000 0.165869 0.500000
O O13 0.000000 0.138650 0.000000
O O14 0.500000 0.435056 0.500000
O O15 0.824748 0.371356 0.626245
O O16 0.000000 0.436227 0.000000
O O17 0.000000 0.323668 0.500000
#
# Coordination Sequence:
#
# PCOD9126398 Si02
#       6
#     4   4   4   4   4   4
#     4  12  26  47  73 101 138 182 233 287 348 415
#     4  12  26  47  73 101 138 178 226 284 347 411
#     4  10  22  41  64  93 133 180 228 281 341 403
#     4  12  26  43  68 102 139 179 231 286 345 411
#     4  12  25  42  67 101 138 178 227 278 340 412
#     4  10  22  40  64  94 132 179 229 278 336 404
#
# _framework density 23.737971000000002
#
# number of rings (size 3 to 8) (size 9 to 14) (size 15 to 20)
#    0.000    0.667    0.000    7.500    0.000    9.333 
#    0.000    0.000    0.000    0.000    0.000    0.000 
#    0.000    0.000    0.000    0.000    0.000    0.000 
#
# Total GULP energy -67107.626740 kJ/mol
# GULP energy per Si atom -5592.302228 kJ/mol
# Density = 2.368394 g / cm^3
# Si number density = 23.737971 Si / 1000 Ang^3
#
#
#
# Elastic Constant Matrix: (Units=GPa)
#
#
# Indices 1 2 3 4 5 6 
#
# 1 75.4318 13.2651 40.7445 0.0000 22.4249 0.0000
# 2 13.2651 81.4655 15.4689 0.0000 -6.2619 0.0000
# 3 40.7445 15.4689 173.5581 0.0000 5.6266 0.0000
# 4 0.0000 0.0000 0.0000 18.5981 0.0000 17.8124
# 5 22.4249 -6.2619 5.6266 0.0000 44.7794 0.0000
# 6 0.0000 0.0000 0.0000 17.8124 0.0000 25.4854
#
#
#
# Elastic Compliance Matrix: (Units=1/GPa)
#
#
# Indices 1 2 3 4 5 6 
#
# 1 0.018589 -0.003018 -0.003795 0.000000 -0.009254 0.000000
# 2 -0.003018 0.013138 -0.000573 0.000000 0.003420 0.000000
# 3 -0.003795 -0.000573 0.006672 0.000000 0.000982 0.000000
# 4 0.000000 0.000000 0.000000 0.162641 0.000000 -0.113674
# 5 -0.009254 0.003420 0.000982 0.000000 0.027321 0.000000
# 6 0.000000 0.000000 0.000000 -0.113674 0.000000 0.118688
#
#
# Mechanical properties :
#
#
# Convention : Reuss Voigt Hill
#
# Bulk Modulus (GPa) = 42.32450 52.15693 47.24071
# Shear Modulus (GPa) = 13.52461 35.17103 24.34782
#
# Velocity S-wave (km/s) = 2.38952 3.85338 3.20612
# Velocity P-wave (km/s) = 5.04794 6.46666 5.80083
#
# Compressibility (1/GPa) = 0.02362698
#
# Stress axis : x y z
#
# Youngs Moduli (GPa) = 53.79647 76.11341 149.88162
#
# Poissons Ratio (x) = 0.22967 0.56879
# Poissons Ratio (y) = 0.16233 0.08595
# Poissons Ratio (z) = 0.20415 0.04365
#
# Static dielectric constant tensor:
#      x y z
#    x 2.145560 0.000000 -0.104650 
#    y 0.000000 1.885480 0.000000 
#    z -0.104650 0.000000 1.838810 
# 
# From -- ./inp_files/17657.got.cif
#   From: 2010.05.17/outbox.cif.g08.bks.cpg/sg5_9_cif.got.tgz:17657.got - 2010.06.03 18:56:24.
