data_PCOD9126080
_publ_section_title
;
Structure prediction by ZEFSAII (Michael W. Deem and Ramdas Pophale) SiO2 
 PCOD9126080
Probable space group: C 2
;
_chemical_formula_sum "Si O2"
_cell_formula_units_Z 30
_cell_length_a 28.585195
_cell_length_b 8.788176
_cell_length_c 6.137870
_cell_angle_alpha 90.000000
_cell_angle_beta 64.748424
_cell_angle_gamma 90.000000
_cell_volume 1394.565736
_symmetry_space_group_name_H-M "C 2"
_symmetry_group_IT_number 5
_symmetry_cell_setting 'monoclinic'
loop_
_space_group_symop_operation_xyz
x,y,z
-x,y,-z
1/2+x,1/2+y,z
1/2-x,1/2+y,-z
loop_
_atom_site_type_symbol
_atom_site_label
_atom_site_fract_x
_atom_site_fract_y
_atom_site_fract_z
Si Si1 0.200008 0.705020 0.626695
Si Si2 0.056269 0.155445 0.778680
Si Si3 0.718690 0.672345 0.184524
Si Si4 0.051391 0.463198 0.023906
Si Si5 0.135649 0.933757 0.461202
Si Si6 0.808739 0.509668 0.737956
Si Si7 0.500000 0.770585 0.500000
Si Si8 0.116796 0.696858 0.150309
O O1 0.256407 0.689334 0.621635
O O2 0.178764 0.827061 0.493870
O O3 0.190297 0.545634 0.520950
O O4 0.165335 0.742863 0.905246
O O5 0.040819 0.175164 0.557563
O O6 0.097307 0.019265 0.705613
O O7 0.074922 0.321347 0.834195
O O8 0.000000 0.124962 0.000000
O O9 0.669673 0.563302 0.281168
O O10 0.701698 0.841143 0.164193
O O11 0.761673 0.607857 0.934298
O O12 0.031779 0.376172 0.275533
O O13 0.080451 0.613104 0.048063
O O14 0.000000 0.512767 0.000000
O O15 0.105077 0.833593 0.340879
O O16 0.862409 0.565275 0.731454
#
# Coordination Sequence:
#
# PCOD9126080 Si02
#       8
#     4   4   4   4   4   4   2   4
#     4  10  22  41  58  88 138 168 214 271 317 397
#     4   9  21  41  64  98 130 169 228 275 332 401
#     4  11  22  40  61  93 126 177 217 270 329 395
#     4   9  20  39  64  92 124 167 223 272 331 403
#     4  11  24  40  65  97 133 174 221 275 337 393
#     4  10  22  38  60  89 130 168 221 268 326 391
#     4   8  18  38  64  90 126 160 216 280 324 394
#     4  10  23  40  60  95 129 167 218 275 324 400
#
# _framework density 21.512073000000001
#
# number of rings (size 3 to 8) (size 9 to 14) (size 15 to 20)
#    0.000    2.400    0.000    3.200    3.733    6.400 
#    2.400    4.000    0.000    0.000    0.000    0.000 
#    0.000    0.000    0.000    0.000    0.000    0.000 
#
# Total GULP energy -83557.292443 kJ/mol
# GULP energy per Si atom -5570.486163 kJ/mol
# Density = 2.146311 g / cm^3
# Si number density = 21.512073 Si / 1000 Ang^3
#
#
#
# Elastic Constant Matrix: (Units=GPa)
#
#
# Indices 1 2 3 4 5 6 
#
# 1 70.4233 46.0137 13.0324 0.0000 3.1708 0.0000
# 2 46.0137 116.1712 11.5729 0.0000 1.8903 0.0000
# 3 13.0324 11.5729 45.7398 0.0000 12.1993 0.0000
# 4 0.0000 0.0000 0.0000 8.6405 0.0000 -3.8214
# 5 3.1708 1.8903 12.1993 0.0000 24.2867 0.0000
# 6 0.0000 0.0000 0.0000 -3.8214 0.0000 21.1596
#
#
#
# Elastic Compliance Matrix: (Units=1/GPa)
#
#
# Indices 1 2 3 4 5 6 
#
# 1 0.019764 -0.007457 -0.003708 0.000000 -0.000137 0.000000
# 2 -0.007457 0.011649 -0.000971 0.000000 0.000554 0.000000
# 3 -0.003708 -0.000971 0.026576 0.000000 -0.012790 0.000000
# 4 0.000000 0.000000 0.000000 0.125780 0.000000 0.022716
# 5 -0.000137 0.000554 -0.012790 0.000000 0.047574 0.000000
# 6 0.000000 0.000000 0.000000 0.022716 0.000000 0.051362
#
#
# Mechanical properties :
#
#
# Convention : Reuss Voigt Hill
#
# Bulk Modulus (GPa) = 29.65717 41.50802 35.58260
# Shear Modulus (GPa) = 15.71258 21.59840 18.65549
#
# Velocity S-wave (km/s) = 2.70554 3.17205 2.94804
# Velocity P-wave (km/s) = 4.85553 5.72302 5.30703
#
# Compressibility (1/GPa) = 0.03371865
#
# Stress axis : x y z
#
# Youngs Moduli (GPa) = 50.59610 85.84308 37.62791
#
# Poissons Ratio (x) = 0.64011 0.13953
# Poissons Ratio (y) = 0.37728 0.03652
# Poissons Ratio (z) = 0.18761 0.08333
#
# Static dielectric constant tensor:
#      x y z
#    x 1.911160 0.000000 0.050270 
#    y 0.000000 1.806100 0.000000 
#    z 0.050270 0.000000 1.830050 
# 
# From -- ./inp_files/11219.got.cif
#   From: 2010.05.17/outbox.cif.g08.bks.cpg/sg5_6_cif.got.tgz:11219.got - 2010.06.03 18:56:24.
