data_PCOD9126469
_publ_section_title
;
Structure prediction by ZEFSAII (Michael W. Deem and Ramdas Pophale) SiO2 
 PCOD9126469
Probable space group: C 2
;
_chemical_formula_sum "Si O2"
_cell_formula_units_Z 28
_cell_length_a 7.773775
_cell_length_b 12.049904
_cell_length_c 15.799745
_cell_angle_alpha 90.000000
_cell_angle_beta 115.260885
_cell_angle_gamma 90.000000
_cell_volume 1338.485721
_symmetry_space_group_name_H-M "C 2"
_symmetry_group_IT_number 5
_symmetry_cell_setting 'monoclinic'
loop_
_space_group_symop_operation_xyz
x,y,z
-x,y,-z
1/2+x,1/2+y,z
1/2-x,1/2+y,-z
loop_
_atom_site_type_symbol
_atom_site_label
_atom_site_fract_x
_atom_site_fract_y
_atom_site_fract_z
Si Si1 0.505146 0.899600 0.601149
Si Si2 0.500000 0.241057 0.500000
Si Si3 0.782786 0.919977 0.156251
Si Si4 0.283765 0.673250 0.923557
Si Si5 0.364542 0.435300 0.368439
Si Si6 0.000000 0.581463 0.000000
Si Si7 0.906515 0.153818 0.618182
Si Si8 0.323815 0.537014 0.767712
O O1 0.500000 0.917915 0.500000
O O2 0.307271 0.937529 0.601575
O O3 0.516367 0.767256 0.620730
O O4 0.672250 0.965117 0.683268
O O5 0.485002 0.325634 0.417591
O O6 0.692573 0.171350 0.539079
O O7 0.740975 0.797863 0.114285
O O8 0.781415 0.922815 0.257455
O O9 0.992672 0.962028 0.174526
O O10 0.630418 0.003984 0.085995
O O11 0.138996 0.651094 0.969302
O O12 0.246179 0.590582 0.837013
O O13 0.500000 0.656082 0.000000
O O14 0.490415 0.545675 0.396256
O O15 0.889968 0.132752 0.715644
#
# Coordination Sequence:
#
# PCOD9126469 Si02
#       8
#     4   2   4   4   4   2   4   4
#     4  11  26  44  69 105 143 190 237 287 347 416
#     4  10  22  40  68 106 134 182 234 288 340 414
#     4  11  25  48  74 104 142 183 236 296 353 432
#     4  12  25  47  75 107 144 187 231 298 361 420
#     4  10  24  46  70 101 145 184 237 292 347 421
#     4  12  26  46  76 110 140 186 238 284 368 434
#     4  10  25  44  70  97 139 188 234 287 351 407
#     4  11  26  46  71 105 144 180 239 294 352 421
#
# _framework density 20.919160999999999
#
# number of rings (size 3 to 8) (size 9 to 14) (size 15 to 20)
#    0.000    1.143    2.143    2.571   10.000    4.571 
#    5.143    1.429    0.000    0.000    0.000    0.000 
#    0.000    0.000    0.000    0.000    0.000    0.000 
#
# Total GULP energy -78386.542699 kJ/mol
# GULP energy per Si atom -5599.038764 kJ/mol
# Density = 2.087155 g / cm^3
# Si number density = 20.919161 Si / 1000 Ang^3
#
#
#
# Elastic Constant Matrix: (Units=GPa)
#
#
# Indices 1 2 3 4 5 6 
#
# 1 123.9659 62.8025 56.8446 0.0000 -12.6008 0.0000
# 2 62.8025 131.8479 63.1769 0.0000 0.6384 0.0000
# 3 56.8446 63.1769 136.9518 0.0000 -2.3868 0.0000
# 4 0.0000 0.0000 0.0000 27.0989 0.0000 2.5298
# 5 -12.6008 0.6384 -2.3868 0.0000 45.8670 0.0000
# 6 0.0000 0.0000 0.0000 2.5298 0.0000 15.5966
#
#
#
# Elastic Compliance Matrix: (Units=1/GPa)
#
#
# Indices 1 2 3 4 5 6 
#
# 1 0.011894 -0.004290 -0.002902 0.000000 0.003176 0.000000
# 2 -0.004290 0.011290 -0.003454 0.000000 -0.001515 0.000000
# 3 -0.002902 -0.003454 0.010096 0.000000 -0.000224 0.000000
# 4 0.000000 0.000000 0.000000 0.037469 0.000000 -0.006078
# 5 0.003176 -0.001515 -0.000224 0.000000 0.022684 0.000000
# 6 0.000000 0.000000 0.000000 -0.006078 0.000000 0.065103
#
#
# Mechanical properties :
#
#
# Convention : Reuss Voigt Hill
#
# Bulk Modulus (GPa) = 83.42202 84.26819 83.84511
# Shear Modulus (GPa) = 27.19978 31.70858 29.45418
#
# Velocity S-wave (km/s) = 3.60979 3.89751 3.75640
# Velocity P-wave (km/s) = 7.57225 7.78616 7.67995
#
# Compressibility (1/GPa) = 0.01198724
#
# Stress axis : x y z
#
# Youngs Moduli (GPa) = 84.07710 88.57133 99.04871
#
# Poissons Ratio (x) = 0.37997 0.28748
# Poissons Ratio (y) = 0.36069 0.34212
# Poissons Ratio (z) = 0.24403 0.30593
#
# Static dielectric constant tensor:
#      x y z
#    x 1.750330 0.000000 -0.001670 
#    y 0.000000 1.741730 0.000000 
#    z -0.001670 0.000000 1.737210 
# 
# From -- ./inp_files/50395.got.cif
#   From: 2010.05.17/outbox.cif.g08.bks.cpg/sg5_26_cif.got.tgz:50395.got - 2010.06.03 18:56:24.
