data_PCOD9126755
_publ_section_title
;
Structure prediction by ZEFSAII (Michael W. Deem and Ramdas Pophale) SiO2 
 PCOD9126755
Probable space group: C 2
;
_chemical_formula_sum "Si O2"
_cell_formula_units_Z 20
_cell_length_a 8.087010
_cell_length_b 18.799924
_cell_length_c 5.530869
_cell_angle_alpha 90.000000
_cell_angle_beta 89.572483
_cell_angle_gamma 90.000000
_cell_volume 840.863219
_symmetry_space_group_name_H-M "C 2"
_symmetry_group_IT_number 5
_symmetry_cell_setting 'monoclinic'
loop_
_space_group_symop_operation_xyz
x,y,z
-x,y,-z
1/2+x,1/2+y,z
1/2-x,1/2+y,-z
loop_
_atom_site_type_symbol
_atom_site_label
_atom_site_fract_x
_atom_site_fract_y
_atom_site_fract_z
Si Si1 0.500000 0.862080 0.500000
Si Si2 0.333979 0.321857 0.638530
Si Si3 0.843081 0.982818 0.835378
Si Si4 0.325949 0.633646 0.699811
Si Si5 0.795230 0.186065 0.202660
Si Si6 0.500000 0.948679 0.000000
O O1 0.670501 0.820182 0.473927
O O2 0.492858 0.905665 0.251699
O O3 0.500000 0.301872 0.500000
O O4 0.356734 0.403283 0.727089
O O5 0.272162 0.265989 0.839892
O O6 0.840868 0.049109 0.653926
O O7 0.675168 0.987182 0.991904
O O8 0.000000 0.994811 0.000000
O O9 0.231585 0.664333 0.469393
O O10 0.507386 0.670573 0.748296
O O11 0.245316 0.644259 0.963575
#
# Coordination Sequence:
#
# PCOD9126755 Si02
#       6
#     2   4   4   4   4   2
#     4  10  22  44  64  98 152 176 228 294 372 414
#     4  11  25  42  74 112 144 190 246 306 360 432
#     4  11  23  44  74 111 144 190 248 304 361 430
#     4  10  22  43  73  94 141 199 232 282 365 439
#     4  10  22  42  64 101 137 189 231 285 357 431
#     4  10  24  40  64 106 138 184 226 306 354 418
#
# _framework density 23.785081999999999
#
# number of rings (size 3 to 8) (size 9 to 14) (size 15 to 20)
#    0.000    1.600    2.000    2.400    2.800   14.400 
#    3.600    0.000    0.000    0.000    0.000    0.000 
#    0.000    0.000    0.000    0.000    0.000    0.000 
#
# Total GULP energy -55743.614442 kJ/mol
# GULP energy per Si atom -5574.361444 kJ/mol
# Density = 2.373095 g / cm^3
# Si number density = 23.785082 Si / 1000 Ang^3
#
#
#
# Elastic Constant Matrix: (Units=GPa)
#
#
# Indices 1 2 3 4 5 6 
#
# 1 139.8392 5.0126 13.8568 0.0000 -30.0337 0.0000
# 2 5.0126 153.3498 32.3373 0.0000 -11.7881 0.0000
# 3 13.8568 32.3373 144.0065 0.0000 6.0020 0.0000
# 4 0.0000 0.0000 0.0000 11.7128 0.0000 56.4714
# 5 -30.0337 -11.7881 6.0020 0.0000 25.7938 0.0000
# 6 0.0000 0.0000 0.0000 56.4714 0.0000 -451.9882
#
#
#
# Elastic Compliance Matrix: (Units=1/GPa)
#
#
# Indices 1 2 3 4 5 6 
#
# 1 0.009956 0.000989 -0.001698 0.000000 0.012439 0.000000
# 2 0.000989 0.007275 -0.001934 0.000000 0.004927 0.000000
# 3 -0.001698 -0.001934 0.007736 0.000000 -0.004662 0.000000
# 4 0.000000 0.000000 0.000000 0.053281 0.000000 0.006657
# 5 0.012439 0.004927 -0.004662 0.000000 0.056589 0.000000
# 6 0.000000 0.000000 0.000000 0.006657 0.000000 -0.001381
#
#
# Mechanical properties :
#
#
# Convention : Reuss Voigt Hill
#
# Bulk Modulus (GPa) = 50.81410 59.95654 55.38532
# Shear Modulus (GPa) = 34.41060 -57.16375 -11.37658
#
# Velocity S-wave (km/s) = 3.80772 -4.90771 -2.18940
# Velocity P-wave (km/s) = 6.38293 2.61760 4.11643
#
# Compressibility (1/GPa) = 0.01967958
#
# Stress axis : x y z
#
# Youngs Moduli (GPa) = 100.44668 137.45167 129.26258
#
# Poissons Ratio (x) = -0.13593 0.21955
# Poissons Ratio (y) = -0.09934 0.25002
# Poissons Ratio (z) = 0.17061 0.26586
#
# Static dielectric constant tensor:
#      x y z
#    x 1.965330 0.000000 -0.202380 
#    y 0.000000 2.065060 0.000000 
#    z -0.202380 0.000000 2.402320 
# 
# From -- ./inp_files/2387.got.cif
#   From: 2010.05.17/outbox.cif.g08.bks.cpg/sg5_2_cif.got.tgz:2387.got - 2010.06.03 18:56:24.
