data_PCOD9126687
_publ_section_title
;
Structure prediction by ZEFSAII (Michael W. Deem and Ramdas Pophale) SiO2 
 PCOD9126687
Probable space group: C 2
;
_chemical_formula_sum "Si O2"
_cell_formula_units_Z 24
_cell_length_a 8.311146
_cell_length_b 16.946696
_cell_length_c 14.333044
_cell_angle_alpha 90.000000
_cell_angle_beta 31.384424
_cell_angle_gamma 90.000000
_cell_volume 1051.324191
_symmetry_space_group_name_H-M "C 2"
_symmetry_group_IT_number 5
_symmetry_cell_setting 'monoclinic'
loop_
_space_group_symop_operation_xyz
x,y,z
-x,y,-z
1/2+x,1/2+y,z
1/2-x,1/2+y,-z
loop_
_atom_site_type_symbol
_atom_site_label
_atom_site_fract_x
_atom_site_fract_y
_atom_site_fract_z
Si Si1 0.182748 0.640280 0.813229
Si Si2 0.304393 0.982114 0.309947
Si Si3 0.634140 0.267703 0.158456
Si Si4 0.643858 0.039628 0.329454
Si Si5 0.632277 0.211780 0.525860
Si Si6 0.120703 0.918905 0.045520
O O1 0.259911 0.560075 0.719326
O O2 0.513607 0.684112 0.661474
O O3 0.962373 0.693728 0.857892
O O4 0.000000 0.627084 0.000000
O O5 0.483074 0.007973 0.315374
O O6 0.000000 0.943915 0.500000
O O7 0.513757 0.926529 0.144309
O O8 0.427941 0.261252 0.352762
O O9 0.543012 0.346537 0.148928
O O10 0.000000 0.265937 0.000000
O O11 0.500000 0.013426 0.500000
O O12 0.585032 0.133149 0.356211
O O13 0.982420 0.001467 0.152264
O O14 0.500000 0.252829 0.500000
O O15 0.000000 0.905112 0.000000
#
# Coordination Sequence:
#
# PCOD9126687 Si02
#       6
#     4   4   4   4   4   4
#     4  12  25  43  75 107 149 187 250 308 361 430
#     4  11  22  43  70 106 143 186 245 303 361 427
#     4  12  26  46  71 106 152 194 246 292 378 435
#     4  10  22  41  70 105 140 187 243 298 364 426
#     4  11  24  45  73 112 141 191 250 304 367 428
#     4  10  26  46  70 104 149 197 239 302 369 433
#
# _framework density 22.828353
#
# number of rings (size 3 to 8) (size 9 to 14) (size 15 to 20)
#    0.000    1.000    3.333    2.000    7.000    3.333 
#    0.000    7.500    0.000    0.000    0.000    0.000 
#    0.000    0.000    0.000    0.000    0.000    0.000 
#
# Total GULP energy -67139.934752 kJ/mol
# GULP energy per Si atom -5594.994563 kJ/mol
# Density = 2.277639 g / cm^3
# Si number density = 22.828353 Si / 1000 Ang^3
#
#
#
# Elastic Constant Matrix: (Units=GPa)
#
#
# Indices 1 2 3 4 5 6 
#
# 1 99.1117 21.1221 49.0725 -0.0149 21.4502 0.0200
# 2 21.1221 74.0725 42.9744 -0.0086 8.8442 0.0132
# 3 49.0725 42.9744 168.1204 -0.0078 16.1088 -0.0040
# 4 -0.0149 -0.0086 -0.0078 23.6229 0.0064 20.9178
# 5 21.4502 8.8442 16.1088 0.0064 48.9768 -0.0044
# 6 0.0200 0.0132 -0.0040 20.9178 -0.0044 -8.2507
#
#
#
# Elastic Compliance Matrix: (Units=1/GPa)
#
#
# Indices 1 2 3 4 5 6 
#
# 1 0.012802 -0.001413 -0.002956 -0.000006 -0.004380 0.000016
# 2 -0.001413 0.016126 -0.003604 -0.000005 -0.001108 0.000011
# 3 -0.002956 -0.003604 0.007791 0.000004 -0.000617 -0.000005
# 4 -0.000006 -0.000005 0.000004 0.013045 0.000004 0.033074
# 5 -0.004380 -0.001108 -0.000617 0.000004 0.022739 -0.000015
# 6 0.000016 0.000011 -0.000005 0.033074 -0.000015 -0.037351
#
#
# Mechanical properties :
#
#
# Convention : Reuss Voigt Hill
#
# Bulk Modulus (GPa) = 48.13511 63.07140 55.60326
# Shear Modulus (GPa) = 86.17280 28.07882 57.12581
#
# Velocity S-wave (km/s) = 6.15062 3.51094 5.00783
# Velocity P-wave (km/s) = 8.46000 6.64260 7.60578
#
# Compressibility (1/GPa) = 0.02077486
#
# Stress axis : x y z
#
# Youngs Moduli (GPa) = 78.11188 62.01126 128.34927
#
# Poissons Ratio (x) = 0.08760 0.37941
# Poissons Ratio (y) = 0.11034 0.46252
# Poissons Ratio (z) = 0.23090 0.22346
#
# Static dielectric constant tensor:
#      x y z
#    x 1.883080 0.000010 -0.011650 
#    y 0.000010 1.809180 0.000000 
#    z -0.011650 0.000000 1.874410 
# 
# From -- ./inp_files/51320.got.cif
#   From: 2010.05.17/outbox.cif.g08.bks.cpg/sg5_26_cif.got.tgz:51320.got - 2010.06.03 18:56:24.
