data_PCOD9126541
_publ_section_title
;
Structure prediction by ZEFSAII (Michael W. Deem and Ramdas Pophale) SiO2 
 PCOD9126541
Probable space group: C 2
;
_chemical_formula_sum "Si O2"
_cell_formula_units_Z 22
_cell_length_a 8.241602
_cell_length_b 15.306724
_cell_length_c 9.898874
_cell_angle_alpha 90.000000
_cell_angle_beta 43.807389
_cell_angle_gamma 90.000000
_cell_volume 864.438343
_symmetry_space_group_name_H-M "C 2"
_symmetry_group_IT_number 5
_symmetry_cell_setting 'monoclinic'
loop_
_space_group_symop_operation_xyz
x,y,z
-x,y,-z
1/2+x,1/2+y,z
1/2-x,1/2+y,-z
loop_
_atom_site_type_symbol
_atom_site_label
_atom_site_fract_x
_atom_site_fract_y
_atom_site_fract_z
Si Si1 0.819956 0.091270 0.326291
Si Si2 0.884241 0.276061 0.417750
Si Si3 0.500000 0.990485 0.000000
Si Si4 0.992466 0.914696 0.306913
Si Si5 0.323293 0.110242 0.872650
Si Si6 0.154549 0.786173 0.020485
O O1 0.808005 0.178064 0.423444
O O2 0.652019 0.081749 0.297194
O O3 0.853265 0.004588 0.392674
O O4 0.069265 0.098693 0.095766
O O5 0.090605 0.301771 0.190567
O O6 0.000000 0.278583 0.500000
O O7 0.669899 0.342367 0.527079
O O8 0.523982 0.052597 0.117071
O O9 0.266282 0.933628 0.169020
O O10 0.018369 0.873267 0.141541
O O11 0.347751 0.215484 0.859390
O O12 0.000000 0.739464 0.000000
#
# Coordination Sequence:
#
# PCOD9126541 Si02
#       6
#     4   4   2   4   4   4
#     4   9  22  44  74 110 149 196 252 313 376 444
#     4  11  24  46  77 113 156 197 252 309 384 452
#     4  10  22  40  74 112 148 202 250 310 380 452
#     4  11  25  45  76 113 151 199 253 311 374 453
#     4   9  19  41  73 108 146 196 252 303 381 453
#     4  11  22  42  76 103 146 201 243 309 378 438
#
# _framework density 25.450049
#
# number of rings (size 3 to 8) (size 9 to 14) (size 15 to 20)
#    0.000    1.818    2.727    0.000    5.091    2.909 
#    0.000   18.182    4.000    0.000    0.000    0.000 
#    0.000    0.000    0.000    0.000    0.000    0.000 
#
# Total GULP energy -61501.861905 kJ/mol
# GULP energy per Si atom -5591.078355 kJ/mol
# Density = 2.539212 g / cm^3
# Si number density = 25.450049 Si / 1000 Ang^3
#
#
#
# Elastic Constant Matrix: (Units=GPa)
#
#
# Indices 1 2 3 4 5 6 
#
# 1 129.7631 66.3137 48.1228 -0.0002 -10.3001 0.0002
# 2 66.3137 165.2872 53.4553 0.0000 -24.0339 -0.0001
# 3 48.1228 53.4553 124.5522 0.0000 -17.1762 0.0000
# 4 -0.0002 0.0000 0.0000 31.6529 0.0000 -11.1937
# 5 -10.3001 -24.0339 -17.1762 0.0000 40.1222 -0.0001
# 6 0.0002 -0.0001 0.0000 -11.1937 -0.0001 41.3897
#
#
#
# Elastic Compliance Matrix: (Units=1/GPa)
#
#
# Indices 1 2 3 4 5 6 
#
# 1 0.010369 -0.003383 -0.002621 0.000000 -0.000487 0.000000
# 2 -0.003383 0.008512 -0.001873 0.000000 0.003428 0.000000
# 3 -0.002621 -0.001873 0.010200 0.000000 0.002572 0.000000
# 4 0.000000 0.000000 0.000000 0.034934 0.000000 0.009448
# 5 -0.000487 0.003428 0.002572 0.000000 0.027953 0.000000
# 6 0.000000 0.000000 0.000000 0.009448 0.000000 0.026716
#
#
# Mechanical properties :
#
#
# Convention : Reuss Voigt Hill
#
# Bulk Modulus (GPa) = 75.04446 83.93180 79.48813
# Shear Modulus (GPa) = 36.00232 39.41370 37.70801
#
# Velocity S-wave (km/s) = 3.76523 3.93958 3.85339
# Velocity P-wave (km/s) = 6.96086 7.33106 7.14836
#
# Compressibility (1/GPa) = 0.01332543
#
# Stress axis : x y z
#
# Youngs Moduli (GPa) = 96.44455 117.48641 98.03802
#
# Poissons Ratio (x) = 0.39745 0.25699
# Poissons Ratio (y) = 0.32627 0.18364
# Poissons Ratio (z) = 0.25281 0.22007
#
# Static dielectric constant tensor:
#      x y z
#    x 2.128100 0.000000 0.004610 
#    y 0.000000 1.967590 0.000000 
#    z 0.004610 0.000000 2.030930 
# 
# From -- ./inp_files/14749.got.cif
#   From: 2010.05.17/outbox.cif.g08.bks.cpg/sg5_8_cif.got.tgz:14749.got - 2010.06.03 18:56:24.
