data_PCOD9126991
_publ_section_title
;
Structure prediction by ZEFSAII (Michael W. Deem and Ramdas Pophale) SiO2 
 PCOD9126991
Probable space group: C 2
;
_chemical_formula_sum "Si O2"
_cell_formula_units_Z 30
_cell_length_a 12.424819
_cell_length_b 8.166435
_cell_length_c 16.664018
_cell_angle_alpha 90.000000
_cell_angle_beta 56.425471
_cell_angle_gamma 90.000000
_cell_volume 1408.751707
_symmetry_space_group_name_H-M "C 2"
_symmetry_group_IT_number 5
_symmetry_cell_setting 'monoclinic'
loop_
_space_group_symop_operation_xyz
x,y,z
-x,y,-z
1/2+x,1/2+y,z
1/2-x,1/2+y,-z
loop_
_atom_site_type_symbol
_atom_site_label
_atom_site_fract_x
_atom_site_fract_y
_atom_site_fract_z
Si Si1 0.288655 0.494850 0.899031
Si Si2 0.497696 0.058263 0.182573
Si Si3 0.254900 0.253503 0.329775
Si Si4 0.380964 0.297937 0.993006
Si Si5 0.500000 0.828940 0.500000
Si Si6 0.919634 0.075810 0.262720
Si Si7 0.956733 0.358319 0.691176
Si Si8 0.093463 0.266822 0.890511
O O1 0.300336 0.444973 0.988175
O O2 0.432536 0.519683 0.808397
O O3 0.214891 0.353953 0.881305
O O4 0.207485 0.661592 0.929272
O O5 0.359002 0.113612 0.274654
O O6 0.557890 0.207744 0.109888
O O7 0.569892 0.991423 0.230474
O O8 0.481930 0.912247 0.125334
O O9 0.328337 0.423005 0.321920
O O10 0.177886 0.274116 0.277871
O O11 0.133522 0.227206 0.439356
O O12 0.500000 0.342887 0.000000
O O13 0.501059 0.922283 0.584807
O O14 0.876932 0.139439 0.192156
O O15 0.938628 0.229221 0.315909
O O16 0.000000 0.207427 0.000000
#
# Coordination Sequence:
#
# PCOD9126991 Si02
#       8
#     4   4   4   4   2   4   4   4
#     4  12  24  38  60  86 126 169 210 250 294 348
#     4  11  20  41  66  87 122 170 200 254 306 364
#     4  10  22  43  62  93 122 151 213 253 316 383
#     4  12  26  39  58  91 128 173 210 252 294 358
#     4   8  22  44  66  92 120 156 192 274 324 376
#     4  11  24  38  64  91 120 168 206 248 304 372
#     4   9  23  41  65  90 123 158 194 263 317 367
#     4  11  22  42  57  89 132 164 210 250 293 351
#
# _framework density 21.295449999999999
#
# number of rings (size 3 to 8) (size 9 to 14) (size 15 to 20)
#    0.800    0.533    4.000    1.600    3.733    2.667 
#    0.000    0.000    0.000    2.400    0.000    0.000 
#    0.000    0.000    0.000    0.000    0.000    0.000 
#
# Total GULP energy -83716.864852 kJ/mol
# GULP energy per Si atom -5581.124323 kJ/mol
# Density = 2.124698 g / cm^3
# Si number density = 21.295450 Si / 1000 Ang^3
#
#
#
# Elastic Constant Matrix: (Units=GPa)
#
#
# Indices 1 2 3 4 5 6 
#
# 1 101.1721 12.5778 20.8330 0.0000 15.1430 0.0000
# 2 12.5778 52.2300 15.3097 0.0000 4.0826 0.0000
# 3 20.8330 15.3097 86.6063 0.0000 4.8430 0.0000
# 4 0.0000 0.0000 0.0000 6.5752 0.0000 -3.8602
# 5 15.1430 4.0826 4.8430 0.0000 46.9215 0.0000
# 6 0.0000 0.0000 0.0000 -3.8602 0.0000 14.9016
#
#
#
# Elastic Compliance Matrix: (Units=1/GPa)
#
#
# Indices 1 2 3 4 5 6 
#
# 1 0.011026 -0.001773 -0.002161 0.000000 -0.003181 0.000000
# 2 -0.001773 0.020569 -0.003160 0.000000 -0.000891 0.000000
# 3 -0.002161 -0.003160 0.012643 0.000000 -0.000333 0.000000
# 4 0.000000 0.000000 0.000000 0.179363 0.000000 0.046463
# 5 -0.003181 -0.000891 -0.000333 0.000000 0.022451 0.000000
# 6 0.000000 0.000000 0.000000 0.046463 0.000000 0.079143
#
#
# Mechanical properties :
#
#
# Convention : Reuss Voigt Hill
#
# Bulk Modulus (GPa) = 33.27709 37.49437 35.38573
# Shear Modulus (GPa) = 14.31029 26.43219 20.37124
#
# Velocity S-wave (km/s) = 2.59509 3.52691 3.09625
# Velocity P-wave (km/s) = 4.96383 5.85068 5.42540
#
# Compressibility (1/GPa) = 0.03005070
#
# Stress axis : x y z
#
# Youngs Moduli (GPa) = 90.69753 48.61703 79.09239
#
# Poissons Ratio (x) = 0.08620 0.17091
# Poissons Ratio (y) = 0.16082 0.24991
# Poissons Ratio (z) = 0.19599 0.15361
#
# Static dielectric constant tensor:
#      x y z
#    x 1.781310 0.000000 0.001170 
#    y 0.000000 1.804940 0.000000 
#    z 0.001170 0.000000 1.793580 
# 
# From -- ./inp_files/60301.got.cif
#   From: 2010.05.17/outbox.cif.g08.bks.cpg/sg5_31_cif.got.tgz:60301.got - 2010.06.03 18:56:24.
