data_PCOD9126439
_publ_section_title
;
Structure prediction by ZEFSAII (Michael W. Deem and Ramdas Pophale) SiO2 
 PCOD9126439
Probable space group: C 2
;
_chemical_formula_sum "Si O2"
_cell_formula_units_Z 20
_cell_length_a 24.863555
_cell_length_b 4.823010
_cell_length_c 11.702206
_cell_angle_alpha 90.000000
_cell_angle_beta 32.030920
_cell_angle_gamma 90.000000
_cell_volume 744.275423
_symmetry_space_group_name_H-M "C 2"
_symmetry_group_IT_number 5
_symmetry_cell_setting 'monoclinic'
loop_
_space_group_symop_operation_xyz
x,y,z
-x,y,-z
1/2+x,1/2+y,z
1/2-x,1/2+y,-z
loop_
_atom_site_type_symbol
_atom_site_label
_atom_site_fract_x
_atom_site_fract_y
_atom_site_fract_z
Si Si1 0.500000 0.206151 0.500000
Si Si2 0.952771 0.063902 0.375910
Si Si3 0.353043 0.351200 0.086435
Si Si4 0.354528 0.046725 0.453826
Si Si5 0.000000 0.547003 0.000000
Si Si6 0.197160 0.497685 0.039995
O O1 0.446717 0.412626 0.507005
O O2 0.582256 0.024797 0.287634
O O3 0.885380 0.865465 0.414191
O O4 0.907670 0.368037 0.457496
O O5 0.069196 0.049166 0.122943
O O6 0.263981 0.499391 0.316869
O O7 0.428601 0.207022 0.039437
O O8 0.304042 0.133131 0.084419
O O9 0.413327 0.918327 0.238037
O O10 0.239901 0.194785 0.986217
#
# Coordination Sequence:
#
# PCOD9126439 Si02
#       6
#     2   4   4   4   2   4
#     4  10  22  40  66  96 134 168 210 268 318 382
#     4  10  24  41  65  98 129 169 216 261 322 386
#     4  10  24  44  68  96 132 170 215 268 320 382
#     4  11  24  44  65  92 130 170 215 268 320 378
#     4  10  26  44  66  98 128 172 222 264 322 382
#     4  11  24  42  68  99 130 170 214 261 324 386
#
# _framework density 26.871773000000001
#
# number of rings (size 3 to 8) (size 9 to 14) (size 15 to 20)
#    0.000    1.600    0.000    2.400    0.000   22.400 
#    0.000    0.000    0.000    0.000    0.000    0.000 
#    0.000    0.000    0.000    0.000    0.000    0.000 
#
# Total GULP energy -56083.151648 kJ/mol
# GULP energy per Si atom -5608.315165 kJ/mol
# Density = 2.681061 g / cm^3
# Si number density = 26.871773 Si / 1000 Ang^3
#
#
#
# Elastic Constant Matrix: (Units=GPa)
#
#
# Indices 1 2 3 4 5 6 
#
# 1 123.9948 22.8858 25.9742 0.0002 -7.6921 0.0005
# 2 22.8858 107.6940 16.6973 -0.0037 -4.3305 -0.0001
# 3 25.9742 16.6973 193.4121 -0.0007 -4.1861 0.0006
# 4 0.0002 -0.0037 -0.0007 35.4469 -0.0005 4.8794
# 5 -7.6921 -4.3305 -4.1861 -0.0005 37.4630 0.0003
# 6 0.0005 -0.0001 0.0006 4.8794 0.0003 12.3226
#
#
#
# Elastic Compliance Matrix: (Units=1/GPa)
#
#
# Indices 1 2 3 4 5 6 
#
# 1 0.008665 -0.001628 -0.000991 0.000000 0.001480 0.000000
# 2 -0.001628 0.009755 -0.000608 0.000001 0.000725 0.000000
# 3 -0.000991 -0.000608 0.005363 0.000000 0.000326 0.000000
# 4 0.000000 0.000001 0.000000 0.029838 0.000001 -0.011815
# 5 0.001480 0.000725 0.000326 0.000001 0.027117 -0.000001
# 6 0.000000 0.000000 0.000000 -0.011815 -0.000001 0.085830
#
#
# Mechanical properties :
#
#
# Convention : Reuss Voigt Hill
#
# Bulk Modulus (GPa) = 57.70780 61.80173 59.75476
# Shear Modulus (GPa) = 27.96457 41.01608 34.49032
#
# Velocity S-wave (km/s) = 3.22944 3.91111 3.58650
# Velocity P-wave (km/s) = 5.95210 6.59123 6.27981
#
# Compressibility (1/GPa) = 0.01732868
#
# Stress axis : x y z
#
# Youngs Moduli (GPa) = 115.40966 102.51189 186.46574
#
# Poissons Ratio (x) = 0.16691 0.18479
# Poissons Ratio (y) = 0.18791 0.11333
# Poissons Ratio (z) = 0.11438 0.06231
#
# Static dielectric constant tensor:
#      x y z
#    x 2.165910 0.000000 0.059750 
#    y 0.000000 2.054040 0.000000 
#    z 0.059750 0.000000 2.087730 
# 
# From -- ./inp_files/40984.got.cif
#   From: 2010.05.17/outbox.cif.g08.bks.cpg/sg5_21_cif.got.tgz:40984.got - 2010.06.03 18:56:24.
