data_PCOD9126717
_publ_section_title
;
Structure prediction by ZEFSAII (Michael W. Deem and Ramdas Pophale) SiO2 
 PCOD9126717
Probable space group: C 2
;
_chemical_formula_sum "Si O2"
_cell_formula_units_Z 20
_cell_length_a 13.853420
_cell_length_b 5.859014
_cell_length_c 19.238946
_cell_angle_alpha 90.000000
_cell_angle_beta 150.014128
_cell_angle_gamma 90.000000
_cell_volume 780.453947
_symmetry_space_group_name_H-M "C 2"
_symmetry_group_IT_number 5
_symmetry_cell_setting 'monoclinic'
loop_
_space_group_symop_operation_xyz
x,y,z
-x,y,-z
1/2+x,1/2+y,z
1/2-x,1/2+y,-z
loop_
_atom_site_type_symbol
_atom_site_label
_atom_site_fract_x
_atom_site_fract_y
_atom_site_fract_z
Si Si1 0.649907 0.000000 0.838873
Si Si2 0.881312 0.518403 0.785599
Si Si3 0.881030 0.672172 0.329294
Si Si4 0.500000 0.766759 0.500000
Si Si5 0.500000 0.230070 0.000000
Si Si6 0.255207 0.864219 0.539018
O O1 0.586039 0.072080 0.876044
O O2 0.651930 0.170700 0.774177
O O3 0.459475 0.847912 0.704847
O O4 0.849032 0.875368 0.950680
O O5 0.809496 0.255619 0.749611
O O6 0.713328 0.650756 0.638234
O O7 0.887246 0.596567 0.869565
O O8 0.969478 0.438239 0.414685
O O9 0.048293 0.854152 0.448085
O O10 0.245883 0.619029 0.493970
#
# Coordination Sequence:
#
# PCOD9126717 Si02
#       6
#     4   4   4   2   2   4
#     4  11  26  48  78 112 158 214 268 329 409 486
#     4  12  28  51  81 115 158 211 268 334 418 484
#     4  11  25  46  79 118 159 200 270 340 403 489
#     4  12  24  50  80 118 160 198 268 342 406 486
#     4  12  28  54  74 112 164 208 274 334 398 510
#     4  10  22  41  75 118 157 208 264 339 413 474
#
# _framework density 25.626109
#
# number of rings (size 3 to 8) (size 9 to 14) (size 15 to 20)
#    0.000    0.800    2.000    4.200   14.000    4.000 
#    7.200    0.000    0.000    0.000    0.000    0.000 
#    0.000    0.000    0.000    0.000    0.000    0.000 
#
# Total GULP energy -55725.132126 kJ/mol
# GULP energy per Si atom -5572.513213 kJ/mol
# Density = 2.556778 g / cm^3
# Si number density = 25.626109 Si / 1000 Ang^3
#
#
#
# Elastic Constant Matrix: (Units=GPa)
#
#
# Indices 1 2 3 4 5 6 
#
# 1 191.7786 37.1444 25.5346 0.0001 11.3598 0.0000
# 2 37.1444 68.5163 33.9979 0.0004 1.9637 0.0008
# 3 25.5346 33.9979 77.7406 0.0004 3.3464 0.0002
# 4 0.0001 0.0004 0.0004 27.5706 0.0002 3.8075
# 5 11.3598 1.9637 3.3464 0.0002 50.7338 0.0001
# 6 0.0000 0.0008 0.0002 3.8075 0.0001 44.9790
#
#
#
# Elastic Compliance Matrix: (Units=1/GPa)
#
#
# Indices 1 2 3 4 5 6 
#
# 1 0.005923 -0.002857 -0.000646 0.000000 -0.001173 0.000000
# 2 -0.002857 0.020020 -0.007833 0.000000 0.000382 0.000000
# 3 -0.000646 -0.007833 0.016529 0.000000 -0.000643 0.000000
# 4 0.000000 0.000000 0.000000 0.036699 0.000000 -0.003107
# 5 -0.001173 0.000382 -0.000643 0.000000 0.020001 0.000000
# 6 0.000000 0.000000 0.000000 -0.003107 0.000000 0.022496
#
#
# Mechanical properties :
#
#
# Convention : Reuss Voigt Hill
#
# Bulk Modulus (GPa) = 50.50509 59.04326 54.77418
# Shear Modulus (GPa) = 33.12588 40.74727 36.93657
#
# Velocity S-wave (km/s) = 3.59926 3.99189 3.80065
# Velocity P-wave (km/s) = 6.08475 6.65862 6.37814
#
# Compressibility (1/GPa) = 0.01979999
#
# Stress axis : x y z
#
# Youngs Moduli (GPa) = 168.82864 49.95033 60.50120
#
# Poissons Ratio (x) = 0.14272 0.03905
# Poissons Ratio (y) = 0.48237 0.47392
# Poissons Ratio (z) = 0.10898 0.39127
#
# Static dielectric constant tensor:
#      x y z
#    x 2.401100 0.000000 -0.083950 
#    y 0.000000 2.071830 0.000000 
#    z -0.083950 0.000000 2.027240 
# 
# From -- ./inp_files/65617.got.cif
#   From: 2010.05.17/outbox.cif.g08.bks.cpg/sg5_33_cif.got.tgz:65617.got - 2010.06.03 18:56:24.
