data_PCOD9126598
_publ_section_title
;
Structure prediction by ZEFSAII (Michael W. Deem and Ramdas Pophale) SiO2 
 PCOD9126598
Probable space group: C 2
;
_chemical_formula_sum "Si O2"
_cell_formula_units_Z 28
_cell_length_a 17.325173
_cell_length_b 8.378215
_cell_length_c 14.820135
_cell_angle_alpha 90.000000
_cell_angle_beta 40.971630
_cell_angle_gamma 90.000000
_cell_volume 1410.511585
_symmetry_space_group_name_H-M "C 2"
_symmetry_group_IT_number 5
_symmetry_cell_setting 'monoclinic'
loop_
_space_group_symop_operation_xyz
x,y,z
-x,y,-z
1/2+x,1/2+y,z
1/2-x,1/2+y,-z
loop_
_atom_site_type_symbol
_atom_site_label
_atom_site_fract_x
_atom_site_fract_y
_atom_site_fract_z
Si Si1 0.500000 0.631590 0.000000
Si Si2 0.552927 0.351956 0.088693
Si Si3 0.806355 0.153446 0.409799
Si Si4 0.232036 0.321036 0.729703
Si Si5 0.459523 0.518345 0.721161
Si Si6 0.751005 0.664996 0.191883
Si Si7 0.500000 0.338451 0.500000
Si Si8 0.218236 0.817497 0.659944
O O1 0.454550 0.517370 0.959920
O O2 0.617421 0.727723 0.868527
O O3 0.580472 0.387348 0.169384
O O4 0.419573 0.292008 0.199729
O O5 0.641413 0.235214 0.959963
O O6 0.785347 0.301460 0.361984
O O7 0.749080 0.194036 0.554984
O O8 0.940591 0.116823 0.315889
O O9 0.762954 0.995103 0.395706
O O10 0.226166 0.497084 0.777390
O O11 0.368315 0.261493 0.626560
O O12 0.354349 0.630241 0.783110
O O13 0.509206 0.440226 0.584895
O O14 0.718296 0.785581 0.301677
#
# Coordination Sequence:
#
# PCOD9126598 Si02
#       8
#     2   4   4   4   4   4   2   4
#     4  12  22  42  70  98 136 174 230 280 336 400
#     4  11  22  44  64  92 140 181 215 281 346 400
#     4  11  21  42  67  93 131 177 232 271 338 406
#     4  11  23  40  69 100 131 176 232 275 334 404
#     4  10  22  41  64  94 137 178 216 278 345 392
#     4  11  23  41  67  97 133 177 225 277 347 402
#     4  10  22  44  64  98 138 176 216 288 336 390
#     4  11  21  39  64  94 128 178 221 283 331 395
#
# _framework density 19.850954000000002
#
# number of rings (size 3 to 8) (size 9 to 14) (size 15 to 20)
#    0.000    1.143    4.286    4.286    2.000    2.286 
#    0.000    2.857    0.000    1.714    0.000    0.000 
#    0.000    0.000    0.000    0.000    0.000    0.000 
#
# Total GULP energy -78063.459919 kJ/mol
# GULP energy per Si atom -5575.961423 kJ/mol
# Density = 1.980577 g / cm^3
# Si number density = 19.850954 Si / 1000 Ang^3
#
#
#
# Elastic Constant Matrix: (Units=GPa)
#
#
# Indices 1 2 3 4 5 6 
#
# 1 96.6286 30.9215 20.4829 0.0000 14.5150 0.0000
# 2 30.9215 67.9372 31.3249 0.0000 -2.9793 0.0000
# 3 20.4829 31.3249 103.4025 0.0000 2.9268 0.0000
# 4 0.0000 0.0000 0.0000 39.3804 0.0000 8.3162
# 5 14.5150 -2.9793 2.9268 0.0000 38.5166 0.0000
# 6 0.0000 0.0000 0.0000 8.3162 0.0000 35.2934
#
#
#
# Elastic Compliance Matrix: (Units=1/GPa)
#
#
# Indices 1 2 3 4 5 6 
#
# 1 0.013198 -0.005937 -0.000663 0.000000 -0.005383 0.000000
# 2 -0.005937 0.019895 -0.004968 0.000000 0.004154 0.000000
# 3 -0.000663 -0.004968 0.011336 0.000000 -0.000996 0.000000
# 4 0.000000 0.000000 0.000000 0.026723 0.000000 -0.006297
# 5 -0.005383 0.004154 -0.000996 0.000000 0.028388 0.000000
# 6 0.000000 0.000000 0.000000 -0.006297 0.000000 0.029818
#
#
# Mechanical properties :
#
#
# Convention : Reuss Voigt Hill
#
# Bulk Modulus (GPa) = 46.96951 48.15854 47.56402
# Shear Modulus (GPa) = 31.32986 34.98737 33.15862
#
# Velocity S-wave (km/s) = 3.97704 4.20277 4.09146
# Velocity P-wave (km/s) = 6.69339 6.91837 6.80681
#
# Compressibility (1/GPa) = 0.02129041
#
# Stress axis : x y z
#
# Youngs Moduli (GPa) = 75.76915 50.26434 88.21695
#
# Poissons Ratio (x) = 0.29843 0.05852
# Poissons Ratio (y) = 0.44986 0.43830
# Poissons Ratio (z) = 0.05027 0.24974
#
# Static dielectric constant tensor:
#      x y z
#    x 1.697410 0.000000 0.011810 
#    y 0.000000 1.730460 0.000000 
#    z 0.011810 0.000000 1.768110 
# 
# From -- ./inp_files/55754.got.cif
#   From: 2010.05.17/outbox.cif.g08.bks.cpg/sg5_28_cif.got.tgz:55754.got - 2010.06.03 18:56:24.
