data_PCOD9126268
_publ_section_title
;
Structure prediction by ZEFSAII (Michael W. Deem and Ramdas Pophale) SiO2 
 PCOD9126268
Probable space group: C 2
;
_chemical_formula_sum "Si O2"
_cell_formula_units_Z 32
_cell_length_a 22.013932
_cell_length_b 13.007452
_cell_length_c 15.989915
_cell_angle_alpha 90.000000
_cell_angle_beta 163.079318
_cell_angle_gamma 90.000000
_cell_volume 1332.600471
_symmetry_space_group_name_H-M "C 2"
_symmetry_group_IT_number 5
_symmetry_cell_setting 'monoclinic'
loop_
_space_group_symop_operation_xyz
x,y,z
-x,y,-z
1/2+x,1/2+y,z
1/2-x,1/2+y,-z
loop_
_atom_site_type_symbol
_atom_site_label
_atom_site_fract_x
_atom_site_fract_y
_atom_site_fract_z
Si Si1 0.959174 0.822130 0.252787
Si Si2 0.890279 0.536843 0.989563
Si Si3 0.758387 0.883456 0.653909
Si Si4 0.683099 0.600342 0.039669
Si Si5 0.232832 0.388169 0.791457
Si Si6 0.182697 0.041072 0.552517
Si Si7 0.890640 0.317602 0.060619
Si Si8 0.478298 0.097797 0.658257
O O1 0.087709 0.716544 0.428373
O O2 0.098336 0.923835 0.443768
O O3 0.848504 0.827696 0.016236
O O4 0.771043 0.824718 0.073486
O O5 0.851868 0.415751 0.952402
O O6 0.891386 0.583025 0.083864
O O7 0.114962 0.548695 0.240391
O O8 0.731195 0.575325 0.710308
O O9 0.690092 0.828776 0.649500
O O10 0.631390 0.830705 0.411120
O O11 0.679639 0.001843 0.547170
O O12 0.000000 0.882888 0.000000
O O13 0.496557 0.604757 0.727472
O O14 0.669218 0.711271 0.063152
O O15 0.651075 0.499996 0.054193
O O16 0.882858 0.587445 0.242504
O O17 0.000000 0.421633 0.500000
#
# Coordination Sequence:
#
# PCOD9126268 Si02
#       8
#     4   4   4   4   4   4   4   4
#     4  10  22  39  64  88 117 155 204 250 293 348
#     4  10  22  40  58  85 125 156 195 241 302 358
#     4  11  23  39  59  90 123 157 193 240 304 363
#     4  10  22  39  64  88 117 155 204 250 293 348
#     4  11  19  39  61  88 121 153 197 246 296 352
#     4  10  22  40  58  85 121 163 195 240 298 357
#     4  10  22  41  60  90 118 154 205 249 292 354
#     4  10  22  41  60  90 118 154 205 249 292 354
#
# _framework density 24.013199
#
# number of rings (size 3 to 8) (size 9 to 14) (size 15 to 20)
#    0.000    1.750    2.500    2.250    7.000    5.000 
#    4.500    0.000    0.000    0.000    0.000    0.000 
#    0.000    0.000    0.000    0.000    0.000    0.000 
#
# Total GULP energy -89212.701329 kJ/mol
# GULP energy per Si atom -5575.793833 kJ/mol
# Density = 2.395854 g / cm^3
# Si number density = 24.013199 Si / 1000 Ang^3
#
#
#
# Elastic Constant Matrix: (Units=GPa)
#
#
# Indices 1 2 3 4 5 6 
#
# 1 33.2129 -4.1817 -10.0484 0.0005 -25.2274 0.0003
# 2 -4.1817 103.9862 5.0305 0.0002 5.5684 0.0005
# 3 -10.0484 5.0305 61.0758 0.0007 -10.6906 0.0004
# 4 0.0005 0.0002 0.0007 -3.2603 0.0006 8.1826
# 5 -25.2274 5.5684 -10.6906 0.0006 33.5689 0.0005
# 6 0.0003 0.0005 0.0004 8.1826 0.0005 10.9230
#
#
#
# Elastic Compliance Matrix: (Units=1/GPa)
#
#
# Indices 1 2 3 4 5 6 
#
# 1 0.117097 -0.002446 0.037004 0.000007 0.100190 -0.000014
# 2 -0.002446 0.009830 -0.001927 0.000000 -0.004083 0.000000
# 3 0.037004 -0.001927 0.029169 0.000003 0.037418 -0.000006
# 4 0.000007 0.000000 0.000003 -0.106496 0.000007 0.079778
# 5 0.100190 -0.004083 0.037418 0.000007 0.117677 -0.000015
# 6 -0.000014 0.000000 -0.000006 0.079778 -0.000015 0.031787
#
#
# Mechanical properties :
#
#
# Convention : Reuss Voigt Hill
#
# Bulk Modulus (GPa) = 4.51758 19.98619 12.25188
# Shear Modulus (GPa) = 24.08607 22.07795 23.08201
#
# Velocity S-wave (km/s) = 3.17051 3.03547 3.10372
# Velocity P-wave (km/s) = 3.91001 4.54164 4.23761
#
# Compressibility (1/GPa) = 0.22135759
#
# Stress axis : x y z
#
# Youngs Moduli (GPa) = 8.53995 101.72816 34.28252
#
# Poissons Ratio (x) = 0.24886 -1.26858
# Poissons Ratio (y) = 0.02089 0.06605
# Poissons Ratio (z) = -0.31601 0.19601
#
# Static dielectric constant tensor:
#      x y z
#    x 1.808120 0.000000 -0.050570 
#    y 0.000000 1.942270 0.000000 
#    z -0.050570 0.000000 1.917320 
# 
# From -- ./inp_files/57188.got.cif
#   From: 2010.05.17/outbox.cif.g08.bks.cpg/sg5_29_cif.got.tgz:57188.got - 2010.06.03 18:56:24.
