data_PCOD9126465
_publ_section_title
;
Structure prediction by ZEFSAII (Michael W. Deem and Ramdas Pophale) SiO2 
 PCOD9126465
Probable space group: C 2
;
_chemical_formula_sum "Si O2"
_cell_formula_units_Z 22
_cell_length_a 11.318774
_cell_length_b 7.601985
_cell_length_c 12.113467
_cell_angle_alpha 90.000000
_cell_angle_beta 116.096609
_cell_angle_gamma 90.000000
_cell_volume 936.045848
_symmetry_space_group_name_H-M "C 2"
_symmetry_group_IT_number 5
_symmetry_cell_setting 'monoclinic'
loop_
_space_group_symop_operation_xyz
x,y,z
-x,y,-z
1/2+x,1/2+y,z
1/2-x,1/2+y,-z
loop_
_atom_site_type_symbol
_atom_site_label
_atom_site_fract_x
_atom_site_fract_y
_atom_site_fract_z
Si Si1 0.844408 0.109000 0.431214
Si Si2 0.373247 0.983353 0.504486
Si Si3 0.287865 0.116872 0.075205
Si Si4 0.484697 0.826215 0.226566
Si Si5 0.000000 0.203702 0.000000
Si Si6 0.806206 0.001391 0.180661
O O1 0.838084 0.319882 0.410944
O O2 0.780927 0.009658 0.300871
O O3 0.000000 0.062086 0.500000
O O4 0.757449 0.078006 0.505871
O O5 0.500000 0.079215 0.500000
O O6 0.428866 0.893303 0.638241
O O7 0.326741 0.306213 0.140450
O O8 0.131701 0.097406 0.030344
O O9 0.365335 0.963134 0.166104
O O10 0.297283 0.092865 0.946445
O O11 0.536981 0.816567 0.122951
O O12 0.433581 0.629085 0.227008
#
# Coordination Sequence:
#
# PCOD9126465 Si02
#       6
#     4   4   4   4   2   4
#     4  11  25  48  72 103 147 191 246 305 361 433
#     4  11  25  46  71 105 146 193 240 307 359 432
#     4  11  23  41  72 105 142 189 235 293 374 422
#     4  11  23  46  69 104 149 183 242 304 362 437
#     4  10  22  40  68 102 142 186 228 304 348 438
#     4  11  21  44  71 103 146 186 241 302 361 438
#
# _framework density 23.503122999999999
#
# number of rings (size 3 to 8) (size 9 to 14) (size 15 to 20)
#    0.000    1.091    7.273    1.091    0.000    5.091 
#    0.000   10.000    0.000    0.000    0.000    0.000 
#    0.000    0.000    0.000    0.000    0.000    0.000 
#
# Total GULP energy -61372.581691 kJ/mol
# GULP energy per Si atom -5579.325608 kJ/mol
# Density = 2.344963 g / cm^3
# Si number density = 23.503123 Si / 1000 Ang^3
#
#
#
# Elastic Constant Matrix: (Units=GPa)
#
#
# Indices 1 2 3 4 5 6 
#
# 1 137.8186 44.1125 25.8363 0.0000 -18.6364 0.0000
# 2 44.1125 76.3686 16.6832 0.0000 -3.3813 0.0000
# 3 25.8363 16.6832 112.7065 0.0000 -13.9631 0.0000
# 4 0.0000 0.0000 0.0000 36.1005 0.0000 0.1290
# 5 -18.6364 -3.3813 -13.9631 0.0000 38.5945 0.0000
# 6 0.0000 0.0000 0.0000 0.1290 0.0000 37.7076
#
#
#
# Elastic Compliance Matrix: (Units=1/GPa)
#
#
# Indices 1 2 3 4 5 6 
#
# 1 0.009611 -0.005171 -0.000962 0.000000 0.003840 0.000000
# 2 -0.005171 0.016323 -0.001427 0.000000 -0.001583 0.000000
# 3 -0.000962 -0.001427 0.009664 0.000000 0.002907 0.000000
# 4 0.000000 0.000000 0.000000 0.027701 0.000000 -0.000095
# 5 0.003840 -0.001583 0.002907 0.000000 0.028678 0.000000
# 6 0.000000 0.000000 0.000000 -0.000095 0.000000 0.026520
#
#
# Mechanical properties :
#
#
# Convention : Reuss Voigt Hill
#
# Bulk Modulus (GPa) = 48.83285 55.57309 52.20297
# Shear Modulus (GPa) = 35.60168 38.49797 37.04982
#
# Velocity S-wave (km/s) = 3.89622 4.05160 3.97467
# Velocity P-wave (km/s) = 6.40804 6.75157 6.58204
#
# Compressibility (1/GPa) = 0.02047802
#
# Stress axis : x y z
#
# Youngs Moduli (GPa) = 104.05113 61.26313 103.47168
#
# Poissons Ratio (x) = 0.31681 0.09953
# Poissons Ratio (y) = 0.53807 0.14764
# Poissons Ratio (z) = 0.10009 0.08742
#
# Static dielectric constant tensor:
#      x y z
#    x 2.002060 0.000000 -0.087080 
#    y 0.000000 1.871670 0.000000 
#    z -0.087080 0.000000 1.949360 
# 
# From -- ./inp_files/38414.got.cif
#   From: 2010.05.17/outbox.cif.g08.bks.cpg/sg5_20_cif.got.tgz:38414.got - 2010.06.03 18:56:24.
