data_PCOD9126256
_publ_section_title
;
Structure prediction by ZEFSAII (Michael W. Deem and Ramdas Pophale) SiO2 
 PCOD9126256
Probable space group: C 2
;
_chemical_formula_sum "Si O2"
_cell_formula_units_Z 20
_cell_length_a 9.776751
_cell_length_b 18.923525
_cell_length_c 5.101310
_cell_angle_alpha 90.000000
_cell_angle_beta 69.002108
_cell_angle_gamma 90.000000
_cell_volume 881.122273
_symmetry_space_group_name_H-M "C 2"
_symmetry_group_IT_number 5
_symmetry_cell_setting 'monoclinic'
loop_
_space_group_symop_operation_xyz
x,y,z
-x,y,-z
1/2+x,1/2+y,z
1/2-x,1/2+y,-z
loop_
_atom_site_type_symbol
_atom_site_label
_atom_site_fract_x
_atom_site_fract_y
_atom_site_fract_z
Si Si1 0.717259 0.871890 0.502765
Si Si2 0.337275 0.010956 0.217829
Si Si3 0.089461 0.233375 0.686048
Si Si4 0.142222 0.904953 0.083471
Si Si5 0.603743 0.168086 0.679568
O O1 0.594305 0.818779 0.681724
O O2 0.762162 0.856377 0.176401
O O3 0.675122 0.954477 0.538770
O O4 0.845392 0.869670 0.636964
O O5 0.325502 0.092557 0.292994
O O6 0.500000 0.001209 0.000000
O O7 0.217063 0.980388 0.098408
O O8 0.740457 0.214550 0.485259
O O9 0.000000 0.206883 0.500000
O O10 0.000000 0.208374 0.000000
O O11 0.000000 0.915085 0.000000
O O12 0.500000 0.157944 0.500000
O O13 0.500000 0.191223 0.000000
#
# Coordination Sequence:
#
# PCOD9126256 Si02
#       5
#     4   4   4   4   4
#     4  10  23  38  70  97 133 167 228 283 341 402
#     4   9  23  40  69  95 130 173 231 278 340 398
#     4  12  26  47  72 104 140 188 235 285 346 416
#     4  10  22  39  63 101 137 166 219 284 352 398
#     4  11  26  47  71 100 144 188 232 285 351 416
#
# _framework density 22.698325000000001
#
# number of rings (size 3 to 8) (size 9 to 14) (size 15 to 20)
#    1.200    0.400    0.000    3.600    8.400    2.400 
#    3.600    0.000    0.000    0.000    0.000    0.000 
#    0.000    0.000    0.000    0.000    0.000    0.000 
#
# Total GULP energy -55683.665606 kJ/mol
# GULP energy per Si atom -5568.366561 kJ/mol
# Density = 2.264666 g / cm^3
# Si number density = 22.698325 Si / 1000 Ang^3
#
#
#
# Elastic Constant Matrix: (Units=GPa)
#
#
# Indices 1 2 3 4 5 6 
#
# 1 119.8129 22.8188 31.7176 0.0000 12.3656 0.0000
# 2 22.8188 46.7533 30.8763 0.0000 -11.6042 0.0000
# 3 31.7176 30.8763 148.6781 0.0000 9.0254 0.0000
# 4 0.0000 0.0000 0.0000 14.2953 0.0000 0.1017
# 5 12.3656 -11.6042 9.0254 0.0000 38.1676 0.0000
# 6 0.0000 0.0000 0.0000 0.1017 0.0000 6.2574
#
#
#
# Elastic Compliance Matrix: (Units=1/GPa)
#
#
# Indices 1 2 3 4 5 6 
#
# 1 0.010110 -0.005686 -0.000682 0.000000 -0.004843 0.000000
# 2 -0.005686 0.031357 -0.006077 0.000000 0.012813 0.000000
# 3 -0.000682 -0.006077 0.008352 0.000000 -0.003602 0.000000
# 4 0.000000 0.000000 0.000000 0.069961 0.000000 -0.001137
# 5 -0.004843 0.012813 -0.003602 0.000000 0.032516 0.000000
# 6 0.000000 0.000000 0.000000 -0.001137 0.000000 0.159829
#
#
# Mechanical properties :
#
#
# Convention : Reuss Voigt Hill
#
# Bulk Modulus (GPa) = 40.11272 54.00771 47.06021
# Shear Modulus (GPa) = 14.47912 27.06616 20.77264
#
# Velocity S-wave (km/s) = 2.52840 3.45690 3.02845
# Velocity P-wave (km/s) = 5.12193 6.30705 5.74513
#
# Compressibility (1/GPa) = 0.02492975
#
# Stress axis : x y z
#
# Youngs Moduli (GPa) = 98.91634 31.89051 119.73106
#
# Poissons Ratio (x) = 0.18132 0.08165
# Poissons Ratio (y) = 0.56242 0.72759
# Poissons Ratio (z) = 0.06745 0.19379
#
# Static dielectric constant tensor:
#      x y z
#    x 1.904970 0.000000 -0.063820 
#    y 0.000000 1.906110 0.000000 
#    z -0.063820 0.000000 1.882480 
# 
# From -- ./inp_files/2607.got.cif
#   From: 2010.05.17/outbox.cif.g08.bks.cpg/sg5_2_cif.got.tgz:2607.got - 2010.06.03 18:56:24.
