data_PCOD9126532
_publ_section_title
;
Structure prediction by ZEFSAII (Michael W. Deem and Ramdas Pophale) SiO2 
 PCOD9126532
Probable space group: C 2
;
_chemical_formula_sum "Si O2"
_cell_formula_units_Z 28
_cell_length_a 17.950168
_cell_length_b 11.663720
_cell_length_c 14.593718
_cell_angle_alpha 90.000000
_cell_angle_beta 23.654012
_cell_angle_gamma 90.000000
_cell_volume 1225.875097
_symmetry_space_group_name_H-M "C 2"
_symmetry_group_IT_number 5
_symmetry_cell_setting 'monoclinic'
loop_
_space_group_symop_operation_xyz
x,y,z
-x,y,-z
1/2+x,1/2+y,z
1/2-x,1/2+y,-z
loop_
_atom_site_type_symbol
_atom_site_label
_atom_site_fract_x
_atom_site_fract_y
_atom_site_fract_z
Si Si1 0.500000 0.453071 0.500000
Si Si2 0.000000 0.867497 0.000000
Si Si3 0.767872 0.293339 0.557275
Si Si4 0.070657 0.178895 0.322148
Si Si5 0.213324 0.532745 0.218519
Si Si6 0.452266 0.967714 0.785177
Si Si7 0.237745 0.288810 0.866545
Si Si8 0.954707 0.725894 0.800718
O O1 0.563890 0.542490 0.348886
O O2 0.326164 0.367894 0.688057
O O3 0.110088 0.783029 0.810126
O O4 0.146919 0.946576 0.888576
O O5 0.646595 0.289381 0.603633
O O6 0.928023 0.204234 0.401191
O O7 0.863044 0.414914 0.465325
O O8 0.000000 0.228395 0.500000
O O9 0.265010 0.234538 0.074505
O O10 0.190281 0.491925 0.137909
O O11 0.305504 0.660411 0.118110
O O12 0.000000 0.537076 0.500000
O O13 0.497570 0.092571 0.770208
O O14 0.397404 0.873002 0.923310
O O15 0.393013 0.257989 0.768368
#
# Coordination Sequence:
#
# PCOD9126532 Si02
#       8
#     2   2   4   4   4   4   4   4
#     4  10  22  40  72  92 126 176 208 260 340 372
#     4  12  26  40  66  98 126 174 222 262 322 386
#     4  12  25  39  67  96 130 171 216 270 317 381
#     4  10  22  41  66  96 129 164 215 268 316 387
#     4  11  24  44  67  96 132 169 220 264 322 395
#     4  11  23  43  67  94 134 172 214 272 324 378
#     4  11  22  44  69  92 132 175 207 272 332 376
#     4  11  24  42  66  97 129 170 223 260 321 395
#
# _framework density 22.840827999999998
#
# number of rings (size 3 to 8) (size 9 to 14) (size 15 to 20)
#    0.429    0.571    5.000    1.714    2.000    2.286 
#    0.000    1.429    0.000    0.000    0.000    0.000 
#    0.000    0.000    0.000    0.000    0.000    0.000 
#
# Total GULP energy -78003.484105 kJ/mol
# GULP energy per Si atom -5571.677436 kJ/mol
# Density = 2.278884 g / cm^3
# Si number density = 22.840828 Si / 1000 Ang^3
#
#
#
# Elastic Constant Matrix: (Units=GPa)
#
#
# Indices 1 2 3 4 5 6 
#
# 1 35.3788 -7.0933 4.4770 -0.0001 -14.9504 0.0000
# 2 -7.0933 91.0990 7.7691 0.0002 -4.2107 0.0001
# 3 4.4770 7.7691 63.9746 0.0000 -0.5143 0.0005
# 4 -0.0001 0.0002 0.0000 24.9499 -0.0001 17.6672
# 5 -14.9504 -4.2107 -0.5143 -0.0001 41.0519 -0.0001
# 6 0.0000 0.0001 0.0005 17.6672 -0.0001 14.9595
#
#
#
# Elastic Compliance Matrix: (Units=1/GPa)
#
#
# Indices 1 2 3 4 5 6 
#
# 1 0.034825 0.003549 -0.002763 0.000001 0.013012 -0.000001
# 2 0.003549 0.011505 -0.001626 0.000000 0.002452 0.000000
# 3 -0.002763 -0.001626 0.016014 0.000002 -0.000973 -0.000003
# 4 0.000001 0.000000 0.000002 0.244798 0.000001 -0.289106
# 5 0.013012 0.002452 -0.000973 0.000001 0.029338 -0.000001
# 6 -0.000001 0.000000 -0.000003 -0.289106 -0.000001 0.408281
#
#
# Mechanical properties :
#
#
# Convention : Reuss Voigt Hill
#
# Bulk Modulus (GPa) = 16.48427 22.30643 19.39535
# Shear Modulus (GPa) = 6.52176 28.54557 17.53367
#
# Velocity S-wave (km/s) = 1.69160 3.53903 2.77365
# Velocity P-wave (km/s) = 3.32386 5.14654 4.33214
#
# Compressibility (1/GPa) = 0.06066388
#
# Stress axis : x y z
#
# Youngs Moduli (GPa) = 28.71468 86.91582 62.44449
#
# Poissons Ratio (x) = -0.30844 0.17256
# Poissons Ratio (y) = -0.10190 0.10153
# Poissons Ratio (z) = 0.07935 0.14131
#
# Static dielectric constant tensor:
#      x y z
#    x 1.881640 0.000000 0.049260 
#    y 0.000000 1.892550 0.000000 
#    z 0.049260 0.000000 1.957400 
# 
# From -- ./inp_files/62899.got.cif
#   From: 2010.05.17/outbox.cif.g08.bks.cpg/sg5_32_cif.got.tgz:62899.got - 2010.06.03 18:56:24.
