data_PCOD9126159
_publ_section_title
;
Structure prediction by ZEFSAII (Michael W. Deem and Ramdas Pophale) SiO2 
 PCOD9126159
Probable space group: C 2
;
_chemical_formula_sum "Si O2"
_cell_formula_units_Z 26
_cell_length_a 5.093982
_cell_length_b 13.443018
_cell_length_c 19.915833
_cell_angle_alpha 90.000000
_cell_angle_beta 67.521085
_cell_angle_gamma 90.000000
_cell_volume 1260.184617
_symmetry_space_group_name_H-M "C 2"
_symmetry_group_IT_number 5
_symmetry_cell_setting 'monoclinic'
loop_
_space_group_symop_operation_xyz
x,y,z
-x,y,-z
1/2+x,1/2+y,z
1/2-x,1/2+y,-z
loop_
_atom_site_type_symbol
_atom_site_label
_atom_site_fract_x
_atom_site_fract_y
_atom_site_fract_z
Si Si1 0.396950 0.331500 0.648223
Si Si2 0.989227 0.496236 0.920597
Si Si3 0.500000 0.371091 0.000000
Si Si4 0.169935 0.012764 0.551087
Si Si5 0.181660 0.320594 0.816904
Si Si6 0.057511 0.727457 0.884458
Si Si7 0.980722 0.237483 0.581354
O O1 0.565587 0.432839 0.615192
O O2 0.227588 0.337453 0.734005
O O3 0.649457 0.250760 0.630532
O O4 0.184002 0.303483 0.608492
O O5 0.185825 0.425050 0.856830
O O6 0.026281 0.611112 0.901305
O O7 0.682706 0.447051 0.937410
O O8 0.000000 0.482301 0.000000
O O9 0.381000 0.292039 0.957037
O O10 0.500000 0.008065 0.500000
O O11 0.000000 0.989876 0.500000
O O12 0.086913 0.124676 0.579366
O O13 0.430028 0.254855 0.825041
O O14 0.883088 0.263684 0.858525
O O15 0.000000 0.263064 0.500000
#
# Coordination Sequence:
#
# PCOD9126159 Si02
#       7
#     4   4   2   4   4   4   4
#     4  12  24  42  66  92 137 176 205 264 326 381
#     4  11  23  41  69  92 125 169 217 276 325 370
#     4  10  22  38  66  96 120 154 218 272 320 382
#     4  11  23  40  67 100 124 163 219 265 307 374
#     4  11  27  43  61  98 133 168 218 260 321 399
#     4  11  24  42  65  92 127 164 215 266 328 377
#     4  11  23  42  68  98 129 169 220 264 311 377
#
# _framework density 20.631896999999999
#
# number of rings (size 3 to 8) (size 9 to 14) (size 15 to 20)
#    0.000    0.923    2.308    5.538    2.154    2.462 
#    0.000    0.000    0.000    0.000    0.000    0.000 
#    0.000    0.000    0.000    0.000    0.000    0.000 
#
# Total GULP energy -72589.820690 kJ/mol
# GULP energy per Si atom -5583.832361 kJ/mol
# Density = 2.058494 g / cm^3
# Si number density = 20.631897 Si / 1000 Ang^3
#
#
#
# Elastic Constant Matrix: (Units=GPa)
#
#
# Indices 1 2 3 4 5 6 
#
# 1 103.1163 34.3920 22.9281 0.0000 9.9092 0.0000
# 2 34.3920 159.8379 69.6853 0.0000 7.3683 0.0000
# 3 22.9281 69.6853 114.5230 0.0000 11.3008 0.0000
# 4 0.0000 0.0000 0.0000 23.3432 0.0000 -8.1959
# 5 9.9092 7.3683 11.3008 0.0000 29.2824 0.0000
# 6 0.0000 0.0000 0.0000 -8.1959 0.0000 30.0574
#
#
#
# Elastic Compliance Matrix: (Units=1/GPa)
#
#
# Indices 1 2 3 4 5 6 
#
# 1 0.010760 -0.001861 -0.000737 0.000000 -0.002889 0.000000
# 2 -0.001861 0.008838 -0.005040 0.000000 0.000351 0.000000
# 3 -0.000737 -0.005040 0.012263 0.000000 -0.003215 0.000000
# 4 0.000000 0.000000 0.000000 0.047375 0.000000 0.012918
# 5 -0.002889 0.000351 -0.003215 0.000000 0.036280 0.000000
# 6 0.000000 0.000000 0.000000 0.012918 0.000000 0.036792
#
#
# Mechanical properties :
#
#
# Convention : Reuss Voigt Hill
#
# Bulk Modulus (GPa) = 60.29147 70.16536 65.22841
# Shear Modulus (GPa) = 28.88318 33.23471 31.05895
#
# Velocity S-wave (km/s) = 3.74562 4.01788 3.88414
# Velocity P-wave (km/s) = 6.92764 7.45698 7.19718
#
# Compressibility (1/GPa) = 0.01658609
#
# Stress axis : x y z
#
# Youngs Moduli (GPa) = 92.93831 113.15141 81.54449
#
# Poissons Ratio (x) = 0.21055 0.06009
# Poissons Ratio (y) = 0.17293 0.41096
# Poissons Ratio (z) = 0.06849 0.57025
#
# Static dielectric constant tensor:
#      x y z
#    x 1.821690 0.000000 -0.017380 
#    y 0.000000 1.721120 0.000000 
#    z -0.017380 0.000000 1.734920 
# 
# From -- ./inp_files/63989.got.cif
#   From: 2010.05.17/outbox.cif.g08.bks.cpg/sg5_32_cif.got.tgz:63989.got - 2010.06.03 18:56:24.
