data_PCOD9126079
_publ_section_title
;
Structure prediction by ZEFSAII (Michael W. Deem and Ramdas Pophale) SiO2 
 PCOD9126079
Probable space group: C 2
;
_chemical_formula_sum "Si O2"
_cell_formula_units_Z 22
_cell_length_a 15.085799
_cell_length_b 13.930603
_cell_length_c 6.029411
_cell_angle_alpha 90.000000
_cell_angle_beta 116.621857
_cell_angle_gamma 90.000000
_cell_volume 1132.772136
_symmetry_space_group_name_H-M "C 2"
_symmetry_group_IT_number 5
_symmetry_cell_setting 'monoclinic'
loop_
_space_group_symop_operation_xyz
x,y,z
-x,y,-z
1/2+x,1/2+y,z
1/2-x,1/2+y,-z
loop_
_atom_site_type_symbol
_atom_site_label
_atom_site_fract_x
_atom_site_fract_y
_atom_site_fract_z
Si Si1 0.610682 0.225700 0.549386
Si Si2 0.179129 0.547860 0.889237
Si Si3 0.000000 0.430155 0.500000
Si Si4 0.902544 0.291623 0.756184
Si Si5 0.238287 0.697108 0.304162
Si Si6 0.745060 0.355948 0.939425
O O1 0.500000 0.206488 0.500000
O O2 0.675815 0.136042 0.714442
O O3 0.640202 0.230040 0.327183
O O4 0.646255 0.323255 0.704412
O O5 0.073201 0.496129 0.729160
O O6 0.208211 0.597580 0.154514
O O7 0.254118 0.459557 0.948017
O O8 0.060742 0.363108 0.397363
O O9 0.833526 0.208563 0.571825
O O10 0.831604 0.347370 0.851168
O O11 0.000000 0.258641 0.000000
O O12 0.261682 0.774289 0.140253
#
# Coordination Sequence:
#
# PCOD9126079 Si02
#       6
#     4   4   2   4   4   4
#     4  10  23  38  61  89 120 161 206 248 302 361
#     4  11  22  37  61  97 119 159 202 254 305 359
#     4  12  22  34  66  96 122 152 208 256 304 360
#     4  11  20  37  63  94 122 162 198 251 309 361
#     4  10  23  39  58  93 129 155 201 258 302 360
#     4  10  22  38  60  89 126 161 194 253 308 353
#
# _framework density 19.421379999999999
#
# number of rings (size 3 to 8) (size 9 to 14) (size 15 to 20)
#    0.000    1.455    4.545    0.000    2.545    4.364 
#    0.000    0.000   14.000    0.000    0.000    0.000 
#    0.000    0.000    0.000    0.000    0.000    0.000 
#
# Total GULP energy -61261.816244 kJ/mol
# GULP energy per Si atom -5569.256022 kJ/mol
# Density = 1.937718 g / cm^3
# Si number density = 19.421380 Si / 1000 Ang^3
#
#
#
# Elastic Constant Matrix: (Units=GPa)
#
#
# Indices 1 2 3 4 5 6 
#
# 1 95.2549 38.7244 41.5768 0.0000 -11.8539 0.0000
# 2 38.7244 93.1069 44.4202 0.0000 17.1964 0.0000
# 3 41.5768 44.4202 92.4887 0.0000 11.8539 0.0000
# 4 0.0000 0.0000 0.0000 44.5232 0.0000 11.0177
# 5 -11.8539 17.1964 11.8539 0.0000 22.6636 0.0000
# 6 0.0000 0.0000 0.0000 11.0177 0.0000 16.9781
#
#
#
# Elastic Compliance Matrix: (Units=1/GPa)
#
#
# Indices 1 2 3 4 5 6 
#
# 1 0.019784 -0.008487 -0.007470 0.000000 0.020694 0.000000
# 2 -0.008487 0.018904 -0.003062 0.000000 -0.017181 0.000000
# 3 -0.007470 -0.003062 0.016982 0.000000 -0.010466 0.000000
# 4 0.000000 0.000000 0.000000 0.026757 0.000000 -0.017364
# 5 0.020694 -0.017181 -0.010466 0.000000 0.073458 0.000000
# 6 0.000000 0.000000 0.000000 -0.017364 0.000000 0.070167
#
#
# Mechanical properties :
#
#
# Convention : Reuss Voigt Hill
#
# Bulk Modulus (GPa) = 56.71236 58.92150 57.81693
# Shear Modulus (GPa) = 18.52066 27.24157 22.88111
#
# Velocity S-wave (km/s) = 3.09143 3.74927 3.43613
# Velocity P-wave (km/s) = 6.48128 7.01050 6.75107
#
# Compressibility (1/GPa) = 0.01763284
#
# Stress axis : x y z
#
# Youngs Moduli (GPa) = 50.54568 52.89788 58.88522
#
# Poissons Ratio (x) = 0.44893 0.43987
# Poissons Ratio (y) = 0.42897 0.18032
# Poissons Ratio (z) = 0.37757 0.16198
#
# Static dielectric constant tensor:
#      x y z
#    x 1.678240 0.000000 0.002660 
#    y 0.000000 1.667330 0.000000 
#    z 0.002660 0.000000 1.758040 
# 
# From -- ./inp_files/6794.got.cif
#   From: 2010.05.17/outbox.cif.g08.bks.cpg/sg5_4_cif.got.tgz:6794.got - 2010.06.03 18:56:24.
