data_PCOD9126862
_publ_section_title
;
Structure prediction by ZEFSAII (Michael W. Deem and Ramdas Pophale) SiO2 
 PCOD9126862
Probable space group: C 2
;
_chemical_formula_sum "Si O2"
_cell_formula_units_Z 32
_cell_length_a 18.609727
_cell_length_b 8.611420
_cell_length_c 13.964679
_cell_angle_alpha 90.000000
_cell_angle_beta 141.279007
_cell_angle_gamma 90.000000
_cell_volume 1399.886660
_symmetry_space_group_name_H-M "C 2"
_symmetry_group_IT_number 5
_symmetry_cell_setting 'monoclinic'
loop_
_space_group_symop_operation_xyz
x,y,z
-x,y,-z
1/2+x,1/2+y,z
1/2-x,1/2+y,-z
loop_
_atom_site_type_symbol
_atom_site_label
_atom_site_fract_x
_atom_site_fract_y
_atom_site_fract_z
Si Si1 0.176345 0.889710 0.227077
Si Si2 0.467386 0.804813 0.757979
Si Si3 0.269111 0.156044 0.448554
Si Si4 0.355441 0.292001 0.123141
Si Si5 0.084753 0.235165 0.499534
Si Si6 0.534286 0.133125 0.185157
Si Si7 0.567818 0.383753 0.471850
Si Si8 0.172125 0.080115 0.027837
O O1 0.298559 0.807907 0.341092
O O2 0.085055 0.757212 0.162356
O O3 0.204526 0.003434 0.344932
O O4 0.845922 0.000058 0.887495
O O5 0.334163 0.761744 0.624419
O O6 0.476911 0.826720 0.652258
O O7 0.554653 0.668414 0.877468
O O8 0.484401 0.949379 0.847374
O O9 0.365480 0.131542 0.629087
O O10 0.335926 0.251579 0.435514
O O11 0.410853 0.188901 0.096236
O O12 0.469934 0.351515 0.293055
O O13 0.298504 0.439999 0.014411
O O14 0.273570 0.203471 0.112337
O O15 0.000000 0.228893 0.500000
O O16 0.112388 0.057367 0.498793
O O17 0.500000 0.378808 0.500000
#
# Coordination Sequence:
#
# PCOD9126862 Si02
#       8
#     4   4   4   4   4   4   4   4
#     4  12  26  44  72 111 148 190 250 317 378 452
#     4  12  24  46  72 108 149 194 250 311 386 453
#     4  11  22  40  74 104 142 184 251 314 376 434
#     4  11  25  44  71  99 152 200 244 300 381 460
#     4  11  24  40  72 108 145 186 254 316 369 436
#     4  11  23  44  73 105 136 197 256 313 374 444
#     4  10  22  42  68 107 140 186 248 316 361 436
#     4  12  28  46  70 108 157 205 244 301 389 467
#
# _framework density 22.858993999999999
#
# number of rings (size 3 to 8) (size 9 to 14) (size 15 to 20)
#    0.000    0.750    3.750    3.000    5.250    2.500 
#    0.000    5.000    0.000    0.000    0.000    0.000 
#    0.000    0.000    0.000    0.000    0.000    0.000 
#
# Total GULP energy -89398.303271 kJ/mol
# GULP energy per Si atom -5587.393954 kJ/mol
# Density = 2.280697 g / cm^3
# Si number density = 22.858994 Si / 1000 Ang^3
#
#
#
# Elastic Constant Matrix: (Units=GPa)
#
#
# Indices 1 2 3 4 5 6 
#
# 1 91.5212 38.7651 25.4251 0.0000 4.4831 0.0000
# 2 38.7651 113.0141 29.1542 0.0000 -1.1217 0.0000
# 3 25.4251 29.1542 70.0243 0.0000 -2.7103 0.0000
# 4 0.0000 0.0000 0.0000 -117.7705 0.0000 13.4252
# 5 4.4831 -1.1217 -2.7103 0.0000 25.2743 0.0000
# 6 0.0000 0.0000 0.0000 13.4252 0.0000 42.9132
#
#
#
# Elastic Compliance Matrix: (Units=1/GPa)
#
#
# Indices 1 2 3 4 5 6 
#
# 1 0.013655 -0.003814 -0.003485 0.000000 -0.002965 0.000000
# 2 -0.003814 0.010979 -0.003154 0.000000 0.000826 0.000000
# 3 -0.003485 -0.003154 0.016948 0.000000 0.002296 0.000000
# 4 0.000000 0.000000 0.000000 -0.008199 0.000000 0.002565
# 5 -0.002965 0.000826 0.002296 0.000000 0.040375 0.000000
# 6 0.000000 0.000000 0.000000 0.002565 0.000000 0.022500
#
#
# Mechanical properties :
#
#
# Convention : Reuss Voigt Hill
#
# Bulk Modulus (GPa) = 48.36585 51.24983 49.80784
# Shear Modulus (GPa) = 40.30409 2.16440 21.23425
#
# Velocity S-wave (km/s) = 4.20356 0.97412 3.05113
# Velocity P-wave (km/s) = 6.69060 4.87174 5.85226
#
# Compressibility (1/GPa) = 0.02067575
#
# Stress axis : x y z
#
# Youngs Moduli (GPa) = 73.23093 91.08576 59.00390
#
# Poissons Ratio (x) = 0.34744 0.20562
# Poissons Ratio (y) = 0.27933 0.18610
# Poissons Ratio (z) = 0.25520 0.28728
#
# Static dielectric constant tensor:
#      x y z
#    x 1.976210 0.000000 -0.094420 
#    y 0.000000 1.939290 0.000000 
#    z -0.094420 0.000000 1.853310 
# 
# From -- ./inp_files/67058.got.cif
#   From: 2010.05.17/outbox.cif.g08.bks.cpg/sg5_34_cif.got.tgz:67058.got - 2010.06.03 18:56:24.
