data_PCOD9126259
_publ_section_title
;
Structure prediction by ZEFSAII (Michael W. Deem and Ramdas Pophale) SiO2 
 PCOD9126259
Probable space group: C 2
;
_chemical_formula_sum "Si O2"
_cell_formula_units_Z 24
_cell_length_a 25.723024
_cell_length_b 5.526338
_cell_length_c 21.630059
_cell_angle_alpha 90.000000
_cell_angle_beta 157.436781
_cell_angle_gamma 90.000000
_cell_volume 1179.809531
_symmetry_space_group_name_H-M "C 2"
_symmetry_group_IT_number 5
_symmetry_cell_setting 'monoclinic'
loop_
_space_group_symop_operation_xyz
x,y,z
-x,y,-z
1/2+x,1/2+y,z
1/2-x,1/2+y,-z
loop_
_atom_site_type_symbol
_atom_site_label
_atom_site_fract_x
_atom_site_fract_y
_atom_site_fract_z
Si Si1 0.606738 0.419740 0.034823
Si Si2 0.688403 0.541929 0.262535
Si Si3 0.267430 0.645776 0.941049
Si Si4 0.949210 0.876176 0.228296
Si Si5 0.003998 0.537548 0.837228
Si Si6 0.276290 0.530079 0.416358
O O1 0.669788 0.467170 0.170581
O O2 0.712331 0.479877 0.096712
O O3 0.465307 0.569898 0.879415
O O4 0.550732 0.156180 0.954025
O O5 0.763692 0.797699 0.356107
O O6 0.751451 0.301595 0.363493
O O7 0.114708 0.723983 0.785921
O O8 0.320928 0.526407 0.062888
O O9 0.380739 0.847945 0.052629
O O10 0.992272 0.727687 0.215049
O O11 0.077713 0.023590 0.391858
O O12 0.846946 0.471439 0.671944
#
# Coordination Sequence:
#
# PCOD9126259 Si02
#       6
#     4   4   4   4   4   4
#     4   9  21  38  67  91 122 166 218 260 306 384
#     4  10  22  41  66  97 125 165 213 268 315 364
#     4  11  21  41  61  91 122 172 210 254 319 381
#     4  11  25  38  65  93 131 166 211 264 318 388
#     4  10  22  39  63  92 123 165 211 260 317 370
#     4  11  25  40  65  98 129 163 209 269 322 367
#
# _framework density 20.342268000000001
#
# number of rings (size 3 to 8) (size 9 to 14) (size 15 to 20)
#    0.000    1.667    3.333    0.000    7.000    1.333 
#    0.000    0.833    0.000    0.000    0.000    0.000 
#    0.000    0.000    0.000    0.000    0.000    0.000 
#
# Total GULP energy -66868.957594 kJ/mol
# GULP energy per Si atom -5572.413133 kJ/mol
# Density = 2.029597 g / cm^3
# Si number density = 20.342268 Si / 1000 Ang^3
#
#
#
# Elastic Constant Matrix: (Units=GPa)
#
#
# Indices 1 2 3 4 5 6 
#
# 1 74.5869 5.0294 32.3692 0.0000 9.5123 0.0000
# 2 5.0294 49.3058 9.4524 0.0001 1.3110 -0.0001
# 3 32.3692 9.4524 69.0744 0.0000 16.5569 0.0000
# 4 0.0000 0.0001 0.0000 25.2760 0.0000 7.9037
# 5 9.5123 1.3110 16.5569 0.0000 15.4552 0.0000
# 6 0.0000 -0.0001 0.0000 7.9037 0.0000 23.7817
#
#
#
# Elastic Compliance Matrix: (Units=1/GPa)
#
#
# Indices 1 2 3 4 5 6 
#
# 1 0.016909 -0.000263 -0.007264 0.000000 -0.002603 0.000000
# 2 -0.000263 0.020867 -0.003158 0.000000 0.001775 0.000000
# 3 -0.007264 -0.003158 0.023112 0.000000 -0.020021 0.000000
# 4 0.000000 0.000000 0.000000 0.044151 0.000000 -0.014673
# 5 -0.002603 0.001775 -0.020021 0.000000 0.087604 0.000000
# 6 0.000000 0.000000 0.000000 -0.014673 0.000000 0.046926
#
#
# Mechanical properties :
#
#
# Convention : Reuss Voigt Hill
#
# Bulk Modulus (GPa) = 25.30425 31.85213 28.57819
# Shear Modulus (GPa) = 18.24078 22.64365 20.44221
#
# Velocity S-wave (km/s) = 2.99773 3.33998 3.17348
# Velocity P-wave (km/s) = 4.94450 5.52866 5.24472
#
# Compressibility (1/GPa) = 0.03951905
#
# Stress axis : x y z
#
# Youngs Moduli (GPa) = 59.13891 47.92349 43.26709
#
# Poissons Ratio (x) = 0.01261 0.31429
# Poissons Ratio (y) = 0.01556 0.13662
# Poissons Ratio (z) = 0.42958 0.15132
#
# Static dielectric constant tensor:
#      x y z
#    x 1.732090 0.000000 0.004500 
#    y 0.000000 1.847590 0.000000 
#    z 0.004500 0.000000 1.688740 
# 
# From -- ./inp_files/30250.got.cif
#   From: 2010.05.17/outbox.cif.g08.bks.cpg/sg5_16_cif.got.tgz:30250.got - 2010.06.03 18:56:24.
