data_PCOD9126808
_publ_section_title
;
Structure prediction by ZEFSAII (Michael W. Deem and Ramdas Pophale) SiO2 
 PCOD9126808
Probable space group: C 2
;
_chemical_formula_sum "Si O2"
_cell_formula_units_Z 20
_cell_length_a 21.940578
_cell_length_b 8.111212
_cell_length_c 5.278154
_cell_angle_alpha 90.000000
_cell_angle_beta 53.555394
_cell_angle_gamma 90.000000
_cell_volume 755.622667
_symmetry_space_group_name_H-M "C 2"
_symmetry_group_IT_number 5
_symmetry_cell_setting 'monoclinic'
loop_
_space_group_symop_operation_xyz
x,y,z
-x,y,-z
1/2+x,1/2+y,z
1/2-x,1/2+y,-z
loop_
_atom_site_type_symbol
_atom_site_label
_atom_site_fract_x
_atom_site_fract_y
_atom_site_fract_z
Si Si1 0.000000 0.819130 0.000000
Si Si2 0.251919 0.188732 0.832911
Si Si3 0.500000 0.828368 0.500000
Si Si4 0.663316 0.450315 0.735117
Si Si5 0.123311 0.266988 0.517950
Si Si6 0.597957 0.089830 0.408985
O O1 0.074521 0.897316 0.958335
O O2 0.041645 0.720060 0.670176
O O3 0.290450 0.310466 0.532153
O O4 0.321369 0.162901 0.857210
O O5 0.216313 0.012843 0.833535
O O6 0.180722 0.267916 0.142546
O O7 0.539034 0.722446 0.619723
O O8 0.563861 0.966125 0.284186
O O9 0.654147 0.628961 0.621975
O O10 0.113324 0.459086 0.603286
#
# Coordination Sequence:
#
# PCOD9126808 Si02
#       6
#     2   4   2   4   4   4
#     4  10  24  42  62  96 132 164 222 262 320 386
#     4  11  23  43  65  96 132 169 218 267 322 382
#     4   8  22  40  64  92 122 174 218 250 336 370
#     4  11  25  41  66  99 129 173 215 266 324 383
#     4  10  22  42  66  94 123 172 218 264 317 384
#     4   9  21  44  59  94 124 172 211 266 323 377
#
# _framework density 26.468237999999999
#
# number of rings (size 3 to 8) (size 9 to 14) (size 15 to 20)
#    1.200    0.800    0.000    2.400    2.800    5.600 
#   10.800    0.000    0.000    0.000    0.000    0.000 
#    0.000    0.000    0.000    0.000    0.000    0.000 
#
# Total GULP energy -55678.548740 kJ/mol
# GULP energy per Si atom -5567.854874 kJ/mol
# Density = 2.640799 g / cm^3
# Si number density = 26.468238 Si / 1000 Ang^3
#
#
#
# Elastic Constant Matrix: (Units=GPa)
#
#
# Indices 1 2 3 4 5 6 
#
# 1 140.4609 22.3118 43.4578 0.0000 -47.1490 0.0000
# 2 22.3118 86.3472 29.6486 0.0000 -25.7799 0.0000
# 3 43.4578 29.6486 88.7381 0.0000 -26.9590 0.0000
# 4 0.0000 0.0000 0.0000 12.4000 0.0000 -19.1726
# 5 -47.1490 -25.7799 -26.9590 0.0000 35.7554 0.0000
# 6 0.0000 0.0000 0.0000 -19.1726 0.0000 78.8745
#
#
#
# Elastic Compliance Matrix: (Units=1/GPa)
#
#
# Indices 1 2 3 4 5 6 
#
# 1 0.013356 0.002594 -0.001931 0.000000 0.018025 0.000000
# 2 0.002594 0.015601 -0.002628 0.000000 0.012687 0.000000
# 3 -0.001931 -0.002628 0.015233 0.000000 0.007044 0.000000
# 4 0.000000 0.000000 0.000000 0.129206 0.000000 0.031407
# 5 0.018025 0.012687 0.007044 0.000000 0.066196 0.000000
# 6 0.000000 0.000000 0.000000 0.031407 0.000000 0.020313
#
#
# Mechanical properties :
#
#
# Convention : Reuss Voigt Hill
#
# Bulk Modulus (GPa) = 24.83962 56.26474 40.55218
# Shear Modulus (GPa) = 18.03394 40.08117 29.05755
#
# Velocity S-wave (km/s) = 2.61309 3.89564 3.31694
# Velocity P-wave (km/s) = 4.30225 6.44502 5.47940
#
# Compressibility (1/GPa) = 0.04025826
#
# Stress axis : x y z
#
# Youngs Moduli (GPa) = 74.87546 64.09711 65.64711
#
# Poissons Ratio (x) = -0.16625 0.12677
# Poissons Ratio (y) = -0.19421 0.17255
# Poissons Ratio (z) = 0.14459 0.16848
#
# Static dielectric constant tensor:
#      x y z
#    x 2.353010 0.000000 0.047190 
#    y 0.000000 2.154270 0.000000 
#    z 0.047190 0.000000 2.000890 
# 
# From -- ./inp_files/9111.got.cif
#   From: 2010.05.17/outbox.cif.g08.bks.cpg/sg5_5_cif.got.tgz:9111.got - 2010.06.03 18:56:24.
