data_PCOD9126445
_publ_section_title
;
Structure prediction by ZEFSAII (Michael W. Deem and Ramdas Pophale) SiO2 
 PCOD9126445
Probable space group: C 2
;
_chemical_formula_sum "Si O2"
_cell_formula_units_Z 30
_cell_length_a 18.844475
_cell_length_b 7.650541
_cell_length_c 11.642515
_cell_angle_alpha 90.000000
_cell_angle_beta 123.865982
_cell_angle_gamma 90.000000
_cell_volume 1393.736502
_symmetry_space_group_name_H-M "C 2"
_symmetry_group_IT_number 5
_symmetry_cell_setting 'monoclinic'
loop_
_space_group_symop_operation_xyz
x,y,z
-x,y,-z
1/2+x,1/2+y,z
1/2-x,1/2+y,-z
loop_
_atom_site_type_symbol
_atom_site_label
_atom_site_fract_x
_atom_site_fract_y
_atom_site_fract_z
Si Si1 0.886845 0.222650 0.598190
Si Si2 0.834512 0.045757 0.985806
Si Si3 0.000000 0.450317 0.000000
Si Si4 0.169519 0.363932 0.862101
Si Si5 0.500090 0.053009 0.263584
Si Si6 0.470595 0.434469 0.260078
Si Si7 0.819422 0.271594 0.774963
Si Si8 0.824733 0.060122 0.304348
O O1 0.818996 0.235918 0.639327
O O2 0.851353 0.138329 0.450734
O O3 0.929147 0.414959 0.630446
O O4 0.963759 0.090955 0.700344
O O5 0.811029 0.089283 0.835220
O O6 0.749542 0.978135 0.970245
O O7 0.857123 0.232377 0.061640
O O8 0.910840 0.922204 0.092622
O O9 0.914283 0.340821 0.893944
O O10 0.010051 0.547189 0.885388
O O11 0.089291 0.485106 0.763722
O O12 0.199742 0.233182 0.789712
O O13 0.515930 0.250014 0.317391
O O14 0.406199 0.481627 0.307039
O O15 0.748303 0.413568 0.747146
#
# Coordination Sequence:
#
# PCOD9126445 Si02
#       8
#     4   4   2   4   4   4   4   4
#     4  11  25  50  66  94 147 186 234 292 342 415
#     4  11  20  37  65 103 137 168 223 287 357 416
#     4  10  22  40  66  98 140 168 226 288 362 428
#     4  11  21  37  66  99 140 171 226 292 348 404
#     4  11  22  42  70 101 136 187 227 289 361 416
#     4  11  24  43  73 106 133 183 237 294 352 427
#     4  11  23  44  69  97 139 187 224 293 359 417
#     4  11  25  46  68  97 144 185 241 293 337 427
#
# _framework density 21.524871000000001
#
# number of rings (size 3 to 8) (size 9 to 14) (size 15 to 20)
#    0.000    1.067    4.000    4.400    1.867    2.133 
#   14.400    0.000    0.000    0.000    0.000    0.000 
#    0.000    0.000    0.000    0.000    0.000    0.000 
#
# Total GULP energy -83725.852961 kJ/mol
# GULP energy per Si atom -5581.723531 kJ/mol
# Density = 2.147588 g / cm^3
# Si number density = 21.524871 Si / 1000 Ang^3
#
#
#
# Elastic Constant Matrix: (Units=GPa)
#
#
# Indices 1 2 3 4 5 6 
#
# 1 76.1461 42.9589 18.3534 0.0000 -12.8697 0.0000
# 2 42.9589 103.8419 15.5409 0.0000 -14.9037 0.0000
# 3 18.3534 15.5409 75.0331 0.0000 -19.1188 0.0000
# 4 0.0000 0.0000 0.0000 14.2432 0.0000 -6.6905
# 5 -12.8697 -14.9037 -19.1188 0.0000 23.7661 0.0000
# 6 0.0000 0.0000 0.0000 -6.6905 0.0000 14.8400
#
#
#
# Elastic Compliance Matrix: (Units=1/GPa)
#
#
# Indices 1 2 3 4 5 6 
#
# 1 0.018004 -0.006571 -0.002023 0.000000 0.004001 0.000000
# 2 -0.006571 0.013005 0.000107 0.000000 0.004683 0.000000
# 3 -0.002023 0.000107 0.017029 0.000000 0.012670 0.000000
# 4 0.000000 0.000000 0.000000 0.089072 0.000000 0.040157
# 5 0.004001 0.004683 0.012670 0.000000 0.057373 0.000000
# 6 0.000000 0.000000 0.000000 0.040157 0.000000 0.085490
#
#
# Mechanical properties :
#
#
# Convention : Reuss Voigt Hill
#
# Bulk Modulus (GPa) = 32.19343 45.41415 38.80379
# Shear Modulus (GPa) = 16.27075 22.44771 19.35923
#
# Velocity S-wave (km/s) = 2.75235 3.23286 3.00223
# Velocity P-wave (km/s) = 5.00894 5.92279 5.48493
#
# Compressibility (1/GPa) = 0.03106224
#
# Stress axis : x y z
#
# Youngs Moduli (GPa) = 55.54425 76.89645 58.72446
#
# Poissons Ratio (x) = 0.50529 0.11882
# Poissons Ratio (y) = 0.36498 -0.00628
# Poissons Ratio (z) = 0.11238 -0.00823
#
# Static dielectric constant tensor:
#      x y z
#    x 1.793810 0.000000 -0.032160 
#    y 0.000000 1.762950 0.000000 
#    z -0.032160 0.000000 1.884980 
# 
# From -- ./inp_files/44327.got.cif
#   From: 2010.05.17/outbox.cif.g08.bks.cpg/sg5_23_cif.got.tgz:44327.got - 2010.06.03 18:56:24.
