data_PCOD9126975
_publ_section_title
;
Structure prediction by ZEFSAII (Michael W. Deem and Ramdas Pophale) SiO2 
 PCOD9126975
Probable space group: C 2
;
_chemical_formula_sum "Si O2"
_cell_formula_units_Z 26
_cell_length_a 9.343058
_cell_length_b 20.871288
_cell_length_c 7.659230
_cell_angle_alpha 90.000000
_cell_angle_beta 52.248847
_cell_angle_gamma 90.000000
_cell_volume 1180.925912
_symmetry_space_group_name_H-M "C 2"
_symmetry_group_IT_number 5
_symmetry_cell_setting 'monoclinic'
loop_
_space_group_symop_operation_xyz
x,y,z
-x,y,-z
1/2+x,1/2+y,z
1/2-x,1/2+y,-z
loop_
_atom_site_type_symbol
_atom_site_label
_atom_site_fract_x
_atom_site_fract_y
_atom_site_fract_z
Si Si1 0.843212 0.592760 0.469631
Si Si2 0.181442 0.735314 0.477149
Si Si3 0.500000 0.791569 0.000000
Si Si4 0.498959 0.504557 0.288675
Si Si5 0.892088 0.869617 0.401636
Si Si6 0.400514 0.004680 0.911880
Si Si7 0.015638 0.380480 0.293242
O O1 0.784217 0.665170 0.471097
O O2 0.667613 0.549455 0.643696
O O3 0.000000 0.592037 0.500000
O O4 0.953820 0.559253 0.233498
O O5 0.141001 0.796176 0.634634
O O6 0.000000 0.727709 0.500000
O O7 0.346552 0.753621 0.222961
O O8 0.408602 0.834634 0.914629
O O9 0.500000 0.502476 0.500000
O O10 0.477925 0.430453 0.241002
O O11 0.697728 0.528424 0.089007
O O12 0.692488 0.893143 0.599365
O O13 0.000000 0.861592 0.500000
O O14 0.391590 0.949443 0.771929
O O15 0.500000 0.969880 0.000000
O O16 0.000000 0.352606 0.500000
#
# Coordination Sequence:
#
# PCOD9126975 Si02
#       7
#     4   4   2   4   4   4   4
#     4  11  24  43  62  97 138 172 230 293 329 408
#     4   9  21  39  69  93 132 181 225 276 336 419
#     4  10  22  42  74  94 134 188 222 270 366 402
#     4  11  22  38  68  98 133 177 234 283 338 414
#     4   9  18  38  65  94 131 173 217 282 337 395
#     4  12  22  39  69  97 136 189 222 277 363 397
#     4  11  22  39  66 105 140 168 225 294 337 404
#
# _framework density 22.016622000000002
#
# number of rings (size 3 to 8) (size 9 to 14) (size 15 to 20)
#    0.000    1.538    3.846    1.385    6.462    3.077 
#    0.000    3.077   13.538    0.000    0.000    0.000 
#    0.000    0.000    0.000    0.000    0.000    0.000 
#
# Total GULP energy -72420.137444 kJ/mol
# GULP energy per Si atom -5570.779803 kJ/mol
# Density = 2.196651 g / cm^3
# Si number density = 22.016622 Si / 1000 Ang^3
#
#
#
# Elastic Constant Matrix: (Units=GPa)
#
#
# Indices 1 2 3 4 5 6 
#
# 1 79.2878 23.0664 26.5594 0.0000 -19.6764 0.0000
# 2 23.0664 171.2155 44.4101 0.0000 -13.6566 0.0000
# 3 26.5594 44.4101 90.2696 0.0000 -24.1557 0.0000
# 4 0.0000 0.0000 0.0000 24.9072 0.0000 5.9879
# 5 -19.6764 -13.6566 -24.1557 0.0000 45.2409 0.0000
# 6 0.0000 0.0000 0.0000 5.9879 0.0000 7.4831
#
#
#
# Elastic Compliance Matrix: (Units=1/GPa)
#
#
# Indices 1 2 3 4 5 6 
#
# 1 0.014969 -0.000945 -0.002652 0.000000 0.004809 0.000000
# 2 -0.000945 0.006758 -0.003046 0.000000 0.000003 0.000000
# 3 -0.002652 -0.003046 0.014936 0.000000 0.005902 0.000000
# 4 0.000000 0.000000 0.000000 0.049713 0.000000 -0.039780
# 5 0.004809 0.000003 0.005902 0.000000 0.027347 0.000000
# 6 0.000000 0.000000 0.000000 -0.039780 0.000000 0.165466
#
#
# Mechanical properties :
#
#
# Convention : Reuss Voigt Hill
#
# Bulk Modulus (GPa) = 42.77836 58.76051 50.76943
# Shear Modulus (GPa) = 16.65172 31.97537 24.31354
#
# Velocity S-wave (km/s) = 2.75312 3.81508 3.32675
# Velocity P-wave (km/s) = 5.43861 6.79364 6.15353
#
# Compressibility (1/GPa) = 0.02337631
#
# Stress axis : x y z
#
# Youngs Moduli (GPa) = 66.80408 147.96787 66.95127
#
# Poissons Ratio (x) = 0.13984 0.17759
# Poissons Ratio (y) = 0.06314 0.20394
# Poissons Ratio (z) = 0.17720 0.45072
#
# Static dielectric constant tensor:
#      x y z
#    x 2.155170 0.000000 0.115260 
#    y 0.000000 1.884950 0.000000 
#    z 0.115260 0.000000 1.880410 
# 
# From -- ./inp_files/17023.got.cif
#   From: 2010.05.17/outbox.cif.g08.bks.cpg/sg5_9_cif.got.tgz:17023.got - 2010.06.03 18:56:24.
