data_PCOD9126065
_publ_section_title
;
Structure prediction by ZEFSAII (Michael W. Deem and Ramdas Pophale) SiO2 
 PCOD9126065
Probable space group: C 2
;
_chemical_formula_sum "Si O2"
_cell_formula_units_Z 30
_cell_length_a 13.618693
_cell_length_b 8.287124
_cell_length_c 28.574335
_cell_angle_alpha 90.000000
_cell_angle_beta 150.915798
_cell_angle_gamma 90.000000
_cell_volume 1567.602878
_symmetry_space_group_name_H-M "C 2"
_symmetry_group_IT_number 5
_symmetry_cell_setting 'monoclinic'
loop_
_space_group_symop_operation_xyz
x,y,z
-x,y,-z
1/2+x,1/2+y,z
1/2-x,1/2+y,-z
loop_
_atom_site_type_symbol
_atom_site_label
_atom_site_fract_x
_atom_site_fract_y
_atom_site_fract_z
Si Si1 0.970365 0.437990 0.343408
Si Si2 0.000000 0.734776 0.000000
Si Si3 0.745618 0.448296 0.927586
Si Si4 0.826692 0.308608 0.865111
Si Si5 0.921553 0.326482 0.517271
Si Si6 0.962081 0.825173 0.337871
Si Si7 0.588171 0.440704 0.128911
Si Si8 0.929075 0.937211 0.521470
O O1 0.937339 0.395071 0.383502
O O2 0.968417 0.631164 0.337565
O O3 0.197985 0.377399 0.429697
O O4 0.797079 0.373792 0.237643
O O5 0.194371 0.620820 0.070114
O O6 0.025560 0.838261 0.057705
O O7 0.717424 0.334460 0.869975
O O8 0.572746 0.446328 0.895029
O O9 0.955606 0.392798 0.039244
O O10 0.693995 0.377756 0.767005
O O11 0.870777 0.121993 0.872280
O O12 0.690537 0.385070 0.424683
O O13 0.000000 0.374872 0.500000
O O14 0.924049 0.131974 0.522181
O O15 0.928328 0.875091 0.377480
O O16 0.000000 0.889230 0.500000
#
# Coordination Sequence:
#
# PCOD9126065 Si02
#       8
#     4   2   4   4   4   4   4   4
#     4   9  20  35  51  81 107 138 180 222 269 328
#     4  10  22  38  58  86 112 148 192 234 272 342
#     4  10  22  39  59  82 117 148 188 231 287 330
#     4   9  20  38  58  83 111 151 186 230 280 339
#     4   9  18  31  53  78 106 138 178 218 266 322
#     4   9  18  34  55  74 109 140 178 222 266 327
#     4  11  21  39  60  83 118 146 188 235 281 330
#     4   9  18  36  53  77 109 142 175 223 272 323
#
# _framework density 19.137501
#
# number of rings (size 3 to 8) (size 9 to 14) (size 15 to 20)
#    0.000    2.667    0.000    1.600    1.867    2.667 
#    7.200    0.000    0.000    0.000    0.000    0.000 
#    0.000    0.000    0.000    0.000    0.000    0.000 
#
# Total GULP energy -83570.065540 kJ/mol
# GULP energy per Si atom -5571.337703 kJ/mol
# Density = 1.909394 g / cm^3
# Si number density = 19.137501 Si / 1000 Ang^3
#
#
#
# Elastic Constant Matrix: (Units=GPa)
#
#
# Indices 1 2 3 4 5 6 
#
# 1 126.1137 30.4759 60.5933 0.0000 -29.4219 0.0000
# 2 30.4759 25.2448 21.6246 0.0000 -4.7089 0.0000
# 3 60.5933 21.6246 137.0132 -0.0001 -31.8632 -0.0001
# 4 0.0000 0.0000 -0.0001 21.9875 0.0000 -9.2510
# 5 -29.4219 -4.7089 -31.8632 0.0000 24.2124 0.0000
# 6 0.0000 0.0000 -0.0001 -9.2510 0.0000 20.3215
#
#
#
# Elastic Compliance Matrix: (Units=1/GPa)
#
#
# Indices 1 2 3 4 5 6 
#
# 1 0.015449 -0.015010 -0.001119 0.000000 0.014382 0.000000
# 2 -0.015010 0.060400 -0.006347 0.000000 -0.014845 0.000000
# 3 -0.001119 -0.006347 0.011805 0.000000 0.012941 0.000000
# 4 0.000000 0.000000 0.000000 0.056255 0.000000 0.025609
# 5 0.014382 -0.014845 0.012941 0.000000 0.072920 0.000000
# 6 0.000000 0.000000 0.000000 0.025609 0.000000 0.060867
#
#
# Mechanical properties :
#
#
# Convention : Reuss Voigt Hill
#
# Bulk Modulus (GPa) = 23.41787 57.08436 40.25112
# Shear Modulus (GPa) = 14.84205 25.01616 19.92910
#
# Velocity S-wave (km/s) = 2.78789 3.61942 3.23052
# Velocity P-wave (km/s) = 4.75671 6.88187 5.91551
#
# Compressibility (1/GPa) = 0.04270244
#
# Stress axis : x y z
#
# Youngs Moduli (GPa) = 64.72805 16.55634 84.71315
#
# Poissons Ratio (x) = 0.24850 0.09478
# Poissons Ratio (y) = 0.97154 0.53769
# Poissons Ratio (z) = 0.07242 0.10509
#
# Static dielectric constant tensor:
#      x y z
#    x 1.690450 0.000000 -0.005210 
#    y 0.000000 1.684740 0.000000 
#    z -0.005210 0.000000 1.676640 
# 
# From -- ./inp_files/65827.got.cif
#   From: 2010.05.17/outbox.cif.g08.bks.cpg/sg5_33_cif.got.tgz:65827.got - 2010.06.03 18:56:24.
