data_PCOD9126735
_publ_section_title
;
Structure prediction by ZEFSAII (Michael W. Deem and Ramdas Pophale) SiO2 
 PCOD9126735
Probable space group: C 2
;
_chemical_formula_sum "Si O2"
_cell_formula_units_Z 30
_cell_length_a 16.193503
_cell_length_b 9.123432
_cell_length_c 19.998723
_cell_angle_alpha 90.000000
_cell_angle_beta 30.187773
_cell_angle_gamma 90.000000
_cell_volume 1485.686714
_symmetry_space_group_name_H-M "C 2"
_symmetry_group_IT_number 5
_symmetry_cell_setting 'monoclinic'
loop_
_space_group_symop_operation_xyz
x,y,z
-x,y,-z
1/2+x,1/2+y,z
1/2-x,1/2+y,-z
loop_
_atom_site_type_symbol
_atom_site_label
_atom_site_fract_x
_atom_site_fract_y
_atom_site_fract_z
Si Si1 0.747929 0.063620 0.861302
Si Si2 0.500000 0.284466 0.000000
Si Si3 0.887349 0.733875 0.356476
Si Si4 0.634015 0.739006 0.751089
Si Si5 0.630957 0.531063 0.994803
Si Si6 0.296545 0.240775 0.774421
Si Si7 0.133365 0.074698 0.617728
Si Si8 0.941011 0.535632 0.867719
O O1 0.938904 0.093973 0.740870
O O2 0.734415 0.901177 0.840610
O O3 0.658261 0.182565 0.878336
O O4 0.646225 0.069194 0.001337
O O5 0.465424 0.389345 0.961771
O O6 0.737499 0.630115 0.481939
O O7 0.022150 0.725395 0.321858
O O8 0.975256 0.672392 0.228549
O O9 0.838519 0.903670 0.386050
O O10 0.769492 0.728731 0.714493
O O11 0.684451 0.673234 0.644950
O O12 0.568606 0.903868 0.788185
O O13 0.480798 0.640012 0.883836
O O14 0.689965 0.619693 0.887972
O O15 0.792483 0.486524 0.922875
#
# Coordination Sequence:
#
# PCOD9126735 Si02
#       8
#     4   2   4   4   4   4   4   4
#     4  11  23  40  65  95 128 168 210 265 320 390
#     4  12  24  32  58  96 138 152 208 262 326 354
#     4  10  25  45  66  92 127 171 219 268 318 386
#     4  12  21  38  65  91 128 167 212 257 322 384
#     4  11  22  35  56  96 131 162 200 265 314 376
#     4  10  22  42  62  92 130 170 209 260 328 387
#     4  11  24  43  68  91 127 169 221 265 322 383
#     4  11  23  39  67  96 127 167 215 259 321 385
#
# _framework density 20.192684
#
# number of rings (size 3 to 8) (size 9 to 14) (size 15 to 20)
#    0.000    1.067    4.000    2.400    1.867    1.600 
#    0.000    0.000    0.000    2.400    0.000    0.000 
#    0.000    0.000    0.000    0.000    0.000    0.000 
#
# Total GULP energy -83884.417469 kJ/mol
# GULP energy per Si atom -5592.294498 kJ/mol
# Density = 2.014672 g / cm^3
# Si number density = 20.192684 Si / 1000 Ang^3
#
#
#
# Elastic Constant Matrix: (Units=GPa)
#
#
# Indices 1 2 3 4 5 6 
#
# 1 70.5981 22.2127 6.6227 -0.0002 2.0596 0.0001
# 2 22.2127 99.9221 33.0904 -0.0005 -14.5322 0.0002
# 3 6.6227 33.0904 79.1506 -0.0007 4.7362 0.0003
# 4 -0.0002 -0.0005 -0.0007 27.1699 0.0002 -0.6662
# 5 2.0596 -14.5322 4.7362 0.0002 10.3091 -0.0001
# 6 0.0001 0.0002 0.0003 -0.6662 -0.0001 33.7849
#
#
#
# Elastic Compliance Matrix: (Units=1/GPa)
#
#
# Indices 1 2 3 4 5 6 
#
# 1 0.016283 -0.006134 0.001968 0.000000 -0.012804 0.000000
# 2 -0.006134 0.019291 -0.009514 0.000000 0.032789 0.000000
# 3 0.001968 -0.009514 0.017761 0.000000 -0.021964 0.000000
# 4 0.000000 0.000000 0.000000 0.036823 -0.000001 0.000726
# 5 -0.012804 0.032789 -0.021964 -0.000001 0.155872 0.000000
# 6 0.000000 0.000000 0.000000 0.000726 0.000000 0.029613
#
#
# Mechanical properties :
#
#
# Convention : Reuss Voigt Hill
#
# Bulk Modulus (GPa) = 38.49627 41.50250 39.99939
# Shear Modulus (GPa) = 16.04308 26.76910 21.40609
#
# Velocity S-wave (km/s) = 2.82174 3.64494 3.25944
# Velocity P-wave (km/s) = 5.45180 6.18967 5.83242
#
# Compressibility (1/GPa) = 0.02597654
#
# Stress axis : x y z
#
# Youngs Moduli (GPa) = 61.41202 51.83893 56.30285
#
# Poissons Ratio (x) = 0.31796 -0.11080
# Poissons Ratio (y) = 0.37668 0.53564
# Poissons Ratio (z) = -0.12085 0.49317
#
# Static dielectric constant tensor:
#      x y z
#    x 1.739050 0.000000 -0.001140 
#    y 0.000000 1.709940 0.000000 
#    z -0.001140 0.000000 1.704270 
# 
# From -- ./inp_files/31756.got.cif
#   From: 2010.05.17/outbox.cif.g08.bks.cpg/sg5_16_cif.got.tgz:31756.got - 2010.06.03 18:56:24.
