data_PCOD9126411
_publ_section_title
;
Structure prediction by ZEFSAII (Michael W. Deem and Ramdas Pophale) SiO2 
 PCOD9126411
Probable space group: C 2
;
_chemical_formula_sum "Si O2"
_cell_formula_units_Z 24
_cell_length_a 12.769838
_cell_length_b 13.323318
_cell_length_c 7.013609
_cell_angle_alpha 90.000000
_cell_angle_beta 93.334366
_cell_angle_gamma 90.000000
_cell_volume 1191.251599
_symmetry_space_group_name_H-M "C 2"
_symmetry_group_IT_number 5
_symmetry_cell_setting 'monoclinic'
loop_
_space_group_symop_operation_xyz
x,y,z
-x,y,-z
1/2+x,1/2+y,z
1/2-x,1/2+y,-z
loop_
_atom_site_type_symbol
_atom_site_label
_atom_site_fract_x
_atom_site_fract_y
_atom_site_fract_z
Si Si1 0.000000 0.097131 0.500000
Si Si2 0.112012 0.557528 0.434981
Si Si3 0.900228 0.193350 0.845209
Si Si4 0.500000 0.252542 0.500000
Si Si5 0.121517 0.420060 0.077742
Si Si6 0.496609 0.426632 0.771596
Si Si7 0.771941 0.005173 0.779889
O O1 0.068561 0.166731 0.369761
O O2 0.951432 0.020216 0.336496
O O3 0.136872 0.502799 0.242194
O O4 0.201384 0.537304 0.596130
O O5 0.000000 0.514743 0.500000
O O6 0.087724 0.676534 0.428050
O O7 0.860140 0.306437 0.851827
O O8 0.818288 0.105418 0.884709
O O9 0.000000 0.185730 0.000000
O O10 0.534425 0.325316 0.675380
O O11 0.199956 0.443817 0.915397
O O12 0.000000 0.426741 0.000000
O O13 0.372547 0.442762 0.720328
O O14 0.500000 0.428839 0.000000
#
# Coordination Sequence:
#
# PCOD9126411 Si02
#       7
#     2   4   4   2   4   4   4
#     4   9  18  37  60  86 126 153 196 245 306 350
#     4  10  23  41  61  86 124 164 204 252 301 361
#     4  10  24  40  65  94 124 161 205 256 307 366
#     4   9  22  41  64  88 126 163 204 253 314 352
#     4  11  23  42  65  87 127 167 205 255 306 363
#     4  10  22  40  65  94 125 158 204 259 305 367
#     4  11  23  40  62  94 122 161 208 250 313 362
#
# _framework density 20.146875000000001
#
# number of rings (size 3 to 8) (size 9 to 14) (size 15 to 20)
#    0.500    1.333    1.667    2.000    1.167   12.667 
#    0.000    1.667    0.000    0.000    0.000    0.000 
#    0.000    0.000    0.000    0.000    0.000    0.000 
#
# Total GULP energy -66899.144009 kJ/mol
# GULP energy per Si atom -5574.928667 kJ/mol
# Density = 2.010102 g / cm^3
# Si number density = 20.146875 Si / 1000 Ang^3
#
#
#
# Elastic Constant Matrix: (Units=GPa)
#
#
# Indices 1 2 3 4 5 6 
#
# 1 68.3117 19.8602 7.3761 0.0000 -0.9453 0.0000
# 2 19.8602 148.2441 53.3626 0.0000 -9.7361 0.0000
# 3 7.3761 53.3626 108.2300 0.0000 -7.1426 0.0000
# 4 0.0000 0.0000 0.0000 18.2407 0.0000 2.1009
# 5 -0.9453 -9.7361 -7.1426 0.0000 36.7001 0.0000
# 6 0.0000 0.0000 0.0000 2.1009 0.0000 14.3889
#
#
#
# Elastic Compliance Matrix: (Units=1/GPa)
#
#
# Indices 1 2 3 4 5 6 
#
# 1 0.015233 -0.002035 -0.000045 0.000000 -0.000156 0.000000
# 2 -0.002035 0.008545 -0.003980 0.000000 0.001440 0.000000
# 3 -0.000045 -0.003980 0.011280 0.000000 0.001138 0.000000
# 4 0.000000 0.000000 0.000000 0.055760 0.000000 -0.008141
# 5 -0.000156 0.001440 0.001138 0.000000 0.027847 0.000000
# 6 0.000000 0.000000 0.000000 -0.008141 0.000000 0.070687
#
#
# Mechanical properties :
#
#
# Convention : Reuss Voigt Hill
#
# Bulk Modulus (GPa) = 43.59350 53.99817 48.79583
# Shear Modulus (GPa) = 23.90994 30.14507 27.02751
#
# Velocity S-wave (km/s) = 3.44871 3.87236 3.66665
# Velocity P-wave (km/s) = 6.12723 6.84499 6.49603
#
# Compressibility (1/GPa) = 0.02293920
#
# Stress axis : x y z
#
# Youngs Moduli (GPa) = 65.64669 117.02351 88.65332
#
# Poissons Ratio (x) = 0.23811 0.00401
# Poissons Ratio (y) = 0.13357 0.35280
# Poissons Ratio (z) = 0.00297 0.46570
#
# Static dielectric constant tensor:
#      x y z
#    x 1.724720 0.000000 0.004460 
#    y 0.000000 1.719480 0.000000 
#    z 0.004460 0.000000 1.698440 
# 
# From -- ./inp_files/6885.got.cif
#   From: 2010.05.17/outbox.cif.g08.bks.cpg/sg5_4_cif.got.tgz:6885.got - 2010.06.03 18:56:24.
