data_PCOD9126691
_publ_section_title
;
Structure prediction by ZEFSAII (Michael W. Deem and Ramdas Pophale) SiO2 
 PCOD9126691
Probable space group: C 2
;
_chemical_formula_sum "Si O2"
_cell_formula_units_Z 20
_cell_length_a 17.970723
_cell_length_b 7.053177
_cell_length_c 7.349155
_cell_angle_alpha 90.000000
_cell_angle_beta 50.708312
_cell_angle_gamma 90.000000
_cell_volume 720.925841
_symmetry_space_group_name_H-M "C 2"
_symmetry_group_IT_number 5
_symmetry_cell_setting 'monoclinic'
loop_
_space_group_symop_operation_xyz
x,y,z
-x,y,-z
1/2+x,1/2+y,z
1/2-x,1/2+y,-z
loop_
_atom_site_type_symbol
_atom_site_label
_atom_site_fract_x
_atom_site_fract_y
_atom_site_fract_z
Si Si1 0.121812 0.245870 0.357826
Si Si2 0.954871 0.184690 0.888316
Si Si3 0.900086 0.676884 0.748153
Si Si4 0.316047 0.285295 0.224817
Si Si5 0.741691 0.725390 0.724438
O O1 0.092199 0.114070 0.232219
O O2 0.221755 0.182582 0.288759
O O3 0.133892 0.312089 0.894073
O O4 0.049847 0.262711 0.640121
O O5 0.883203 0.455477 0.722622
O O6 0.000000 0.086812 0.000000
O O7 0.708144 0.506223 0.764642
O O8 0.000000 0.731248 0.500000
O O9 0.901002 0.724930 0.960176
O O10 0.311606 0.254631 0.445561
O O11 0.305351 0.266489 0.801401
#
# Coordination Sequence:
#
# PCOD9126691 Si02
#       5
#     4   4   4   4   4
#     4  10  22  41  70  96 123 175 218 265 320 382
#     4  11  20  40  69  98 125 166 224 261 317 391
#     4  11  24  44  64  93 132 174 217 265 322 377
#     4  11  25  44  66  97 136 169 216 268 325 383
#     4  11  26  43  68  98 128 174 216 270 321 386
#
# _framework density 27.742106
#
# number of rings (size 3 to 8) (size 9 to 14) (size 15 to 20)
#    0.000    1.200    6.000    0.000    2.800    0.800 
#    7.200    0.000    0.000    0.000    0.000    0.000 
#    0.000    0.000    0.000    0.000    0.000    0.000 
#
# Total GULP energy -55812.655276 kJ/mol
# GULP energy per Si atom -5581.265528 kJ/mol
# Density = 2.767896 g / cm^3
# Si number density = 27.742106 Si / 1000 Ang^3
#
#
#
# Elastic Constant Matrix: (Units=GPa)
#
#
# Indices 1 2 3 4 5 6 
#
# 1 104.5376 -17.5202 27.3407 0.0000 4.4181 0.0000
# 2 -17.5202 90.8813 28.2012 0.0000 2.3564 0.0000
# 3 27.3407 28.2012 262.8765 0.0000 -11.5753 0.0000
# 4 0.0000 0.0000 0.0000 37.3230 0.0000 4.2244
# 5 4.4181 2.3564 -11.5753 0.0000 64.8740 0.0000
# 6 0.0000 0.0000 0.0000 4.2244 0.0000 20.8804
#
#
#
# Elastic Compliance Matrix: (Units=1/GPa)
#
#
# Indices 1 2 3 4 5 6 
#
# 1 0.010386 0.002461 -0.001390 0.000000 -0.001045 0.000000
# 2 0.002461 0.011991 -0.001581 0.000000 -0.000885 0.000000
# 3 -0.001390 -0.001581 0.004158 0.000000 0.000894 0.000000
# 4 0.000000 0.000000 0.000000 0.027421 0.000000 -0.005548
# 5 -0.001045 -0.000885 0.000894 0.000000 0.015677 0.000000
# 6 0.000000 0.000000 0.000000 -0.005548 0.000000 0.049014
#
#
# Mechanical properties :
#
#
# Convention : Reuss Voigt Hill
#
# Bulk Modulus (GPa) = 39.19492 59.37099 49.28295
# Shear Modulus (GPa) = 39.00952 52.63373 45.82162
#
# Velocity S-wave (km/s) = 3.75393 4.36047 4.06852
# Velocity P-wave (km/s) = 5.74006 6.84099 6.31456
#
# Compressibility (1/GPa) = 0.02551351
#
# Stress axis : x y z
#
# Youngs Moduli (GPa) = 96.28260 83.39312 240.51950
#
# Poissons Ratio (x) = -0.20521 0.33437
# Poissons Ratio (y) = -0.23692 0.38034
# Poissons Ratio (z) = 0.13385 0.13187
#
# Static dielectric constant tensor:
#      x y z
#    x 2.271250 0.000000 -0.122960 
#    y 0.000000 2.401700 0.000000 
#    z -0.122960 0.000000 2.160360 
# 
# From -- ./inp_files/8135.got.cif
#   From: 2010.05.17/outbox.cif.g08.bks.cpg/sg5_5_cif.got.tgz:8135.got - 2010.06.03 18:56:24.
