data_PCOD9126097
_publ_section_title
;
Structure prediction by ZEFSAII (Michael W. Deem and Ramdas Pophale) SiO2 
 PCOD9126097
Probable space group: C 2
;
_chemical_formula_sum "Si O2"
_cell_formula_units_Z 30
_cell_length_a 13.489285
_cell_length_b 19.593474
_cell_length_c 5.481884
_cell_angle_alpha 90.000000
_cell_angle_beta 110.036680
_cell_angle_gamma 90.000000
_cell_volume 1361.177426
_symmetry_space_group_name_H-M "C 2"
_symmetry_group_IT_number 5
_symmetry_cell_setting 'monoclinic'
loop_
_space_group_symop_operation_xyz
x,y,z
-x,y,-z
1/2+x,1/2+y,z
1/2-x,1/2+y,-z
loop_
_atom_site_type_symbol
_atom_site_label
_atom_site_fract_x
_atom_site_fract_y
_atom_site_fract_z
Si Si1 0.748662 0.376990 0.182579
Si Si2 0.775919 0.249777 0.494300
Si Si3 0.740795 0.097971 0.503086
Si Si4 0.055189 0.929331 0.796376
Si Si5 0.377161 0.583119 0.121087
Si Si6 0.390511 0.969623 0.561442
Si Si7 0.390457 0.841952 0.927048
Si Si8 0.000000 0.192549 0.500000
O O1 0.717537 0.307952 0.289109
O O2 0.775741 0.443825 0.359003
O O3 0.671773 0.398633 0.904857
O O4 0.864522 0.362215 0.176695
O O5 0.717013 0.178834 0.472867
O O6 0.802099 0.289988 0.763497
O O7 0.892974 0.232512 0.482330
O O8 0.805205 0.083427 0.306731
O O9 0.640470 0.047619 0.407881
O O10 0.809817 0.089919 0.813247
O O11 0.000000 0.910259 0.500000
O O12 0.064520 0.010725 0.823921
O O13 0.000000 0.905302 0.000000
O O14 0.460878 0.643262 0.246354
O O15 0.500000 0.970525 0.500000
O O16 0.400718 0.911361 0.778601
O O17 0.500000 0.804296 0.000000
#
# Coordination Sequence:
#
# PCOD9126097 Si02
#       8
#     4   4   4   4   4   4   4   2
#     4  11  24  44  65  99 142 179 233 287 354 414
#     4  10  25  38  65  96 142 181 221 287 352 425
#     4  11  25  42  66  98 139 183 224 277 355 409
#     4  12  26  43  70 101 131 183 232 287 344 406
#     4  11  23  40  65  98 140 170 216 289 348 414
#     4  11  23  41  67 104 136 181 235 289 349 419
#     4  11  22  38  70 100 136 176 225 287 357 418
#     4  10  22  38  62 100 132 170 228 274 362 420
#
# _framework density 22.039742
#
# number of rings (size 3 to 8) (size 9 to 14) (size 15 to 20)
#    0.000    1.067    3.333    2.400   13.067    0.000 
#    0.000    0.000    2.933    0.000    0.000    0.000 
#    0.000    0.000    0.000    0.000    0.000    0.000 
#
# Total GULP energy -83646.331733 kJ/mol
# GULP energy per Si atom -5576.422116 kJ/mol
# Density = 2.198958 g / cm^3
# Si number density = 22.039742 Si / 1000 Ang^3
#
#
#
# Elastic Constant Matrix: (Units=GPa)
#
#
# Indices 1 2 3 4 5 6 
#
# 1 46.6715 32.0570 17.8488 0.0000 -3.9364 0.0000
# 2 32.0570 137.7472 23.1211 0.0000 6.2754 0.0000
# 3 17.8488 23.1211 103.7257 0.0000 3.6523 0.0000
# 4 0.0000 0.0000 0.0000 11.0521 0.0000 3.4459
# 5 -3.9364 6.2754 3.6523 0.0000 31.1137 0.0000
# 6 0.0000 0.0000 0.0000 3.4459 0.0000 32.8113
#
#
#
# Elastic Compliance Matrix: (Units=1/GPa)
#
#
# Indices 1 2 3 4 5 6 
#
# 1 0.027330 -0.005997 -0.003545 0.000000 0.005083 0.000000
# 2 -0.005997 0.008913 -0.000868 0.000000 -0.002454 0.000000
# 3 -0.003545 -0.000868 0.010497 0.000000 -0.001506 0.000000
# 4 0.000000 0.000000 0.000000 0.093544 0.000000 -0.009824
# 5 0.005083 -0.002454 -0.001506 0.000000 0.033455 0.000000
# 6 0.000000 0.000000 0.000000 -0.009824 0.000000 0.031509
#
#
# Mechanical properties :
#
#
# Convention : Reuss Voigt Hill
#
# Bulk Modulus (GPa) = 38.58100 48.24426 43.41263
# Shear Modulus (GPa) = 21.30300 29.33658 25.31979
#
# Velocity S-wave (km/s) = 3.11235 3.65235 3.39311
# Velocity P-wave (km/s) = 5.51895 6.30265 5.92377
#
# Compressibility (1/GPa) = 0.02591949
#
# Stress axis : x y z
#
# Youngs Moduli (GPa) = 36.58998 112.19738 95.26147
#
# Poissons Ratio (x) = 0.67283 0.33771
# Poissons Ratio (y) = 0.21942 0.08272
# Poissons Ratio (z) = 0.12972 0.09743
#
# Static dielectric constant tensor:
#      x y z
#    x 1.939770 0.000000 -0.037280 
#    y 0.000000 1.800290 0.000000 
#    z -0.037280 0.000000 1.893290 
# 
# From -- ./inp_files/7334.got.cif
#   From: 2010.05.17/outbox.cif.g08.bks.cpg/sg5_4_cif.got.tgz:7334.got - 2010.06.03 18:56:24.
