data_PCOD9126952
_publ_section_title
;
Structure prediction by ZEFSAII (Michael W. Deem and Ramdas Pophale) SiO2 
 PCOD9126952
Probable space group: C 2
;
_chemical_formula_sum "Si O2"
_cell_formula_units_Z 26
_cell_length_a 10.479632
_cell_length_b 9.565408
_cell_length_c 22.743845
_cell_angle_alpha 90.000000
_cell_angle_beta 146.672656
_cell_angle_gamma 90.000000
_cell_volume 1252.619528
_symmetry_space_group_name_H-M "C 2"
_symmetry_group_IT_number 5
_symmetry_cell_setting 'monoclinic'
loop_
_space_group_symop_operation_xyz
x,y,z
-x,y,-z
1/2+x,1/2+y,z
1/2-x,1/2+y,-z
loop_
_atom_site_type_symbol
_atom_site_label
_atom_site_fract_x
_atom_site_fract_y
_atom_site_fract_z
Si Si1 0.915667 0.593820 0.144182
Si Si2 0.581480 0.637986 0.401992
Si Si3 0.278799 0.307553 0.802344
Si Si4 0.500000 0.425040 0.000000
Si Si5 0.323747 0.371365 0.318477
Si Si6 0.000000 0.153984 0.500000
Si Si7 0.500000 0.255014 0.500000
Si Si8 0.050599 0.600862 0.706101
O O1 0.675362 0.524772 0.031489
O O2 0.890764 0.629023 0.203249
O O3 0.003625 0.731044 0.144747
O O4 0.107995 0.469099 0.217602
O O5 0.424153 0.697377 0.288909
O O6 0.542840 0.473034 0.392294
O O7 0.486691 0.707460 0.426591
O O8 0.841319 0.670100 0.483767
O O9 0.177843 0.455009 0.739637
O O10 0.348592 0.335163 0.896469
O O11 0.336867 0.341415 0.393073
O O12 0.350533 0.229113 0.293486
O O13 0.732548 0.096237 0.405748
#
# Coordination Sequence:
#
# PCOD9126952 Si02
#       8
#     4   4   4   2   4   2   2   4
#     4  10  23  45  66  95 129 166 225 275 334 397
#     4  11  25  40  66  97 139 179 225 266 322 396
#     4  10  23  43  69  94 128 171 219 276 331 391
#     4  10  22  42  72  92 124 172 216 284 344 382
#     4  11  24  40  62  94 135 176 220 273 322 393
#     4  12  21  43  68  96 143 187 218 262 325 395
#     4  12  23  37  62  96 135 187 222 262 323 385
#     4  11  23  40  66  93 133 180 216 265 326 389
#
# _framework density 20.756502999999999
#
# number of rings (size 3 to 8) (size 9 to 14) (size 15 to 20)
#    0.000    1.231    4.615    2.308    2.154    4.308 
#    0.000    3.077    0.000    1.846    0.000    0.000 
#    0.000    0.000    0.000    0.000    0.000    0.000 
#
# Total GULP energy -72391.057925 kJ/mol
# GULP energy per Si atom -5568.542917 kJ/mol
# Density = 2.070926 g / cm^3
# Si number density = 20.756503 Si / 1000 Ang^3
#
#
#
# Elastic Constant Matrix: (Units=GPa)
#
#
# Indices 1 2 3 4 5 6 
#
# 1 100.0262 66.1297 22.4660 0.0000 8.0317 0.0000
# 2 66.1297 94.1757 12.6313 0.0000 -8.0617 0.0000
# 3 22.4660 12.6313 72.3983 0.0000 -2.9389 0.0000
# 4 0.0000 0.0000 0.0000 30.5820 0.0000 2.4279
# 5 8.0317 -8.0617 -2.9389 0.0000 29.3250 0.0000
# 6 0.0000 0.0000 0.0000 2.4279 0.0000 49.0080
#
#
#
# Elastic Compliance Matrix: (Units=1/GPa)
#
#
# Indices 1 2 3 4 5 6 
#
# 1 0.022691 -0.016264 -0.004656 0.000000 -0.011152 0.000000
# 2 -0.016264 0.022765 0.001516 0.000000 0.010865 0.000000
# 3 -0.004656 0.001516 0.015123 0.000000 0.003208 0.000000
# 4 0.000000 0.000000 0.000000 0.032828 0.000000 -0.001626
# 5 -0.011152 0.010865 0.003208 0.000000 0.040463 0.000000
# 6 0.000000 0.000000 0.000000 -0.001626 0.000000 0.020485
#
#
# Mechanical properties :
#
#
# Convention : Reuss Voigt Hill
#
# Bulk Modulus (GPa) = 45.93214 52.11714 49.02464
# Shear Modulus (GPa) = 24.94740 32.80789 28.87764
#
# Velocity S-wave (km/s) = 3.47062 3.98000 3.73400
# Velocity P-wave (km/s) = 6.18363 6.80322 6.50081
#
# Compressibility (1/GPa) = 0.02177125
#
# Stress axis : x y z
#
# Youngs Moduli (GPa) = 44.07039 43.92631 66.12381
#
# Poissons Ratio (x) = 0.71440 0.30790
# Poissons Ratio (y) = 0.71674 -0.10024
# Poissons Ratio (z) = 0.20521 -0.06659
#
# Static dielectric constant tensor:
#      x y z
#    x 1.693880 0.000000 0.016180 
#    y 0.000000 1.774710 0.000000 
#    z 0.016180 0.000000 1.847330 
# 
# From -- ./inp_files/52135.got.cif
#   From: 2010.05.17/outbox.cif.g08.bks.cpg/sg5_27_cif.got.tgz:52135.got - 2010.06.03 18:56:24.
