data_PCOD9126618
_publ_section_title
;
Structure prediction by ZEFSAII (Michael W. Deem and Ramdas Pophale) SiO2 
 PCOD9126618
Probable space group: C 2
;
_chemical_formula_sum "Si O2"
_cell_formula_units_Z 32
_cell_length_a 12.171552
_cell_length_b 14.876472
_cell_length_c 8.090908
_cell_angle_alpha 90.000000
_cell_angle_beta 87.446824
_cell_angle_gamma 90.000000
_cell_volume 1463.564397
_symmetry_space_group_name_H-M "C 2"
_symmetry_group_IT_number 5
_symmetry_cell_setting 'monoclinic'
loop_
_space_group_symop_operation_xyz
x,y,z
-x,y,-z
1/2+x,1/2+y,z
1/2-x,1/2+y,-z
loop_
_atom_site_type_symbol
_atom_site_label
_atom_site_fract_x
_atom_site_fract_y
_atom_site_fract_z
Si Si1 0.622648 0.896350 0.659224
Si Si2 0.214409 0.706280 0.612410
Si Si3 0.100640 0.337745 0.294206
Si Si4 0.685098 0.147424 0.250571
Si Si5 0.339562 0.345711 0.826080
Si Si6 0.953306 0.585620 0.191079
Si Si7 0.434470 0.377786 0.355490
Si Si8 0.234772 0.961919 0.870301
O O1 0.615205 0.896181 0.461809
O O2 0.529239 0.823702 0.719034
O O3 0.746670 0.875531 0.700881
O O4 0.581779 0.986632 0.749460
O O5 0.324781 0.750452 0.679668
O O6 0.233795 0.660763 0.432229
O O7 0.151299 0.645720 0.750757
O O8 0.129960 0.788639 0.583914
O O9 0.155397 0.400885 0.153285
O O10 0.688381 0.240507 0.148514
O O11 0.557919 0.120352 0.287702
O O12 0.737158 0.065974 0.143634
O O13 0.466972 0.348122 0.770079
O O14 0.324395 0.418236 0.970344
O O15 0.000000 0.589271 0.000000
O O16 0.500000 0.422895 0.500000
O O17 0.345022 0.439322 0.276295
#
# Coordination Sequence:
#
# PCOD9126618 Si02
#       8
#     4   4   4   4   4   4   4   4
#     4  11  23  43  65  95 137 179 230 277 347 406
#     4  11  22  41  69 101 130 175 235 280 339 405
#     4  10  22  41  65  94 132 183 221 278 339 407
#     4  12  23  44  67 101 134 184 229 282 341 410
#     4  12  24  43  71  98 142 178 226 287 342 417
#     4  12  25  38  67 105 134 169 233 295 337 404
#     4  11  21  43  70 100 133 179 228 282 345 404
#     4  11  25  41  69 101 141 178 226 288 352 400
#
# _framework density 21.864429000000001
#
# number of rings (size 3 to 8) (size 9 to 14) (size 15 to 20)
#    0.000    0.750    5.000    3.000    5.250    0.000 
#    0.000    2.500    2.750    0.000    0.000    0.000 
#    0.000    0.000    0.000    0.000    0.000    0.000 
#
# Total GULP energy -89382.261501 kJ/mol
# GULP energy per Si atom -5586.391344 kJ/mol
# Density = 2.181466 g / cm^3
# Si number density = 21.864429 Si / 1000 Ang^3
#
#
#
# Elastic Constant Matrix: (Units=GPa)
#
#
# Indices 1 2 3 4 5 6 
#
# 1 82.3499 24.2274 0.8605 0.0000 -8.3183 0.0000
# 2 24.2274 116.3879 35.9211 0.0000 -16.0905 0.0000
# 3 0.8605 35.9211 56.7792 0.0000 -19.2935 0.0000
# 4 0.0000 0.0000 0.0000 27.3382 0.0000 -10.5924
# 5 -8.3183 -16.0905 -19.2935 0.0000 29.8372 0.0000
# 6 0.0000 0.0000 0.0000 -10.5924 0.0000 29.9357
#
#
#
# Elastic Compliance Matrix: (Units=1/GPa)
#
#
# Indices 1 2 3 4 5 6 
#
# 1 0.013477 -0.003237 0.003239 0.000000 0.004106 0.000000
# 2 -0.003237 0.011529 -0.006970 0.000000 0.000808 0.000000
# 3 0.003239 -0.006970 0.026916 0.000000 0.014549 0.000000
# 4 0.000000 0.000000 0.000000 0.042391 0.000000 0.014999
# 5 0.004106 0.000808 0.014549 0.000000 0.044503 0.000000
# 6 0.000000 0.000000 0.000000 0.014999 0.000000 0.038712
#
#
# Mechanical properties :
#
#
# Convention : Reuss Voigt Hill
#
# Bulk Modulus (GPa) = 26.32641 41.94833 34.13737
# Shear Modulus (GPa) = 24.49465 30.38939 27.44202
#
# Velocity S-wave (km/s) = 3.35071 3.73218 3.54658
# Velocity P-wave (km/s) = 5.19967 6.14813 5.69369
#
# Compressibility (1/GPa) = 0.03798467
#
# Stress axis : x y z
#
# Youngs Moduli (GPa) = 74.20256 86.74000 37.15217
#
# Poissons Ratio (x) = 0.28081 -0.12034
# Poissons Ratio (y) = 0.24022 0.25896
# Poissons Ratio (z) = -0.24034 0.60459
#
# Static dielectric constant tensor:
#      x y z
#    x 1.798810 0.000000 -0.003230 
#    y 0.000000 1.787580 0.000000 
#    z -0.003230 0.000000 1.911440 
# 
# From -- ./inp_files/20652.got.cif
#   From: 2010.05.17/outbox.cif.g08.bks.cpg/sg5_11_cif.got.tgz:20652.got - 2010.06.03 18:56:24.
