data_PCOD9126833
_publ_section_title
;
Structure prediction by ZEFSAII (Michael W. Deem and Ramdas Pophale) SiO2 
 PCOD9126833
Probable space group: C 2
;
_chemical_formula_sum "Si O2"
_cell_formula_units_Z 28
_cell_length_a 14.815322
_cell_length_b 7.213837
_cell_length_c 17.402971
_cell_angle_alpha 90.000000
_cell_angle_beta 143.733753
_cell_angle_gamma 90.000000
_cell_volume 1100.230519
_symmetry_space_group_name_H-M "C 2"
_symmetry_group_IT_number 5
_symmetry_cell_setting 'monoclinic'
loop_
_space_group_symop_operation_xyz
x,y,z
-x,y,-z
1/2+x,1/2+y,z
1/2-x,1/2+y,-z
loop_
_atom_site_type_symbol
_atom_site_label
_atom_site_fract_x
_atom_site_fract_y
_atom_site_fract_z
Si Si1 0.071152 0.104280 0.263891
Si Si2 0.884308 0.464632 0.487851
Si Si3 0.729132 0.154982 0.276700
Si Si4 0.371577 0.200495 0.020164
Si Si5 0.361035 0.761815 0.844246
Si Si6 0.178017 0.837460 0.852175
Si Si7 0.377508 0.849426 0.234302
O O1 0.085211 0.112702 0.181249
O O2 0.967188 0.270408 0.221708
O O3 0.245287 0.101336 0.407942
O O4 0.985143 0.934153 0.246763
O O5 0.804154 0.271821 0.399249
O O6 0.000000 0.524504 0.500000
O O7 0.985921 0.458454 0.632793
O O8 0.836228 0.213176 0.278591
O O9 0.701947 0.933632 0.251213
O O10 0.552749 0.211928 0.141921
O O11 0.292314 0.364082 0.917296
O O12 0.299606 0.007356 0.940637
O O13 0.314681 0.210707 0.068402
O O14 0.218436 0.726877 0.803134
O O15 0.500000 0.789691 0.000000
#
# Coordination Sequence:
#
# PCOD9126833 Si02
#       7
#     4   4   4   4   4   4   4
#     4  11  24  45  65  99 139 178 229 284 341 413
#     4  10  24  47  64  96 137 179 233 279 337 412
#     4  11  20  41  73  96 136 180 219 281 352 409
#     4  11  21  41  71 103 134 177 230 279 358 407
#     4  12  22  42  67 102 141 175 224 288 349 414
#     4  11  23  42  65 104 140 172 226 291 341 416
#     4  10  22  42  67  94 133 179 227 275 336 417
#
# _framework density 25.449213
#
# number of rings (size 3 to 8) (size 9 to 14) (size 15 to 20)
#    0.000    1.143    5.714    2.143    0.000    1.143 
#   12.857    2.143    0.000    0.000    0.000    0.000 
#    0.000    0.000    0.000    0.000    0.000    0.000 
#
# Total GULP energy -78043.684896 kJ/mol
# GULP energy per Si atom -5574.548921 kJ/mol
# Density = 2.539129 g / cm^3
# Si number density = 25.449213 Si / 1000 Ang^3
#
#
#
# Elastic Constant Matrix: (Units=GPa)
#
#
# Indices 1 2 3 4 5 6 
#
# 1 159.4744 4.7749 55.8551 0.0000 17.0983 0.0000
# 2 4.7749 33.2598 22.2839 0.0000 12.4319 0.0000
# 3 55.8551 22.2839 141.5819 0.0000 37.6727 0.0000
# 4 0.0000 0.0000 0.0000 25.2664 0.0000 9.7489
# 5 17.0983 12.4319 37.6727 0.0000 43.9976 0.0000
# 6 0.0000 0.0000 0.0000 9.7489 0.0000 12.4103
#
#
#
# Elastic Compliance Matrix: (Units=1/GPa)
#
#
# Indices 1 2 3 4 5 6 
#
# 1 0.007321 0.001141 -0.002881 0.000000 -0.000700 0.000000
# 2 0.001141 0.035256 -0.004184 0.000000 -0.006823 0.000000
# 3 -0.002881 -0.004184 0.010679 0.000000 -0.006842 0.000000
# 4 0.000000 0.000000 0.000000 0.056792 0.000000 -0.044612
# 5 -0.000700 -0.006823 -0.006842 0.000000 0.030787 0.000000
# 6 0.000000 0.000000 0.000000 -0.044612 0.000000 0.115623
#
#
# Mechanical properties :
#
#
# Convention : Reuss Voigt Hill
#
# Bulk Modulus (GPa) = 24.15015 55.57156 39.86085
# Shear Modulus (GPa) = 17.72377 33.09501 25.40939
#
# Velocity S-wave (km/s) = 2.64187 3.61006 3.16323
# Velocity P-wave (km/s) = 4.33776 6.26581 5.38872
#
# Compressibility (1/GPa) = 0.04140761
#
# Stress axis : x y z
#
# Youngs Moduli (GPa) = 136.59913 28.36406 93.64406
#
# Poissons Ratio (x) = -0.03237 0.26982
# Poissons Ratio (y) = -0.15590 0.39178
# Poissons Ratio (z) = 0.39359 0.11867
#
# Static dielectric constant tensor:
#      x y z
#    x 1.987830 0.000000 -0.005280 
#    y 0.000000 2.272330 0.000000 
#    z -0.005280 0.000000 2.018770 
# 
# From -- ./inp_files/61482.got.cif
#   From: 2010.05.17/outbox.cif.g08.bks.cpg/sg5_31_cif.got.tgz:61482.got - 2010.06.03 18:56:24.
