data_PCOD9126875
_publ_section_title
;
Structure prediction by ZEFSAII (Michael W. Deem and Ramdas Pophale) SiO2 
 PCOD9126875
Probable space group: C 2
;
_chemical_formula_sum "Si O2"
_cell_formula_units_Z 30
_cell_length_a 10.578017
_cell_length_b 21.490295
_cell_length_c 10.634515
_cell_angle_alpha 90.000000
_cell_angle_beta 38.625801
_cell_angle_gamma 90.000000
_cell_volume 1509.072064
_symmetry_space_group_name_H-M "C 2"
_symmetry_group_IT_number 5
_symmetry_cell_setting 'monoclinic'
loop_
_space_group_symop_operation_xyz
x,y,z
-x,y,-z
1/2+x,1/2+y,z
1/2-x,1/2+y,-z
loop_
_atom_site_type_symbol
_atom_site_label
_atom_site_fract_x
_atom_site_fract_y
_atom_site_fract_z
Si Si1 0.919208 0.262040 0.925814
Si Si2 0.536896 0.462029 0.100731
Si Si3 0.500000 0.006675 0.000000
Si Si4 0.067638 0.051887 0.305052
Si Si5 0.601275 0.687050 0.556425
Si Si6 0.474189 0.903924 0.820852
Si Si7 0.478018 0.232592 0.167525
Si Si8 0.716239 0.857917 0.400698
O O1 0.918703 0.337352 0.925003
O O2 0.052700 0.235229 0.706005
O O3 0.693580 0.239877 0.065920
O O4 0.000000 0.241796 0.000000
O O5 0.499232 0.502901 0.253496
O O6 0.370374 0.407791 0.224073
O O7 0.500000 0.499055 0.000000
O O8 0.762176 0.432586 0.934880
O O9 0.310046 0.048264 0.113156
O O10 0.443244 0.957992 0.153731
O O11 0.000000 0.036934 0.500000
O O12 0.990384 0.120716 0.335953
O O13 0.500000 0.704556 0.500000
O O14 0.838171 0.680640 0.340224
O O15 0.645400 0.885038 0.588826
O O16 0.342926 0.294417 0.297337
O O17 0.500000 0.224743 0.000000
O O18 0.500000 0.850580 0.500000
#
# Coordination Sequence:
#
# PCOD9126875 Si02
#       8
#     4   4   2   4   4   4   4   4
#     4  12  25  42  66 105 144 177 220 282 355 416
#     4  11  22  39  64  96 132 173 221 278 342 399
#     4  10  22  42  68  96 128 178 226 278 336 398
#     4  10  24  44  67  94 129 176 236 285 329 405
#     4  11  24  45  70  95 132 181 240 286 334 416
#     4  11  21  38  62  98 138 173 211 268 346 417
#     4  12  23  40  69 100 133 181 226 278 343 410
#     4  12  21  34  62  98 135 164 217 271 332 413
#
# _framework density 19.879764999999999
#
# number of rings (size 3 to 8) (size 9 to 14) (size 15 to 20)
#    0.000    0.800    6.000    2.400    0.000    3.200 
#    0.000    1.333    2.933    0.000    0.000    0.000 
#    0.000    0.000    0.000    0.000    0.000    0.000 
#
# Total GULP energy -83738.028070 kJ/mol
# GULP energy per Si atom -5582.535205 kJ/mol
# Density = 1.983452 g / cm^3
# Si number density = 19.879765 Si / 1000 Ang^3
#
#
#
# Elastic Constant Matrix: (Units=GPa)
#
#
# Indices 1 2 3 4 5 6 
#
# 1 103.8758 23.8576 30.2508 0.0000 3.1793 0.0000
# 2 23.8576 82.5151 29.1075 0.0000 2.1642 0.0000
# 3 30.2508 29.1075 92.2974 0.0000 -4.3534 0.0000
# 4 0.0000 0.0000 0.0000 33.8999 0.0000 3.2508
# 5 3.1793 2.1642 -4.3534 0.0000 35.5601 0.0000
# 6 0.0000 0.0000 0.0000 3.2508 0.0000 10.5633
#
#
#
# Elastic Compliance Matrix: (Units=1/GPa)
#
#
# Indices 1 2 3 4 5 6 
#
# 1 0.011022 -0.002093 -0.003010 0.000000 -0.001227 0.000000
# 2 -0.002093 0.014099 -0.003814 0.000000 -0.001138 0.000000
# 3 -0.003010 -0.003814 0.013124 0.000000 0.002108 0.000000
# 4 0.000000 0.000000 0.000000 0.030396 0.000000 -0.009354
# 5 -0.001227 -0.001138 0.002108 0.000000 0.028558 0.000000
# 6 0.000000 0.000000 0.000000 -0.009354 0.000000 0.097546
#
#
# Mechanical properties :
#
#
# Convention : Reuss Voigt Hill
#
# Bulk Modulus (GPa) = 48.99527 49.45781 49.22654
# Shear Modulus (GPa) = 22.79124 29.03616 25.91370
#
# Velocity S-wave (km/s) = 3.38961 3.82591 3.61435
# Velocity P-wave (km/s) = 6.32602 6.66703 6.49876
#
# Compressibility (1/GPa) = 0.02041013
#
# Stress axis : x y z
#
# Youngs Moduli (GPa) = 90.73003 70.92511 76.19918
#
# Poissons Ratio (x) = 0.14842 0.22938
# Poissons Ratio (y) = 0.18986 0.29065
# Poissons Ratio (z) = 0.27313 0.27053
#
# Static dielectric constant tensor:
#      x y z
#    x 1.741590 0.000000 0.037940 
#    y 0.000000 1.711170 0.000000 
#    z 0.037940 0.000000 1.745860 
# 
# From -- ./inp_files/40713.got.cif
#   From: 2010.05.17/outbox.cif.g08.bks.cpg/sg5_21_cif.got.tgz:40713.got - 2010.06.03 18:56:24.
