data_PCOD9126118
_publ_section_title
;
Structure prediction by ZEFSAII (Michael W. Deem and Ramdas Pophale) SiO2 
 PCOD9126118
Probable space group: C 2
;
_chemical_formula_sum "Si O2"
_cell_formula_units_Z 28
_cell_length_a 12.975121
_cell_length_b 12.400520
_cell_length_c 9.121734
_cell_angle_alpha 90.000000
_cell_angle_beta 60.534094
_cell_angle_gamma 90.000000
_cell_volume 1277.825655
_symmetry_space_group_name_H-M "C 2"
_symmetry_group_IT_number 5
_symmetry_cell_setting 'monoclinic'
loop_
_space_group_symop_operation_xyz
x,y,z
-x,y,-z
1/2+x,1/2+y,z
1/2-x,1/2+y,-z
loop_
_atom_site_type_symbol
_atom_site_label
_atom_site_fract_x
_atom_site_fract_y
_atom_site_fract_z
Si Si1 0.177825 0.928680 0.594001
Si Si2 0.314273 0.026960 0.240952
Si Si3 0.967734 0.321775 0.187193
Si Si4 0.775459 0.154284 0.300234
Si Si5 0.924776 0.706566 0.343508
Si Si6 0.117702 0.389168 0.329886
Si Si7 0.173039 0.595780 0.099915
O O1 0.079853 0.835899 0.658152
O O2 0.283013 0.872490 0.616768
O O3 0.212943 0.966584 0.405146
O O4 0.165322 0.042954 0.686221
O O5 0.338636 0.143603 0.292165
O O6 0.425239 0.947110 0.200303
O O7 0.299388 0.052159 0.080785
O O8 0.854510 0.250454 0.305624
O O9 0.068963 0.308094 0.239269
O O10 0.000000 0.290151 0.000000
O O11 0.641006 0.168468 0.459154
O O12 0.768889 0.160529 0.128653
O O13 0.052122 0.663331 0.203083
O O14 0.160328 0.489481 0.206431
O O15 0.000000 0.419450 0.500000
#
# Coordination Sequence:
#
# PCOD9126118 Si02
#       7
#     4   4   4   4   4   4   4
#     4  10  22  38  63  90 128 158 206 255 326 367
#     4  11  20  38  61  95 120 158 207 268 304 361
#     4  12  21  38  63  87 127 163 209 263 311 365
#     4  10  23  39  59  90 125 168 203 254 318 387
#     4  11  19  37  65  91 122 160 203 266 306 371
#     4  11  18  33  60  88 112 161 209 253 293 374
#     4  11  21  36  63  91 119 159 216 257 306 362
#
# _framework density 21.912222
#
# number of rings (size 3 to 8) (size 9 to 14) (size 15 to 20)
#    0.000    1.143    5.714    2.571    0.000    1.143 
#    0.000    1.429    3.143    0.000    0.000    0.000 
#    0.000    0.000    0.000    0.000    0.000    0.000 
#
# Total GULP energy -77982.812406 kJ/mol
# GULP energy per Si atom -5570.200886 kJ/mol
# Density = 2.186235 g / cm^3
# Si number density = 21.912222 Si / 1000 Ang^3
#
#
#
# Elastic Constant Matrix: (Units=GPa)
#
#
# Indices 1 2 3 4 5 6 
#
# 1 44.1838 33.4160 38.7061 0.0000 18.0166 0.0000
# 2 33.4160 122.9391 38.2325 0.0000 4.4727 0.0000
# 3 38.7061 38.2325 130.3820 0.0000 39.8670 0.0000
# 4 0.0000 0.0000 0.0000 22.7796 0.0000 -1.9192
# 5 18.0166 4.4727 39.8670 0.0000 32.9573 0.0000
# 6 0.0000 0.0000 0.0000 -1.9192 0.0000 25.0480
#
#
#
# Elastic Compliance Matrix: (Units=1/GPa)
#
#
# Indices 1 2 3 4 5 6 
#
# 1 0.039239 -0.008699 -0.004602 0.000000 -0.014703 0.000000
# 2 -0.008699 0.011085 -0.002638 0.000000 0.006442 0.000000
# 3 -0.004602 -0.002638 0.014173 0.000000 -0.014271 0.000000
# 4 0.000000 0.000000 0.000000 0.044184 0.000000 0.003385
# 5 -0.014703 0.006442 -0.014271 0.000000 0.054768 0.000000
# 6 0.000000 0.000000 0.000000 0.003385 0.000000 0.040183
#
#
# Mechanical properties :
#
#
# Convention : Reuss Voigt Hill
#
# Bulk Modulus (GPa) = 30.65743 57.57934 44.11839
# Shear Modulus (GPa) = 20.29363 28.63365 24.46364
#
# Velocity S-wave (km/s) = 3.04654 3.61881 3.34494
# Velocity P-wave (km/s) = 5.13777 6.61781 5.92419
#
# Compressibility (1/GPa) = 0.03261852
#
# Stress axis : x y z
#
# Youngs Moduli (GPa) = 25.48488 90.21540 70.55700
#
# Poissons Ratio (x) = 0.78482 0.32470
# Poissons Ratio (y) = 0.22170 0.18610
# Poissons Ratio (z) = 0.11728 0.23795
#
# Static dielectric constant tensor:
#      x y z
#    x 1.869960 0.000000 0.028370 
#    y 0.000000 1.809590 0.000000 
#    z 0.028370 0.000000 1.878840 
# 
# From -- ./inp_files/23785.got.cif
#   From: 2010.05.17/outbox.cif.g08.bks.cpg/sg5_12_cif.got.tgz:23785.got - 2010.06.03 18:56:24.
