data_PCOD9126796
_publ_section_title
;
Structure prediction by ZEFSAII (Michael W. Deem and Ramdas Pophale) SiO2 
 PCOD9126796
Probable space group: C 2
;
_chemical_formula_sum "Si O2"
_cell_formula_units_Z 22
_cell_length_a 22.745585
_cell_length_b 8.963487
_cell_length_c 15.159914
_cell_angle_alpha 90.000000
_cell_angle_beta 162.088882
_cell_angle_gamma 90.000000
_cell_volume 950.548406
_symmetry_space_group_name_H-M "C 2"
_symmetry_group_IT_number 5
_symmetry_cell_setting 'monoclinic'
loop_
_space_group_symop_operation_xyz
x,y,z
-x,y,-z
1/2+x,1/2+y,z
1/2-x,1/2+y,-z
loop_
_atom_site_type_symbol
_atom_site_label
_atom_site_fract_x
_atom_site_fract_y
_atom_site_fract_z
Si Si1 0.662170 0.412910 0.292925
Si Si2 0.520279 0.706234 0.332696
Si Si3 0.500000 0.818675 0.500000
Si Si4 0.520893 0.154699 0.221573
Si Si5 0.123230 0.911820 0.895011
Si Si6 0.278890 0.420274 0.160756
O O1 0.800274 0.307512 0.432927
O O2 0.562767 0.294361 0.217225
O O3 0.799310 0.544544 0.522689
O O4 0.500000 0.481341 0.000000
O O5 0.485615 0.726557 0.388219
O O6 0.537950 0.536725 0.327121
O O7 0.348351 0.771123 0.026185
O O8 0.699569 0.907836 0.784161
O O9 0.472266 0.248516 0.241087
O O10 0.336161 0.045814 0.948153
O O11 0.221875 0.958335 0.944243
O O12 0.500000 0.400535 0.500000
#
# Coordination Sequence:
#
# PCOD9126796 Si02
#       6
#     4   4   2   4   4   4
#     4  11  25  47  70  96 141 192 237 286 348 414
#     4  10  23  42  68 102 140 188 235 288 354 421
#     4  10  22  42  66 100 146 180 226 296 354 416
#     4  11  25  48  68 104 141 184 241 289 342 430
#     4  11  23  39  69 101 138 183 229 286 361 409
#     4  10  23  41  68 106 144 174 232 295 357 419
#
# _framework density 23.144534
#
# number of rings (size 3 to 8) (size 9 to 14) (size 15 to 20)
#    0.000    1.455    0.000    4.364    8.909    0.000 
#    9.818    0.909    0.000    0.000    0.000    0.000 
#    0.000    0.000    0.000    0.000    0.000    0.000 
#
# Total GULP energy -61338.502650 kJ/mol
# GULP energy per Si atom -5576.227514 kJ/mol
# Density = 2.309186 g / cm^3
# Si number density = 23.144534 Si / 1000 Ang^3
#
#
#
# Elastic Constant Matrix: (Units=GPa)
#
#
# Indices 1 2 3 4 5 6 
#
# 1 79.3811 26.6340 27.0513 0.0000 13.1259 0.0000
# 2 26.6340 90.5669 38.1389 0.0000 -7.2375 0.0000
# 3 27.0513 38.1389 159.9245 0.0000 7.6724 0.0000
# 4 0.0000 0.0000 0.0000 26.0175 0.0000 5.7744
# 5 13.1259 -7.2375 7.6724 0.0000 26.2939 0.0000
# 6 0.0000 0.0000 0.0000 5.7744 0.0000 33.7200
#
#
#
# Elastic Compliance Matrix: (Units=1/GPa)
#
#
# Indices 1 2 3 4 5 6 
#
# 1 0.016167 -0.005021 -0.001099 0.000000 -0.009132 0.000000
# 2 -0.005021 0.014331 -0.002919 0.000000 0.007303 0.000000
# 3 -0.001099 -0.002919 0.007249 0.000000 -0.002370 0.000000
# 4 0.000000 0.000000 0.000000 0.039954 0.000000 -0.006842
# 5 -0.009132 0.007303 -0.002370 0.000000 0.045292 0.000000
# 6 0.000000 0.000000 0.000000 -0.006842 0.000000 0.030828
#
#
# Mechanical properties :
#
#
# Convention : Reuss Voigt Hill
#
# Bulk Modulus (GPa) = 50.84322 57.05788 53.95055
# Shear Modulus (GPa) = 28.01844 33.07617 30.54730
#
# Velocity S-wave (km/s) = 3.48312 3.78446 3.63691
# Velocity P-wave (km/s) = 6.17993 6.61835 6.40290
#
# Compressibility (1/GPa) = 0.01966831
#
# Stress axis : x y z
#
# Youngs Moduli (GPa) = 61.85558 69.77934 137.95795
#
# Poissons Ratio (x) = 0.35038 0.15162
# Poissons Ratio (y) = 0.31059 0.40265
# Poissons Ratio (z) = 0.06798 0.20366
#
# Static dielectric constant tensor:
#      x y z
#    x 1.984220 0.000000 0.034250 
#    y 0.000000 1.907580 0.000000 
#    z 0.034250 0.000000 1.885410 
# 
# From -- ./inp_files/38140.got.cif
#   From: 2010.05.17/outbox.cif.g08.bks.cpg/sg5_20_cif.got.tgz:38140.got - 2010.06.03 18:56:24.
