data_PCOD9126846
_publ_section_title
;
Structure prediction by ZEFSAII (Michael W. Deem and Ramdas Pophale) SiO2 
 PCOD9126846
Probable space group: C 2
;
_chemical_formula_sum "Si O2"
_cell_formula_units_Z 22
_cell_length_a 17.743363
_cell_length_b 8.503214
_cell_length_c 7.018904
_cell_angle_alpha 90.000000
_cell_angle_beta 107.822322
_cell_angle_gamma 90.000000
_cell_volume 1008.161159
_symmetry_space_group_name_H-M "C 2"
_symmetry_group_IT_number 5
_symmetry_cell_setting 'monoclinic'
loop_
_space_group_symop_operation_xyz
x,y,z
-x,y,-z
1/2+x,1/2+y,z
1/2-x,1/2+y,-z
loop_
_atom_site_type_symbol
_atom_site_label
_atom_site_fract_x
_atom_site_fract_y
_atom_site_fract_z
Si Si1 0.778906 0.197610 0.379374
Si Si2 0.344631 0.051480 0.437292
Si Si3 0.061245 0.071230 0.373377
Si Si4 0.500000 0.334822 0.000000
Si Si5 0.429138 0.912010 0.804788
Si Si6 0.151554 0.623915 0.999986
O O1 0.713820 0.163503 0.491134
O O2 0.811695 0.373416 0.423363
O O3 0.850187 0.072969 0.467801
O O4 0.734294 0.189508 0.142891
O O5 0.351789 0.097933 0.226030
O O6 0.424832 0.030346 0.622073
O O7 0.062582 0.235377 0.258919
O O8 0.000000 0.078348 0.500000
O O9 0.032582 0.940043 0.201995
O O10 0.422373 0.235455 0.001653
O O11 0.500000 0.942471 0.000000
O O12 0.356296 0.961575 0.883756
#
# Coordination Sequence:
#
# PCOD9126846 Si02
#       6
#     4   4   4   2   4   4
#     4  10  24  45  65 104 136 176 232 281 338 426
#     4  10  24  43  71  94 136 184 223 281 344 403
#     4  11  26  43  71 100 139 183 226 286 344 404
#     4  12  26  44  68 106 142 174 238 286 338 418
#     4  10  22  42  67  99 131 171 237 270 324 416
#     4  11  25  43  72 100 139 182 225 288 347 402
#
# _framework density 21.821909000000002
#
# number of rings (size 3 to 8) (size 9 to 14) (size 15 to 20)
#    0.000    1.455    1.818    1.091    5.091   11.636 
#    0.000    0.000    0.000    0.000    0.000    0.000 
#    0.000    0.000    0.000    0.000    0.000    0.000 
#
# Total GULP energy -61407.784891 kJ/mol
# GULP energy per Si atom -5582.525899 kJ/mol
# Density = 2.177224 g / cm^3
# Si number density = 21.821909 Si / 1000 Ang^3
#
#
#
# Elastic Constant Matrix: (Units=GPa)
#
#
# Indices 1 2 3 4 5 6 
#
# 1 81.9718 47.7797 73.0222 0.0000 10.5703 0.0000
# 2 47.7797 93.1131 60.0427 0.0000 -2.4808 0.0000
# 3 73.0222 60.0427 215.1392 0.0000 8.9131 0.0000
# 4 0.0000 0.0000 0.0000 18.5025 0.0000 4.3631
# 5 10.5703 -2.4808 8.9131 0.0000 46.4131 0.0000
# 6 0.0000 0.0000 0.0000 4.3631 0.0000 22.0713
#
#
#
# Elastic Compliance Matrix: (Units=1/GPa)
#
#
# Indices 1 2 3 4 5 6 
#
# 1 0.022002 -0.008187 -0.004997 0.000000 -0.004489 0.000000
# 2 -0.008187 0.016236 -0.001880 0.000000 0.003094 0.000000
# 3 -0.004997 -0.001880 0.006881 0.000000 -0.000284 0.000000
# 4 0.000000 0.000000 0.000000 0.056689 0.000000 -0.011206
# 5 -0.004489 0.003094 -0.000284 0.000000 0.022788 0.000000
# 6 0.000000 0.000000 0.000000 -0.011206 0.000000 0.047523
#
#
# Mechanical properties :
#
#
# Convention : Reuss Voigt Hill
#
# Bulk Modulus (GPa) = 66.71540 83.54591 75.13066
# Shear Modulus (GPa) = 24.12616 31.35602 27.74109
#
# Velocity S-wave (km/s) = 3.32865 3.79477 3.56933
# Velocity P-wave (km/s) = 6.73886 7.58741 7.17569
#
# Compressibility (1/GPa) = 0.01498904
#
# Stress axis : x y z
#
# Youngs Moduli (GPa) = 45.45125 61.59219 145.33325
#
# Poissons Ratio (x) = 0.50427 0.72620
# Poissons Ratio (y) = 0.37212 0.27329
# Poissons Ratio (z) = 0.22711 0.11582
#
# Static dielectric constant tensor:
#      x y z
#    x 1.882470 0.000000 0.098780 
#    y 0.000000 1.803760 0.000000 
#    z 0.098780 0.000000 1.862510 
# 
# From -- ./inp_files/9310.got.cif
#   From: 2010.05.17/outbox.cif.g08.bks.cpg/sg5_5_cif.got.tgz:9310.got - 2010.06.03 18:56:24.
