data_PCOD9126678
_publ_section_title
;
Structure prediction by ZEFSAII (Michael W. Deem and Ramdas Pophale) SiO2 
 PCOD9126678
Probable space group: C 2
;
_chemical_formula_sum "Si O2"
_cell_formula_units_Z 18
_cell_length_a 20.213909
_cell_length_b 4.826241
_cell_length_c 11.090742
_cell_angle_alpha 90.000000
_cell_angle_beta 128.525910
_cell_angle_gamma 90.000000
_cell_volume 846.463025
_symmetry_space_group_name_H-M "C 2"
_symmetry_group_IT_number 5
_symmetry_cell_setting 'monoclinic'
loop_
_space_group_symop_operation_xyz
x,y,z
-x,y,-z
1/2+x,1/2+y,z
1/2-x,1/2+y,-z
loop_
_atom_site_type_symbol
_atom_site_label
_atom_site_fract_x
_atom_site_fract_y
_atom_site_fract_z
Si Si1 0.854541 0.653800 0.055249
Si Si2 0.240706 0.155395 0.152703
Si Si3 0.000000 0.203958 0.000000
Si Si4 0.712109 0.047059 0.519714
Si Si5 0.957324 0.667996 0.796688
O O1 0.819249 0.620458 0.150458
O O2 0.952194 0.576100 0.154425
O O3 0.793894 0.462395 0.905871
O O4 0.834729 0.960627 0.983576
O O5 0.263592 0.084981 0.314123
O O6 0.064994 0.447110 0.122048
O O7 0.024785 0.972826 0.129602
O O8 0.773046 0.234128 0.505588
O O9 0.617733 0.148533 0.383053
#
# Coordination Sequence:
#
# PCOD9126678 Si02
#       5
#     4   4   2   4   4
#     4  10  22  41  69  87 122 169 213 255 301 373
#     4  10  23  42  62  96 123 163 211 257 310 370
#     4  10  24  36  62  92 124 156 218 248 300 380
#     4  12  27  40  61  95 134 165 201 263 321 368
#     4  11  24  40  63  93 121 174 203 259 311 367
#
# _framework density 21.264956999999999
#
# number of rings (size 3 to 8) (size 9 to 14) (size 15 to 20)
#    0.000    1.333    0.000    4.000   18.667    0.889 
#    0.000    0.000    0.000   13.333    0.000    0.000 
#    0.000    0.000    0.000    0.000    0.000    0.000 
#
# Total GULP energy -50168.600114 kJ/mol
# GULP energy per Si atom -5574.288902 kJ/mol
# Density = 2.121656 g / cm^3
# Si number density = 21.264957 Si / 1000 Ang^3
#
#
#
# Elastic Constant Matrix: (Units=GPa)
#
#
# Indices 1 2 3 4 5 6 
#
# 1 106.4794 -8.0968 39.8825 0.0000 15.4479 0.0000
# 2 -8.0968 90.8247 -6.1597 0.0000 -7.7160 0.0000
# 3 39.8825 -6.1597 117.2449 0.0000 -7.9634 0.0000
# 4 0.0000 0.0000 0.0000 20.5789 0.0000 -6.1040
# 5 15.4479 -7.7160 -7.9634 0.0000 31.0614 0.0000
# 6 0.0000 0.0000 0.0000 -6.1040 0.0000 15.1612
#
#
#
# Elastic Compliance Matrix: (Units=1/GPa)
#
#
# Indices 1 2 3 4 5 6 
#
# 1 0.012181 0.000160 -0.004624 0.000000 -0.007204 0.000000
# 2 0.000160 0.011323 0.000739 0.000000 0.002922 0.000000
# 3 -0.004624 0.000739 0.010492 0.000000 0.005173 0.000000
# 4 0.000000 0.000000 0.000000 0.055183 0.000000 0.022217
# 5 -0.007204 0.002922 0.005173 0.000000 0.037829 0.000000
# 6 0.000000 0.000000 0.000000 0.022217 0.000000 0.074903
#
#
# Mechanical properties :
#
#
# Convention : Reuss Voigt Hill
#
# Bulk Modulus (GPa) = 37.67089 40.64455 39.15772
# Shear Modulus (GPa) = 22.91367 32.62185 27.76776
#
# Velocity S-wave (km/s) = 3.28614 3.92096 3.61750
# Velocity P-wave (km/s) = 5.67025 6.29710 5.99188
#
# Compressibility (1/GPa) = 0.02654570
#
# Stress axis : x y z
#
# Youngs Moduli (GPa) = 82.09599 88.31665 95.30716
#
# Poissons Ratio (x) = -0.01416 0.44073
# Poissons Ratio (y) = -0.01316 -0.07042
# Poissons Ratio (z) = 0.37964 -0.06525
#
# Static dielectric constant tensor:
#      x y z
#    x 1.851930 0.000000 -0.023300 
#    y 0.000000 1.755820 0.000000 
#    z -0.023300 0.000000 1.752190 
# 
# From -- ./inp_files/28205.got.cif
#   From: 2010.05.17/outbox.cif.g08.bks.cpg/sg5_15_cif.got.tgz:28205.got - 2010.06.03 18:56:24.
