data_PCOD9126245
_publ_section_title
;
Structure prediction by ZEFSAII (Michael W. Deem and Ramdas Pophale) SiO2 
 PCOD9126245
Probable space group: C 2
;
_chemical_formula_sum "Si O2"
_cell_formula_units_Z 18
_cell_length_a 7.790170
_cell_length_b 24.024777
_cell_length_c 4.873014
_cell_angle_alpha 90.000000
_cell_angle_beta 115.454385
_cell_angle_gamma 90.000000
_cell_volume 823.487395
_symmetry_space_group_name_H-M "C 2"
_symmetry_group_IT_number 5
_symmetry_cell_setting 'monoclinic'
loop_
_space_group_symop_operation_xyz
x,y,z
-x,y,-z
1/2+x,1/2+y,z
1/2-x,1/2+y,-z
loop_
_atom_site_type_symbol
_atom_site_label
_atom_site_fract_x
_atom_site_fract_y
_atom_site_fract_z
Si Si1 0.500000 0.009890 0.000000
Si Si2 0.368745 0.193076 0.638066
Si Si3 0.000000 0.584972 0.500000
Si Si4 0.788223 0.845895 0.942432
Si Si5 0.208618 0.922536 0.559730
Si Si6 0.500000 0.761276 0.500000
O O1 0.424111 0.048408 0.195884
O O2 0.647678 0.969422 0.250231
O O3 0.500000 0.222314 0.500000
O O4 0.350357 0.128942 0.525338
O O5 0.166335 0.221999 0.501696
O O6 0.500000 0.192649 0.000000
O O7 0.765237 0.900591 0.730970
O O8 0.623633 0.802049 0.776146
O O9 0.773751 0.867265 0.241045
O O10 0.000000 0.825291 0.000000
O O11 0.000000 0.943268 0.500000
#
# Coordination Sequence:
#
# PCOD9126245 Si02
#       6
#     2   4   2   4   4   2
#     4  12  20  40  70  86 120 176 210 252 334 374
#     4  10  24  46  61  92 135 164 216 276 309 370
#     4  10  22  45  62  90 132 161 210 286 306 356
#     4  10  22  39  61  97 134 161 205 262 311 386
#     4  10  22  40  60  95 131 158 207 262 311 385
#     4  12  24  41  74  94 124 187 210 248 338 382
#
# _framework density 21.858260000000001
#
# number of rings (size 3 to 8) (size 9 to 14) (size 15 to 20)
#    0.667    0.889    1.111    3.333    0.000    7.111 
#    2.000    2.222    0.000    0.000    0.000    0.000 
#    0.000    0.000    0.000    0.000    0.000    0.000 
#
# Total GULP energy -50259.994338 kJ/mol
# GULP energy per Si atom -5584.443815 kJ/mol
# Density = 2.180851 g / cm^3
# Si number density = 21.858260 Si / 1000 Ang^3
#
#
#
# Elastic Constant Matrix: (Units=GPa)
#
#
# Indices 1 2 3 4 5 6 
#
# 1 121.7846 45.3398 41.8161 0.0000 25.0483 0.0000
# 2 45.3398 82.6710 26.7539 0.0000 23.4781 0.0000
# 3 41.8161 26.7539 91.9562 0.0000 3.9483 0.0000
# 4 0.0000 0.0000 0.0000 -156.1041 0.0000 -37.0229
# 5 25.0483 23.4781 3.9483 0.0000 42.7900 0.0000
# 6 0.0000 0.0000 0.0000 -37.0229 0.0000 12.5612
#
#
#
# Elastic Compliance Matrix: (Units=1/GPa)
#
#
# Indices 1 2 3 4 5 6 
#
# 1 0.012032 -0.003997 -0.004117 0.000000 -0.004470 0.000000
# 2 -0.003997 0.017154 -0.002881 0.000000 -0.006806 0.000000
# 3 -0.004117 -0.002881 0.013467 0.000000 0.002748 0.000000
# 4 0.000000 0.000000 0.000000 -0.003770 0.000000 -0.011113
# 5 -0.004470 -0.006806 0.002748 0.000000 0.029468 0.000000
# 6 0.000000 0.000000 0.000000 -0.011113 0.000000 0.046856
#
#
# Mechanical properties :
#
#
# Convention : Reuss Voigt Hill
#
# Bulk Modulus (GPa) = 48.39444 58.24793 53.32119
# Shear Modulus (GPa) = 34.70212 -7.98378 13.35917
#
# Velocity S-wave (km/s) = 3.98879 -1.91323 2.47487
# Velocity P-wave (km/s) = 6.58803 4.67175 5.71084
#
# Compressibility (1/GPa) = 0.02066353
#
# Stress axis : x y z
#
# Youngs Moduli (GPa) = 83.10963 58.29713 74.25616
#
# Poissons Ratio (x) = 0.23302 0.30569
# Poissons Ratio (y) = 0.33220 0.21391
# Poissons Ratio (z) = 0.34213 0.16794
#
# Static dielectric constant tensor:
#      x y z
#    x 1.920330 0.000000 0.101760 
#    y 0.000000 1.814820 0.000000 
#    z 0.101760 0.000000 1.911700 
# 
# From -- ./inp_files/3276.got.cif
#   From: 2010.05.17/outbox.cif.g08.bks.cpg/sg5_2_cif.got.tgz:3276.got - 2010.06.03 18:56:24.
