data_PCOD9126004
_publ_section_title
;
Structure prediction by ZEFSAII (Michael W. Deem and Ramdas Pophale) SiO2 
 PCOD9126004
Probable space group: C 2
;
_chemical_formula_sum "Si O2"
_cell_formula_units_Z 26
_cell_length_a 21.921569
_cell_length_b 5.301003
_cell_length_c 24.341125
_cell_angle_alpha 90.000000
_cell_angle_beta 23.812809
_cell_angle_gamma 90.000000
_cell_volume 1142.043610
_symmetry_space_group_name_H-M "C 2"
_symmetry_group_IT_number 5
_symmetry_cell_setting 'monoclinic'
loop_
_space_group_symop_operation_xyz
x,y,z
-x,y,-z
1/2+x,1/2+y,z
1/2-x,1/2+y,-z
loop_
_atom_site_type_symbol
_atom_site_label
_atom_site_fract_x
_atom_site_fract_y
_atom_site_fract_z
Si Si1 0.363448 0.332850 0.377358
Si Si2 0.440756 0.158251 0.874713
Si Si3 0.353878 0.119663 0.506089
Si Si4 0.581743 0.672202 0.810055
Si Si5 0.500000 0.634384 0.000000
Si Si6 0.864268 0.128452 0.824686
Si Si7 0.321177 0.117291 0.787713
O O1 0.479432 0.153742 0.249974
O O2 0.335798 0.276656 0.463708
O O3 0.216777 0.359238 0.460086
O O4 0.469570 0.579757 0.289117
O O5 0.508791 0.400867 0.852301
O O6 0.486510 0.900161 0.864837
O O7 0.260520 0.164003 0.025427
O O8 0.245843 0.186091 0.645660
O O9 0.530966 0.130420 0.373306
O O10 0.574850 0.726706 0.880792
O O11 0.340124 0.544825 0.105280
O O12 0.858774 0.379091 0.794167
O O13 0.820978 0.882815 0.821967
#
# Coordination Sequence:
#
# PCOD9126004 Si02
#       7
#     4   4   4   4   2   4   4
#     4  10  22  36  72  92 146 178 210 256 358 386
#     4  11  22  42  63 105 133 174 219 275 315 418
#     4  10  22  43  60 104 132 177 212 278 318 428
#     4  11  25  41  71  92 137 168 234 270 336 381
#     4  12  24  48  72  98 120 196 212 306 328 374
#     4  11  22  42  63 105 133 174 219 275 315 418
#     4  11  25  41  71  92 137 168 234 270 336 381
#
# _framework density 22.766204999999999
#
# number of rings (size 3 to 8) (size 9 to 14) (size 15 to 20)
#    0.000    1.231    3.077    1.846    0.000   15.385 
#    0.000    0.000    0.000    7.385    0.000    0.000 
#    0.000    0.000    0.000    0.000    0.000    0.000 
#
# Total GULP energy -72424.847375 kJ/mol
# GULP energy per Si atom -5571.142106 kJ/mol
# Density = 2.271439 g / cm^3
# Si number density = 22.766205 Si / 1000 Ang^3
#
#
#
# Elastic Constant Matrix: (Units=GPa)
#
#
# Indices 1 2 3 4 5 6 
#
# 1 70.9585 7.4632 22.4282 0.4249 17.3948 0.1859
# 2 7.4632 98.7647 -1.6425 0.2026 13.7274 0.1307
# 3 22.4282 -1.6425 201.6448 0.4415 18.6478 0.2051
# 4 0.4249 0.2026 0.4415 -2.3340 0.0710 -10.1198
# 5 17.3948 13.7274 18.6478 0.0710 55.3593 0.0305
# 6 0.1859 0.1307 0.2051 -10.1198 0.0305 -9.1887
#
#
#
# Elastic Compliance Matrix: (Units=1/GPa)
#
#
# Indices 1 2 3 4 5 6 
#
# 1 0.015639 -0.000605 -0.001346 -0.000336 -0.004311 0.000633
# 2 -0.000605 0.010532 0.000389 -0.000054 -0.002553 0.000197
# 3 -0.001346 0.000389 0.005245 -0.000091 -0.001441 0.000191
# 4 -0.000336 -0.000054 -0.000091 0.113501 0.000073 -0.125012
# 5 -0.004311 -0.002553 -0.001441 0.000073 0.020536 -0.000168
# 6 0.000633 0.000197 0.000191 -0.125012 -0.000168 0.028870
#
#
# Mechanical properties :
#
#
# Convention : Reuss Voigt Hill
#
# Bulk Modulus (GPa) = 35.34511 47.54065 41.44288
# Shear Modulus (GPa) = 24.16884 31.64193 27.90539
#
# Velocity S-wave (km/s) = 3.26177 3.73213 3.50485
# Velocity P-wave (km/s) = 5.45385 6.28484 5.88403
#
# Compressibility (1/GPa) = 0.02829246
#
# Stress axis : x y z
#
# Youngs Moduli (GPa) = 63.94369 94.94958 190.64768
#
# Poissons Ratio (x) = 0.05746 0.25655
# Poissons Ratio (y) = 0.03870 -0.07418
# Poissons Ratio (z) = 0.08605 -0.03694
#
# Static dielectric constant tensor:
#      x y z
#    x 1.906790 -0.000780 0.002530 
#    y -0.000780 1.941780 0.000400 
#    z 0.002530 0.000400 1.939940 
# 
# From -- ./inp_files/71181.got.cif
#   From: 2010.05.17/outbox.cif.g08.bks.cpg/sg5_36_cif.got.tgz:71181.got - 2010.06.03 18:56:24.
