data_PCOD9126615
_publ_section_title
;
Structure prediction by ZEFSAII (Michael W. Deem and Ramdas Pophale) SiO2 
 PCOD9126615
Probable space group: C 2
;
_chemical_formula_sum "Si O2"
_cell_formula_units_Z 24
_cell_length_a 15.395322
_cell_length_b 5.129553
_cell_length_c 14.102955
_cell_angle_alpha 90.000000
_cell_angle_beta 57.101088
_cell_angle_gamma 90.000000
_cell_volume 935.118090
_symmetry_space_group_name_H-M "C 2"
_symmetry_group_IT_number 5
_symmetry_cell_setting 'monoclinic'
loop_
_space_group_symop_operation_xyz
x,y,z
-x,y,-z
1/2+x,1/2+y,z
1/2-x,1/2+y,-z
loop_
_atom_site_type_symbol
_atom_site_label
_atom_site_fract_x
_atom_site_fract_y
_atom_site_fract_z
Si Si1 0.184640 0.426580 0.029713
Si Si2 0.276290 0.814694 0.706081
Si Si3 0.880870 0.818019 0.591705
Si Si4 0.394482 0.639678 0.102095
Si Si5 0.479413 0.783547 0.254169
Si Si6 0.371801 0.284996 0.387296
O O1 0.096843 0.352182 0.158348
O O2 0.220907 0.722653 0.016305
O O3 0.137185 0.353768 0.955827
O O4 0.325631 0.532470 0.689173
O O5 0.212927 0.808743 0.644555
O O6 0.364623 0.031860 0.642454
O O7 0.194968 0.929532 0.828770
O O8 0.829025 0.824911 0.517827
O O9 0.000000 0.875747 0.500000
O O10 0.419763 0.769618 0.188095
O O11 0.500000 0.513264 0.000000
O O12 0.457590 0.505269 0.313737
O O13 0.426774 0.006937 0.347010
#
# Coordination Sequence:
#
# PCOD9126615 Si02
#       6
#     4   4   4   4   4   4
#     4  11  24  40  62  96 135 174 215 271 334 394
#     4  11  23  43  68  94 125 175 221 265 325 389
#     4  12  26  42  63  97 134 170 214 272 331 390
#     4   9  22  44  69  98 133 172 225 276 324 393
#     4  10  22  41  65  92 124 173 221 266 324 385
#     4  11  22  42  66  91 124 168 220 272 320 387
#
# _framework density 25.665206000000001
#
# number of rings (size 3 to 8) (size 9 to 14) (size 15 to 20)
#    0.000    1.333    0.000    5.500    0.000    8.000 
#    0.000   13.333    0.000    0.000    0.000    0.000 
#    0.000    0.000    0.000    0.000    0.000    0.000 
#
# Total GULP energy -67362.085069 kJ/mol
# GULP energy per Si atom -5613.507089 kJ/mol
# Density = 2.560679 g / cm^3
# Si number density = 25.665206 Si / 1000 Ang^3
#
#
#
# Elastic Constant Matrix: (Units=GPa)
#
#
# Indices 1 2 3 4 5 6 
#
# 1 73.5072 0.3358 8.0364 -0.0001 -2.0911 0.0012
# 2 0.3358 73.2675 16.2959 -0.0002 -9.1141 0.0047
# 3 8.0364 16.2959 97.8108 -0.0004 -10.0892 0.0007
# 4 -0.0001 -0.0002 -0.0004 46.8637 -0.0002 -2.9442
# 5 -2.0911 -9.1141 -10.0892 -0.0002 49.2429 0.0004
# 6 0.0012 0.0047 0.0007 -2.9442 0.0004 16.1127
#
#
#
# Elastic Compliance Matrix: (Units=1/GPa)
#
#
# Indices 1 2 3 4 5 6 
#
# 1 0.013738 0.000237 -0.001127 0.000000 0.000396 -0.000001
# 2 0.000237 0.014412 -0.002191 0.000000 0.002229 -0.000004
# 3 -0.001127 -0.002191 0.010864 0.000000 0.001773 0.000000
# 4 0.000000 0.000000 0.000000 0.021586 0.000000 0.003944
# 5 0.000396 0.002229 0.001773 0.000000 0.021100 -0.000001
# 6 -0.000001 -0.000004 0.000000 0.003944 -0.000001 0.062784
#
#
# Mechanical properties :
#
#
# Convention : Reuss Voigt Hill
#
# Bulk Modulus (GPa) = 30.43968 32.65797 31.54883
# Shear Modulus (GPa) = 30.94128 37.10500 34.02314
#
# Velocity S-wave (km/s) = 3.47590 3.80640 3.64490
# Velocity P-wave (km/s) = 5.29105 5.66308 5.48023
#
# Compressibility (1/GPa) = 0.03285186
#
# Stress axis : x y z
#
# Youngs Moduli (GPa) = 72.79318 69.38653 92.04475
#
# Poissons Ratio (x) = -0.01645 0.10377
# Poissons Ratio (y) = -0.01726 0.20165
# Poissons Ratio (z) = 0.08206 0.15201
#
# Static dielectric constant tensor:
#      x y z
#    x 2.085160 0.000000 0.009820 
#    y 0.000000 1.927310 0.000000 
#    z 0.009820 0.000000 1.957730 
# 
# From -- ./inp_files/61997.got.cif
#   From: 2010.05.17/outbox.cif.g08.bks.cpg/sg5_31_cif.got.tgz:61997.got - 2010.06.03 18:56:24.
