data_PCOD9126042
_publ_section_title
;
Structure prediction by ZEFSAII (Michael W. Deem and Ramdas Pophale) SiO2 
 PCOD9126042
Probable space group: C 2
;
_chemical_formula_sum "Si O2"
_cell_formula_units_Z 22
_cell_length_a 5.436770
_cell_length_b 12.976282
_cell_length_c 14.767353
_cell_angle_alpha 90.000000
_cell_angle_beta 63.132059
_cell_angle_gamma 90.000000
_cell_volume 929.358669
_symmetry_space_group_name_H-M "C 2"
_symmetry_group_IT_number 5
_symmetry_cell_setting 'monoclinic'
loop_
_space_group_symop_operation_xyz
x,y,z
-x,y,-z
1/2+x,1/2+y,z
1/2-x,1/2+y,-z
loop_
_atom_site_type_symbol
_atom_site_label
_atom_site_fract_x
_atom_site_fract_y
_atom_site_fract_z
Si Si1 0.000000 0.426060 0.000000
Si Si2 0.188244 0.634468 0.560217
Si Si3 0.534245 0.423036 0.197699
Si Si4 0.218987 0.267021 0.711419
Si Si5 0.230424 0.766206 0.901669
Si Si6 0.987027 0.420371 0.393988
O O1 0.249757 0.481680 0.904320
O O2 0.856700 0.349785 0.950890
O O3 0.500000 0.671020 0.500000
O O4 0.211315 0.517055 0.590370
O O5 0.000000 0.631461 0.500000
O O6 0.999084 0.704265 0.655768
O O7 0.717690 0.369862 0.243423
O O8 0.414790 0.332061 0.153333
O O9 0.269055 0.459704 0.298234
O O10 0.111785 0.314559 0.635349
O O11 0.980871 0.210023 0.808375
O O12 0.000000 0.708834 0.000000
O O13 0.000000 0.407338 0.500000
#
# Coordination Sequence:
#
# PCOD9126042 Si02
#       6
#     2   4   4   4   4   4
#     4   8  14  30  54  92 122 150 208 260 318 384
#     4  11  28  44  61  93 134 175 221 279 325 388
#     4   9  18  32  60  91 119 164 208 262 320 394
#     4  10  22  37  64  92 123 174 218 263 328 399
#     4   8  15  31  56  92 121 154 207 266 318 387
#     4  10  24  41  61  91 132 173 218 274 328 389
#
# _framework density 23.672236999999999
#
# number of rings (size 3 to 8) (size 9 to 14) (size 15 to 20)
#    0.000    2.545    0.000    0.000   12.727    0.000 
#    0.000    0.000    2.000    0.000  118.182    0.000 
#    0.000    0.000    0.000    0.000    0.000    0.000 
#
# Total GULP energy -61290.776681 kJ/mol
# GULP energy per Si atom -5571.888789 kJ/mol
# Density = 2.361836 g / cm^3
# Si number density = 23.672237 Si / 1000 Ang^3
#
#
#
# Elastic Constant Matrix: (Units=GPa)
#
#
# Indices 1 2 3 4 5 6 
#
# 1 97.0472 17.5520 73.6978 0.0000 -23.9094 0.0000
# 2 17.5520 54.8775 49.2376 0.0000 -18.5277 0.0000
# 3 73.6978 49.2376 208.9215 0.0000 -53.3424 0.0000
# 4 0.0000 0.0000 0.0000 18.8752 0.0000 -21.3642
# 5 -23.9094 -18.5277 -53.3424 0.0000 77.3752 0.0000
# 6 0.0000 0.0000 0.0000 -21.3642 0.0000 16.5776
#
#
#
# Elastic Compliance Matrix: (Units=1/GPa)
#
#
# Indices 1 2 3 4 5 6 
#
# 1 0.014156 0.000097 -0.004725 0.000000 0.001140 0.000000
# 2 0.000097 0.023411 -0.004991 0.000000 0.002195 0.000000
# 3 -0.004725 -0.004991 0.008437 0.000000 0.003161 0.000000
# 4 0.000000 0.000000 0.000000 -0.115505 0.000000 -0.148856
# 5 0.001140 0.002195 0.003161 0.000000 0.015981 0.000000
# 6 0.000000 0.000000 0.000000 -0.148856 0.000000 -0.131514
#
#
# Mechanical properties :
#
#
# Convention : Reuss Voigt Hill
#
# Bulk Modulus (GPa) = 37.36335 71.31342 54.33839
# Shear Modulus (GPa) = -31.87272 37.25619 2.69174
#
# Velocity S-wave (km/s) = -3.67334 3.97146 1.06750
# Velocity P-wave (km/s) = 1.47422 7.15687 4.95214
#
# Compressibility (1/GPa) = 0.02676420
#
# Stress axis : x y z
#
# Youngs Moduli (GPa) = 70.64127 42.71573 118.52923
#
# Poissons Ratio (x) = -0.00414 0.56010
# Poissons Ratio (y) = -0.00685 0.59159
# Poissons Ratio (z) = 0.33381 0.21320
#
# Static dielectric constant tensor:
#      x y z
#    x 1.971850 0.000000 -0.025280 
#    y 0.000000 1.873460 0.000000 
#    z -0.025280 0.000000 2.087100 
# 
# From -- ./inp_files/48875.got.cif
#   From: 2010.05.17/outbox.cif.g08.bks.cpg/sg5_25_cif.got.tgz:48875.got - 2010.06.03 18:56:24.
