data_PCOD9126954
_publ_section_title
;
Structure prediction by ZEFSAII (Michael W. Deem and Ramdas Pophale) SiO2 
 PCOD9126954
Probable space group: C 2
;
_chemical_formula_sum "Si O2"
_cell_formula_units_Z 28
_cell_length_a 10.647857
_cell_length_b 9.228656
_cell_length_c 12.258754
_cell_angle_alpha 90.000000
_cell_angle_beta 65.707479
_cell_angle_gamma 90.000000
_cell_volume 1097.951548
_symmetry_space_group_name_H-M "C 2"
_symmetry_group_IT_number 5
_symmetry_cell_setting 'monoclinic'
loop_
_space_group_symop_operation_xyz
x,y,z
-x,y,-z
1/2+x,1/2+y,z
1/2-x,1/2+y,-z
loop_
_atom_site_type_symbol
_atom_site_label
_atom_site_fract_x
_atom_site_fract_y
_atom_site_fract_z
Si Si1 0.200277 0.538560 0.626672
Si Si2 0.807523 0.565850 0.845753
Si Si3 0.047579 0.803914 0.749723
Si Si4 0.000000 0.793398 0.000000
Si Si5 0.696376 0.752926 0.054726
Si Si6 0.000000 0.107888 0.500000
Si Si7 0.052301 0.261113 0.707145
Si Si8 0.246543 0.025090 0.634620
O O1 0.174728 0.693931 0.688618
O O2 0.363696 0.516016 0.578266
O O3 0.170428 0.533621 0.506561
O O4 0.092848 0.426424 0.714570
O O5 0.812529 0.429509 0.930551
O O6 0.802666 0.477803 0.731884
O O7 0.923430 0.690262 0.780981
O O8 0.689422 0.669929 0.941540
O O9 0.020109 0.871628 0.878535
O O10 0.105038 0.936452 0.659627
O O11 0.147102 0.713405 0.961262
O O12 0.574464 0.705282 0.177267
O O13 0.967209 0.216028 0.411392
O O14 0.195505 0.183579 0.683749
#
# Coordination Sequence:
#
# PCOD9126954 Si02
#       8
#     4   4   4   2   4   2   4   4
#     4  11  24  45  72 108 142 191 240 287 362 423
#     4  11  26  45  71 107 137 191 239 301 357 432
#     4  11  23  44  72 101 140 189 240 284 367 420
#     4  10  22  42  72  94 134 188 232 288 352 420
#     4  11  24  45  70 103 140 185 242 291 367 422
#     4  10  24  44  72 102 148 190 230 302 354 422
#     4  11  25  43  71 105 143 188 239 295 354 426
#     4  11  25  44  70 103 147 187 231 303 356 425
#
# _framework density 25.502037999999999
#
# number of rings (size 3 to 8) (size 9 to 14) (size 15 to 20)
#    0.000    1.143    2.857    2.571    6.000    3.429 
#    5.143    0.000    0.000    0.000    0.000    0.000 
#    0.000    0.000    0.000    0.000    0.000    0.000 
#
# Total GULP energy -77937.839131 kJ/mol
# GULP energy per Si atom -5566.988509 kJ/mol
# Density = 2.544399 g / cm^3
# Si number density = 25.502038 Si / 1000 Ang^3
#
#
#
# Elastic Constant Matrix: (Units=GPa)
#
#
# Indices 1 2 3 4 5 6 
#
# 1 74.7152 5.8839 19.1917 0.0000 -13.7795 0.0000
# 2 5.8839 99.5474 12.9416 0.0000 6.1790 0.0000
# 3 19.1917 12.9416 109.7102 0.0000 -19.0836 0.0000
# 4 0.0000 0.0000 0.0000 44.6534 0.0000 -14.1601
# 5 -13.7795 6.1790 -19.0836 0.0000 36.1019 0.0000
# 6 0.0000 0.0000 0.0000 -14.1601 0.0000 21.2609
#
#
#
# Elastic Compliance Matrix: (Units=1/GPa)
#
#
# Indices 1 2 3 4 5 6 
#
# 1 0.014789 -0.000973 -0.001609 0.000000 0.004960 0.000000
# 2 -0.000973 0.010497 -0.001591 0.000000 -0.003009 0.000000
# 3 -0.001609 -0.001591 0.010489 0.000000 0.005203 0.000000
# 4 0.000000 0.000000 0.000000 0.028391 0.000000 0.018909
# 5 0.004960 -0.003009 0.005203 0.000000 0.032858 0.000000
# 6 0.000000 0.000000 0.000000 0.018909 0.000000 0.059628
#
#
# Mechanical properties :
#
#
# Convention : Reuss Voigt Hill
#
# Bulk Modulus (GPa) = 36.45982 40.00082 38.23032
# Shear Modulus (GPa) = 28.71225 36.80028 32.75626
#
# Velocity S-wave (km/s) = 3.35905 3.80285 3.58782
# Velocity P-wave (km/s) = 5.41961 5.91621 5.67335
#
# Compressibility (1/GPa) = 0.02742745
#
# Stress axis : x y z
#
# Youngs Moduli (GPa) = 67.61766 95.26856 95.33632
#
# Poissons Ratio (x) = 0.09268 0.15344
# Poissons Ratio (y) = 0.06578 0.15172
# Poissons Ratio (z) = 0.10883 0.15162
#
# Static dielectric constant tensor:
#      x y z
#    x 2.457750 0.000000 0.162750 
#    y 0.000000 1.975780 0.000000 
#    z 0.162750 0.000000 2.015550 
# 
# From -- ./inp_files/52403.got.cif
#   From: 2010.05.17/outbox.cif.g08.bks.cpg/sg5_27_cif.got.tgz:52403.got - 2010.06.03 18:56:24.
