data_PCOD9126698
_publ_section_title
;
Structure prediction by ZEFSAII (Michael W. Deem and Ramdas Pophale) SiO2 
 PCOD9126698
Probable space group: C 2
;
_chemical_formula_sum "Si O2"
_cell_formula_units_Z 32
_cell_length_a 11.348995
_cell_length_b 17.363030
_cell_length_c 9.140764
_cell_angle_alpha 90.000000
_cell_angle_beta 124.731791
_cell_angle_gamma 90.000000
_cell_volume 1480.288531
_symmetry_space_group_name_H-M "C 2"
_symmetry_group_IT_number 5
_symmetry_cell_setting 'monoclinic'
loop_
_space_group_symop_operation_xyz
x,y,z
-x,y,-z
1/2+x,1/2+y,z
1/2-x,1/2+y,-z
loop_
_atom_site_type_symbol
_atom_site_label
_atom_site_fract_x
_atom_site_fract_y
_atom_site_fract_z
Si Si1 0.124977 0.052070 0.971286
Si Si2 0.152104 0.241499 0.537083
Si Si3 0.588213 0.981237 0.200211
Si Si4 0.932979 0.602095 0.293065
Si Si5 0.134393 0.078654 0.661397
Si Si6 0.575759 0.383737 0.787557
Si Si7 0.031444 0.738314 0.168447
Si Si8 0.726619 0.352592 0.590991
O O1 0.107606 0.101940 0.809971
O O2 0.116377 0.964078 0.896167
O O3 0.265127 0.083835 0.154137
O O4 0.000000 0.057215 0.000000
O O5 0.148226 0.149736 0.560013
O O6 0.301863 0.261396 0.722751
O O7 0.197737 0.273781 0.410016
O O8 0.000000 0.268971 0.500000
O O9 0.497574 0.039630 0.229545
O O10 0.723658 0.029391 0.239466
O O11 0.650631 0.915235 0.346185
O O12 0.500000 0.950704 0.000000
O O13 0.000000 0.591496 0.500000
O O14 0.986970 0.685419 0.273432
O O15 0.000000 0.031882 0.500000
O O16 0.567226 0.313619 0.895212
O O17 0.680986 0.360505 0.728331
O O18 0.415456 0.376495 0.601496
O O19 0.000000 0.690713 0.000000
#
# Coordination Sequence:
#
# PCOD9126698 Si02
#       8
#     4   4   4   4   4   4   4   4
#     4  12  26  46  70 110 144 184 247 295 362 430
#     4  10  23  42  69 100 142 180 236 288 355 426
#     4  12  22  44  71 100 139 183 234 296 357 428
#     4  12  28  42  70 104 142 187 238 301 352 429
#     4  11  22  41  75  99 140 187 231 292 363 425
#     4  10  22  43  74 101 142 185 240 295 356 432
#     4  11  23  45  73  99 138 190 237 292 363 423
#     4  10  22  41  71 105 134 190 233 292 358 430
#
# _framework density 21.617407
#
# number of rings (size 3 to 8) (size 9 to 14) (size 15 to 20)
#    0.000    1.000    3.750    2.250    7.000    0.500 
#    6.750    0.000    0.000    0.000    0.000    0.000 
#    0.000    0.000    0.000    0.000    0.000    0.000 
#
# Total GULP energy -89171.802031 kJ/mol
# GULP energy per Si atom -5573.237627 kJ/mol
# Density = 2.156820 g / cm^3
# Si number density = 21.617407 Si / 1000 Ang^3
#
#
#
# Elastic Constant Matrix: (Units=GPa)
#
#
# Indices 1 2 3 4 5 6 
#
# 1 138.5677 33.2016 52.8559 0.0000 17.3621 0.0000
# 2 33.2016 81.9207 11.4070 0.0000 0.9825 0.0000
# 3 52.8559 11.4070 113.5848 0.0000 4.7365 0.0000
# 4 0.0000 0.0000 0.0000 21.8079 0.0000 5.1868
# 5 17.3621 0.9825 4.7365 0.0000 30.9347 0.0000
# 6 0.0000 0.0000 0.0000 5.1868 0.0000 14.1702
#
#
#
# Elastic Compliance Matrix: (Units=1/GPa)
#
#
# Indices 1 2 3 4 5 6 
#
# 1 0.010306 -0.003527 -0.004232 0.000000 -0.005024 0.000000
# 2 -0.003527 0.013589 0.000214 0.000000 0.001515 0.000000
# 3 -0.004232 0.000214 0.010722 0.000000 0.000727 0.000000
# 4 0.000000 0.000000 0.000000 0.050228 0.000000 -0.018385
# 5 -0.005024 0.001515 0.000727 0.000000 0.034986 0.000000
# 6 0.000000 0.000000 0.000000 -0.018385 0.000000 0.077300
#
#
# Mechanical properties :
#
#
# Convention : Reuss Voigt Hill
#
# Bulk Modulus (GPa) = 51.21778 58.77802 54.99790
# Shear Modulus (GPa) = 22.85928 29.15647 26.00788
#
# Velocity S-wave (km/s) = 3.25537 3.67652 3.47233
# Velocity P-wave (km/s) = 6.15420 6.72841 6.44770
#
# Compressibility (1/GPa) = 0.01952447
#
# Stress axis : x y z
#
# Youngs Moduli (GPa) = 97.03502 73.59131 93.27033
#
# Poissons Ratio (x) = 0.25957 0.39471
# Poissons Ratio (y) = 0.34226 -0.01991
# Poissons Ratio (z) = 0.41064 -0.01571
#
# Static dielectric constant tensor:
#      x y z
#    x 1.849680 0.000000 0.030320 
#    y 0.000000 1.849530 0.000000 
#    z 0.030320 0.000000 1.810290 
# 
# From -- ./inp_files/21993.got.cif
#   From: 2010.05.17/outbox.cif.g08.bks.cpg/sg5_11_cif.got.tgz:21993.got - 2010.06.03 18:56:24.
