data_PCOD9126177
_publ_section_title
;
Structure prediction by ZEFSAII (Michael W. Deem and Ramdas Pophale) SiO2 
 PCOD9126177
Probable space group: C 2
;
_chemical_formula_sum "Si O2"
_cell_formula_units_Z 32
_cell_length_a 13.646231
_cell_length_b 17.964509
_cell_length_c 5.335795
_cell_angle_alpha 90.000000
_cell_angle_beta 90.927189
_cell_angle_gamma 90.000000
_cell_volume 1307.887348
_symmetry_space_group_name_H-M "C 2"
_symmetry_group_IT_number 5
_symmetry_cell_setting 'monoclinic'
loop_
_space_group_symop_operation_xyz
x,y,z
-x,y,-z
1/2+x,1/2+y,z
1/2-x,1/2+y,-z
loop_
_atom_site_type_symbol
_atom_site_label
_atom_site_fract_x
_atom_site_fract_y
_atom_site_fract_z
Si Si1 0.941468 0.705960 0.254546
Si Si2 0.261410 0.030509 0.850286
Si Si3 0.061205 0.299806 0.240967
Si Si4 0.604983 0.631777 0.111280
Si Si5 0.695505 0.399592 0.100558
Si Si6 0.976444 0.541036 0.745386
Si Si7 0.607355 0.508223 0.434919
Si Si8 0.782403 0.814397 0.376603
O O1 0.830661 0.733239 0.315096
O O2 0.000000 0.735376 0.500000
O O3 0.956070 0.615823 0.256694
O O4 0.000000 0.728465 0.000000
O O5 0.362694 0.061576 0.751142
O O6 0.196332 0.995308 0.625550
O O7 0.196303 0.096685 0.966406
O O8 0.281377 0.960007 0.036930
O O9 0.095110 0.218924 0.136221
O O10 0.168292 0.330590 0.314058
O O11 0.000000 0.294462 0.500000
O O12 0.000000 0.330853 0.000000
O O13 0.612197 0.595941 0.384988
O O14 0.500000 0.604841 0.000000
O O15 0.620246 0.462306 0.182479
O O16 0.704214 0.343444 0.337276
O O17 0.664610 0.357927 0.848776
O O18 0.000000 0.495573 0.500000
O O19 0.000000 0.500672 0.000000
O O20 0.500000 0.486846 0.500000
#
# Coordination Sequence:
#
# PCOD9126177 Si02
#       8
#     4   4   4   4   4   4   4   4
#     4  10  23  43  66 104 138 185 237 282 368 427
#     4  11  24  45  75 100 150 184 231 305 350 431
#     4  11  26  46  72 109 138 184 237 294 363 426
#     4  10  22  38  68 111 140 177 227 281 370 429
#     4  11  26  45  70 103 138 192 247 278 364 414
#     4  10  25  44  69 104 142 181 237 289 362 427
#     4  11  22  42  72 105 144 184 231 294 360 429
#     4  12  25  48  73  98 149 188 238 302 350 434
#
# _framework density 24.466940999999998
#
# number of rings (size 3 to 8) (size 9 to 14) (size 15 to 20)
#    0.000    1.250    2.500    1.875    8.750    2.500 
#    2.250    2.500    0.000    0.000    0.000    0.000 
#    0.000    0.000    0.000    0.000    0.000    0.000 
#
# Total GULP energy -89143.041741 kJ/mol
# GULP energy per Si atom -5571.440109 kJ/mol
# Density = 2.441125 g / cm^3
# Si number density = 24.466941 Si / 1000 Ang^3
#
#
#
# Elastic Constant Matrix: (Units=GPa)
#
#
# Indices 1 2 3 4 5 6 
#
# 1 103.0306 3.4825 29.3734 0.0000 -12.3766 0.0000
# 2 3.4825 73.4067 11.0772 0.0000 -6.9802 0.0000
# 3 29.3734 11.0772 154.2445 0.0000 -1.9824 0.0000
# 4 0.0000 0.0000 0.0000 -20.2720 0.0000 -37.0220
# 5 -12.3766 -6.9802 -1.9824 0.0000 37.7663 0.0000
# 6 0.0000 0.0000 0.0000 -37.0220 0.0000 -15.4054
#
#
#
# Elastic Compliance Matrix: (Units=1/GPa)
#
#
# Indices 1 2 3 4 5 6 
#
# 1 0.010682 0.000120 -0.001999 0.000000 0.003418 0.000000
# 2 0.000120 0.014012 -0.000996 0.000000 0.002577 0.000000
# 3 -0.001999 -0.000996 0.006929 0.000000 -0.000475 0.000000
# 4 0.000000 0.000000 0.000000 0.014556 0.000000 -0.034982
# 5 0.003418 0.002577 -0.000475 0.000000 0.028050 0.000000
# 6 0.000000 0.000000 0.000000 -0.034982 0.000000 0.019155
#
#
# Mechanical properties :
#
#
# Convention : Reuss Voigt Hill
#
# Bulk Modulus (GPa) = 38.64916 46.50531 42.57723
# Shear Modulus (GPa) = 46.39943 19.53435 32.96689
#
# Velocity S-wave (km/s) = 4.35951 2.82866 3.67468
# Velocity P-wave (km/s) = 6.41648 5.45134 5.95350
#
# Compressibility (1/GPa) = 0.02587379
#
# Stress axis : x y z
#
# Youngs Moduli (GPa) = 93.61297 71.36543 144.31470
#
# Poissons Ratio (x) = -0.00855 0.28848
# Poissons Ratio (y) = -0.01122 0.14374
# Poissons Ratio (z) = 0.18713 0.07108
#
# Static dielectric constant tensor:
#      x y z
#    x 2.143080 0.000000 -0.108140 
#    y 0.000000 2.032800 0.000000 
#    z -0.108140 0.000000 2.149240 
# 
# From -- ./inp_files/7306.got.cif
#   From: 2010.05.17/outbox.cif.g08.bks.cpg/sg5_4_cif.got.tgz:7306.got - 2010.06.03 18:56:24.
