data_PCOD9126299
_publ_section_title
;
Structure prediction by ZEFSAII (Michael W. Deem and Ramdas Pophale) SiO2 
 PCOD9126299
Probable space group: C 2
;
_chemical_formula_sum "Si O2"
_cell_formula_units_Z 32
_cell_length_a 18.240985
_cell_length_b 13.551601
_cell_length_c 11.938329
_cell_angle_alpha 90.000000
_cell_angle_beta 32.052206
_cell_angle_gamma 90.000000
_cell_volume 1566.119070
_symmetry_space_group_name_H-M "C 2"
_symmetry_group_IT_number 5
_symmetry_cell_setting 'monoclinic'
loop_
_space_group_symop_operation_xyz
x,y,z
-x,y,-z
1/2+x,1/2+y,z
1/2-x,1/2+y,-z
loop_
_atom_site_type_symbol
_atom_site_label
_atom_site_fract_x
_atom_site_fract_y
_atom_site_fract_z
Si Si1 0.056934 0.275910 0.050639
Si Si2 0.348270 0.227741 0.711406
Si Si3 0.106725 0.663358 0.098252
Si Si4 0.961314 0.851999 0.180317
Si Si5 0.073202 0.071701 0.715534
Si Si6 0.659252 0.844838 0.495970
Si Si7 0.160639 0.566302 0.471492
Si Si8 0.859627 0.145260 0.612521
O O1 0.029962 0.160728 0.119767
O O2 0.969851 0.335779 0.254109
O O3 0.219026 0.295839 0.850027
O O4 0.000000 0.291392 0.000000
O O5 0.500000 0.274690 0.500000
O O6 0.334658 0.185752 0.854145
O O7 0.344427 0.138524 0.627316
O O8 0.043856 0.766859 0.135830
O O9 0.976684 0.590582 0.279712
O O10 0.225730 0.625720 0.861642
O O11 0.796663 0.832212 0.394103
O O12 0.987311 0.962720 0.189367
O O13 0.000000 0.848652 0.000000
O O14 0.203009 0.084135 0.631208
O O15 0.127590 0.084622 0.519017
O O16 0.652562 0.758393 0.414298
O O17 0.664179 0.951930 0.434599
O O18 0.000000 0.132677 0.500000
#
# Coordination Sequence:
#
# PCOD9126299 Si02
#       8
#     4   4   4   4   4   4   4   4
#     4  11  20  39  67  94 127 169 213 262 319 373
#     4  10  23  40  63  94 128 169 209 261 318 379
#     4  11  22  40  65  92 128 168 205 261 331 375
#     4  11  22  40  67  97 122 167 218 263 313 380
#     4  10  22  39  67  95 125 163 218 264 310 381
#     4  10  23  40  64  97 124 163 216 264 308 381
#     4  10  22  42  64  96 126 164 216 264 313 377
#     4  11  23  42  61  90 130 166 208 263 322 378
#
# _framework density 20.432673999999999
#
# number of rings (size 3 to 8) (size 9 to 14) (size 15 to 20)
#    0.000    1.500    2.500    3.375    3.500    1.500 
#    4.500    6.875    0.000    0.000    0.000    0.000 
#    0.000    0.000    0.000    0.000    0.000    0.000 
#
# Total GULP energy -89452.861630 kJ/mol
# GULP energy per Si atom -5590.803852 kJ/mol
# Density = 2.038617 g / cm^3
# Si number density = 20.432674 Si / 1000 Ang^3
#
#
#
# Elastic Constant Matrix: (Units=GPa)
#
#
# Indices 1 2 3 4 5 6 
#
# 1 78.5656 19.6795 33.8026 0.0000 2.1379 0.0000
# 2 19.6795 44.7939 0.3940 0.0000 -2.0695 0.0000
# 3 33.8026 0.3940 108.6695 0.0000 -3.0827 0.0000
# 4 0.0000 0.0000 0.0000 7.5732 0.0000 3.8539
# 5 2.1379 -2.0695 -3.0827 0.0000 39.4102 0.0000
# 6 0.0000 0.0000 0.0000 3.8539 0.0000 -0.3123
#
#
#
# Elastic Compliance Matrix: (Units=1/GPa)
#
#
# Indices 1 2 3 4 5 6 
#
# 1 0.016919 -0.007466 -0.005285 0.000000 -0.001723 0.000000
# 2 -0.007466 0.025674 0.002284 0.000000 0.001932 0.000000
# 3 -0.005285 0.002284 0.010873 0.000000 0.001257 0.000000
# 4 0.000000 0.000000 0.000000 0.018138 0.000000 0.223833
# 5 -0.001723 0.001932 0.001257 0.000000 0.025667 0.000000
# 6 0.000000 0.000000 0.000000 0.223833 0.000000 -0.439848
#
#
# Mechanical properties :
#
#
# Convention : Reuss Voigt Hill
#
# Bulk Modulus (GPa) = 30.73817 37.75345 34.24581
# Shear Modulus (GPa) = -16.08762 21.21107 2.56173
#
# Velocity S-wave (km/s) = -2.80902 3.22544 1.12092
# Velocity P-wave (km/s) = 2.13437 5.69108 4.29790
#
# Compressibility (1/GPa) = 0.03253285
#
# Stress axis : x y z
#
# Youngs Moduli (GPa) = 59.10523 38.95024 91.96734
#
# Poissons Ratio (x) = 0.29081 0.48601
# Poissons Ratio (y) = 0.44129 -0.21007
# Poissons Ratio (z) = 0.31235 -0.08897
#
# Static dielectric constant tensor:
#      x y z
#    x 1.706270 0.000000 -0.022290 
#    y 0.000000 1.696950 0.000000 
#    z -0.022290 0.000000 1.759120 
# 
# From -- ./inp_files/44975.got.cif
#   From: 2010.05.17/outbox.cif.g08.bks.cpg/sg5_23_cif.got.tgz:44975.got - 2010.06.03 18:56:24.
