data_PCOD9126015
_publ_section_title
;
Structure prediction by ZEFSAII (Michael W. Deem and Ramdas Pophale) SiO2 
 PCOD9126015
Probable space group: C 2
;
_chemical_formula_sum "Si O2"
_cell_formula_units_Z 16
_cell_length_a 12.728885
_cell_length_b 9.032341
_cell_length_c 13.126961
_cell_angle_alpha 90.000000
_cell_angle_beta 156.436039
_cell_angle_gamma 90.000000
_cell_volume 603.347985
_symmetry_space_group_name_H-M "C 2"
_symmetry_group_IT_number 5
_symmetry_cell_setting 'monoclinic'
loop_
_space_group_symop_operation_xyz
x,y,z
-x,y,-z
1/2+x,1/2+y,z
1/2-x,1/2+y,-z
loop_
_atom_site_type_symbol
_atom_site_label
_atom_site_fract_x
_atom_site_fract_y
_atom_site_fract_z
Si Si1 0.595832 0.991010 0.689709
Si Si2 0.592559 0.222957 0.968893
Si Si3 0.334821 0.649852 0.581486
Si Si4 0.230594 0.301020 0.262980
O O1 0.500000 0.915206 0.500000
O O2 0.807467 0.894145 0.935787
O O3 0.336765 0.015176 0.525889
O O4 0.708941 0.150665 0.751656
O O5 0.861841 0.135598 0.179888
O O6 0.500000 0.191306 0.000000
O O7 0.358575 0.200085 0.681170
O O8 0.338157 0.756993 0.683903
O O9 0.500000 0.388865 0.500000
O O10 0.000000 0.378126 0.000000
#
# Coordination Sequence:
#
# PCOD9126015 Si02
#       4
#     4   4   4   4
#     4   9  20  39  64  91 121 158 210 261 303 359
#     4  12  23  37  61  95 127 163 208 254 304 368
#     4  10  22  37  59  93 130 160 199 259 317 358
#     4   9  17  33  58  85 115 151 197 252 301 349
#
# _framework density 26.518692999999999
#
# number of rings (size 3 to 8) (size 9 to 14) (size 15 to 20)
#    0.000    2.500    0.000    6.000    0.000    8.000 
#    0.000    0.000    0.000   25.500    0.000    1.750 
#    0.000    0.000    0.000    0.000    0.000    0.000 
#
# Total GULP energy -44792.407550 kJ/mol
# GULP energy per Si atom -5599.050944 kJ/mol
# Density = 2.645833 g / cm^3
# Si number density = 26.518693 Si / 1000 Ang^3
#
#
#
# Elastic Constant Matrix: (Units=GPa)
#
#
# Indices 1 2 3 4 5 6 
#
# 1 215.3993 37.8192 91.8925 -0.0025 16.9565 0.0009
# 2 37.8192 77.9060 24.4390 -0.0072 -0.8419 0.0026
# 3 91.8925 24.4390 240.1648 -0.0066 -8.5497 0.0027
# 4 -0.0025 -0.0072 -0.0066 29.0221 0.0018 10.3162
# 5 16.9565 -0.8419 -8.5497 0.0018 58.2670 0.0018
# 6 0.0009 0.0026 0.0027 10.3162 0.0018 19.2598
#
#
#
# Elastic Compliance Matrix: (Units=1/GPa)
#
#
# Indices 1 2 3 4 5 6 
#
# 1 0.006156 -0.002323 -0.002196 -0.000001 -0.002147 0.000001
# 2 -0.002323 0.014136 -0.000521 0.000005 0.000804 -0.000004
# 3 -0.002196 -0.000521 0.005106 0.000001 0.001381 -0.000001
# 4 -0.000001 0.000005 0.000001 0.042560 0.000000 -0.022797
# 5 -0.002147 0.000804 0.001381 0.000000 0.018001 -0.000002
# 6 0.000001 -0.000004 -0.000001 -0.022797 -0.000002 0.064132
#
#
# Mechanical properties :
#
#
# Convention : Reuss Voigt Hill
#
# Bulk Modulus (GPa) = 65.27863 93.53017 79.40440
# Shear Modulus (GPa) = 30.25233 46.59774 38.42504
#
# Velocity S-wave (km/s) = 3.38123 4.19640 3.81068
# Velocity P-wave (km/s) = 6.31768 7.66980 7.02634
#
# Compressibility (1/GPa) = 0.01531895
#
# Stress axis : x y z
#
# Youngs Moduli (GPa) = 162.44155 70.74251 195.84699
#
# Poissons Ratio (x) = 0.16433 0.42998
# Poissons Ratio (y) = 0.37734 0.10204
# Poissons Ratio (z) = 0.35664 0.03686
#
# Static dielectric constant tensor:
#      x y z
#    x 2.036000 0.000000 0.045650 
#    y 0.000000 2.197730 0.000000 
#    z 0.045650 0.000000 2.125480 
# 
# From -- ./inp_files/4302.got.cif
#   From: 2010.05.17/outbox.cif.g08.bks.cpg/sg5_3_cif.got.tgz:4302.got - 2010.06.03 18:56:24.
