data_PCOD9126012
_publ_section_title
;
Structure prediction by ZEFSAII (Michael W. Deem and Ramdas Pophale) SiO2 
 PCOD9126012
Probable space group: C 2
;
_chemical_formula_sum "Si O2"
_cell_formula_units_Z 32
_cell_length_a 5.161160
_cell_length_b 24.657149
_cell_length_c 13.151947
_cell_angle_alpha 90.000000
_cell_angle_beta 73.500094
_cell_angle_gamma 90.000000
_cell_volume 1604.787038
_symmetry_space_group_name_H-M "C 2"
_symmetry_group_IT_number 5
_symmetry_cell_setting 'monoclinic'
loop_
_space_group_symop_operation_xyz
x,y,z
-x,y,-z
1/2+x,1/2+y,z
1/2-x,1/2+y,-z
loop_
_atom_site_type_symbol
_atom_site_label
_atom_site_fract_x
_atom_site_fract_y
_atom_site_fract_z
Si Si1 0.199154 0.160470 0.070579
Si Si2 0.036742 0.247709 0.376243
Si Si3 0.278058 0.852981 0.757826
Si Si4 0.210003 0.330207 0.883943
Si Si5 0.106038 0.025710 0.373061
Si Si6 0.601747 0.961626 0.371757
Si Si7 0.266223 0.722590 0.216417
Si Si8 0.684223 0.137458 0.729195
O O1 0.226515 0.122240 0.165698
O O2 0.069490 0.212172 0.141389
O O3 0.500000 0.170527 0.000000
O O4 0.000000 0.145874 0.000000
O O5 0.206047 0.297941 0.311865
O O6 0.162565 0.188387 0.339831
O O7 0.000000 0.254580 0.500000
O O8 0.774341 0.244272 0.330932
O O9 0.530448 0.847734 0.806730
O O10 0.997584 0.860209 0.850859
O O11 0.307706 0.903879 0.680136
O O12 0.315281 0.268500 0.853586
O O13 0.000000 0.333695 0.000000
O O14 0.344930 0.982264 0.337284
O O15 0.243907 0.083751 0.339025
O O16 0.000000 0.026150 0.500000
O O17 0.845259 0.005489 0.339555
O O18 0.500000 0.957323 0.500000
O O19 0.111999 0.665210 0.230060
#
# Coordination Sequence:
#
# PCOD9126012 Si02
#       8
#     4   4   4   4   4   4   4   4
#     4  11  22  36  59  85 118 166 210 258 305 365
#     4  10  22  37  57  94 134 170 198 253 323 392
#     4  11  22  42  64  95 125 163 211 263 315 378
#     4  11  23  38  63  94 128 164 211 259 317 380
#     4  10  23  41  65  94 123 166 214 258 308 373
#     4  10  22  42  68  94 121 165 215 259 310 372
#     4  10  22  37  58  91 129 171 210 247 319 378
#     4  11  22  39  61  92 130 165 209 259 320 383
#
# _framework density 19.940339999999999
#
# number of rings (size 3 to 8) (size 9 to 14) (size 15 to 20)
#    0.000    1.500    2.500    2.250    3.500    0.500 
#    2.250    1.250    0.000    7.500    0.000    0.000 
#    0.000    0.000    0.000    0.000    0.000    0.000 
#
# Total GULP energy -89084.066150 kJ/mol
# GULP energy per Si atom -5567.754134 kJ/mol
# Density = 1.989495 g / cm^3
# Si number density = 19.940340 Si / 1000 Ang^3
#
#
#
# Elastic Constant Matrix: (Units=GPa)
#
#
# Indices 1 2 3 4 5 6 
#
# 1 111.3092 20.3795 31.6190 0.0000 -12.2068 0.0000
# 2 20.3795 91.9022 19.3361 0.0000 -20.9398 0.0000
# 3 31.6190 19.3361 74.7464 0.0000 -3.3200 0.0000
# 4 0.0000 0.0000 0.0000 10.6920 0.0000 -4.0144
# 5 -12.2068 -20.9398 -3.3200 0.0000 25.6021 0.0000
# 6 0.0000 0.0000 0.0000 -4.0144 0.0000 20.5509
#
#
#
# Elastic Compliance Matrix: (Units=1/GPa)
#
#
# Indices 1 2 3 4 5 6 
#
# 1 0.010734 -0.000556 -0.004214 0.000000 0.004117 0.000000
# 2 -0.000556 0.014102 -0.002929 0.000000 0.010889 0.000000
# 3 -0.004214 -0.002929 0.015814 0.000000 -0.002354 0.000000
# 4 0.000000 0.000000 0.000000 0.100930 0.000000 0.019716
# 5 0.004117 0.010889 -0.002354 0.000000 0.049623 0.000000
# 6 0.000000 0.000000 0.000000 0.019716 0.000000 0.052511
#
#
# Mechanical properties :
#
#
# Convention : Reuss Voigt Hill
#
# Bulk Modulus (GPa) = 39.60038 46.73632 43.16835
# Shear Modulus (GPa) = 18.68949 25.14389 21.91669
#
# Velocity S-wave (km/s) = 3.06481 3.55485 3.31888
# Velocity P-wave (km/s) = 5.69444 6.35124 6.03178
#
# Compressibility (1/GPa) = 0.02525228
#
# Stress axis : x y z
#
# Youngs Moduli (GPa) = 93.15913 70.91348 63.23334
#
# Poissons Ratio (x) = 0.03940 0.26648
# Poissons Ratio (y) = 0.05176 0.18523
# Poissons Ratio (z) = 0.39259 0.20772
#
# Static dielectric constant tensor:
#      x y z
#    x 1.826620 0.000000 0.011910 
#    y 0.000000 1.708220 0.000000 
#    z 0.011910 0.000000 1.747830 
# 
# From -- ./inp_files/34287.got.cif
#   From: 2010.05.17/outbox.cif.g08.bks.cpg/sg5_18_cif.got.tgz:34287.got - 2010.06.03 18:56:24.
