data_PCOD9126739
_publ_section_title
;
Structure prediction by ZEFSAII (Michael W. Deem and Ramdas Pophale) SiO2 
 PCOD9126739
Probable space group: C 2
;
_chemical_formula_sum "Si O2"
_cell_formula_units_Z 30
_cell_length_a 17.233321
_cell_length_b 5.416001
_cell_length_c 13.375830
_cell_angle_alpha 90.000000
_cell_angle_beta 96.818351
_cell_angle_gamma 90.000000
_cell_volume 1239.612674
_symmetry_space_group_name_H-M "C 2"
_symmetry_group_IT_number 5
_symmetry_cell_setting 'monoclinic'
loop_
_space_group_symop_operation_xyz
x,y,z
-x,y,-z
1/2+x,1/2+y,z
1/2-x,1/2+y,-z
loop_
_atom_site_type_symbol
_atom_site_label
_atom_site_fract_x
_atom_site_fract_y
_atom_site_fract_z
Si Si1 0.306910 0.655800 0.912660
Si Si2 0.805469 0.501715 0.285035
Si Si3 0.344477 0.568103 0.406476
Si Si4 0.500000 0.542365 0.500000
Si Si5 0.526516 0.731057 0.284282
Si Si6 0.192393 0.245106 0.388665
Si Si7 0.848813 0.667199 0.987607
Si Si8 0.555240 0.227176 0.793590
O O1 0.251508 0.563629 0.815027
O O2 0.242794 0.683004 0.992653
O O3 0.364722 0.427083 0.937135
O O4 0.351350 0.917991 0.922756
O O5 0.849149 0.242252 0.308426
O O6 0.745114 0.510872 0.367635
O O7 0.873451 0.703767 0.276408
O O8 0.418421 0.405893 0.461607
O O9 0.259894 0.444812 0.384894
O O10 0.339304 0.741047 0.504846
O O11 0.506322 0.698240 0.399243
O O12 0.620433 0.744397 0.301811
O O13 0.490395 0.485700 0.226108
O O14 0.497426 0.990017 0.237637
O O15 0.903459 0.673881 0.093674
#
# Coordination Sequence:
#
# PCOD9126739 Si02
#       8
#     4   4   4   2   4   4   4   4
#     4   9  19  33  60  93 126 161 209 272 335 387
#     4  11  23  38  65  95 130 173 226 272 330 401
#     4  11  22  42  60  94 130 182 223 284 323 399
#     4  10  22  42  62  96 134 168 238 270 334 378
#     4  11  25  41  64  95 130 180 215 275 323 397
#     4  11  25  40  63  90 138 177 224 266 334 392
#     4   9  18  36  59  93 126 159 206 277 335 384
#     4  11  23  42  68  96 130 169 225 274 331 391
#
# _framework density 24.201108999999999
#
# number of rings (size 3 to 8) (size 9 to 14) (size 15 to 20)
#    0.000    1.600    2.667    1.600    3.733    2.667 
#    0.000    0.000    0.000    4.800    0.000    0.000 
#    0.000    0.000    0.000    0.000    0.000    0.000 
#
# Total GULP energy -83508.055865 kJ/mol
# GULP energy per Si atom -5567.203724 kJ/mol
# Density = 2.414603 g / cm^3
# Si number density = 24.201109 Si / 1000 Ang^3
#
#
#
# Elastic Constant Matrix: (Units=GPa)
#
#
# Indices 1 2 3 4 5 6 
#
# 1 55.4594 27.1118 41.9051 0.0000 33.7694 0.0000
# 2 27.1118 127.1694 52.7695 0.0000 39.5045 0.0000
# 3 41.9051 52.7695 109.2825 0.0000 46.5179 0.0000
# 4 0.0000 0.0000 0.0000 38.1935 0.0000 11.9900
# 5 33.7694 39.5045 46.5179 0.0000 42.9653 0.0000
# 6 0.0000 0.0000 0.0000 11.9900 0.0000 19.7272
#
#
#
# Elastic Compliance Matrix: (Units=1/GPa)
#
#
# Indices 1 2 3 4 5 6 
#
# 1 0.035499 0.001929 -0.003547 0.000000 -0.025834 0.000000
# 2 0.001929 0.011322 -0.002096 0.000000 -0.009656 0.000000
# 3 -0.003547 -0.002096 0.017650 0.000000 -0.014394 0.000000
# 4 0.000000 0.000000 0.000000 0.032356 0.000000 -0.019666
# 5 -0.025834 -0.009656 -0.014394 0.000000 0.068043 0.000000
# 6 0.000000 0.000000 0.000000 -0.019666 0.000000 0.062644
#
#
# Mechanical properties :
#
#
# Convention : Reuss Voigt Hill
#
# Bulk Modulus (GPa) = 17.53081 59.49824 38.51452
# Shear Modulus (GPa) = 19.68845 31.51888 25.60367
#
# Velocity S-wave (km/s) = 2.85535 3.61276 3.25615
# Velocity P-wave (km/s) = 4.25796 6.48390 5.48503
#
# Compressibility (1/GPa) = 0.05704242
#
# Stress axis : x y z
#
# Youngs Moduli (GPa) = 28.16989 88.32485 56.65696
#
# Poissons Ratio (x) = -0.17038 0.20095
# Poissons Ratio (y) = -0.05434 0.11877
# Poissons Ratio (z) = 0.09991 0.18516
#
# Static dielectric constant tensor:
#      x y z
#    x 2.049100 0.000000 -0.088840 
#    y 0.000000 2.061730 0.000000 
#    z -0.088840 0.000000 1.973810 
# 
# From -- ./inp_files/55517.got.cif
#   From: 2010.05.17/outbox.cif.g08.bks.cpg/sg5_28_cif.got.tgz:55517.got - 2010.06.03 18:56:24.
