data_PCOD9126603
_publ_section_title
;
Structure prediction by ZEFSAII (Michael W. Deem and Ramdas Pophale) SiO2 
 PCOD9126603
Probable space group: C 2
;
_chemical_formula_sum "Si O2"
_cell_formula_units_Z 32
_cell_length_a 12.302987
_cell_length_b 12.645559
_cell_length_c 11.710161
_cell_angle_alpha 90.000000
_cell_angle_beta 58.975615
_cell_angle_gamma 90.000000
_cell_volume 1561.226610
_symmetry_space_group_name_H-M "C 2"
_symmetry_group_IT_number 5
_symmetry_cell_setting 'monoclinic'
loop_
_space_group_symop_operation_xyz
x,y,z
-x,y,-z
1/2+x,1/2+y,z
1/2-x,1/2+y,-z
loop_
_atom_site_type_symbol
_atom_site_label
_atom_site_fract_x
_atom_site_fract_y
_atom_site_fract_z
Si Si1 0.790226 0.241470 0.574295
Si Si2 0.915203 0.305462 0.939582
Si Si3 0.352530 0.161218 0.561872
Si Si4 0.941000 0.969308 0.825191
Si Si5 0.849915 0.746778 0.808311
Si Si6 0.716525 0.459633 0.724073
Si Si7 0.450713 0.675161 0.689578
Si Si8 0.325545 0.011898 0.903250
O O1 0.682261 0.201478 0.545295
O O2 0.751866 0.359190 0.629678
O O3 0.827044 0.187999 0.675826
O O4 0.923471 0.224471 0.435977
O O5 0.939584 0.237453 0.814256
O O6 0.921676 0.431268 0.911867
O O7 0.775091 0.280205 0.056991
O O8 0.000000 0.273570 0.000000
O O9 0.500000 0.133013 0.500000
O O10 0.326756 0.237505 0.684640
O O11 0.263818 0.061700 0.631435
O O12 0.937026 0.847730 0.785892
O O13 0.068082 0.973294 0.831817
O O14 0.965448 0.051499 0.709393
O O15 0.809198 0.008079 0.955163
O O16 0.876889 0.629105 0.844578
O O17 0.792977 0.457493 0.800269
#
# Coordination Sequence:
#
# PCOD9126603 Si02
#       8
#     4   4   4   4   4   4   4   4
#     4  11  24  42  65  97 138 178 231 284 338 411
#     4  11  22  40  69  98 134 176 225 283 342 405
#     4  11  24  42  63  96 134 183 228 281 344 412
#     4  11  22  42  68 101 132 177 229 288 340 410
#     4  10  23  41  67  96 134 174 230 287 336 408
#     4  11  23  41  67  96 131 184 225 276 349 401
#     4  11  23  42  69 101 136 178 231 280 349 410
#     4  10  22  41  64  99 134 174 224 283 342 408
#
# _framework density 20.496704000000001
#
# number of rings (size 3 to 8) (size 9 to 14) (size 15 to 20)
#    0.000    1.250    3.750    1.875    3.500    1.000 
#    2.250   10.000    0.000    0.000    0.000    0.000 
#    0.000    0.000    0.000    0.000    0.000    0.000 
#
# Total GULP energy -89223.720000 kJ/mol
# GULP energy per Si atom -5576.482500 kJ/mol
# Density = 2.045005 g / cm^3
# Si number density = 20.496704 Si / 1000 Ang^3
#
#
#
# Elastic Constant Matrix: (Units=GPa)
#
#
# Indices 1 2 3 4 5 6 
#
# 1 76.9508 36.1618 26.2666 0.0000 15.8534 0.0000
# 2 36.1618 97.9292 31.3333 0.0000 2.3853 0.0000
# 3 26.2666 31.3333 82.0067 0.0000 9.7888 0.0000
# 4 0.0000 0.0000 0.0000 23.8429 0.0000 -5.1866
# 5 15.8534 2.3853 9.7888 0.0000 32.6208 0.0000
# 6 0.0000 0.0000 0.0000 -5.1866 0.0000 16.7354
#
#
#
# Elastic Compliance Matrix: (Units=1/GPa)
#
#
# Indices 1 2 3 4 5 6 
#
# 1 0.018145 -0.005634 -0.002754 0.000000 -0.007580 0.000000
# 2 -0.005634 0.013391 -0.003653 0.000000 0.002855 0.000000
# 3 -0.002754 -0.003653 0.014811 0.000000 -0.002839 0.000000
# 4 0.000000 0.000000 0.000000 0.044973 0.000000 0.013938
# 5 -0.007580 0.002855 -0.002839 0.000000 0.034982 0.000000
# 6 0.000000 0.000000 0.000000 0.013938 0.000000 0.064073
#
#
# Mechanical properties :
#
#
# Convention : Reuss Voigt Hill
#
# Bulk Modulus (GPa) = 44.91498 49.37888 47.14693
# Shear Modulus (GPa) = 22.53481 25.51482 24.02482
#
# Velocity S-wave (km/s) = 3.31937 3.53204 3.42735
# Velocity P-wave (km/s) = 6.05407 6.38570 6.22210
#
# Compressibility (1/GPa) = 0.02226429
#
# Stress axis : x y z
#
# Youngs Moduli (GPa) = 55.11220 74.67590 67.51852
#
# Poissons Ratio (x) = 0.42075 0.18596
# Poissons Ratio (y) = 0.31052 0.24662
# Poissons Ratio (z) = 0.15179 0.27277
#
# Static dielectric constant tensor:
#      x y z
#    x 1.770270 0.000000 0.004940 
#    y 0.000000 1.748900 0.000000 
#    z 0.004940 0.000000 1.739180 
# 
# From -- ./inp_files/39414.got.cif
#   From: 2010.05.17/outbox.cif.g08.bks.cpg/sg5_20_cif.got.tgz:39414.got - 2010.06.03 18:56:24.
