data_PCOD9126930
_publ_section_title
;
Structure prediction by ZEFSAII (Michael W. Deem and Ramdas Pophale) SiO2 
 PCOD9126930
Probable space group: C 2
;
_chemical_formula_sum "Si O2"
_cell_formula_units_Z 24
_cell_length_a 9.484671
_cell_length_b 12.248175
_cell_length_c 9.025656
_cell_angle_alpha 90.000000
_cell_angle_beta 101.596540
_cell_angle_gamma 90.000000
_cell_volume 1027.106829
_symmetry_space_group_name_H-M "C 2"
_symmetry_group_IT_number 5
_symmetry_cell_setting 'monoclinic'
loop_
_space_group_symop_operation_xyz
x,y,z
-x,y,-z
1/2+x,1/2+y,z
1/2-x,1/2+y,-z
loop_
_atom_site_type_symbol
_atom_site_label
_atom_site_fract_x
_atom_site_fract_y
_atom_site_fract_z
Si Si1 0.177632 0.625000 0.434785
Si Si2 0.970557 0.809658 0.301782
Si Si3 0.500000 0.406620 0.000000
Si Si4 0.924464 0.213191 0.278466
Si Si5 0.159141 0.385093 0.301972
Si Si6 0.134020 0.017650 0.286195
Si Si7 0.000000 0.315091 0.000000
O O1 0.038095 0.696841 0.367107
O O2 0.296434 0.693271 0.364914
O O3 0.157670 0.506370 0.359020
O O4 0.183865 0.831758 0.659413
O O5 0.088925 0.905329 0.357408
O O6 0.947332 0.829436 0.121537
O O7 0.379124 0.481600 0.890073
O O8 0.038703 0.306632 0.348779
O O9 0.001217 0.097171 0.286536
O O10 0.906704 0.246340 0.100840
O O11 0.237005 0.584766 0.609767
O O12 0.108148 0.384527 0.120779
#
# Coordination Sequence:
#
# PCOD9126930 Si02
#       7
#     4   4   2   4   4   4   2
#     4  12  24  45  74 106 147 198 250 314 379 444
#     4  10  24  42  77 106 142 199 254 304 378 456
#     4   8  21  41  70 112 140 197 255 304 376 452
#     4  10  22  42  70  99 145 193 240 308 373 438
#     4  10  24  46  68 107 150 191 252 310 380 447
#     4  10  22  44  71 101 149 196 243 311 377 443
#     4   8  23  41  68 106 142 193 247 306 374 448
#
# _framework density 23.366606000000001
#
# number of rings (size 3 to 8) (size 9 to 14) (size 15 to 20)
#    2.000    0.000    1.667    1.000    4.667    0.667 
#    3.000    0.000    0.000    0.000    0.000    0.000 
#    0.000    0.000    0.000    0.000    0.000    0.000 
#
# Total GULP energy -66807.862904 kJ/mol
# GULP energy per Si atom -5567.321909 kJ/mol
# Density = 2.331342 g / cm^3
# Si number density = 23.366606 Si / 1000 Ang^3
#
#
#
# Elastic Constant Matrix: (Units=GPa)
#
#
# Indices 1 2 3 4 5 6 
#
# 1 84.8580 65.2000 57.2588 0.0000 -0.3378 0.0000
# 2 65.2000 148.0016 50.7254 0.0000 12.8930 0.0000
# 3 57.2588 50.7254 191.3545 0.0000 15.0524 0.0000
# 4 0.0000 0.0000 0.0000 16.5215 0.0000 12.5653
# 5 -0.3378 12.8930 15.0524 0.0000 29.6092 0.0000
# 6 0.0000 0.0000 0.0000 12.5653 0.0000 -3.9949
#
#
#
# Elastic Compliance Matrix: (Units=1/GPa)
#
#
# Indices 1 2 3 4 5 6 
#
# 1 0.021394 -0.008368 -0.004676 0.000000 0.006265 0.000000
# 2 -0.008368 0.010862 0.000004 0.000000 -0.004827 0.000000
# 3 -0.004676 0.000004 0.006905 0.000000 -0.003565 0.000000
# 4 0.000000 0.000000 0.000000 0.017843 0.000000 0.056123
# 5 0.006265 -0.004827 -0.003565 0.000000 0.037759 0.000000
# 6 0.000000 0.000000 0.000000 0.056123 0.000000 -0.073793
#
#
# Mechanical properties :
#
#
# Convention : Reuss Voigt Hill
#
# Bulk Modulus (GPa) = 76.44803 85.62028 81.03416
# Shear Modulus (GPa) = 97.25622 25.16248 61.20935
#
# Velocity S-wave (km/s) = 6.45850 3.28511 5.12368
# Velocity P-wave (km/s) = 9.40235 7.14919 8.35210
#
# Compressibility (1/GPa) = 0.01308078
#
# Stress axis : x y z
#
# Youngs Moduli (GPa) = 46.74163 92.06291 144.83249
#
# Poissons Ratio (x) = 0.77038 0.67729
# Poissons Ratio (y) = 0.39113 -0.00062
# Poissons Ratio (z) = 0.21858 -0.00039
#
# Static dielectric constant tensor:
#      x y z
#    x 1.996880 0.000000 -0.088880 
#    y 0.000000 1.848070 0.000000 
#    z -0.088880 0.000000 2.078100 
# 
# From -- ./inp_files/26911.got.cif
#   From: 2010.05.17/outbox.cif.g08.bks.cpg/sg5_14_cif.got.tgz:26911.got - 2010.06.03 18:56:24.
