data_PCOD9126512
_publ_section_title
;
Structure prediction by ZEFSAII (Michael W. Deem and Ramdas Pophale) SiO2 
 PCOD9126512
Probable space group: C 2
;
_chemical_formula_sum "Si O2"
_cell_formula_units_Z 30
_cell_length_a 16.525711
_cell_length_b 8.946963
_cell_length_c 24.668753
_cell_angle_alpha 90.000000
_cell_angle_beta 23.420763
_cell_angle_gamma 90.000000
_cell_volume 1449.768825
_symmetry_space_group_name_H-M "C 2"
_symmetry_group_IT_number 5
_symmetry_cell_setting 'monoclinic'
loop_
_space_group_symop_operation_xyz
x,y,z
-x,y,-z
1/2+x,1/2+y,z
1/2-x,1/2+y,-z
loop_
_atom_site_type_symbol
_atom_site_label
_atom_site_fract_x
_atom_site_fract_y
_atom_site_fract_z
Si Si1 0.966495 0.321520 0.414702
Si Si2 0.500000 0.989356 0.500000
Si Si3 0.656618 0.693645 0.768524
Si Si4 0.228398 0.001046 0.487223
Si Si5 0.659534 0.600012 0.949085
Si Si6 0.177167 0.856910 0.228020
Si Si7 0.499681 0.853362 0.240505
Si Si8 0.278559 0.190581 0.153207
O O1 0.838881 0.170659 0.479880
O O2 0.925102 0.467279 0.402802
O O3 0.922622 0.379513 0.500825
O O4 0.194425 0.269853 0.259202
O O5 0.319351 0.088275 0.637433
O O6 0.771885 0.782340 0.745586
O O7 0.550587 0.794713 0.787845
O O8 0.474526 0.618750 0.914582
O O9 0.288737 0.915155 0.395439
O O10 0.054888 0.911255 0.625910
O O11 0.760861 0.748858 0.859558
O O12 0.838547 0.486588 0.853417
O O13 0.500000 0.554812 0.000000
O O14 0.291928 0.014167 0.153663
O O15 0.606008 0.727986 0.213761
O O16 0.500000 0.242693 0.000000
#
# Coordination Sequence:
#
# PCOD9126512 Si02
#       8
#     4   2   4   4   4   4   4   4
#     4  10  25  41  67  94 131 164 219 262 329 375
#     4  12  28  44  64  96 130 174 212 284 318 382
#     4  11  26  42  65  97 134 171 215 270 331 372
#     4  10  22  42  69  99 124 170 217 265 314 400
#     4  10  23  43  68  92 131 178 217 259 325 388
#     4  10  22  43  70  94 130 172 214 262 322 390
#     4  11  24  41  65  99 131 168 215 270 322 378
#     4  10  22  40  70  96 128 168 219 261 318 391
#
# _framework density 20.692954
#
# number of rings (size 3 to 8) (size 9 to 14) (size 15 to 20)
#    0.000    1.600    0.000    3.200   16.800    4.267 
#    2.400    0.000    0.000    0.000    0.000    0.000 
#    0.000    0.000    0.000    0.000    0.000    0.000 
#
# Total GULP energy -83683.880610 kJ/mol
# GULP energy per Si atom -5578.925374 kJ/mol
# Density = 2.064586 g / cm^3
# Si number density = 20.692954 Si / 1000 Ang^3
#
#
#
# Elastic Constant Matrix: (Units=GPa)
#
#
# Indices 1 2 3 4 5 6 
#
# 1 64.1970 46.8825 31.6094 0.0054 24.8700 -0.0031
# 2 46.8825 137.1172 78.7896 0.0130 10.4789 -0.0004
# 3 31.6094 78.7896 162.8278 0.0267 17.6683 -0.0032
# 4 0.0054 0.0130 0.0267 20.5279 -0.0070 3.3965
# 5 24.8700 10.4789 17.6683 -0.0070 35.1345 0.0023
# 6 -0.0031 -0.0004 -0.0032 3.3965 0.0023 11.4029
#
#
#
# Elastic Compliance Matrix: (Units=1/GPa)
#
#
# Indices 1 2 3 4 5 6 
#
# 1 0.028644 -0.008789 0.000643 -0.000011 -0.017977 0.000015
# 2 -0.008789 0.012810 -0.005027 0.000003 0.004929 -0.000005
# 3 0.000643 -0.005027 0.008817 -0.000011 -0.003390 0.000006
# 4 -0.000011 0.000003 -0.000011 0.051239 0.000024 -0.015262
# 5 -0.017977 0.004929 -0.003390 0.000024 0.041422 -0.000021
# 6 0.000015 -0.000005 0.000006 -0.015262 -0.000021 0.092243
#
#
# Mechanical properties :
#
#
# Convention : Reuss Voigt Hill
#
# Bulk Modulus (GPa) = 41.79885 75.41164 58.60524
# Shear Modulus (GPa) = 18.55306 27.20376 22.87841
#
# Velocity S-wave (km/s) = 2.99756 3.62973 3.32868
# Velocity P-wave (km/s) = 5.67661 7.35451 6.56935
#
# Compressibility (1/GPa) = 0.02392410
#
# Stress axis : x y z
#
# Youngs Moduli (GPa) = 34.91172 78.06197 113.41697
#
# Poissons Ratio (x) = 0.68612 -0.07296
# Poissons Ratio (y) = 0.30685 0.57018
# Poissons Ratio (z) = -0.02246 0.39244
#
# Static dielectric constant tensor:
#      x y z
#    x 1.749360 0.000000 -0.006120 
#    y 0.000000 1.761610 0.000000 
#    z -0.006120 0.000000 1.806100 
# 
# From -- ./inp_files/65986.got.cif
#   From: 2010.05.17/outbox.cif.g08.bks.cpg/sg5_33_cif.got.tgz:65986.got - 2010.06.03 18:56:24.
