data_PCOD9126899
_publ_section_title
;
Structure prediction by ZEFSAII (Michael W. Deem and Ramdas Pophale) SiO2 
 PCOD9126899
Probable space group: C 2
;
_chemical_formula_sum "Si O2"
_cell_formula_units_Z 24
_cell_length_a 11.069865
_cell_length_b 10.656140
_cell_length_c 13.135394
_cell_angle_alpha 90.000000
_cell_angle_beta 45.713908
_cell_angle_gamma 90.000000
_cell_volume 1109.212628
_symmetry_space_group_name_H-M "C 2"
_symmetry_group_IT_number 5
_symmetry_cell_setting 'monoclinic'
loop_
_space_group_symop_operation_xyz
x,y,z
-x,y,-z
1/2+x,1/2+y,z
1/2-x,1/2+y,-z
loop_
_atom_site_type_symbol
_atom_site_label
_atom_site_fract_x
_atom_site_fract_y
_atom_site_fract_z
Si Si1 0.651694 0.448060 0.849231
Si Si2 0.759105 0.423463 0.568147
Si Si3 0.059076 0.802335 0.350495
Si Si4 0.000000 0.203610 0.500000
Si Si5 0.000000 0.701854 0.000000
Si Si6 0.979154 0.547900 0.735021
Si Si7 0.768693 0.539606 0.227043
O O1 0.707797 0.489249 0.704331
O O2 0.575361 0.307058 0.878002
O O3 0.820646 0.453512 0.817807
O O4 0.500000 0.514191 0.000000
O O5 0.593962 0.382642 0.606049
O O6 0.878525 0.508842 0.430042
O O7 0.866301 0.297505 0.527397
O O8 0.000000 0.769631 0.500000
O O9 0.086991 0.681947 0.263957
O O10 0.217977 0.895144 0.253507
O O11 0.106687 0.115520 0.362653
O O12 0.159396 0.608583 0.915371
O O13 0.078057 0.553001 0.782545
#
# Coordination Sequence:
#
# PCOD9126899 Si02
#       7
#     4   4   4   2   2   4   4
#     4  10  22  42  69  95 129 182 231 279 347 417
#     4  12  21  41  73  94 133 180 226 292 342 400
#     4  12  25  40  66 105 138 175 229 290 347 402
#     4  12  18  42  68  96 124 182 232 282 344 400
#     4  10  22  46  64  92 132 184 238 264 352 426
#     4  12  23  44  68 101 140 176 239 290 345 412
#     4  12  24  43  66  99 140 181 230 291 342 416
#
# _framework density 21.636969000000001
#
# number of rings (size 3 to 8) (size 9 to 14) (size 15 to 20)
#    0.500    0.000    7.500    1.000    0.000    1.333 
#    1.500    0.000    0.000    0.000    0.000    0.000 
#    0.000    0.000    0.000    0.000    0.000    0.000 
#
# Total GULP energy -66946.997612 kJ/mol
# GULP energy per Si atom -5578.916468 kJ/mol
# Density = 2.158772 g / cm^3
# Si number density = 21.636969 Si / 1000 Ang^3
#
#
#
# Elastic Constant Matrix: (Units=GPa)
#
#
# Indices 1 2 3 4 5 6 
#
# 1 106.8033 19.4375 18.5748 0.0000 -8.2392 0.0000
# 2 19.4375 93.3660 20.4027 0.0000 1.2668 0.0000
# 3 18.5748 20.4027 127.0510 0.0000 -14.4725 0.0000
# 4 0.0000 0.0000 0.0000 22.6380 0.0000 2.6888
# 5 -8.2392 1.2668 -14.4725 0.0000 13.7932 0.0000
# 6 0.0000 0.0000 0.0000 2.6888 0.0000 23.3038
#
#
#
# Elastic Compliance Matrix: (Units=1/GPa)
#
#
# Indices 1 2 3 4 5 6 
#
# 1 0.010282 -0.002110 -0.000503 0.000000 0.005808 0.000000
# 2 -0.002110 0.011665 -0.002079 0.000000 -0.004513 0.000000
# 3 -0.000503 -0.002079 0.009388 0.000000 0.009741 0.000000
# 4 0.000000 0.000000 0.000000 0.044787 0.000000 -0.005168
# 5 0.005808 -0.004513 0.009741 0.000000 0.086604 0.000000
# 6 0.000000 0.000000 0.000000 -0.005168 0.000000 0.043508
#
#
# Mechanical properties :
#
#
# Convention : Reuss Voigt Hill
#
# Bulk Modulus (GPa) = 45.55248 49.33892 47.44570
# Shear Modulus (GPa) = 22.42810 29.86736 26.14773
#
# Velocity S-wave (km/s) = 3.22306 3.71938 3.48008
# Velocity P-wave (km/s) = 5.91182 6.42633 6.17444
#
# Compressibility (1/GPa) = 0.02195270
#
# Stress axis : x y z
#
# Youngs Moduli (GPa) = 97.25289 85.72474 106.52131
#
# Poissons Ratio (x) = 0.18084 0.05357
# Poissons Ratio (y) = 0.20516 0.22145
# Poissons Ratio (z) = 0.04891 0.17821
#
# Static dielectric constant tensor:
#      x y z
#    x 1.812100 0.000000 0.028490 
#    y 0.000000 1.811340 0.000000 
#    z 0.028490 0.000000 1.836930 
# 
# From -- ./inp_files/52711.got.cif
#   From: 2010.05.17/outbox.cif.g08.bks.cpg/sg5_27_cif.got.tgz:52711.got - 2010.06.03 18:56:24.
