data_PCOD9126387
_publ_section_title
;
Structure prediction by ZEFSAII (Michael W. Deem and Ramdas Pophale) SiO2 
 PCOD9126387
Probable space group: C 2
;
_chemical_formula_sum "Si O2"
_cell_formula_units_Z 26
_cell_length_a 12.801765
_cell_length_b 7.714252
_cell_length_c 15.095740
_cell_angle_alpha 90.000000
_cell_angle_beta 45.714945
_cell_angle_gamma 90.000000
_cell_volume 1067.223071
_symmetry_space_group_name_H-M "C 2"
_symmetry_group_IT_number 5
_symmetry_cell_setting 'monoclinic'
loop_
_space_group_symop_operation_xyz
x,y,z
-x,y,-z
1/2+x,1/2+y,z
1/2-x,1/2+y,-z
loop_
_atom_site_type_symbol
_atom_site_label
_atom_site_fract_x
_atom_site_fract_y
_atom_site_fract_z
Si Si1 0.461479 0.648720 0.847680
Si Si2 0.305158 0.971195 0.901606
Si Si3 0.489124 0.514136 0.368698
Si Si4 0.705302 0.390613 0.773934
Si Si5 0.000000 0.491585 0.500000
Si Si6 0.949388 0.639447 0.347107
Si Si7 0.766162 0.058885 0.647319
O O1 0.414693 0.847281 0.891173
O O2 0.478618 0.635219 0.732197
O O3 0.599759 0.551046 0.810674
O O4 0.318474 0.544593 0.962395
O O5 0.221305 0.876397 0.869828
O O6 0.394350 0.114437 0.792161
O O7 0.417208 0.344418 0.367258
O O8 0.387854 0.607734 0.500810
O O9 0.637171 0.464288 0.335649
O O10 0.865291 0.407648 0.633031
O O11 0.668280 0.204149 0.754397
O O12 0.932425 0.601717 0.460742
O O13 0.852501 0.496157 0.353161
#
# Coordination Sequence:
#
# PCOD9126387 Si02
#       7
#     4   4   4   4   2   4   4
#     4  12  24  46  72 103 143 198 248 310 370 438
#     4  11  27  46  73 102 145 197 255 312 367 449
#     4  11  23  41  68 104 148 182 246 304 362 455
#     4  11  23  44  73 104 146 193 243 307 381 443
#     4  10  22  40  64 102 144 178 238 298 368 444
#     4  11  24  42  67 106 146 192 244 305 373 439
#     4  11  23  40  70 106 144 194 237 301 383 439
#
# _framework density 24.362293000000001
#
# number of rings (size 3 to 8) (size 9 to 14) (size 15 to 20)
#    0.000    0.923    3.077    4.154    2.154    3.692 
#    0.000    2.308    0.000    0.000    0.000    0.000 
#    0.000    0.000    0.000    0.000    0.000    0.000 
#
# Total GULP energy -72417.175283 kJ/mol
# GULP energy per Si atom -5570.551945 kJ/mol
# Density = 2.430684 g / cm^3
# Si number density = 24.362293 Si / 1000 Ang^3
#
#
#
# Elastic Constant Matrix: (Units=GPa)
#
#
# Indices 1 2 3 4 5 6 
#
# 1 88.1143 9.9073 5.1182 0.0000 -3.2572 0.0000
# 2 9.9073 59.6423 19.5856 0.0000 0.4599 0.0000
# 3 5.1182 19.5856 79.0303 0.0000 -10.1801 0.0000
# 4 0.0000 0.0000 0.0000 37.0805 0.0000 -4.6041
# 5 -3.2572 0.4599 -10.1801 0.0000 17.5774 0.0000
# 6 0.0000 0.0000 0.0000 -4.6041 0.0000 36.4155
#
#
#
# Elastic Compliance Matrix: (Units=1/GPa)
#
#
# Indices 1 2 3 4 5 6 
#
# 1 0.011650 -0.001958 0.000017 0.000000 0.002220 0.000000
# 2 -0.001958 0.018765 -0.005007 0.000000 -0.003754 0.000000
# 3 0.000017 -0.005007 0.015032 0.000000 0.008840 0.000000
# 4 0.000000 0.000000 0.000000 0.027398 0.000000 0.003464
# 5 0.002220 -0.003754 0.008840 0.000000 0.062521 0.000000
# 6 0.000000 0.000000 0.000000 0.003464 0.000000 0.027899
#
#
# Mechanical properties :
#
#
# Convention : Reuss Voigt Hill
#
# Bulk Modulus (GPa) = 31.69533 32.88989 32.29261
# Shear Modulus (GPa) = 26.64131 31.02639 28.83385
#
# Velocity S-wave (km/s) = 3.31047 3.57254 3.44400
# Velocity P-wave (km/s) = 5.25838 5.52694 5.39433
#
# Compressibility (1/GPa) = 0.03155039
#
# Stress axis : x y z
#
# Youngs Moduli (GPa) = 85.83605 53.29050 66.52519
#
# Poissons Ratio (x) = 0.10433 -0.00111
# Poissons Ratio (y) = 0.16805 0.33310
# Poissons Ratio (z) = -0.00143 0.26684
#
# Static dielectric constant tensor:
#      x y z
#    x 2.137480 0.000000 -0.069160 
#    y 0.000000 2.174290 0.000000 
#    z -0.069160 0.000000 1.884210 
# 
# From -- ./inp_files/41546.got.cif
#   From: 2010.05.17/outbox.cif.g08.bks.cpg/sg5_21_cif.got.tgz:41546.got - 2010.06.03 18:56:24.
