data_PCOD9126355
_publ_section_title
;
Structure prediction by ZEFSAII (Michael W. Deem and Ramdas Pophale) SiO2 
 PCOD9126355
Probable space group: C 2
;
_chemical_formula_sum "Si O2"
_cell_formula_units_Z 30
_cell_length_a 19.262733
_cell_length_b 12.335578
_cell_length_c 14.543714
_cell_angle_alpha 90.000000
_cell_angle_beta 152.717680
_cell_angle_gamma 90.000000
_cell_volume 1584.068538
_symmetry_space_group_name_H-M "C 2"
_symmetry_group_IT_number 5
_symmetry_cell_setting 'monoclinic'
loop_
_space_group_symop_operation_xyz
x,y,z
-x,y,-z
1/2+x,1/2+y,z
1/2-x,1/2+y,-z
loop_
_atom_site_type_symbol
_atom_site_label
_atom_site_fract_x
_atom_site_fract_y
_atom_site_fract_z
Si Si1 0.000000 0.261261 0.000000
Si Si2 0.679022 0.609066 0.351973
Si Si3 0.227811 0.746609 0.362894
Si Si4 0.672907 0.641811 0.714195
Si Si5 0.521133 0.415368 0.919495
Si Si6 0.933374 0.456877 0.637000
Si Si7 0.359638 0.872345 0.263030
Si Si8 0.577583 0.969639 0.000165
O O1 0.906175 0.189337 0.817945
O O2 0.894426 0.346277 0.932656
O O3 0.725664 0.667853 0.500423
O O4 0.570903 0.505666 0.245227
O O5 0.832400 0.559182 0.489356
O O6 0.263277 0.694605 0.305737
O O7 0.060212 0.797416 0.180918
O O8 0.334674 0.851630 0.497028
O O9 0.500000 0.604625 0.500000
O O10 0.663521 0.742489 0.774291
O O11 0.781698 0.542184 0.863639
O O12 0.500000 0.449754 0.000000
O O13 0.697700 0.413219 0.106425
O O14 0.088190 0.436813 0.765256
O O15 0.963401 0.464145 0.780712
O O16 0.500000 0.885060 0.500000
O O17 0.500000 0.020714 0.000000
#
# Coordination Sequence:
#
# PCOD9126355 Si02
#       8
#     2   4   4   4   4   4   4   4
#     4  10  22  40  62  88 128 162 212 260 316 366
#     4  11  23  38  65  90 125 169 216 264 319 379
#     4  11  21  39  63  96 123 164 219 267 304 382
#     4  11  22  38  67  91 129 167 208 267 329 362
#     4  11  22  37  66  92 123 170 220 258 318 387
#     4  11  22  41  62  95 131 163 215 269 316 378
#     4  11  22  40  61  97 133 161 210 281 316 371
#     4  10  23  41  65  95 127 168 216 260 313 391
#
# _framework density 18.938575
#
# number of rings (size 3 to 8) (size 9 to 14) (size 15 to 20)
#    0.400    0.800    6.000    1.600    3.733    1.067 
#    0.000    0.000    2.933    0.000    0.000    0.000 
#    0.000    0.000    0.000    0.000    0.000    0.000 
#
# Total GULP energy -83655.386700 kJ/mol
# GULP energy per Si atom -5577.025780 kJ/mol
# Density = 1.889547 g / cm^3
# Si number density = 18.938575 Si / 1000 Ang^3
#
#
#
# Elastic Constant Matrix: (Units=GPa)
#
#
# Indices 1 2 3 4 5 6 
#
# 1 68.1149 20.2307 37.5398 0.0000 10.8244 0.0000
# 2 20.2307 86.6771 36.4431 0.0000 -0.9403 0.0000
# 3 37.5398 36.4431 81.7820 0.0000 14.6475 0.0000
# 4 0.0000 0.0000 0.0000 47.4956 0.0000 -7.9335
# 5 10.8244 -0.9403 14.6475 0.0000 38.7820 0.0000
# 6 0.0000 0.0000 0.0000 -7.9335 0.0000 -16.6947
#
#
#
# Elastic Compliance Matrix: (Units=1/GPa)
#
#
# Indices 1 2 3 4 5 6 
#
# 1 0.019943 -0.001259 -0.008141 0.000000 -0.002522 0.000000
# 2 -0.001259 0.014594 -0.006491 0.000000 0.003157 0.000000
# 3 -0.008141 -0.006491 0.019819 0.000000 -0.005370 0.000000
# 4 0.000000 0.000000 0.000000 0.019506 0.000000 -0.009270
# 5 -0.002522 0.003157 -0.005370 0.000000 0.028594 0.000000
# 6 0.000000 0.000000 0.000000 -0.009270 0.000000 -0.055494
#
#
# Mechanical properties :
#
#
# Convention : Reuss Voigt Hill
#
# Bulk Modulus (GPa) = 44.30006 47.22234 45.76120
# Shear Modulus (GPa) = 57.95831 23.40727 40.68279
#
# Velocity S-wave (km/s) = 5.53803 3.51943 4.63984
# Velocity P-wave (km/s) = 8.02092 6.44235 7.27458
#
# Compressibility (1/GPa) = 0.02257333
#
# Stress axis : x y z
#
# Youngs Moduli (GPa) = 50.14361 68.52030 50.45660
#
# Poissons Ratio (x) = 0.08627 0.41079
# Poissons Ratio (y) = 0.06313 0.32751
# Poissons Ratio (z) = 0.40824 0.44475
#
# Static dielectric constant tensor:
#      x y z
#    x 1.670540 0.000000 0.009170 
#    y 0.000000 1.680280 0.000000 
#    z 0.009170 0.000000 1.681160 
# 
# From -- ./inp_files/23907.got.cif
#   From: 2010.05.17/outbox.cif.g08.bks.cpg/sg5_12_cif.got.tgz:23907.got - 2010.06.03 18:56:24.
