data_PCOD9126642
_publ_section_title
;
Structure prediction by ZEFSAII (Michael W. Deem and Ramdas Pophale) SiO2 
 PCOD9126642
Probable space group: C 2
;
_chemical_formula_sum "Si O2"
_cell_formula_units_Z 24
_cell_length_a 16.864468
_cell_length_b 10.650412
_cell_length_c 17.690145
_cell_angle_alpha 90.000000
_cell_angle_beta 17.322256
_cell_angle_gamma 90.000000
_cell_volume 946.054102
_symmetry_space_group_name_H-M "C 2"
_symmetry_group_IT_number 5
_symmetry_cell_setting 'monoclinic'
loop_
_space_group_symop_operation_xyz
x,y,z
-x,y,-z
1/2+x,1/2+y,z
1/2-x,1/2+y,-z
loop_
_atom_site_type_symbol
_atom_site_label
_atom_site_fract_x
_atom_site_fract_y
_atom_site_fract_z
Si Si1 0.000000 0.159300 0.500000
Si Si2 0.958131 0.743392 0.617220
Si Si3 0.806057 0.472198 0.111200
Si Si4 0.420539 0.181475 0.230277
Si Si5 0.800521 0.929139 0.028766
Si Si6 0.000000 0.043857 0.000000
Si Si7 0.754935 0.075884 0.455491
O O1 0.867674 0.074282 0.685535
O O2 0.776525 0.231330 0.656356
O O3 0.198872 0.673058 0.438323
O O4 0.000000 0.813970 0.500000
O O5 0.849799 0.849026 0.772628
O O6 0.751288 0.636883 0.779532
O O7 0.000000 0.421388 0.000000
O O8 0.972803 0.548907 0.898603
O O9 0.654427 0.282347 0.027625
O O10 0.267273 0.152449 0.446792
O O11 0.970602 0.006469 0.811783
O O12 0.954626 0.961508 0.966794
O O13 0.498135 0.979138 0.311166
#
# Coordination Sequence:
#
# PCOD9126642 Si02
#       7
#     2   4   4   4   4   2   4
#     4  10  24  42  70 102 142 182 250 292 366 442
#     4  11  20  41  70 102 144 188 248 302 356 448
#     4  10  22  41  67 107 133 192 239 307 362 431
#     4  11  28  46  72 107 148 193 253 303 385 442
#     4  11  27  48  73 106 148 197 244 315 362 454
#     4  10  22  42  68  98 140 186 256 282 376 422
#     4  11  28  46  73 107 147 199 243 305 380 435
#
# _framework density 25.368527
#
# number of rings (size 3 to 8) (size 9 to 14) (size 15 to 20)
#    0.000    1.333    3.333    0.000   10.500    1.333 
#    3.000    0.000    0.000    0.000    0.000    0.000 
#    0.000    0.000    0.000    0.000    0.000    0.000 
#
# Total GULP energy -67151.843143 kJ/mol
# GULP energy per Si atom -5595.986929 kJ/mol
# Density = 2.531079 g / cm^3
# Si number density = 25.368527 Si / 1000 Ang^3
#
#
#
# Elastic Constant Matrix: (Units=GPa)
#
#
# Indices 1 2 3 4 5 6 
#
# 1 117.8696 15.5379 10.8126 -0.0198 8.8182 0.0009
# 2 15.5379 65.1080 3.2686 -0.1453 9.8256 -0.0051
# 3 10.8126 3.2686 76.3298 -0.1041 8.6429 -0.0164
# 4 -0.0198 -0.1453 -0.1041 23.0839 0.0259 -6.4738
# 5 8.8182 9.8256 8.6429 0.0259 41.1667 0.0095
# 6 0.0009 -0.0051 -0.0164 -6.4738 0.0095 18.1504
#
#
#
# Elastic Compliance Matrix: (Units=1/GPa)
#
#
# Indices 1 2 3 4 5 6 
#
# 1 0.008922 -0.001889 -0.001042 -0.000009 -0.001241 -0.000004
# 2 -0.001889 0.016338 -0.000037 0.000119 -0.003487 0.000049
# 3 -0.001042 -0.000037 0.013546 0.000074 -0.002612 0.000040
# 4 -0.000009 0.000119 0.000074 0.048136 -0.000076 0.017169
# 5 -0.001241 -0.003487 -0.002612 -0.000076 0.025938 -0.000044
# 6 -0.000004 0.000049 0.000040 0.017169 -0.000044 0.061219
#
#
# Mechanical properties :
#
#
# Convention : Reuss Voigt Hill
#
# Bulk Modulus (GPa) = 30.42427 35.39395 32.90911
# Shear Modulus (GPa) = 26.17894 31.79276 28.98585
#
# Velocity S-wave (km/s) = 3.21588 3.54395 3.38389
# Velocity P-wave (km/s) = 5.08017 5.54331 5.31678
#
# Compressibility (1/GPa) = 0.03286849
#
# Stress axis : x y z
#
# Youngs Moduli (GPa) = 112.08869 61.20552 73.82178
#
# Poissons Ratio (x) = 0.11565 0.07695
# Poissons Ratio (y) = 0.21179 0.00273
# Poissons Ratio (z) = 0.11683 0.00226
#
# Static dielectric constant tensor:
#      x y z
#    x 2.001690 -0.000010 0.016520 
#    y -0.000010 1.928990 0.000050 
#    z 0.016520 0.000050 2.111620 
# 
# From -- ./inp_files/62352.got.cif
#   From: 2010.05.17/outbox.cif.g08.bks.cpg/sg5_32_cif.got.tgz:62352.got - 2010.06.03 18:56:24.
