data_PCOD9126255
_publ_section_title
;
Structure prediction by ZEFSAII (Michael W. Deem and Ramdas Pophale) SiO2 
 PCOD9126255
Probable space group: C 2
;
_chemical_formula_sum "Si O2"
_cell_formula_units_Z 28
_cell_length_a 14.694047
_cell_length_b 19.246383
_cell_length_c 9.318109
_cell_angle_alpha 90.000000
_cell_angle_beta 28.406554
_cell_angle_gamma 90.000000
_cell_volume 1253.643787
_symmetry_space_group_name_H-M "C 2"
_symmetry_group_IT_number 5
_symmetry_cell_setting 'monoclinic'
loop_
_space_group_symop_operation_xyz
x,y,z
-x,y,-z
1/2+x,1/2+y,z
1/2-x,1/2+y,-z
loop_
_atom_site_type_symbol
_atom_site_label
_atom_site_fract_x
_atom_site_fract_y
_atom_site_fract_z
Si Si1 0.316414 0.853870 0.681086
Si Si2 0.360679 0.668865 0.311408
Si Si3 0.740951 0.983509 0.031084
Si Si4 0.415684 0.511718 0.273637
Si Si5 0.317259 0.215629 0.164148
Si Si6 0.044294 0.423692 0.785484
Si Si7 0.044855 0.634991 0.281227
O O1 0.500000 0.818357 0.500000
O O2 0.300606 0.926964 0.785360
O O3 0.154076 0.796320 0.917739
O O4 0.357764 0.871489 0.460224
O O5 0.446190 0.593754 0.229366
O O6 0.339252 0.708202 0.492675
O O7 0.159001 0.646686 0.516168
O O8 0.500000 0.702706 0.000000
O O9 0.652025 0.949655 0.013473
O O10 0.628803 0.057267 0.194394
O O11 0.965201 0.990326 0.750554
O O12 0.197688 0.486549 0.586702
O O13 0.500000 0.486896 0.000000
O O14 0.500000 0.189827 0.000000
O O15 0.306098 0.171718 0.034128
O O16 0.000000 0.393131 0.000000
O O17 0.000000 0.665895 0.500000
#
# Coordination Sequence:
#
# PCOD9126255 Si02
#       7
#     4   4   4   4   4   4   4
#     4  10  23  43  66  92 129 183 221 272 344 409
#     4  10  22  39  63 100 133 180 226 282 345 400
#     4  11  23  41  69  99 134 179 226 274 343 408
#     4  11  21  37  67  94 131 181 223 277 343 399
#     4  10  25  43  68  93 134 188 224 278 342 413
#     4  11  24  40  63  98 139 168 222 289 334 403
#     4  11  21  41  66  97 136 172 225 294 339 400
#
# _framework density 22.334892
#
# number of rings (size 3 to 8) (size 9 to 14) (size 15 to 20)
#    0.000    1.429    2.857    3.000    4.000    3.429 
#    0.000    4.286    0.000    0.000    0.000    0.000 
#    0.000    0.000    0.000    0.000    0.000    0.000 
#
# Total GULP energy -77971.100865 kJ/mol
# GULP energy per Si atom -5569.364347 kJ/mol
# Density = 2.228406 g / cm^3
# Si number density = 22.334892 Si / 1000 Ang^3
#
#
#
# Elastic Constant Matrix: (Units=GPa)
#
#
# Indices 1 2 3 4 5 6 
#
# 1 132.3197 39.9577 40.3066 -0.0078 13.6355 0.0054
# 2 39.9577 84.0749 31.2530 -0.0158 30.4952 0.0072
# 3 40.3066 31.2530 76.1414 -0.0264 33.7049 0.0088
# 4 -0.0078 -0.0158 -0.0264 17.6614 0.0086 -0.6584
# 5 13.6355 30.4952 33.7049 0.0086 46.4874 -0.0022
# 6 0.0054 0.0072 0.0088 -0.6584 -0.0022 20.5788
#
#
#
# Elastic Compliance Matrix: (Units=1/GPa)
#
#
# Indices 1 2 3 4 5 6 
#
# 1 0.010010 -0.004109 -0.005163 -0.000009 0.003502 0.000001
# 2 -0.004109 0.017698 -0.000712 0.000018 -0.009888 -0.000005
# 3 -0.005163 -0.000712 0.022504 0.000037 -0.014335 -0.000008
# 4 -0.000009 0.000018 0.000037 0.056688 -0.000047 0.001814
# 5 0.003502 -0.009888 -0.014335 -0.000047 0.037364 0.000011
# 6 0.000001 -0.000005 -0.000008 0.001814 0.000011 0.048652
#
#
# Mechanical properties :
#
#
# Convention : Reuss Voigt Hill
#
# Bulk Modulus (GPa) = 33.06327 57.28561 45.17444
# Shear Modulus (GPa) = 22.42503 29.01344 25.71924
#
# Velocity S-wave (km/s) = 3.17209 3.60810 3.39710
# Velocity P-wave (km/s) = 5.31524 6.56217 5.97134
#
# Compressibility (1/GPa) = 0.03024504
#
# Stress axis : x y z
#
# Youngs Moduli (GPa) = 99.90099 56.50296 44.43583
#
# Poissons Ratio (x) = 0.23214 0.22942
# Poissons Ratio (y) = 0.41044 0.03165
# Poissons Ratio (z) = 0.51578 0.04025
#
# Static dielectric constant tensor:
#      x y z
#    x 1.875190 0.000000 -0.050530 
#    y 0.000000 1.826650 0.000000 
#    z -0.050530 0.000000 1.968170 
# 
# From -- ./inp_files/25489.got.cif
#   From: 2010.05.17/outbox.cif.g08.bks.cpg/sg5_13_cif.got.tgz:25489.got - 2010.06.03 18:56:24.
