data_PCOD9126856
_publ_section_title
;
Structure prediction by ZEFSAII (Michael W. Deem and Ramdas Pophale) SiO2 
 PCOD9126856
Probable space group: C 2
;
_chemical_formula_sum "Si O2"
_cell_formula_units_Z 24
_cell_length_a 8.364175
_cell_length_b 14.199630
_cell_length_c 8.296803
_cell_angle_alpha 90.000000
_cell_angle_beta 104.520853
_cell_angle_gamma 90.000000
_cell_volume 953.919222
_symmetry_space_group_name_H-M "C 2"
_symmetry_group_IT_number 5
_symmetry_cell_setting 'monoclinic'
loop_
_space_group_symop_operation_xyz
x,y,z
-x,y,-z
1/2+x,1/2+y,z
1/2-x,1/2+y,-z
loop_
_atom_site_type_symbol
_atom_site_label
_atom_site_fract_x
_atom_site_fract_y
_atom_site_fract_z
Si Si1 0.000000 0.218220 0.000000
Si Si2 0.346206 0.880311 0.759521
Si Si3 0.733249 0.806905 0.591337
Si Si4 0.978305 0.569242 0.812112
Si Si5 0.114742 0.130197 0.737367
Si Si6 0.509546 0.447495 0.194793
Si Si7 0.000000 0.670392 0.500000
O O1 0.122781 0.155345 0.927621
O O2 0.897475 0.283560 0.855284
O O3 0.339471 0.871816 0.565871
O O4 0.490413 0.957011 0.826850
O O5 0.166632 0.906363 0.787713
O O6 0.616334 0.732057 0.653069
O O7 0.857314 0.738833 0.525610
O O8 0.845499 0.873421 0.732131
O O9 0.784409 0.584084 0.725340
O O10 0.060417 0.612540 0.673736
O O11 0.000000 0.608543 0.000000
O O12 0.977158 0.047636 0.703460
O O13 0.500000 0.462098 0.000000
#
# Coordination Sequence:
#
# PCOD9126856 Si02
#       7
#     2   4   4   4   4   4   2
#     4  12  24  44  64 100 144 176 234 298 362 436
#     4  11  24  44  67 100 139 184 237 288 371 439
#     4  11  23  46  72 101 138 185 240 298 362 438
#     4  10  23  45  69  97 140 185 242 299 362 436
#     4  10  25  43  67 108 133 185 238 296 369 438
#     4  11  22  47  74 102 139 186 243 303 368 439
#     4  10  22  42  68 102 128 178 246 298 352 438
#
# _framework density 25.159361000000001
#
# number of rings (size 3 to 8) (size 9 to 14) (size 15 to 20)
#    0.000    1.333    3.333    1.000    2.333    4.667 
#   21.000    0.000    0.000    0.000    0.000    0.000 
#    0.000    0.000    0.000    0.000    0.000    0.000 
#
# Total GULP energy -67014.672901 kJ/mol
# GULP energy per Si atom -5584.556075 kJ/mol
# Density = 2.510210 g / cm^3
# Si number density = 25.159361 Si / 1000 Ang^3
#
#
#
# Elastic Constant Matrix: (Units=GPa)
#
#
# Indices 1 2 3 4 5 6 
#
# 1 75.9630 38.6803 30.2720 0.0000 -23.9322 0.0000
# 2 38.6803 121.2372 51.8919 0.0000 -13.9093 0.0000
# 3 30.2720 51.8919 153.4337 0.0000 -19.2435 0.0000
# 4 0.0000 0.0000 0.0000 40.2274 0.0000 -25.5108
# 5 -23.9322 -13.9093 -19.2435 0.0000 38.1918 0.0000
# 6 0.0000 0.0000 0.0000 -25.5108 0.0000 -1.9551
#
#
#
# Elastic Compliance Matrix: (Units=1/GPa)
#
#
# Indices 1 2 3 4 5 6 
#
# 1 0.018907 -0.004493 -0.000993 0.000000 0.009711 0.000000
# 2 -0.004493 0.010857 -0.002821 0.000000 -0.000283 0.000000
# 3 -0.000993 -0.002821 0.007964 0.000000 0.002363 0.000000
# 4 0.000000 0.000000 0.000000 0.002680 0.000000 -0.034973
# 5 0.009711 -0.000283 0.002363 0.000000 0.033357 0.000000
# 6 0.000000 0.000000 0.000000 -0.034973 0.000000 -0.055148
#
#
# Mechanical properties :
#
#
# Convention : Reuss Voigt Hill
#
# Bulk Modulus (GPa) = 47.36112 65.81359 56.58736
# Shear Modulus (GPa) = 118.28971 30.61214 74.45093
#
# Velocity S-wave (km/s) = 6.86427 3.49195 5.44573
# Velocity P-wave (km/s) = 9.03823 6.51719 7.87919
#
# Compressibility (1/GPa) = 0.02111436
#
# Stress axis : x y z
#
# Youngs Moduli (GPa) = 52.88911 92.10867 125.56930
#
# Poissons Ratio (x) = 0.41387 0.12466
# Poissons Ratio (y) = 0.23765 0.35420
# Poissons Ratio (z) = 0.05251 0.25982
#
# Static dielectric constant tensor:
#      x y z
#    x 2.004140 0.000000 0.008980 
#    y 0.000000 2.044140 0.000000 
#    z 0.008980 0.000000 2.034020 
# 
# From -- ./inp_files/15099.got.cif
#   From: 2010.05.17/outbox.cif.g08.bks.cpg/sg5_8_cif.got.tgz:15099.got - 2010.06.03 18:56:24.
