data_PCOD9126374
_publ_section_title
;
Structure prediction by ZEFSAII (Michael W. Deem and Ramdas Pophale) SiO2 
 PCOD9126374
Probable space group: C 2
;
_chemical_formula_sum "Si O2"
_cell_formula_units_Z 26
_cell_length_a 18.556998
_cell_length_b 8.523421
_cell_length_c 9.974584
_cell_angle_alpha 90.000000
_cell_angle_beta 136.017669
_cell_angle_gamma 90.000000
_cell_volume 1095.592363
_symmetry_space_group_name_H-M "C 2"
_symmetry_group_IT_number 5
_symmetry_cell_setting 'monoclinic'
loop_
_space_group_symop_operation_xyz
x,y,z
-x,y,-z
1/2+x,1/2+y,z
1/2-x,1/2+y,-z
loop_
_atom_site_type_symbol
_atom_site_label
_atom_site_fract_x
_atom_site_fract_y
_atom_site_fract_z
Si Si1 0.427963 0.353990 0.124145
Si Si2 0.405928 0.567971 0.573433
Si Si3 0.802674 0.417839 0.815348
Si Si4 0.380841 0.042542 0.182037
Si Si5 0.000000 0.630078 0.000000
Si Si6 0.678022 0.560243 0.247259
Si Si7 0.111502 0.431081 0.506569
O O1 0.489321 0.469592 0.304785
O O2 0.365895 0.224448 0.125704
O O3 0.504208 0.247387 0.132829
O O4 0.363571 0.451100 0.928245
O O5 0.394390 0.569915 0.719671
O O6 0.211646 0.487233 0.558852
O O7 0.403250 0.744811 0.517135
O O8 0.812284 0.237037 0.790929
O O9 0.693147 0.481349 0.618966
O O10 0.813705 0.443824 0.988835
O O11 0.898141 0.522029 0.882673
O O12 0.365074 0.996453 0.313770
O O13 0.501718 0.001150 0.316961
#
# Coordination Sequence:
#
# PCOD9126374 Si02
#       7
#     4   4   4   4   2   4   4
#     4  11  23  44  70 102 145 176 237 277 354 407
#     4  12  25  42  70 109 137 185 222 296 345 415
#     4  11  26  38  67 102 140 184 226 282 352 399
#     4  10  25  47  68  99 135 196 224 291 337 412
#     4  10  22  40  62  98 144 178 220 286 334 416
#     4  12  25  41  69 109 139 184 223 294 344 418
#     4  11  25  47  71  97 145 179 243 275 350 411
#
# _framework density 23.731452999999998
#
# number of rings (size 3 to 8) (size 9 to 14) (size 15 to 20)
#    0.000    0.923    1.538    4.615   12.923    2.462 
#    0.000    9.231    0.000    0.000    0.000    0.000 
#    0.000    0.000    0.000    0.000    0.000    0.000 
#
# Total GULP energy -72828.712359 kJ/mol
# GULP energy per Si atom -5602.208643 kJ/mol
# Density = 2.367744 g / cm^3
# Si number density = 23.731453 Si / 1000 Ang^3
#
#
#
# Elastic Constant Matrix: (Units=GPa)
#
#
# Indices 1 2 3 4 5 6 
#
# 1 31.0851 24.8795 12.3133 0.0000 -1.9873 0.0000
# 2 24.8795 144.1763 37.2573 0.0000 -19.9727 0.0000
# 3 12.3133 37.2573 125.0501 0.0000 -15.8171 0.0000
# 4 0.0000 0.0000 0.0000 40.5931 0.0000 -4.6822
# 5 -1.9873 -19.9727 -15.8171 0.0000 37.2681 0.0000
# 6 0.0000 0.0000 0.0000 -4.6822 0.0000 31.2298
#
#
#
# Elastic Compliance Matrix: (Units=1/GPa)
#
#
# Indices 1 2 3 4 5 6 
#
# 1 0.037919 -0.006304 -0.002142 0.000000 -0.002265 0.000000
# 2 -0.006304 0.008955 -0.001567 0.000000 0.003798 0.000000
# 3 -0.002142 -0.001567 0.009039 0.000000 0.002882 0.000000
# 4 0.000000 0.000000 0.000000 0.025068 0.000000 0.003758
# 5 -0.002265 0.003798 0.002882 0.000000 0.029970 0.000000
# 6 0.000000 0.000000 0.000000 0.003758 0.000000 0.032584
#
#
# Mechanical properties :
#
#
# Convention : Reuss Voigt Hill
#
# Bulk Modulus (GPa) = 27.86510 49.91243 38.88876
# Shear Modulus (GPa) = 28.48625 36.87562 32.68093
#
# Velocity S-wave (km/s) = 3.46838 3.94619 3.71498
# Velocity P-wave (km/s) = 5.27322 6.46847 5.90118
#
# Compressibility (1/GPa) = 0.03588718
#
# Stress axis : x y z
#
# Youngs Moduli (GPa) = 26.37223 111.67251 110.62988
#
# Poissons Ratio (x) = 0.70394 0.23699
# Poissons Ratio (y) = 0.16624 0.17335
# Poissons Ratio (z) = 0.05649 0.17498
#
# Static dielectric constant tensor:
#      x y z
#    x 2.059110 0.000000 -0.009730 
#    y 0.000000 1.857870 0.000000 
#    z -0.009730 0.000000 1.854380 
# 
# From -- ./inp_files/44231.got.cif
#   From: 2010.05.17/outbox.cif.g08.bks.cpg/sg5_23_cif.got.tgz:44231.got - 2010.06.03 18:56:24.
