data_PCOD9126526
_publ_section_title
;
Structure prediction by ZEFSAII (Michael W. Deem and Ramdas Pophale) SiO2 
 PCOD9126526
Probable space group: C 2
;
_chemical_formula_sum "Si O2"
_cell_formula_units_Z 30
_cell_length_a 9.445279
_cell_length_b 10.376291
_cell_length_c 15.065010
_cell_angle_alpha 90.000000
_cell_angle_beta 109.263841
_cell_angle_gamma 90.000000
_cell_volume 1393.807039
_symmetry_space_group_name_H-M "C 2"
_symmetry_group_IT_number 5
_symmetry_cell_setting 'monoclinic'
loop_
_space_group_symop_operation_xyz
x,y,z
-x,y,-z
1/2+x,1/2+y,z
1/2-x,1/2+y,-z
loop_
_atom_site_type_symbol
_atom_site_label
_atom_site_fract_x
_atom_site_fract_y
_atom_site_fract_z
Si Si1 0.045148 0.087300 0.907150
Si Si2 0.966605 0.377452 0.332817
Si Si3 0.048511 0.380902 0.154856
Si Si4 0.000000 0.576214 0.500000
Si Si5 0.873827 0.608136 0.033072
Si Si6 0.201910 0.153667 0.371992
Si Si7 0.835752 0.750183 0.212354
Si Si8 0.380163 0.405069 0.730987
O O1 0.002504 0.232710 0.868993
O O2 0.224786 0.086305 0.946048
O O3 0.956745 0.984339 0.828505
O O4 0.000000 0.067590 0.000000
O O5 0.019582 0.427186 0.248451
O O6 0.070965 0.252636 0.369342
O O7 0.994091 0.482218 0.414029
O O8 0.788011 0.354573 0.287096
O O9 0.225990 0.372567 0.176514
O O10 0.950408 0.473694 0.075177
O O11 0.846497 0.656777 0.464981
O O12 0.833903 0.675646 0.118353
O O13 0.000000 0.680501 0.000000
O O14 0.268075 0.182054 0.286107
O O15 0.136056 0.010127 0.350636
O O16 0.004107 0.792906 0.266520
#
# Coordination Sequence:
#
# PCOD9126526 Si02
#       8
#     4   4   4   2   4   4   4   4
#     4  12  22  40  64  92 131 182 225 276 324 375
#     4  10  22  42  71  97 127 170 212 268 330 398
#     4  11  23  45  65  87 138 177 220 274 332 385
#     4  10  22  40  72 102 128 164 212 272 330 404
#     4  12  26  38  60  98 130 173 236 279 314 376
#     4  10  22  47  67  96 136 167 211 266 334 400
#     4  11  24  44  65  93 130 182 218 268 336 384
#     4  11  23  40  67  94 130 173 221 267 328 381
#
# _framework density 21.523782000000001
#
# number of rings (size 3 to 8) (size 9 to 14) (size 15 to 20)
#    0.000    1.067    4.000    3.600    3.733    3.733 
#    0.000    2.667    0.000    0.000    0.000    0.000 
#    0.000    0.000    0.000    0.000    0.000    0.000 
#
# Total GULP energy -83804.333992 kJ/mol
# GULP energy per Si atom -5586.955599 kJ/mol
# Density = 2.147479 g / cm^3
# Si number density = 21.523782 Si / 1000 Ang^3
#
#
#
# Elastic Constant Matrix: (Units=GPa)
#
#
# Indices 1 2 3 4 5 6 
#
# 1 166.4939 39.0796 49.0202 0.0000 37.2518 0.0000
# 2 39.0796 41.2759 11.6094 0.0000 8.4147 0.0000
# 3 49.0202 11.6094 66.2143 0.0000 34.5659 0.0000
# 4 0.0000 0.0000 0.0000 19.7525 0.0000 4.4601
# 5 37.2518 8.4147 34.5659 0.0000 41.7949 0.0000
# 6 0.0000 0.0000 0.0000 4.4601 0.0000 31.4398
#
#
#
# Elastic Compliance Matrix: (Units=1/GPa)
#
#
# Indices 1 2 3 4 5 6 
#
# 1 0.009763 -0.007341 -0.003818 0.000000 -0.004066 0.000000
# 2 -0.007341 0.031156 -0.000297 0.000000 0.000516 0.000000
# 3 -0.003818 -0.000297 0.028461 0.000000 -0.020076 0.000000
# 4 0.000000 0.000000 0.000000 0.052302 0.000000 -0.007420
# 5 -0.004066 0.000516 -0.020076 0.000000 0.044050 0.000000
# 6 0.000000 0.000000 0.000000 -0.007420 0.000000 0.032859
#
#
# Mechanical properties :
#
#
# Convention : Reuss Voigt Hill
#
# Bulk Modulus (GPa) = 21.52037 52.60028 37.06032
# Shear Modulus (GPa) = 21.09760 30.21576 25.65668
#
# Velocity S-wave (km/s) = 3.13421 3.75084 3.45630
# Velocity P-wave (km/s) = 4.80810 6.57645 5.76053
#
# Compressibility (1/GPa) = 0.04646761
#
# Stress axis : x y z
#
# Youngs Moduli (GPa) = 102.42486 32.09670 35.13530
#
# Poissons Ratio (x) = 0.23562 0.13415
# Poissons Ratio (y) = 0.75189 0.01045
# Poissons Ratio (z) = 0.39108 0.00954
#
# Static dielectric constant tensor:
#      x y z
#    x 1.839820 0.000000 -0.000120 
#    y 0.000000 1.796760 0.000000 
#    z -0.000120 0.000000 1.796200 
# 
# From -- ./inp_files/50474.got.cif
#   From: 2010.05.17/outbox.cif.g08.bks.cpg/sg5_26_cif.got.tgz:50474.got - 2010.06.03 18:56:24.
