data_PCOD9126165
_publ_section_title
;
Structure prediction by ZEFSAII (Michael W. Deem and Ramdas Pophale) SiO2 
 PCOD9126165
Probable space group: C 2
;
_chemical_formula_sum "Si O2"
_cell_formula_units_Z 26
_cell_length_a 8.431940
_cell_length_b 16.251974
_cell_length_c 15.870504
_cell_angle_alpha 90.000000
_cell_angle_beta 144.897242
_cell_angle_gamma 90.000000
_cell_volume 1250.621529
_symmetry_space_group_name_H-M "C 2"
_symmetry_group_IT_number 5
_symmetry_cell_setting 'monoclinic'
loop_
_space_group_symop_operation_xyz
x,y,z
-x,y,-z
1/2+x,1/2+y,z
1/2-x,1/2+y,-z
loop_
_atom_site_type_symbol
_atom_site_label
_atom_site_fract_x
_atom_site_fract_y
_atom_site_fract_z
Si Si1 0.849298 0.410420 0.845790
Si Si2 0.749258 0.558416 0.674682
Si Si3 0.920286 0.188322 0.615154
Si Si4 0.802715 0.315341 0.144957
Si Si5 0.773409 0.840777 0.561973
Si Si6 0.500000 0.056574 0.500000
Si Si7 0.061689 0.460770 0.685151
O O1 0.775927 0.494488 0.763575
O O2 0.558631 0.363020 0.729282
O O3 0.041964 0.356127 0.866784
O O4 0.000000 0.424159 0.000000
O O5 0.500000 0.544838 0.500000
O O6 0.684281 0.649007 0.682347
O O7 0.005998 0.533382 0.727356
O O8 0.737068 0.249365 0.479354
O O9 0.731229 0.112226 0.558233
O O10 0.013819 0.244483 0.733410
O O11 0.761043 0.390401 0.193762
O O12 0.500000 0.280627 0.000000
O O13 0.500000 0.844845 0.500000
O O14 0.711076 0.907409 0.460625
O O15 0.647202 0.002178 0.635319
#
# Coordination Sequence:
#
# PCOD9126165 Si02
#       7
#     4   4   4   4   4   2   4
#     4  11  25  42  71 100 134 175 222 277 331 391
#     4  11  20  42  64 100 129 171 217 277 329 388
#     4  11  24  37  67  94 132 169 219 274 329 390
#     4  10  25  46  63  92 138 178 219 267 334 396
#     4  11  22  39  65  97 128 170 225 266 319 389
#     4  12  20  36  62 102 124 156 222 288 324 376
#     4  10  22  38  67  91 126 168 228 272 312 391
#
# _framework density 20.789663999999998
#
# number of rings (size 3 to 8) (size 9 to 14) (size 15 to 20)
#    0.000    1.231    3.846    1.385    4.308    0.615 
#    0.000    1.538    0.000    0.923    0.000    0.000 
#    0.000    0.000    0.000    0.000    0.000    0.000 
#
# Total GULP energy -72526.462351 kJ/mol
# GULP energy per Si atom -5578.958642 kJ/mol
# Density = 2.074235 g / cm^3
# Si number density = 20.789664 Si / 1000 Ang^3
#
#
#
# Elastic Constant Matrix: (Units=GPa)
#
#
# Indices 1 2 3 4 5 6 
#
# 1 71.6459 31.8487 30.6977 0.0009 -14.7173 0.0003
# 2 31.8487 84.5429 23.3580 0.0000 -20.7565 0.0004
# 3 30.6977 23.3580 116.5006 0.0011 -15.1709 0.0008
# 4 0.0009 0.0000 0.0011 19.5393 0.0007 -5.8956
# 5 -14.7173 -20.7565 -15.1709 0.0007 34.5394 0.0001
# 6 0.0003 0.0004 0.0008 -5.8956 0.0001 32.2028
#
#
#
# Elastic Compliance Matrix: (Units=1/GPa)
#
#
# Indices 1 2 3 4 5 6 
#
# 1 0.018379 -0.005198 -0.003381 -0.000001 0.003222 0.000000
# 2 -0.005198 0.015711 -0.000890 0.000000 0.006835 0.000000
# 3 -0.003381 -0.000890 0.009966 -0.000001 0.002402 0.000000
# 4 -0.000001 0.000000 -0.000001 0.054171 -0.000002 0.009918
# 5 0.003222 0.006835 0.002402 -0.000002 0.035488 -0.000001
# 6 0.000000 0.000000 0.000000 0.009918 -0.000001 0.032869
#
#
# Mechanical properties :
#
#
# Convention : Reuss Voigt Hill
#
# Bulk Modulus (GPa) = 39.81441 49.38869 44.60155
# Shear Modulus (GPa) = 25.78718 29.70864 27.74791
#
# Velocity S-wave (km/s) = 3.52573 3.78433 3.65731
# Velocity P-wave (km/s) = 5.98055 6.55002 6.27175
#
# Compressibility (1/GPa) = 0.02511653
#
# Stress axis : x y z
#
# Youngs Moduli (GPa) = 54.41020 63.65077 100.34379
#
# Poissons Ratio (x) = 0.33088 0.33926
# Poissons Ratio (y) = 0.28285 0.08931
# Poissons Ratio (z) = 0.18396 0.05665
#
# Static dielectric constant tensor:
#      x y z
#    x 1.819750 0.000000 -0.019790 
#    y 0.000000 1.748930 0.000000 
#    z -0.019790 0.000000 1.748670 
# 
# From -- ./inp_files/51049.got.cif
#   From: 2010.05.17/outbox.cif.g08.bks.cpg/sg5_26_cif.got.tgz:51049.got - 2010.06.03 18:56:24.
