data_PCOD9126999
_publ_section_title
;
Structure prediction by ZEFSAII (Michael W. Deem and Ramdas Pophale) SiO2 
 PCOD9126999
Probable space group: C 2
;
_chemical_formula_sum "Si O2"
_cell_formula_units_Z 32
_cell_length_a 13.927302
_cell_length_b 5.337210
_cell_length_c 18.698616
_cell_angle_alpha 90.000000
_cell_angle_beta 101.943521
_cell_angle_gamma 90.000000
_cell_volume 1359.834066
_symmetry_space_group_name_H-M "C 2"
_symmetry_group_IT_number 5
_symmetry_cell_setting 'monoclinic'
loop_
_space_group_symop_operation_xyz
x,y,z
-x,y,-z
1/2+x,1/2+y,z
1/2-x,1/2+y,-z
loop_
_atom_site_type_symbol
_atom_site_label
_atom_site_fract_x
_atom_site_fract_y
_atom_site_fract_z
Si Si1 0.346257 0.431940 0.311787
Si Si2 0.509697 0.079203 0.385871
Si Si3 0.150062 0.269698 0.567548
Si Si4 0.085169 0.186489 0.866637
Si Si5 0.472208 0.719528 0.724349
Si Si6 0.654861 0.484287 0.421080
Si Si7 0.693987 0.781687 0.014591
Si Si8 0.700277 0.189514 0.837223
O O1 0.423166 0.277210 0.370178
O O2 0.295231 0.599246 0.363481
O O3 0.419954 0.611056 0.279127
O O4 0.290696 0.261499 0.245393
O O5 0.605653 0.213585 0.429166
O O6 0.454784 0.855978 0.418178
O O7 0.529553 0.998494 0.307264
O O8 0.229574 0.485941 0.571505
O O9 0.137266 0.141413 0.489645
O O10 0.980092 0.204402 0.810540
O O11 0.096360 0.237820 0.952961
O O12 0.152379 0.416413 0.843873
O O13 0.129215 0.908479 0.858570
O O14 0.395898 0.581553 0.660031
O O15 0.767964 0.565817 0.993741
O O16 0.702314 0.722719 0.099913
#
# Coordination Sequence:
#
# PCOD9126999 Si02
#       8
#     4   4   4   4   4   4   4   4
#     4   9  19  35  58  83 111 159 201 248 308 370
#     4  10  22  43  64  82 116 154 204 252 316 372
#     4  11  27  44  60  88 118 159 205 265 318 381
#     4   9  15  27  47  79 117 160 199 248 304 366
#     4   9  19  35  58  83 111 159 201 248 308 370
#     4  11  27  44  60  88 118 159 205 265 318 381
#     4   8  14  22  40  72 118 159 189 242 306 356
#     4   9  15  27  47  79 117 160 199 248 304 366
#
# _framework density 23.532281000000001
#
# number of rings (size 3 to 8) (size 9 to 14) (size 15 to 20)
#    0.000    2.500    1.250    0.000    3.500    5.500 
#    0.000    0.000    0.000    0.000    0.000    0.000 
#    0.000    6.000    4.500    0.000    0.000    0.000 
#
# Total GULP energy -89124.509866 kJ/mol
# GULP energy per Si atom -5570.281867 kJ/mol
# Density = 2.347872 g / cm^3
# Si number density = 23.532281 Si / 1000 Ang^3
#
#
#
# Elastic Constant Matrix: (Units=GPa)
#
#
# Indices 1 2 3 4 5 6 
#
# 1 54.5395 11.1795 44.9336 0.0000 4.0878 0.0000
# 2 11.1795 82.6987 2.5088 0.0000 -4.3319 0.0000
# 3 44.9336 2.5088 137.2197 0.0000 34.1920 0.0000
# 4 0.0000 0.0000 0.0000 40.6694 0.0000 5.9835
# 5 4.0878 -4.3319 34.1920 0.0000 20.1036 0.0000
# 6 0.0000 0.0000 0.0000 5.9835 0.0000 18.0564
#
#
#
# Elastic Compliance Matrix: (Units=1/GPa)
#
#
# Indices 1 2 3 4 5 6 
#
# 1 0.028737 -0.002611 -0.013478 0.000000 0.016518 0.000000
# 2 -0.002611 0.012655 -0.000327 0.000000 0.003813 0.000000
# 3 -0.013478 -0.000327 0.019163 0.000000 -0.029922 0.000000
# 4 0.000000 0.000000 0.000000 0.025849 0.000000 -0.008566
# 5 0.016518 0.003813 -0.029922 0.000000 0.098096 0.000000
# 6 0.000000 0.000000 0.000000 -0.008566 0.000000 0.058221
#
#
# Mechanical properties :
#
#
# Convention : Reuss Voigt Hill
#
# Bulk Modulus (GPa) = 36.07065 43.52243 39.79654
# Shear Modulus (GPa) = 17.55670 30.15495 23.85582
#
# Velocity S-wave (km/s) = 2.73439 3.58359 3.18740
# Velocity P-wave (km/s) = 5.03295 5.97141 5.52215
#
# Compressibility (1/GPa) = 0.02772337
#
# Stress axis : x y z
#
# Youngs Moduli (GPa) = 34.79868 79.02228 52.18414
#
# Poissons Ratio (x) = 0.20630 0.70335
# Poissons Ratio (y) = 0.09085 0.01705
# Poissons Ratio (z) = 0.46902 0.02582
#
# Static dielectric constant tensor:
#      x y z
#    x 1.845250 0.000000 -0.011370 
#    y 0.000000 2.000920 0.000000 
#    z -0.011370 0.000000 2.047870 
# 
# From -- ./inp_files/65688.got.cif
#   From: 2010.05.17/outbox.cif.g08.bks.cpg/sg5_33_cif.got.tgz:65688.got - 2010.06.03 18:56:24.
