data_PCOD9126686
_publ_section_title
;
Structure prediction by ZEFSAII (Michael W. Deem and Ramdas Pophale) SiO2 
 PCOD9126686
Probable space group: C 2
;
_chemical_formula_sum "Si O2"
_cell_formula_units_Z 28
_cell_length_a 17.837371
_cell_length_b 6.996460
_cell_length_c 13.587742
_cell_angle_alpha 90.000000
_cell_angle_beta 141.481143
_cell_angle_gamma 90.000000
_cell_volume 1056.052944
_symmetry_space_group_name_H-M "C 2"
_symmetry_group_IT_number 5
_symmetry_cell_setting 'monoclinic'
loop_
_space_group_symop_operation_xyz
x,y,z
-x,y,-z
1/2+x,1/2+y,z
1/2-x,1/2+y,-z
loop_
_atom_site_type_symbol
_atom_site_label
_atom_site_fract_x
_atom_site_fract_y
_atom_site_fract_z
Si Si1 0.756017 0.435800 0.204705
Si Si2 0.797890 0.728479 0.648596
Si Si3 0.884030 0.883632 0.418465
Si Si4 0.180959 0.278096 0.323267
Si Si5 0.086269 0.229584 0.940173
Si Si6 0.047395 0.672544 0.934447
Si Si7 0.579228 0.649879 0.706105
O O1 0.736029 0.360087 0.295088
O O2 0.884815 0.359221 0.298747
O O3 0.694285 0.638379 0.113875
O O4 0.662698 0.303411 0.046434
O O5 0.811254 0.505760 0.692345
O O6 0.708950 0.754033 0.466527
O O7 0.658445 0.500454 0.721892
O O8 0.803851 0.734014 0.393513
O O9 0.000000 0.769176 0.500000
O O10 0.947512 0.057354 0.546621
O O11 0.052218 0.189804 0.165034
O O12 0.063341 0.763027 0.240419
O O13 0.079764 0.459363 0.935821
O O14 0.097683 0.157870 0.840576
O O15 0.000000 0.673899 0.000000
#
# Coordination Sequence:
#
# PCOD9126686 Si02
#       7
#     4   4   4   4   4   4   4
#     4  11  23  45  68 103 155 200 247 317 396 459
#     4  10  22  41  70 101 150 192 250 325 384 452
#     4   8  19  40  74 103 145 194 246 314 397 441
#     4  11  21  43  75 115 139 197 268 325 379 465
#     4  11  25  40  71 111 141 200 264 305 381 476
#     4   9  23  42  62  99 146 188 248 317 379 448
#     4   9  21  41  72 105 144 206 247 315 392 459
#
# _framework density 26.513821
#
# number of rings (size 3 to 8) (size 9 to 14) (size 15 to 20)
#    0.857    1.143    1.429    0.857    8.000    1.714 
#    5.143    0.000    0.000    0.000    0.000    0.000 
#    0.000    0.000    0.000    0.000    0.000    0.000 
#
# Total GULP energy -78147.627872 kJ/mol
# GULP energy per Si atom -5581.973419 kJ/mol
# Density = 2.645347 g / cm^3
# Si number density = 26.513821 Si / 1000 Ang^3
#
#
#
# Elastic Constant Matrix: (Units=GPa)
#
#
# Indices 1 2 3 4 5 6 
#
# 1 129.7990 25.1219 34.0150 0.0000 -14.6990 0.0000
# 2 25.1219 140.4448 14.6167 0.0000 3.5014 0.0000
# 3 34.0150 14.6167 119.9984 0.0000 -13.5804 0.0000
# 4 0.0000 0.0000 0.0000 39.5409 0.0000 9.3043
# 5 -14.6990 3.5014 -13.5804 0.0000 31.0503 0.0000
# 6 0.0000 0.0000 0.0000 9.3043 0.0000 25.1291
#
#
#
# Elastic Compliance Matrix: (Units=1/GPa)
#
#
# Indices 1 2 3 4 5 6 
#
# 1 0.008899 -0.001478 -0.001943 0.000000 0.003530 0.000000
# 2 -0.001478 0.007504 -0.000705 0.000000 -0.001854 0.000000
# 3 -0.001943 -0.000705 0.009337 0.000000 0.003243 0.000000
# 4 0.000000 0.000000 0.000000 0.027704 0.000000 -0.010258
# 5 0.003530 -0.001854 0.003243 0.000000 0.035504 0.000000
# 6 0.000000 0.000000 0.000000 -0.010258 0.000000 0.043592
#
#
# Mechanical properties :
#
#
# Convention : Reuss Voigt Hill
#
# Bulk Modulus (GPa) = 57.17909 59.74993 58.46451
# Shear Modulus (GPa) = 34.10119 40.24330 37.17224
#
# Velocity S-wave (km/s) = 3.59021 3.90015 3.74838
# Velocity P-wave (km/s) = 6.22886 6.54720 6.39002
#
# Compressibility (1/GPa) = 0.01748891
#
# Stress axis : x y z
#
# Youngs Moduli (GPa) = 112.37073 133.25980 107.09856
#
# Poissons Ratio (x) = 0.19690 0.20811
# Poissons Ratio (y) = 0.16604 0.07551
# Poissons Ratio (z) = 0.21835 0.09395
#
# Static dielectric constant tensor:
#      x y z
#    x 2.330310 0.000000 0.192150 
#    y 0.000000 2.170020 0.000000 
#    z 0.192150 0.000000 2.205020 
# 
# From -- ./inp_files/55759.got.cif
#   From: 2010.05.17/outbox.cif.g08.bks.cpg/sg5_28_cif.got.tgz:55759.got - 2010.06.03 18:56:24.
