data_PCOD9126482
_publ_section_title
;
Structure prediction by ZEFSAII (Michael W. Deem and Ramdas Pophale) SiO2 
 PCOD9126482
Probable space group: C 2
;
_chemical_formula_sum "Si O2"
_cell_formula_units_Z 28
_cell_length_a 14.310053
_cell_length_b 11.638019
_cell_length_c 8.441403
_cell_angle_alpha 90.000000
_cell_angle_beta 57.855206
_cell_angle_gamma 90.000000
_cell_volume 1190.330839
_symmetry_space_group_name_H-M "C 2"
_symmetry_group_IT_number 5
_symmetry_cell_setting 'monoclinic'
loop_
_space_group_symop_operation_xyz
x,y,z
-x,y,-z
1/2+x,1/2+y,z
1/2-x,1/2+y,-z
loop_
_atom_site_type_symbol
_atom_site_label
_atom_site_fract_x
_atom_site_fract_y
_atom_site_fract_z
Si Si1 0.000000 0.405100 0.000000
Si Si2 0.610621 0.303451 0.980265
Si Si3 0.047720 0.985114 0.295631
Si Si4 0.240002 0.696659 0.154085
Si Si5 0.724875 0.967683 0.376598
Si Si6 0.000000 0.365171 0.500000
Si Si7 0.469959 0.714908 0.795257
Si Si8 0.260215 0.952257 0.264547
O O1 0.969172 0.315365 0.167160
O O2 0.884903 0.471078 0.085933
O O3 0.695731 0.372169 0.784128
O O4 0.500000 0.250947 0.000000
O O5 0.558731 0.402213 0.139295
O O6 0.671352 0.220231 0.053401
O O7 0.978057 0.096545 0.306735
O O8 0.000000 0.932608 0.500000
O O9 0.171331 0.020045 0.238747
O O10 0.220837 0.585616 0.279245
O O11 0.231435 0.817888 0.255564
O O12 0.367454 0.683123 0.993785
O O13 0.595538 0.935245 0.494786
O O14 0.753181 0.977591 0.537517
O O15 0.067700 0.281365 0.325386
#
# Coordination Sequence:
#
# PCOD9126482 Si02
#       8
#     2   4   4   4   4   2   4   4
#     4  10  22  40  68  96 136 180 226 292 352 406
#     4  11  24  44  72 102 143 186 241 297 352 432
#     4  11  23  39  67 104 137 180 236 292 351 419
#     4  10  24  46  68 102 147 184 235 295 363 425
#     4  12  24  46  73 104 141 195 238 292 368 422
#     4  12  24  42  72 104 146 180 240 294 352 424
#     4  11  21  40  70 100 135 177 230 294 342 412
#     4  10  24  43  68 101 142 182 240 299 347 429
#
# _framework density 23.522873000000001
#
# number of rings (size 3 to 8) (size 9 to 14) (size 15 to 20)
#    0.000    1.143    5.000    0.857    1.000    3.429 
#    7.714    0.000    1.571    0.000    0.000    0.000 
#    0.000    0.000    0.000    0.000    0.000    0.000 
#
# Total GULP energy -78063.851290 kJ/mol
# GULP energy per Si atom -5575.989378 kJ/mol
# Density = 2.346933 g / cm^3
# Si number density = 23.522873 Si / 1000 Ang^3
#
#
#
# Elastic Constant Matrix: (Units=GPa)
#
#
# Indices 1 2 3 4 5 6 
#
# 1 99.1884 22.2414 41.8194 0.0000 -12.2523 0.0000
# 2 22.2414 76.0367 36.7782 0.0000 2.7734 0.0000
# 3 41.8194 36.7782 95.1629 0.0000 1.4533 0.0000
# 4 0.0000 0.0000 0.0000 42.5676 0.0000 7.4133
# 5 -12.2523 2.7734 1.4533 0.0000 40.6320 0.0000
# 6 0.0000 0.0000 0.0000 7.4133 0.0000 -3.9659
#
#
#
# Elastic Compliance Matrix: (Units=1/GPa)
#
#
# Indices 1 2 3 4 5 6 
#
# 1 0.013162 -0.001447 -0.005290 0.000000 0.004257 0.000000
# 2 -0.001447 0.016366 -0.005669 0.000000 -0.001351 0.000000
# 3 -0.005290 -0.005669 0.015051 0.000000 -0.001747 0.000000
# 4 0.000000 0.000000 0.000000 0.017723 0.000000 0.033128
# 5 0.004257 -0.001351 -0.001747 0.000000 0.026049 0.000000
# 6 0.000000 0.000000 0.000000 0.033128 0.000000 -0.190224
#
#
# Mechanical properties :
#
#
# Convention : Reuss Voigt Hill
#
# Bulk Modulus (GPa) = 50.58698 52.45178 51.51938
# Shear Modulus (GPa) = -70.94939 27.15000 -21.89969
#
# Velocity S-wave (km/s) = -5.49794 3.40103 -3.05453
# Velocity P-wave (km/s) = 4.33024 6.14567 3.08369
#
# Compressibility (1/GPa) = 0.01976793
#
# Stress axis : x y z
#
# Youngs Moduli (GPa) = 75.97350 61.10296 66.44276
#
# Poissons Ratio (x) = 0.08839 0.35150
# Poissons Ratio (y) = 0.10990 0.37664
# Poissons Ratio (z) = 0.40191 0.34637
#
# Static dielectric constant tensor:
#      x y z
#    x 1.984450 0.000000 0.067950 
#    y 0.000000 1.925570 0.000000 
#    z 0.067950 0.000000 2.148220 
# 
# From -- ./inp_files/23557.got.cif
#   From: 2010.05.17/outbox.cif.g08.bks.cpg/sg5_12_cif.got.tgz:23557.got - 2010.06.03 18:56:24.
