data_PCOD9126328
_publ_section_title
;
Structure prediction by ZEFSAII (Michael W. Deem and Ramdas Pophale) SiO2 
 PCOD9126328
Probable space group: C 2
;
_chemical_formula_sum "Si O2"
_cell_formula_units_Z 26
_cell_length_a 9.483509
_cell_length_b 8.741473
_cell_length_c 17.985868
_cell_angle_alpha 90.000000
_cell_angle_beta 50.657332
_cell_angle_gamma 90.000000
_cell_volume 1153.111915
_symmetry_space_group_name_H-M "C 2"
_symmetry_group_IT_number 5
_symmetry_cell_setting 'monoclinic'
loop_
_space_group_symop_operation_xyz
x,y,z
-x,y,-z
1/2+x,1/2+y,z
1/2-x,1/2+y,-z
loop_
_atom_site_type_symbol
_atom_site_label
_atom_site_fract_x
_atom_site_fract_y
_atom_site_fract_z
Si Si1 0.370350 0.172240 0.209801
Si Si2 0.981831 0.160649 0.916032
Si Si3 0.751712 0.018509 0.286699
Si Si4 0.086564 0.663772 0.641739
Si Si5 0.000000 0.130578 0.500000
Si Si6 0.018076 0.003950 0.327665
Si Si7 0.124299 0.495610 0.030725
O O1 0.304270 0.344290 0.247501
O O2 0.413675 0.098952 0.275165
O O3 0.547470 0.139766 0.102728
O O4 0.199556 0.080242 0.234295
O O5 0.910377 0.330998 0.919856
O O6 0.160967 0.119138 0.809114
O O7 0.000000 0.153026 0.000000
O O8 0.832550 0.032951 0.944876
O O9 0.851124 0.056288 0.331244
O O10 0.534825 0.047296 0.365465
O O11 0.299290 0.704926 0.557100
O O12 0.980344 0.822501 0.676584
O O13 0.989510 0.044258 0.582551
O O14 0.000000 0.490675 0.000000
#
# Coordination Sequence:
#
# PCOD9126328 Si02
#       7
#     4   4   4   4   2   4   4
#     4  10  22  40  60  88 124 160 202 251 301 356
#     4  11  24  39  59  91 126 164 209 253 297 351
#     4  11  23  39  63  91 121 161 206 249 301 360
#     4  10  23  42  63  89 122 156 197 251 304 365
#     4  10  24  42  64  92 122 154 196 250 310 366
#     4  10  23  41  63  90 121 156 200 249 303 363
#     4  11  23  39  60  88 126 165 207 253 297 353
#
# _framework density 22.547681999999998
#
# number of rings (size 3 to 8) (size 9 to 14) (size 15 to 20)
#    0.000    1.538    0.000    3.692    0.000   19.077 
#    0.000    0.000    0.000    0.923    0.000    0.000 
#    0.000    0.000    0.000    0.000    0.000    0.000 
#
# Total GULP energy -72525.243495 kJ/mol
# GULP energy per Si atom -5578.864884 kJ/mol
# Density = 2.249636 g / cm^3
# Si number density = 22.547682 Si / 1000 Ang^3
#
#
#
# Elastic Constant Matrix: (Units=GPa)
#
#
# Indices 1 2 3 4 5 6 
#
# 1 116.0111 30.7245 28.6720 0.0000 -15.6544 0.0000
# 2 30.7245 70.1076 15.1921 0.0000 -15.1105 0.0000
# 3 28.6720 15.1921 76.3658 0.0000 -13.0504 0.0000
# 4 0.0000 0.0000 0.0000 20.2805 0.0000 -5.2997
# 5 -15.6544 -15.1105 -13.0504 0.0000 41.4212 0.0000
# 6 0.0000 0.0000 0.0000 -5.2997 0.0000 21.9728
#
#
#
# Elastic Compliance Matrix: (Units=1/GPa)
#
#
# Indices 1 2 3 4 5 6 
#
# 1 0.010536 -0.003605 -0.002941 0.000000 0.001740 0.000000
# 2 -0.003605 0.017084 -0.001282 0.000000 0.004466 0.000000
# 3 -0.002941 -0.001282 0.014992 0.000000 0.003144 0.000000
# 4 0.000000 0.000000 0.000000 0.052625 0.000000 0.012693
# 5 0.001740 0.004466 0.003144 0.000000 0.027420 0.000000
# 6 0.000000 0.000000 0.000000 0.012693 0.000000 0.048572
#
#
# Mechanical properties :
#
#
# Convention : Reuss Voigt Hill
#
# Bulk Modulus (GPa) = 37.09859 45.74017 41.41938
# Shear Modulus (GPa) = 25.52696 29.26129 27.39412
#
# Velocity S-wave (km/s) = 3.36837 3.60634 3.48938
# Velocity P-wave (km/s) = 5.62290 6.13767 5.88591
#
# Compressibility (1/GPa) = 0.02695520
#
# Stress axis : x y z
#
# Youngs Moduli (GPa) = 94.90890 58.53407 66.70430
#
# Poissons Ratio (x) = 0.21102 0.19620
# Poissons Ratio (y) = 0.34216 0.08551
# Poissons Ratio (z) = 0.27916 0.07504
#
# Static dielectric constant tensor:
#      x y z
#    x 1.868520 0.000000 -0.013690 
#    y 0.000000 1.826990 0.000000 
#    z -0.013690 0.000000 1.862910 
# 
# From -- ./inp_files/64312.got.cif
#   From: 2010.05.17/outbox.cif.g08.bks.cpg/sg5_33_cif.got.tgz:64312.got - 2010.06.03 18:56:24.
