data_PCOD9126317
_publ_section_title
;
Structure prediction by ZEFSAII (Michael W. Deem and Ramdas Pophale) SiO2 
 PCOD9126317
Probable space group: C 2
;
_chemical_formula_sum "Si O2"
_cell_formula_units_Z 26
_cell_length_a 14.204000
_cell_length_b 14.769831
_cell_length_c 8.388899
_cell_angle_alpha 90.000000
_cell_angle_beta 42.471237
_cell_angle_gamma 90.000000
_cell_volume 1188.328340
_symmetry_space_group_name_H-M "C 2"
_symmetry_group_IT_number 5
_symmetry_cell_setting 'monoclinic'
loop_
_space_group_symop_operation_xyz
x,y,z
-x,y,-z
1/2+x,1/2+y,z
1/2-x,1/2+y,-z
loop_
_atom_site_type_symbol
_atom_site_label
_atom_site_fract_x
_atom_site_fract_y
_atom_site_fract_z
Si Si1 0.000000 0.907940 0.000000
Si Si2 0.217454 0.208864 0.462516
Si Si3 0.272334 0.864811 0.300543
Si Si4 0.078985 0.296387 0.184205
Si Si5 0.765905 0.518238 0.549178
Si Si6 0.368086 0.247684 0.969251
Si Si7 0.500000 0.289158 0.500000
Si Si8 0.500000 0.961543 0.500000
O O1 0.875735 0.969259 0.219680
O O2 0.928828 0.843251 0.956512
O O3 0.252256 0.298025 0.519974
O O4 0.331009 0.197004 0.179771
O O5 0.057954 0.235198 0.615430
O O6 0.228259 0.120242 0.554034
O O7 0.307943 0.960692 0.337277
O O8 0.130304 0.854631 0.376285
O O9 0.387002 0.822493 0.039644
O O10 0.215728 0.250086 0.081849
O O11 0.067230 0.391693 0.290149
O O12 0.882195 0.511684 0.542999
O O13 0.466474 0.226914 0.696020
#
# Coordination Sequence:
#
# PCOD9126317 Si02
#       8
#     2   4   4   4   4   4   2   2
#     4  12  20  44  72 104 146 204 240 316 362 444
#     4  12  24  44  71 108 143 200 247 311 365 442
#     4  11  23  43  67 103 147 193 241 303 372 441
#     4  11  21  42  73 100 143 200 244 295 368 447
#     4  12  27  43  76 109 148 198 251 310 373 440
#     4  11  20  42  73 103 144 191 249 302 369 434
#     4  10  22  39  71 102 136 198 240 293 371 438
#     4  12  22  49  75 102 146 204 242 305 379 438
#
# _framework density 21.879474999999999
#
# number of rings (size 3 to 8) (size 9 to 14) (size 15 to 20)
#    0.000    0.615    7.692    0.462    2.154    0.615 
#    2.769    7.692    0.000    0.000    0.000    0.000 
#    0.000    0.000    0.000    0.000    0.000    0.000 
#
# Total GULP energy -72536.152457 kJ/mol
# GULP energy per Si atom -5579.704035 kJ/mol
# Density = 2.182968 g / cm^3
# Si number density = 21.879475 Si / 1000 Ang^3
#
#
#
# Elastic Constant Matrix: (Units=GPa)
#
#
# Indices 1 2 3 4 5 6 
#
# 1 112.2397 21.9639 25.2032 0.0000 -8.5376 0.0000
# 2 21.9639 84.5485 14.2769 0.0000 -3.9022 0.0000
# 3 25.2032 14.2769 131.5857 0.0000 11.9476 0.0000
# 4 0.0000 0.0000 0.0000 20.4628 0.0000 8.2702
# 5 -8.5376 -3.9022 11.9476 0.0000 30.1739 0.0000
# 6 0.0000 0.0000 0.0000 8.2702 0.0000 -6.8088
#
#
#
# Elastic Compliance Matrix: (Units=1/GPa)
#
#
# Indices 1 2 3 4 5 6 
#
# 1 0.010026 -0.002113 -0.001996 0.000000 0.003354 0.000000
# 2 -0.002113 0.012630 -0.001099 0.000000 0.001471 0.000000
# 3 -0.001996 -0.001099 0.008470 0.000000 -0.004060 0.000000
# 4 0.000000 0.000000 0.000000 0.032778 0.000000 0.039814
# 5 0.003354 0.001471 -0.004060 0.000000 0.035888 0.000000
# 6 0.000000 0.000000 0.000000 0.039814 0.000000 -0.098510
#
#
# Mechanical properties :
#
#
# Convention : Reuss Voigt Hill
#
# Bulk Modulus (GPa) = 48.28452 50.14019 49.21236
# Shear Modulus (GPa) = 268.80371 26.56090 147.68231
#
# Velocity S-wave (km/s) = 11.09609 3.48798 8.22464
# Velocity P-wave (km/s) = 13.64847 6.26000 10.61763
#
# Compressibility (1/GPa) = 0.02071057
#
# Stress axis : x y z
#
# Youngs Moduli (GPa) = 99.73882 79.17723 118.06677
#
# Poissons Ratio (x) = 0.16729 0.23562
# Poissons Ratio (y) = 0.21073 0.12978
# Poissons Ratio (z) = 0.19904 0.08703
#
# Static dielectric constant tensor:
#      x y z
#    x 1.876210 0.000000 0.010540 
#    y 0.000000 1.751510 0.000000 
#    z 0.010540 0.000000 1.888430 
# 
# From -- ./inp_files/24549.got.cif
#   From: 2010.05.17/outbox.cif.g08.bks.cpg/sg5_13_cif.got.tgz:24549.got - 2010.06.03 18:56:24.
