data_PCOD9126233
_publ_section_title
;
Structure prediction by ZEFSAII (Michael W. Deem and Ramdas Pophale) SiO2 
 PCOD9126233
Probable space group: C 2
;
_chemical_formula_sum "Si O2"
_cell_formula_units_Z 18
_cell_length_a 9.551924
_cell_length_b 8.904572
_cell_length_c 10.861613
_cell_angle_alpha 90.000000
_cell_angle_beta 60.024810
_cell_angle_gamma 90.000000
_cell_volume 800.271563
_symmetry_space_group_name_H-M "C 2"
_symmetry_group_IT_number 5
_symmetry_cell_setting 'monoclinic'
loop_
_space_group_symop_operation_xyz
x,y,z
-x,y,-z
1/2+x,1/2+y,z
1/2-x,1/2+y,-z
loop_
_atom_site_type_symbol
_atom_site_label
_atom_site_fract_x
_atom_site_fract_y
_atom_site_fract_z
Si Si1 0.357655 0.977950 0.292273
Si Si2 0.304999 0.309282 0.425343
Si Si3 0.340270 0.836447 0.755326
Si Si4 0.100582 0.007419 0.218980
Si Si5 0.500000 0.412217 0.000000
O O1 0.268031 0.850073 0.411751
O O2 0.548076 0.949576 0.218539
O O3 0.318907 0.136256 0.377341
O O4 0.279427 0.972254 0.191481
O O5 0.187857 0.382834 0.373114
O O6 0.476871 0.390564 0.334187
O O7 0.426080 0.675743 0.722379
O O8 0.158758 0.821583 0.888445
O O9 0.062951 0.002807 0.090811
#
# Coordination Sequence:
#
# PCOD9126233 Si02
#       5
#     4   4   4   4   2
#     4  11  22  38  64  92 122 159 197 242 301 361
#     4  10  22  39  60  93 127 153 194 247 299 361
#     4  10  23  41  61  87 121 160 201 249 297 350
#     4  10  23  40  61  88 121 158 201 247 297 353
#     4  10  24  42  60  86 122 158 206 254 292 344
#
# _framework density 22.492367000000002
#
# number of rings (size 3 to 8) (size 9 to 14) (size 15 to 20)
#    0.000    1.778    0.000    2.667    0.000   18.667 
#    0.000    0.000    0.000    1.333    0.000    0.000 
#    0.000    0.000    0.000    0.000    0.000    0.000 
#
# Total GULP energy -50240.358724 kJ/mol
# GULP energy per Si atom -5582.262080 kJ/mol
# Density = 2.244117 g / cm^3
# Si number density = 22.492367 Si / 1000 Ang^3
#
#
#
# Elastic Constant Matrix: (Units=GPa)
#
#
# Indices 1 2 3 4 5 6 
#
# 1 194.5250 47.1336 40.5439 0.0000 12.9997 0.0000
# 2 47.1336 63.0117 0.7107 0.0000 -6.4327 0.0000
# 3 40.5439 0.7107 43.0265 0.0000 7.4070 0.0000
# 4 0.0000 0.0000 0.0000 13.9170 0.0000 1.9367
# 5 12.9997 -6.4327 7.4070 0.0000 38.9024 0.0000
# 6 0.0000 0.0000 0.0000 1.9367 0.0000 27.8524
#
#
#
# Elastic Compliance Matrix: (Units=1/GPa)
#
#
# Indices 1 2 3 4 5 6 
#
# 1 0.008413 -0.006462 -0.007395 0.000000 -0.002472 0.000000
# 2 -0.006462 0.021129 0.004928 0.000000 0.004715 0.000000
# 3 -0.007395 0.004928 0.030565 0.000000 -0.002533 0.000000
# 4 0.000000 0.000000 0.000000 0.072556 0.000000 -0.005045
# 5 -0.002472 0.004715 -0.002533 0.000000 0.027793 0.000000
# 6 0.000000 0.000000 0.000000 -0.005045 0.000000 0.036254
#
#
# Mechanical properties :
#
#
# Convention : Reuss Voigt Hill
#
# Bulk Modulus (GPa) = 23.66888 53.03774 38.35331
# Shear Modulus (GPa) = 21.86725 30.27936 26.07330
#
# Velocity S-wave (km/s) = 3.12141 3.67305 3.40841
# Velocity P-wave (km/s) = 4.85148 6.45135 5.70775
#
# Compressibility (1/GPa) = 0.04224956
#
# Stress axis : x y z
#
# Youngs Moduli (GPa) = 118.86323 47.32726 32.71734
#
# Poissons Ratio (x) = 0.30583 0.24196
# Poissons Ratio (y) = 0.76809 -0.16125
# Poissons Ratio (z) = 0.87904 -0.23325
#
# Static dielectric constant tensor:
#      x y z
#    x 1.865890 0.000000 -0.000420 
#    y 0.000000 1.810280 0.000000 
#    z -0.000420 0.000000 1.875540 
# 
# From -- ./inp_files/34608.got.cif
#   From: 2010.05.17/outbox.cif.g08.bks.cpg/sg5_18_cif.got.tgz:34608.got - 2010.06.03 18:56:24.
