data_PCOD9126413
_publ_section_title
;
Structure prediction by ZEFSAII (Michael W. Deem and Ramdas Pophale) SiO2 
 PCOD9126413
Probable space group: C 2
;
_chemical_formula_sum "Si O2"
_cell_formula_units_Z 26
_cell_length_a 14.273236
_cell_length_b 12.676379
_cell_length_c 13.310257
_cell_angle_alpha 90.000000
_cell_angle_beta 146.814356
_cell_angle_gamma 90.000000
_cell_volume 1318.171871
_symmetry_space_group_name_H-M "C 2"
_symmetry_group_IT_number 5
_symmetry_cell_setting 'monoclinic'
loop_
_space_group_symop_operation_xyz
x,y,z
-x,y,-z
1/2+x,1/2+y,z
1/2-x,1/2+y,-z
loop_
_atom_site_type_symbol
_atom_site_label
_atom_site_fract_x
_atom_site_fract_y
_atom_site_fract_z
Si Si1 0.817580 0.358950 0.394060
Si Si2 0.767345 0.119292 0.369959
Si Si3 0.869023 0.347176 0.976764
Si Si4 0.968996 0.483957 0.704593
Si Si5 0.500000 0.460652 0.000000
Si Si6 0.855825 0.047292 0.240743
Si Si7 0.703153 0.607176 0.038428
O O1 0.783988 0.242407 0.406017
O O2 0.839788 0.438375 0.506748
O O3 0.661403 0.392826 0.182567
O O4 0.000000 0.356028 0.500000
O O5 0.753311 0.105074 0.237714
O O6 0.944157 0.061127 0.557761
O O7 0.618159 0.064355 0.296735
O O8 0.956064 0.390259 0.157934
O O9 0.711307 0.427484 0.819224
O O10 0.810006 0.226903 0.936682
O O11 0.000000 0.355582 0.000000
O O12 0.118195 0.547563 0.781530
O O13 0.560114 0.536596 0.964010
O O14 0.819005 0.099692 0.101000
#
# Coordination Sequence:
#
# PCOD9126413 Si02
#       7
#     4   4   4   4   2   4   4
#     4  12  25  46  71 100 136 182 227 278 346 397
#     4  11  23  43  67  98 136 176 224 287 332 400
#     4  11  22  41  69  97 135 180 225 275 338 397
#     4  11  25  43  68 100 135 178 225 283 332 411
#     4  12  26  44  70 102 136 180 230 286 328 416
#     4  10  22  40  65  95 132 174 229 273 333 400
#     4  11  24  41  66  99 138 178 227 279 338 395
#
# _framework density 19.724284999999998
#
# number of rings (size 3 to 8) (size 9 to 14) (size 15 to 20)
#    0.000    0.923    5.385    1.846    0.000    6.154 
#    0.000    3.077    0.000    0.000    0.000    0.000 
#    0.000    0.000    0.000    0.000    0.000    0.000 
#
# Total GULP energy -72654.639439 kJ/mol
# GULP energy per Si atom -5588.818418 kJ/mol
# Density = 1.967939 g / cm^3
# Si number density = 19.724285 Si / 1000 Ang^3
#
#
#
# Elastic Constant Matrix: (Units=GPa)
#
#
# Indices 1 2 3 4 5 6 
#
# 1 68.6332 31.7223 13.3292 0.0002 5.7619 0.0001
# 2 31.7223 118.9459 47.4454 0.0001 11.1741 0.0001
# 3 13.3292 47.4454 90.6705 0.0002 -5.3717 0.0001
# 4 0.0002 0.0001 0.0002 14.6339 0.0002 -0.2873
# 5 5.7619 11.1741 -5.3717 0.0002 29.1593 0.0001
# 6 0.0001 0.0001 0.0001 -0.2873 0.0001 24.8905
#
#
#
# Elastic Compliance Matrix: (Units=1/GPa)
#
#
# Indices 1 2 3 4 5 6 
#
# 1 0.016706 -0.004126 -0.000403 0.000000 -0.001794 0.000000
# 2 -0.004126 0.012469 -0.006221 0.000000 -0.005109 0.000000
# 3 -0.000403 -0.006221 0.014649 0.000000 0.005162 0.000000
# 4 0.000000 0.000000 0.000000 0.068350 0.000000 0.000789
# 5 -0.001794 -0.005109 0.005162 0.000000 0.037558 0.000000
# 6 0.000000 0.000000 0.000000 0.000789 0.000000 0.040185
#
#
# Mechanical properties :
#
#
# Convention : Reuss Voigt Hill
#
# Bulk Modulus (GPa) = 44.79422 51.47147 48.13284
# Shear Modulus (GPa) = 22.84581 26.12024 24.48303
#
# Velocity S-wave (km/s) = 3.40701 3.64300 3.52698
# Velocity P-wave (km/s) = 6.18356 6.62173 6.40640
#
# Compressibility (1/GPa) = 0.02232431
#
# Stress axis : x y z
#
# Youngs Moduli (GPa) = 59.85796 80.19970 68.26323
#
# Poissons Ratio (x) = 0.33091 0.02752
# Poissons Ratio (y) = 0.24698 0.42465
# Poissons Ratio (z) = 0.02413 0.49890
#
# Static dielectric constant tensor:
#      x y z
#    x 1.694230 0.000000 0.006020 
#    y 0.000000 1.653670 0.000000 
#    z 0.006020 0.000000 1.728140 
# 
# From -- ./inp_files/54641.got.cif
#   From: 2010.05.17/outbox.cif.g08.bks.cpg/sg5_28_cif.got.tgz:54641.got - 2010.06.03 18:56:24.
