data_PCOD9126250
_publ_section_title
;
Structure prediction by ZEFSAII (Michael W. Deem and Ramdas Pophale) SiO2 
 PCOD9126250
Probable space group: C 2
;
_chemical_formula_sum "Si O2"
_cell_formula_units_Z 28
_cell_length_a 10.004207
_cell_length_b 25.729069
_cell_length_c 9.985895
_cell_angle_alpha 90.000000
_cell_angle_beta 31.635646
_cell_angle_gamma 90.000000
_cell_volume 1348.193493
_symmetry_space_group_name_H-M "C 2"
_symmetry_group_IT_number 5
_symmetry_cell_setting 'monoclinic'
loop_
_space_group_symop_operation_xyz
x,y,z
-x,y,-z
1/2+x,1/2+y,z
1/2-x,1/2+y,-z
loop_
_atom_site_type_symbol
_atom_site_label
_atom_site_fract_x
_atom_site_fract_y
_atom_site_fract_z
Si Si1 0.905236 0.242160 0.233603
Si Si2 0.016661 0.083088 0.343169
Si Si3 0.207152 0.687968 0.933514
Si Si4 0.100978 0.436490 0.557130
Si Si5 0.920511 0.639535 0.425021
Si Si6 0.714655 0.858341 0.698542
Si Si7 0.104595 0.003046 0.052386
O O1 0.738172 0.191078 0.400275
O O2 0.773324 0.297822 0.356080
O O3 0.121737 0.235606 0.162301
O O4 0.000000 0.238994 0.000000
O O5 0.150576 0.138618 0.251980
O O6 0.000000 0.055718 0.500000
O O7 0.746398 0.097740 0.510693
O O8 0.152382 0.047852 0.118709
O O9 0.000000 0.703750 0.000000
O O10 0.116582 0.662569 0.151122
O O11 0.136058 0.393342 0.640265
O O12 0.370933 0.466366 0.303643
O O13 0.000000 0.415548 0.500000
O O14 0.869448 0.473745 0.800976
O O15 0.000000 0.616816 0.500000
O O16 0.000000 0.873543 0.500000
O O17 0.500000 0.862569 0.000000
O O18 0.000000 0.024548 0.000000
#
# Coordination Sequence:
#
# PCOD9126250 Si02
#       7
#     4   4   4   4   4   4   4
#     4  10  22  39  62  94 125 170 218 264 317 386
#     4  11  25  39  59  94 127 167 217 274 322 380
#     4  11  23  41  59  91 133 169 214 270 323 375
#     4  10  23  47  67  98 131 166 214 271 328 392
#     4  11  22  38  64  86 127 174 215 260 319 387
#     4  11  24  43  71 100 131 168 217 270 326 391
#     4  10  24  42  69  95 129 170 218 267 324 394
#
# _framework density 20.768533000000001
#
# number of rings (size 3 to 8) (size 9 to 14) (size 15 to 20)
#    0.000    1.429    2.857    1.286    6.000    2.286 
#    2.571    0.714    0.000    0.000    0.000    0.000 
#    0.000    0.000    0.000    0.000    0.000    0.000 
#
# Total GULP energy -78173.626172 kJ/mol
# GULP energy per Si atom -5583.830441 kJ/mol
# Density = 2.072126 g / cm^3
# Si number density = 20.768533 Si / 1000 Ang^3
#
#
#
# Elastic Constant Matrix: (Units=GPa)
#
#
# Indices 1 2 3 4 5 6 
#
# 1 157.4383 46.0214 33.6862 0.0000 9.4726 0.0000
# 2 46.0214 46.3030 15.9366 0.0000 18.6673 0.0000
# 3 33.6862 15.9366 88.8298 0.0000 9.0466 0.0000
# 4 0.0000 0.0000 0.0000 7.7926 0.0000 3.3226
# 5 9.4726 18.6673 9.0466 0.0000 34.5151 0.0000
# 6 0.0000 0.0000 0.0000 3.3226 0.0000 23.2501
#
#
#
# Elastic Compliance Matrix: (Units=1/GPa)
#
#
# Indices 1 2 3 4 5 6 
#
# 1 0.009577 -0.010159 -0.002159 0.000000 0.003432 0.000000
# 2 -0.010159 0.039516 -0.001381 0.000000 -0.018222 0.000000
# 3 -0.002159 -0.001381 0.012522 0.000000 -0.001943 0.000000
# 4 0.000000 0.000000 0.000000 0.136653 0.000000 -0.019529
# 5 0.003432 -0.018222 -0.001943 0.000000 0.038395 0.000000
# 6 0.000000 0.000000 0.000000 -0.019529 0.000000 0.045801
#
#
# Mechanical properties :
#
#
# Convention : Reuss Voigt Hill
#
# Bulk Modulus (GPa) = 29.22566 53.76218 41.49392
# Shear Modulus (GPa) = 15.56337 26.24002 20.90169
#
# Velocity S-wave (km/s) = 2.74044 3.55836 3.17584
# Velocity P-wave (km/s) = 4.91080 6.54409 5.78537
#
# Compressibility (1/GPa) = 0.03421651
#
# Stress axis : x y z
#
# Youngs Moduli (GPa) = 104.41976 25.30638 79.86148
#
# Poissons Ratio (x) = 0.25709 0.17239
# Poissons Ratio (y) = 1.06082 0.11029
# Poissons Ratio (z) = 0.22540 0.03495
#
# Static dielectric constant tensor:
#      x y z
#    x 1.716730 0.000000 -0.078200 
#    y 0.000000 1.712930 0.000000 
#    z -0.078200 0.000000 1.777980 
# 
# From -- ./inp_files/3884.got.cif
#   From: 2010.05.17/outbox.cif.g08.bks.cpg/sg5_2_cif.got.tgz:3884.got - 2010.06.03 18:56:24.
