data_PCOD9126137
_publ_section_title
;
Structure prediction by ZEFSAII (Michael W. Deem and Ramdas Pophale) SiO2 
 PCOD9126137
Probable space group: C 2
;
_chemical_formula_sum "Si O2"
_cell_formula_units_Z 26
_cell_length_a 5.054117
_cell_length_b 13.572810
_cell_length_c 21.480702
_cell_angle_alpha 90.000000
_cell_angle_beta 56.587797
_cell_angle_gamma 90.000000
_cell_volume 1230.013467
_symmetry_space_group_name_H-M "C 2"
_symmetry_group_IT_number 5
_symmetry_cell_setting 'monoclinic'
loop_
_space_group_symop_operation_xyz
x,y,z
-x,y,-z
1/2+x,1/2+y,z
1/2-x,1/2+y,-z
loop_
_atom_site_type_symbol
_atom_site_label
_atom_site_fract_x
_atom_site_fract_y
_atom_site_fract_z
Si Si1 0.810256 0.447260 0.917525
Si Si2 0.483344 0.542643 0.849961
Si Si3 0.500000 0.524763 0.500000
Si Si4 0.629181 0.724122 0.052956
Si Si5 0.154191 0.072295 0.684950
Si Si6 0.166651 0.166840 0.381369
Si Si7 0.941124 0.396047 0.581527
O O1 0.697876 0.467066 0.861676
O O2 0.901760 0.334152 0.916864
O O3 0.115063 0.510055 0.897831
O O4 0.500000 0.469499 0.000000
O O5 0.523359 0.644699 0.881801
O O6 0.579069 0.552827 0.766193
O O7 0.419179 0.602891 0.455589
O O8 0.739892 0.449024 0.435954
O O9 0.500000 0.720069 0.000000
O O10 0.000000 0.702443 0.000000
O O11 0.486453 0.133014 0.640061
O O12 0.893678 0.134985 0.681610
O O13 0.182684 0.968048 0.645121
O O14 0.110919 0.282536 0.396748
O O15 0.000000 0.405882 0.500000
#
# Coordination Sequence:
#
# PCOD9126137 Si02
#       7
#     4   4   2   4   4   4   4
#     4  11  23  41  68  98 126 167 222 266 314 382
#     4  12  24  42  66  92 138 177 207 266 330 384
#     4  10  22  38  64  94 122 154 220 276 322 386
#     4  11  23  39  64  97 127 164 218 265 310 376
#     4  11  27  43  61  98 133 170 220 263 323 405
#     4  11  24  41  64  91 127 164 217 270 331 379
#     4  11  23  40  68  91 125 169 219 275 329 372
#
# _framework density 21.137979999999999
#
# number of rings (size 3 to 8) (size 9 to 14) (size 15 to 20)
#    0.000    0.923    2.308    5.538    2.154    2.462 
#    0.000    0.000    0.000    0.000    0.000    0.000 
#    0.000    0.000    0.000    0.000    0.000    0.000 
#
# Total GULP energy -72616.070530 kJ/mol
# GULP energy per Si atom -5585.851579 kJ/mol
# Density = 2.108987 g / cm^3
# Si number density = 21.137980 Si / 1000 Ang^3
#
#
#
# Elastic Constant Matrix: (Units=GPa)
#
#
# Indices 1 2 3 4 5 6 
#
# 1 103.2120 42.1250 21.4355 0.0000 25.6172 0.0001
# 2 42.1250 184.7800 74.1561 0.0000 13.2848 0.0000
# 3 21.4355 74.1561 112.8869 0.0000 41.2930 0.0000
# 4 0.0000 0.0000 0.0000 20.5343 0.0000 10.0032
# 5 25.6172 13.2848 41.2930 0.0000 42.9942 0.0000
# 6 0.0001 0.0000 0.0000 10.0032 0.0000 26.3320
#
#
#
# Elastic Compliance Matrix: (Units=1/GPa)
#
#
# Indices 1 2 3 4 5 6 
#
# 1 0.012938 -0.003692 0.003655 0.000000 -0.010078 0.000000
# 2 -0.003692 0.008794 -0.007533 0.000000 0.006717 0.000000
# 3 0.003655 -0.007533 0.020130 0.000000 -0.019183 0.000000
# 4 0.000000 0.000000 0.000000 0.059758 0.000000 -0.022701
# 5 -0.010078 0.006717 -0.019183 0.000000 0.045613 0.000000
# 6 0.000000 0.000000 0.000000 -0.022701 0.000000 0.046600
#
#
# Mechanical properties :
#
#
# Convention : Reuss Voigt Hill
#
# Bulk Modulus (GPa) = 37.42152 75.14579 56.28366
# Shear Modulus (GPa) = 22.94861 35.51627 29.23244
#
# Velocity S-wave (km/s) = 3.29851 4.10348 3.72282
# Velocity P-wave (km/s) = 5.67880 7.62094 6.72040
#
# Compressibility (1/GPa) = 0.02672259
#
# Stress axis : x y z
#
# Youngs Moduli (GPa) = 77.29219 113.72036 49.67793
#
# Poissons Ratio (x) = 0.41983 -0.18157
# Poissons Ratio (y) = 0.28534 0.37420
# Poissons Ratio (z) = -0.28250 0.85660
#
# Static dielectric constant tensor:
#      x y z
#    x 1.838660 0.000000 -0.030590 
#    y 0.000000 1.739840 0.000000 
#    z -0.030590 0.000000 1.767730 
# 
# From -- ./inp_files/63980.got.cif
#   From: 2010.05.17/outbox.cif.g08.bks.cpg/sg5_32_cif.got.tgz:63980.got - 2010.06.03 18:56:24.
