data_PCOD9126623
_publ_section_title
;
Structure prediction by ZEFSAII (Michael W. Deem and Ramdas Pophale) SiO2 
 PCOD9126623
Probable space group: C 2
;
_chemical_formula_sum "Si O2"
_cell_formula_units_Z 20
_cell_length_a 7.918862
_cell_length_b 21.333627
_cell_length_c 5.149038
_cell_angle_alpha 90.000000
_cell_angle_beta 73.443862
_cell_angle_gamma 90.000000
_cell_volume 833.804553
_symmetry_space_group_name_H-M "C 2"
_symmetry_group_IT_number 5
_symmetry_cell_setting 'monoclinic'
loop_
_space_group_symop_operation_xyz
x,y,z
-x,y,-z
1/2+x,1/2+y,z
1/2-x,1/2+y,-z
loop_
_atom_site_type_symbol
_atom_site_label
_atom_site_fract_x
_atom_site_fract_y
_atom_site_fract_z
Si Si1 0.693412 0.571290 0.612652
Si Si2 0.299692 0.519865 0.900817
Si Si3 0.678747 0.201686 0.553711
Si Si4 0.800251 0.264727 0.015617
Si Si5 0.123194 0.404218 0.189776
O O1 0.498946 0.542832 0.752874
O O2 0.780981 0.529160 0.349525
O O3 0.689962 0.643195 0.533298
O O4 0.782989 0.567032 0.854491
O O5 0.277258 0.454382 0.063008
O O6 0.500000 0.176719 0.500000
O O7 0.701532 0.223837 0.840049
O O8 0.715514 0.259097 0.337781
O O9 0.809273 0.333720 0.887674
O O10 0.000000 0.244635 0.000000
O O11 0.000000 0.407557 0.500000
O O12 0.000000 0.417902 0.000000
#
# Coordination Sequence:
#
# PCOD9126623 Si02
#       5
#     4   4   4   4   4
#     4  10  23  41  65 103 138 189 236 296 367 430
#     4  10  22  41  66 100 137 189 239 295 362 431
#     4  12  26  45  69 109 152 185 246 308 362 431
#     4  11  25  45  74 103 141 204 241 295 368 436
#     4  11  23  44  69 104 143 185 248 305 360 428
#
# _framework density 23.986438
#
# number of rings (size 3 to 8) (size 9 to 14) (size 15 to 20)
#    0.000    1.200    0.000    6.000    8.400    2.400 
#   10.800    0.000    0.000    0.000    0.000    0.000 
#    0.000    0.000    0.000    0.000    0.000    0.000 
#
# Total GULP energy -55702.093944 kJ/mol
# GULP energy per Si atom -5570.209394 kJ/mol
# Density = 2.393184 g / cm^3
# Si number density = 23.986438 Si / 1000 Ang^3
#
#
#
# Elastic Constant Matrix: (Units=GPa)
#
#
# Indices 1 2 3 4 5 6 
#
# 1 98.2124 43.2549 21.6092 0.0000 4.2568 0.0000
# 2 43.2549 97.8767 44.4260 0.0000 -14.1963 0.0000
# 3 21.6092 44.4260 190.8022 0.0000 25.2261 0.0000
# 4 0.0000 0.0000 0.0000 39.6519 0.0000 -6.0542
# 5 4.2568 -14.1963 25.2261 0.0000 35.2741 0.0000
# 6 0.0000 0.0000 0.0000 -6.0542 0.0000 16.7863
#
#
#
# Elastic Compliance Matrix: (Units=1/GPa)
#
#
# Indices 1 2 3 4 5 6 
#
# 1 0.013281 -0.006932 0.000763 0.000000 -0.004938 0.000000
# 2 -0.006932 0.016965 -0.004615 0.000000 0.010964 0.000000
# 3 0.000763 -0.004615 0.007164 0.000000 -0.007073 0.000000
# 4 0.000000 0.000000 0.000000 0.026689 0.000000 0.009626
# 5 -0.004938 0.010964 -0.007073 0.000000 0.038416 0.000000
# 6 0.000000 0.000000 0.000000 0.009626 0.000000 0.063044
#
#
# Mechanical properties :
#
#
# Convention : Reuss Voigt Hill
#
# Bulk Modulus (GPa) = 63.11937 67.27459 65.19698
# Shear Modulus (GPa) = 25.98641 36.84921 31.41781
#
# Velocity S-wave (km/s) = 3.29504 3.92376 3.62306
# Velocity P-wave (km/s) = 6.39126 6.97393 6.68894
#
# Compressibility (1/GPa) = 0.01584300
#
# Stress axis : x y z
#
# Youngs Moduli (GPa) = 75.29487 58.94417 139.58250
#
# Poissons Ratio (x) = 0.40858 -0.10645
# Poissons Ratio (y) = 0.52192 0.64413
# Poissons Ratio (z) = -0.05742 0.27201
#
# Static dielectric constant tensor:
#      x y z
#    x 2.482800 0.000000 0.085710 
#    y 0.000000 1.987380 0.000000 
#    z 0.085710 0.000000 1.975320 
# 
# From -- ./inp_files/2868.got.cif
#   From: 2010.05.17/outbox.cif.g08.bks.cpg/sg5_2_cif.got.tgz:2868.got - 2010.06.03 18:56:24.
