data_PCOD9126425
_publ_section_title
;
Structure prediction by ZEFSAII (Michael W. Deem and Ramdas Pophale) SiO2 
 PCOD9126425
Probable space group: C 2
;
_chemical_formula_sum "Si O2"
_cell_formula_units_Z 20
_cell_length_a 5.177823
_cell_length_b 25.528734
_cell_length_c 7.667564
_cell_angle_alpha 90.000000
_cell_angle_beta 62.557821
_cell_angle_gamma 90.000000
_cell_volume 899.478285
_symmetry_space_group_name_H-M "C 2"
_symmetry_group_IT_number 5
_symmetry_cell_setting 'monoclinic'
loop_
_space_group_symop_operation_xyz
x,y,z
-x,y,-z
1/2+x,1/2+y,z
1/2-x,1/2+y,-z
loop_
_atom_site_type_symbol
_atom_site_label
_atom_site_fract_x
_atom_site_fract_y
_atom_site_fract_z
Si Si1 0.500000 0.800150 0.500000
Si Si2 0.220292 0.476284 0.707487
Si Si3 0.272324 0.133506 0.791179
Si Si4 0.500000 0.056570 0.000000
Si Si5 0.000000 0.727286 0.500000
Si Si6 0.000000 0.554766 0.500000
Si Si7 0.347279 0.871308 0.876086
O O1 0.249472 0.763541 0.500504
O O2 0.387165 0.836280 0.692506
O O3 0.500000 0.464847 0.500000
O O4 0.034225 0.514576 0.645418
O O5 0.039489 0.423936 0.795701
O O6 0.252222 0.513524 0.869908
O O7 0.386729 0.188327 0.686222
O O8 0.242547 0.095562 0.630594
O O9 0.477990 0.098179 0.849254
O O10 0.000000 0.140894 0.000000
O O11 0.500000 0.845633 0.000000
O O12 0.000000 0.881846 0.000000
#
# Coordination Sequence:
#
# PCOD9126425 Si02
#       7
#     2   4   4   2   2   2   4
#     4  12  29  54  77 104 151 188 253 318 378 424
#     4  11  23  39  70 103 148 194 238 292 367 438
#     4  10  22  41  68 102 143 186 240 299 359 439
#     4  10  22  40  66 108 150 186 242 286 368 440
#     4  11  28  48  77 106 135 196 246 307 374 432
#     4   9  21  38  60 102 144 192 233 283 366 430
#     4  12  29  49  78 111 149 194 253 306 376 447
#
# _framework density 22.235111
#
# number of rings (size 3 to 8) (size 9 to 14) (size 15 to 20)
#    0.000    1.200    1.000    3.000    9.800    5.600 
#    3.600    0.000    0.000    0.000    0.000    0.000 
#    0.000    0.000    0.000    0.000    0.000    0.000 
#
# Total GULP energy -55735.333840 kJ/mol
# GULP energy per Si atom -5573.533384 kJ/mol
# Density = 2.218450 g / cm^3
# Si number density = 22.235111 Si / 1000 Ang^3
#
#
#
# Elastic Constant Matrix: (Units=GPa)
#
#
# Indices 1 2 3 4 5 6 
#
# 1 88.0039 53.0238 37.9415 0.0000 -7.7857 0.0000
# 2 53.0238 161.3834 85.4177 0.0000 -6.9677 0.0000
# 3 37.9415 85.4177 158.5281 0.0000 -13.9562 0.0000
# 4 0.0000 0.0000 0.0000 40.8916 0.0000 10.2075
# 5 -7.7857 -6.9677 -13.9562 0.0000 44.4416 0.0000
# 6 0.0000 0.0000 0.0000 10.2075 0.0000 33.6649
#
#
#
# Elastic Compliance Matrix: (Units=1/GPa)
#
#
# Indices 1 2 3 4 5 6 
#
# 1 0.014444 -0.004087 -0.001120 0.000000 0.001538 0.000000
# 2 -0.004087 0.009825 -0.004364 0.000000 -0.000546 0.000000
# 3 -0.001120 -0.004364 0.009102 0.000000 0.001978 0.000000
# 4 0.000000 0.000000 0.000000 0.026457 0.000000 -0.008022
# 5 0.001538 -0.000546 0.001978 0.000000 0.023306 0.000000
# 6 0.000000 0.000000 0.000000 -0.008022 0.000000 0.032137
#
#
# Mechanical properties :
#
#
# Convention : Reuss Voigt Hill
#
# Bulk Modulus (GPa) = 70.27228 84.52015 77.39621
# Shear Modulus (GPa) = 35.93083 39.23511 37.58297
#
# Velocity S-wave (km/s) = 4.02425 4.20522 4.11573
# Velocity P-wave (km/s) = 7.29833 7.85322 7.58085
#
# Compressibility (1/GPa) = 0.01423036
#
# Stress axis : x y z
#
# Youngs Moduli (GPa) = 69.23160 101.77668 109.87148
#
# Poissons Ratio (x) = 0.41594 0.12301
# Poissons Ratio (y) = 0.28294 0.47949
# Poissons Ratio (z) = 0.07751 0.44416
#
# Static dielectric constant tensor:
#      x y z
#    x 1.911310 0.000000 0.105800 
#    y 0.000000 1.760000 0.000000 
#    z 0.105800 0.000000 2.073930 
# 
# From -- ./inp_files/12759.got.cif
#   From: 2010.05.17/outbox.cif.g08.bks.cpg/sg5_7_cif.got.tgz:12759.got - 2010.06.03 18:56:24.
