data_PCOD9126711
_publ_section_title
;
Structure prediction by ZEFSAII (Michael W. Deem and Ramdas Pophale) SiO2 
 PCOD9126711
Probable space group: C 2
;
_chemical_formula_sum "Si O2"
_cell_formula_units_Z 20
_cell_length_a 15.784849
_cell_length_b 10.639385
_cell_length_c 8.224608
_cell_angle_alpha 90.000000
_cell_angle_beta 144.060759
_cell_angle_gamma 90.000000
_cell_volume 810.692688
_symmetry_space_group_name_H-M "C 2"
_symmetry_group_IT_number 5
_symmetry_cell_setting 'monoclinic'
loop_
_space_group_symop_operation_xyz
x,y,z
-x,y,-z
1/2+x,1/2+y,z
1/2-x,1/2+y,-z
loop_
_atom_site_type_symbol
_atom_site_label
_atom_site_fract_x
_atom_site_fract_y
_atom_site_fract_z
Si Si1 0.773717 0.834760 0.406690
Si Si2 0.964948 0.457090 0.194082
Si Si3 0.000000 0.846986 0.500000
Si Si4 0.799877 0.055121 0.028476
Si Si5 0.500000 0.759405 0.500000
Si Si6 0.258387 0.570699 0.582416
O O1 0.896112 0.784520 0.471754
O O2 0.724257 0.716456 0.437863
O O3 0.829049 0.958934 0.587244
O O4 0.639924 0.884871 0.092500
O O5 0.045734 0.352868 0.428002
O O6 0.088656 0.539342 0.307436
O O7 0.859926 0.536662 0.148116
O O8 0.890891 0.935390 0.229872
O O9 0.874374 0.173176 0.232412
O O10 0.805297 0.064177 0.843332
#
# Coordination Sequence:
#
# PCOD9126711 Si02
#       6
#     4   4   2   4   2   4
#     4  11  27  48  72 106 151 189 245 296 367 433
#     4  11  23  45  72 107 141 193 241 301 359 433
#     4   9  24  47  68 104 136 194 244 298 354 438
#     4  10  22  41  73 105 141 186 246 294 363 431
#     4  11  20  39  76 108 140 194 242 304 350 432
#     4  12  25  46  72 108 147 191 236 305 365 427
#
# _framework density 24.670261
#
# number of rings (size 3 to 8) (size 9 to 14) (size 15 to 20)
#    0.000    1.200    4.000    0.600    2.800    5.600 
#   10.800    0.000    0.000    0.000    0.000    0.000 
#    0.000    0.000    0.000    0.000    0.000    0.000 
#
# Total GULP energy -55981.192635 kJ/mol
# GULP energy per Si atom -5598.119263 kJ/mol
# Density = 2.461411 g / cm^3
# Si number density = 24.670261 Si / 1000 Ang^3
#
#
#
# Elastic Constant Matrix: (Units=GPa)
#
#
# Indices 1 2 3 4 5 6 
#
# 1 96.2990 38.5523 29.5336 0.0000 -0.6832 0.0000
# 2 38.5523 137.1508 28.5356 0.0000 -24.5406 0.0000
# 3 29.5336 28.5356 100.9233 0.0000 -9.7998 0.0000
# 4 0.0000 0.0000 0.0000 35.3514 0.0000 -6.7895
# 5 -0.6832 -24.5406 -9.7998 0.0000 32.1028 0.0000
# 6 0.0000 0.0000 0.0000 -6.7895 0.0000 24.5988
#
#
#
# Elastic Compliance Matrix: (Units=1/GPa)
#
#
# Indices 1 2 3 4 5 6 
#
# 1 0.012713 -0.003542 -0.003046 0.000000 -0.003367 0.000000
# 2 -0.003542 0.009769 -0.001039 0.000000 0.007075 0.000000
# 3 -0.003046 -0.001039 0.011346 0.000000 0.002605 0.000000
# 4 0.000000 0.000000 0.000000 0.029871 0.000000 0.008245
# 5 -0.003367 0.007075 0.002605 0.000000 0.037282 0.000000
# 6 0.000000 0.000000 0.000000 0.008245 0.000000 0.042928
#
#
# Mechanical properties :
#
#
# Convention : Reuss Voigt Hill
#
# Bulk Modulus (GPa) = 53.83482 58.62401 56.22942
# Shear Modulus (GPa) = 30.23827 34.26070 32.24949
#
# Velocity S-wave (km/s) = 3.50479 3.73063 3.61947
# Velocity P-wave (km/s) = 6.18443 6.50933 6.34896
#
# Compressibility (1/GPa) = 0.01857534
#
# Stress axis : x y z
#
# Youngs Moduli (GPa) = 78.66240 102.36422 88.13433
#
# Poissons Ratio (x) = 0.36260 0.26841
# Poissons Ratio (y) = 0.27864 0.09153
# Poissons Ratio (z) = 0.23957 0.10631
#
# Static dielectric constant tensor:
#      x y z
#    x 2.000260 0.000000 -0.005740 
#    y 0.000000 1.990040 0.000000 
#    z -0.005740 0.000000 1.915450 
# 
# From -- ./inp_files/27435.got.cif
#   From: 2010.05.17/outbox.cif.g08.bks.cpg/sg5_14_cif.got.tgz:27435.got - 2010.06.03 18:56:24.
