data_PCOD9126974
_publ_section_title
;
Structure prediction by ZEFSAII (Michael W. Deem and Ramdas Pophale) SiO2 
 PCOD9126974
Probable space group: C 2
;
_chemical_formula_sum "Si O2"
_cell_formula_units_Z 26
_cell_length_a 5.119303
_cell_length_b 19.588153
_cell_length_c 13.227242
_cell_angle_alpha 90.000000
_cell_angle_beta 63.685404
_cell_angle_gamma 90.000000
_cell_volume 1188.947410
_symmetry_space_group_name_H-M "C 2"
_symmetry_group_IT_number 5
_symmetry_cell_setting 'monoclinic'
loop_
_space_group_symop_operation_xyz
x,y,z
-x,y,-z
1/2+x,1/2+y,z
1/2-x,1/2+y,-z
loop_
_atom_site_type_symbol
_atom_site_label
_atom_site_fract_x
_atom_site_fract_y
_atom_site_fract_z
Si Si1 0.327113 0.888970 0.928809
Si Si2 0.030980 0.335547 0.380059
Si Si3 0.458613 0.662950 0.128421
Si Si4 0.154951 0.493729 0.575870
Si Si5 0.854038 0.532512 0.826073
Si Si6 0.312803 0.292330 0.745207
Si Si7 0.500000 0.119202 0.000000
O O1 0.557859 0.835855 0.843504
O O2 0.280089 0.954846 0.865598
O O3 0.500000 0.911765 0.000000
O O4 0.000000 0.860380 0.000000
O O5 0.363699 0.320031 0.290188
O O6 0.000000 0.311486 0.500000
O O7 0.967424 0.416579 0.390239
O O8 0.785621 0.300925 0.353553
O O9 0.396864 0.584292 0.167007
O O10 0.234042 0.715031 0.211835
O O11 0.793506 0.671036 0.099035
O O12 0.500000 0.670130 0.000000
O O13 0.500000 0.491004 0.500000
O O14 0.000000 0.521356 0.500000
O O15 0.080714 0.530726 0.694506
O O16 0.919024 0.567976 0.922562
#
# Coordination Sequence:
#
# PCOD9126974 Si02
#       7
#     4   4   4   4   4   4   2
#     4  12  25  39  66 105 137 169 229 294 343 412
#     4  11  24  44  70  99 131 177 231 290 348 396
#     4  10  25  43  66  98 139 189 219 277 349 434
#     4  11  25  44  73 101 141 180 233 292 352 409
#     4  11  24  43  67 102 137 183 233 278 359 410
#     4  12  25  43  70  99 135 182 226 286 344 417
#     4  10  22  42  74  90 146 182 226 272 362 422
#
# _framework density 21.868082000000001
#
# number of rings (size 3 to 8) (size 9 to 14) (size 15 to 20)
#    0.000    0.923    2.308    5.077    7.538    0.000 
#    0.000    2.308    0.000    0.000    0.000    0.000 
#    0.000    0.000    0.000    0.000    0.000    0.000 
#
# Total GULP energy -72440.953855 kJ/mol
# GULP energy per Si atom -5572.381066 kJ/mol
# Density = 2.181831 g / cm^3
# Si number density = 21.868082 Si / 1000 Ang^3
#
#
#
# Elastic Constant Matrix: (Units=GPa)
#
#
# Indices 1 2 3 4 5 6 
#
# 1 101.8928 15.3090 34.2894 0.0000 -20.0004 0.0000
# 2 15.3090 38.2194 12.9423 0.0000 -4.7784 0.0000
# 3 34.2894 12.9423 106.6145 0.0000 -4.8276 0.0000
# 4 0.0000 0.0000 0.0000 37.3968 0.0000 -12.3630
# 5 -20.0004 -4.7784 -4.8276 0.0000 46.9964 0.0000
# 6 0.0000 0.0000 0.0000 -12.3630 0.0000 11.1721
#
#
#
# Elastic Compliance Matrix: (Units=1/GPa)
#
#
# Indices 1 2 3 4 5 6 
#
# 1 0.012330 -0.003227 -0.003367 0.000000 0.004573 0.000000
# 2 -0.003227 0.028414 -0.002354 0.000000 0.001274 0.000000
# 3 -0.003367 -0.002354 0.010722 0.000000 -0.000571 0.000000
# 4 0.000000 0.000000 0.000000 0.042166 0.000000 0.046660
# 5 0.004573 0.001274 -0.000571 0.000000 0.023295 0.000000
# 6 0.000000 0.000000 0.000000 0.046660 0.000000 0.141142
#
#
# Mechanical properties :
#
#
# Convention : Reuss Voigt Hill
#
# Bulk Modulus (GPa) = 29.78762 41.31202 35.54982
# Shear Modulus (GPa) = 17.41227 31.39212 24.40220
#
# Velocity S-wave (km/s) = 2.82484 3.79294 3.34411
# Velocity P-wave (km/s) = 4.92856 6.17368 5.58592
#
# Compressibility (1/GPa) = 0.03357100
#
# Stress axis : x y z
#
# Youngs Moduli (GPa) = 81.10492 35.19443 93.26388
#
# Poissons Ratio (x) = 0.11357 0.31399
# Poissons Ratio (y) = 0.26172 0.21951
# Poissons Ratio (z) = 0.27305 0.08284
#
# Static dielectric constant tensor:
#      x y z
#    x 2.066500 0.000000 -0.038300 
#    y 0.000000 1.796100 0.000000 
#    z -0.038300 0.000000 1.850720 
# 
# From -- ./inp_files/49145.got.cif
#   From: 2010.05.17/outbox.cif.g08.bks.cpg/sg5_25_cif.got.tgz:49145.got - 2010.06.03 18:56:24.
