data_PCOD9126026
_publ_section_title
;
Structure prediction by ZEFSAII (Michael W. Deem and Ramdas Pophale) SiO2 
 PCOD9126026
Probable space group: C 2
;
_chemical_formula_sum "Si O2"
_cell_formula_units_Z 20
_cell_length_a 17.931104
_cell_length_b 5.460418
_cell_length_c 9.123387
_cell_angle_alpha 90.000000
_cell_angle_beta 81.385972
_cell_angle_gamma 90.000000
_cell_volume 883.206428
_symmetry_space_group_name_H-M "C 2"
_symmetry_group_IT_number 5
_symmetry_cell_setting 'monoclinic'
loop_
_space_group_symop_operation_xyz
x,y,z
-x,y,-z
1/2+x,1/2+y,z
1/2-x,1/2+y,-z
loop_
_atom_site_type_symbol
_atom_site_label
_atom_site_fract_x
_atom_site_fract_y
_atom_site_fract_z
Si Si1 0.459165 0.610650 0.301416
Si Si2 0.749481 0.794285 0.696595
Si Si3 0.911096 0.805241 0.760340
Si Si4 0.000000 0.484285 0.500000
Si Si5 0.500000 0.456909 0.000000
Si Si6 0.322611 0.292682 0.350805
O O1 0.547767 0.555638 0.304017
O O2 0.442336 0.827840 0.414341
O O3 0.409554 0.370205 0.348372
O O4 0.455914 0.628996 0.127517
O O5 0.822050 0.813060 0.779176
O O6 0.709077 0.532651 0.724576
O O7 0.783635 0.791877 0.521450
O O8 0.697219 0.036044 0.719800
O O9 0.946842 0.617007 0.634734
O O10 0.946037 0.792270 0.913545
#
# Coordination Sequence:
#
# PCOD9126026 Si02
#       6
#     4   4   4   2   2   4
#     4  10  23  42  64  96 133 178 224 285 330 416
#     4  10  22  37  61  97 134 171 222 286 342 398
#     4  10  23  42  64  96 133 178 224 285 330 416
#     4  12  22  34  80  98 124 178 256 276 338 398
#     4   8  24  44  60  92 150 166 226 278 360 388
#     4  10  22  37  61  97 134 171 222 286 342 398
#
# _framework density 22.644763000000001
#
# number of rings (size 3 to 8) (size 9 to 14) (size 15 to 20)
#    1.200    0.800    0.000    3.000   14.000    0.800 
#    0.000    2.000    0.000    0.000    0.000    0.000 
#    0.000    0.000    0.000    0.000    0.000    0.000 
#
# Total GULP energy -55694.683208 kJ/mol
# GULP energy per Si atom -5569.468321 kJ/mol
# Density = 2.259322 g / cm^3
# Si number density = 22.644763 Si / 1000 Ang^3
#
#
#
# Elastic Constant Matrix: (Units=GPa)
#
#
# Indices 1 2 3 4 5 6 
#
# 1 82.0449 20.8286 25.3788 0.0000 28.5590 0.0000
# 2 20.8286 90.7884 59.8265 0.0000 18.7861 0.0000
# 3 25.3788 59.8265 132.6153 0.0000 22.0847 0.0000
# 4 0.0000 0.0000 0.0000 12.2045 0.0000 6.3326
# 5 28.5590 18.7861 22.0847 0.0000 35.8299 0.0000
# 6 0.0000 0.0000 0.0000 6.3326 0.0000 30.4496
#
#
#
# Elastic Compliance Matrix: (Units=1/GPa)
#
#
# Indices 1 2 3 4 5 6 
#
# 1 0.017049 -0.000751 -0.000810 0.000000 -0.012697 0.000000
# 2 -0.000751 0.016326 -0.006570 0.000000 -0.003912 0.000000
# 3 -0.000810 -0.006570 0.011120 0.000000 -0.002764 0.000000
# 4 0.000000 0.000000 0.000000 0.091848 0.000000 -0.019101
# 5 -0.012697 -0.003912 -0.002764 0.000000 0.041784 0.000000
# 6 0.000000 0.000000 0.000000 -0.019101 0.000000 0.036814
#
#
# Mechanical properties :
#
#
# Convention : Reuss Voigt Hill
#
# Bulk Modulus (GPa) = 35.41822 57.50184 46.46003
# Shear Modulus (GPa) = 20.78035 28.99113 24.88574
#
# Velocity S-wave (km/s) = 3.03259 3.58195 3.31866
# Velocity P-wave (km/s) = 5.28553 6.52344 5.93684
#
# Compressibility (1/GPa) = 0.02823406
#
# Stress axis : x y z
#
# Youngs Moduli (GPa) = 58.65435 61.25356 89.93078
#
# Poissons Ratio (x) = 0.04598 0.07281
# Poissons Ratio (y) = 0.04403 0.59083
# Poissons Ratio (z) = 0.04749 0.40243
#
# Static dielectric constant tensor:
#      x y z
#    x 1.910400 0.000000 0.032610 
#    y 0.000000 1.965830 0.000000 
#    z 0.032610 0.000000 1.850780 
# 
# From -- ./inp_files/26021.got.cif
#   From: 2010.05.17/outbox.cif.g08.bks.cpg/sg5_14_cif.got.tgz:26021.got - 2010.06.03 18:56:24.
