data_PCOD9126530
_publ_section_title
;
Structure prediction by ZEFSAII (Michael W. Deem and Ramdas Pophale) SiO2 
 PCOD9126530
Probable space group: C 2
;
_chemical_formula_sum "Si O2"
_cell_formula_units_Z 24
_cell_length_a 13.758563
_cell_length_b 5.381556
_cell_length_c 19.068070
_cell_angle_alpha 90.000000
_cell_angle_beta 137.135197
_cell_angle_gamma 90.000000
_cell_volume 960.438294
_symmetry_space_group_name_H-M "C 2"
_symmetry_group_IT_number 5
_symmetry_cell_setting 'monoclinic'
loop_
_space_group_symop_operation_xyz
x,y,z
-x,y,-z
1/2+x,1/2+y,z
1/2-x,1/2+y,-z
loop_
_atom_site_type_symbol
_atom_site_label
_atom_site_fract_x
_atom_site_fract_y
_atom_site_fract_z
Si Si1 0.773929 0.639160 0.949127
Si Si2 0.428475 0.265831 0.173437
Si Si3 0.500000 0.384307 0.500000
Si Si4 0.750546 0.767615 0.670630
Si Si5 0.243114 0.020155 0.181281
Si Si6 0.000000 0.276257 0.000000
Si Si7 0.796965 0.609182 0.484379
O O1 0.609354 0.557759 0.853054
O O2 0.796231 0.862748 0.908326
O O3 0.829959 0.675269 0.056646
O O4 0.876780 0.433102 0.970789
O O5 0.587070 0.174739 0.244975
O O6 0.371770 0.186162 0.219759
O O7 0.633564 0.564048 0.587519
O O8 0.451071 0.215560 0.540262
O O9 0.717832 0.862803 0.730988
O O10 0.755642 0.994976 0.617626
O O11 0.089562 0.148474 0.110148
O O12 0.781899 0.357644 0.525275
#
# Coordination Sequence:
#
# PCOD9126530 Si02
#       7
#     4   4   2   4   4   2   4
#     4  11  22  44  70 110 164 214 261 330 399 491
#     4  11  25  44  77 116 162 215 269 329 410 494
#     4  12  30  58  86 126 166 220 288 364 438 510
#     4  12  29  51  84 123 165 216 288 348 431 502
#     4  11  25  45  75 117 158 213 273 337 407 496
#     4  10  22  40  72 106 160 208 268 324 400 476
#     4  12  29  59  91 123 166 225 280 363 440 511
#
# _framework density 24.988588
#
# number of rings (size 3 to 8) (size 9 to 14) (size 15 to 20)
#    0.000    0.667    3.333    3.000    2.333   10.667 
#    0.000    0.000    0.000    0.000    0.000    0.000 
#    0.000    0.000    0.000    0.000    0.000    0.000 
#
# Total GULP energy -67001.963381 kJ/mol
# GULP energy per Si atom -5583.496948 kJ/mol
# Density = 2.493171 g / cm^3
# Si number density = 24.988588 Si / 1000 Ang^3
#
#
#
# Elastic Constant Matrix: (Units=GPa)
#
#
# Indices 1 2 3 4 5 6 
#
# 1 145.0789 47.9272 46.3210 0.0000 -8.0898 0.0000
# 2 47.9272 93.8749 33.2851 0.0000 3.2619 -0.0002
# 3 46.3210 33.2851 95.6561 0.0000 -3.8235 0.0000
# 4 0.0000 0.0000 0.0000 32.0329 0.0000 3.5230
# 5 -8.0898 3.2619 -3.8235 0.0000 44.0696 0.0000
# 6 0.0000 -0.0002 0.0000 3.5230 0.0000 18.8456
#
#
#
# Elastic Compliance Matrix: (Units=1/GPa)
#
#
# Indices 1 2 3 4 5 6 
#
# 1 0.009184 -0.003644 -0.003112 0.000000 0.001686 0.000000
# 2 -0.003644 0.013669 -0.003070 0.000000 -0.001947 0.000000
# 3 -0.003112 -0.003070 0.013061 0.000000 0.000789 0.000000
# 4 0.000000 0.000000 0.000000 0.031873 0.000000 -0.005958
# 5 0.001686 -0.001947 0.000789 0.000000 0.023213 0.000000
# 6 0.000000 0.000000 0.000000 -0.005958 0.000000 0.054177
#
#
# Mechanical properties :
#
#
# Convention : Reuss Voigt Hill
#
# Bulk Modulus (GPa) = 61.49066 65.51963 63.50514
# Shear Modulus (GPa) = 29.36868 32.79472 31.08170
#
# Velocity S-wave (km/s) = 3.43196 3.62662 3.53063
# Velocity P-wave (km/s) = 6.35338 6.61916 6.48763
#
# Compressibility (1/GPa) = 0.01626263
#
# Stress axis : x y z
#
# Youngs Moduli (GPa) = 108.88215 73.15850 76.56540
#
# Poissons Ratio (x) = 0.26660 0.23827
# Poissons Ratio (y) = 0.39678 0.23502
# Poissons Ratio (z) = 0.33884 0.22456
#
# Static dielectric constant tensor:
#      x y z
#    x 1.823270 0.000000 0.120630 
#    y 0.000000 2.206790 0.000000 
#    z 0.120630 0.000000 1.914030 
# 
# From -- ./inp_files/65743.got.cif
#   From: 2010.05.17/outbox.cif.g08.bks.cpg/sg5_33_cif.got.tgz:65743.got - 2010.06.03 18:56:24.
