data_PCOD9126148
_publ_section_title
;
Structure prediction by ZEFSAII (Michael W. Deem and Ramdas Pophale) SiO2 
 PCOD9126148
Probable space group: C 2
;
_chemical_formula_sum "Si O2"
_cell_formula_units_Z 26
_cell_length_a 5.277193
_cell_length_b 19.727707
_cell_length_c 12.344637
_cell_angle_alpha 90.000000
_cell_angle_beta 112.405327
_cell_angle_gamma 90.000000
_cell_volume 1188.145987
_symmetry_space_group_name_H-M "C 2"
_symmetry_group_IT_number 5
_symmetry_cell_setting 'monoclinic'
loop_
_space_group_symop_operation_xyz
x,y,z
-x,y,-z
1/2+x,1/2+y,z
1/2-x,1/2+y,-z
loop_
_atom_site_type_symbol
_atom_site_label
_atom_site_fract_x
_atom_site_fract_y
_atom_site_fract_z
Si Si1 0.195256 0.250000 0.425827
Si Si2 0.269315 0.126585 0.278786
Si Si3 0.459481 0.856209 0.222448
Si Si4 0.210802 0.959982 0.818617
Si Si5 0.621367 0.105454 0.136202
Si Si6 0.000000 0.902948 0.000000
Si Si7 0.341604 0.979009 0.365986
O O1 0.500000 0.280470 0.500000
O O2 0.262890 0.180563 0.374138
O O3 0.031426 0.295097 0.311586
O O4 0.000000 0.242918 0.500000
O O5 0.458705 0.143442 0.205903
O O6 0.950134 0.116531 0.193186
O O7 0.395533 0.056302 0.342961
O O8 0.706766 0.882443 0.189426
O O9 0.212055 0.855081 0.097941
O O10 0.417473 0.922578 0.290610
O O11 0.987686 0.975738 0.689788
O O12 0.414828 0.023826 0.851957
O O13 0.107814 0.953731 0.924703
O O14 0.500000 0.123707 0.000000
O O15 0.500000 0.961696 0.500000
#
# Coordination Sequence:
#
# PCOD9126148 Si02
#       7
#     4   4   4   4   4   2   4
#     4  12  29  50  75  98 148 197 243 293 366 440
#     4  11  24  46  67 103 136 194 235 292 360 427
#     4  11  23  42  68 104 137 186 238 294 366 421
#     4  10  22  38  66 104 142 185 228 299 372 422
#     4  11  22  41  71 104 143 179 239 293 360 423
#     4  10  22  40  66 100 150 180 236 294 374 428
#     4  10  22  38  65  99 139 173 241 294 348 416
#
# _framework density 21.882833000000002
#
# number of rings (size 3 to 8) (size 9 to 14) (size 15 to 20)
#    0.000    1.231    1.538    3.692   10.769    0.000 
#    1.385    1.538    0.000    0.000    0.000    0.000 
#    0.000    0.000    0.000    0.000    0.000    0.000 
#
# Total GULP energy -72515.375020 kJ/mol
# GULP energy per Si atom -5578.105771 kJ/mol
# Density = 2.183303 g / cm^3
# Si number density = 21.882833 Si / 1000 Ang^3
#
#
#
# Elastic Constant Matrix: (Units=GPa)
#
#
# Indices 1 2 3 4 5 6 
#
# 1 85.2893 9.4515 49.8593 0.0000 -17.2194 0.0000
# 2 9.4515 68.3365 34.2795 0.0000 -7.3189 0.0000
# 3 49.8593 34.2795 180.9634 0.0000 8.8784 0.0000
# 4 0.0000 0.0000 0.0000 25.7202 0.0000 6.2090
# 5 -17.2194 -7.3189 8.8784 0.0000 36.8121 0.0000
# 6 0.0000 0.0000 0.0000 6.2090 0.0000 7.6560
#
#
#
# Elastic Compliance Matrix: (Units=1/GPa)
#
#
# Indices 1 2 3 4 5 6 
#
# 1 0.016522 0.001347 -0.005262 0.000000 0.009265 0.000000
# 2 0.001347 0.016884 -0.003810 0.000000 0.004906 0.000000
# 3 -0.005262 -0.003810 0.007949 0.000000 -0.005136 0.000000
# 4 0.000000 0.000000 0.000000 0.048345 0.000000 -0.039207
# 5 0.009265 0.004906 -0.005136 0.000000 0.033713 0.000000
# 6 0.000000 0.000000 0.000000 -0.039207 0.000000 0.162413
#
#
# Mechanical properties :
#
#
# Convention : Reuss Voigt Hill
#
# Bulk Modulus (GPa) = 38.60247 57.97442 48.28845
# Shear Modulus (GPa) = 16.13365 30.10427 23.11896
#
# Velocity S-wave (km/s) = 2.71823 3.71307 3.25389
# Velocity P-wave (km/s) = 5.24695 6.70322 6.01929
#
# Compressibility (1/GPa) = 0.02590508
#
# Stress axis : x y z
#
# Youngs Moduli (GPa) = 60.52444 59.22843 125.79477
#
# Poissons Ratio (x) = -0.07976 0.66192
# Poissons Ratio (y) = -0.08151 0.47928
# Poissons Ratio (z) = 0.31847 0.22566
#
# Static dielectric constant tensor:
#      x y z
#    x 2.087590 0.000000 -0.000510 
#    y 0.000000 1.809470 0.000000 
#    z -0.000510 0.000000 1.787590 
# 
# From -- ./inp_files/33736.got.cif
#   From: 2010.05.17/outbox.cif.g08.bks.cpg/sg5_17_cif.got.tgz:33736.got - 2010.06.03 18:56:24.
