data_PCOD9126220
_publ_section_title
;
Structure prediction by ZEFSAII (Michael W. Deem and Ramdas Pophale) SiO2 
 PCOD9126220
Probable space group: C 2
;
_chemical_formula_sum "Si O2"
_cell_formula_units_Z 28
_cell_length_a 9.285374
_cell_length_b 9.022935
_cell_length_c 25.329561
_cell_angle_alpha 90.000000
_cell_angle_beta 144.622288
_cell_angle_gamma 90.000000
_cell_volume 1228.645194
_symmetry_space_group_name_H-M "C 2"
_symmetry_group_IT_number 5
_symmetry_cell_setting 'monoclinic'
loop_
_space_group_symop_operation_xyz
x,y,z
-x,y,-z
1/2+x,1/2+y,z
1/2-x,1/2+y,-z
loop_
_atom_site_type_symbol
_atom_site_label
_atom_site_fract_x
_atom_site_fract_y
_atom_site_fract_z
Si Si1 0.371888 0.028080 0.162830
Si Si2 0.551832 0.555428 0.681734
Si Si3 0.632353 0.006124 0.952572
Si Si4 0.856206 0.154501 0.509893
Si Si5 0.969304 0.179550 0.868211
Si Si6 0.153871 0.207333 0.813502
Si Si7 0.444290 0.984635 0.426275
O O1 0.665698 0.004087 0.241549
O O2 0.276949 0.070369 0.076716
O O3 0.291450 0.147210 0.181635
O O4 0.259095 0.872613 0.147866
O O5 0.465937 0.586713 0.596665
O O6 0.565302 0.694305 0.726517
O O7 0.351630 0.457636 0.655363
O O8 0.374857 0.090138 0.887133
O O9 0.579881 0.833838 0.924340
O O10 0.833739 0.053434 0.055407
O O11 0.571180 0.096917 0.423261
O O12 0.000000 0.107231 0.500000
O O13 0.907390 0.329988 0.531077
O O14 0.958002 0.177401 0.801655
O O15 0.500000 0.057825 0.500000
#
# Coordination Sequence:
#
# PCOD9126220 Si02
#       7
#     4   4   4   4   4   4   4
#     4  10  23  40  59  87 120 157 199 244 296 353
#     4  10  23  40  60  88 125 156 192 245 296 350
#     4  10  22  39  59  87 120 154 201 255 297 346
#     4  10  22  39  65  92 117 154 199 240 291 351
#     4  11  22  38  62  87 117 158 204 248 296 352
#     4  10  23  39  58  86 121 157 198 245 300 352
#     4   9  21  41  62  89 122 152 192 243 291 350
#
# _framework density 22.789328999999999
#
# number of rings (size 3 to 8) (size 9 to 14) (size 15 to 20)
#    0.000    2.000    0.000    1.714    0.000   18.857 
#    0.000    0.000    0.000    1.714    0.000    0.000 
#    0.000    0.000    0.000    0.000    0.000    0.000 
#
# Total GULP energy -78010.863779 kJ/mol
# GULP energy per Si atom -5572.204556 kJ/mol
# Density = 2.273746 g / cm^3
# Si number density = 22.789329 Si / 1000 Ang^3
#
#
#
# Elastic Constant Matrix: (Units=GPa)
#
#
# Indices 1 2 3 4 5 6 
#
# 1 178.3214 61.9442 44.9058 0.0000 11.3224 0.0000
# 2 61.9442 66.7458 9.9899 0.0000 15.7367 0.0000
# 3 44.9058 9.9899 61.9614 0.0000 2.6367 0.0000
# 4 0.0000 0.0000 0.0000 13.2886 0.0000 -2.2508
# 5 11.3224 15.7367 2.6367 0.0000 50.3950 0.0000
# 6 0.0000 0.0000 0.0000 -2.2508 0.0000 28.7745
#
#
#
# Elastic Compliance Matrix: (Units=1/GPa)
#
#
# Indices 1 2 3 4 5 6 
#
# 1 0.010042 -0.008608 -0.005922 0.000000 0.000742 0.000000
# 2 -0.008608 0.023916 0.002624 0.000000 -0.005671 0.000000
# 3 -0.005922 0.002624 0.020030 0.000000 -0.000537 0.000000
# 4 0.000000 0.000000 0.000000 0.076263 0.000000 0.005965
# 5 0.000742 -0.005671 -0.000537 0.000000 0.021476 0.000000
# 6 0.000000 0.000000 0.000000 0.005965 0.000000 0.035220
#
#
# Mechanical properties :
#
#
# Convention : Reuss Voigt Hill
#
# Bulk Modulus (GPa) = 33.13793 60.07871 46.60832
# Shear Modulus (GPa) = 22.64313 31.17086 26.90699
#
# Velocity S-wave (km/s) = 3.15554 3.70237 3.43984
# Velocity P-wave (km/s) = 5.27723 6.68555 6.02269
#
# Compressibility (1/GPa) = 0.03017690
#
# Stress axis : x y z
#
# Youngs Moduli (GPa) = 99.57825 41.81342 49.92387
#
# Poissons Ratio (x) = 0.35995 0.29563
# Poissons Ratio (y) = 0.85722 -0.13102
# Poissons Ratio (z) = 0.58967 -0.10973
#
# Static dielectric constant tensor:
#      x y z
#    x 1.878830 0.000000 0.051280 
#    y 0.000000 1.848970 0.000000 
#    z 0.051280 0.000000 1.983950 
# 
# From -- ./inp_files/59362.got.cif
#   From: 2010.05.17/outbox.cif.g08.bks.cpg/sg5_30_cif.got.tgz:59362.got - 2010.06.03 18:56:24.
