data_PCOD9126150
_publ_section_title
;
Structure prediction by ZEFSAII (Michael W. Deem and Ramdas Pophale) SiO2 
 PCOD9126150
Probable space group: C 2
;
_chemical_formula_sum "Si O2"
_cell_formula_units_Z 30
_cell_length_a 13.849176
_cell_length_b 5.455987
_cell_length_c 19.418520
_cell_angle_alpha 90.000000
_cell_angle_beta 126.094174
_cell_angle_gamma 90.000000
_cell_volume 1185.636362
_symmetry_space_group_name_H-M "C 2"
_symmetry_group_IT_number 5
_symmetry_cell_setting 'monoclinic'
loop_
_space_group_symop_operation_xyz
x,y,z
-x,y,-z
1/2+x,1/2+y,z
1/2-x,1/2+y,-z
loop_
_atom_site_type_symbol
_atom_site_label
_atom_site_fract_x
_atom_site_fract_y
_atom_site_fract_z
Si Si1 0.000000 0.056471 0.000000
Si Si2 0.624189 0.053174 0.853242
Si Si3 0.815823 0.309971 0.853233
Si Si4 0.135724 0.450161 0.271972
Si Si5 0.526324 0.127840 0.622252
Si Si6 0.296908 0.194214 0.962651
Si Si7 0.446090 0.610757 0.657268
Si Si8 0.195797 0.710753 0.572009
O O1 0.946730 0.189801 0.910675
O O2 0.888467 0.900123 0.976908
O O3 0.704027 0.135026 0.821665
O O4 0.485183 0.105583 0.784478
O O5 0.664228 0.773862 0.885278
O O6 0.675253 0.165291 0.945740
O O7 0.806173 0.451265 0.778255
O O8 0.826275 0.469698 0.926323
O O9 0.078255 0.189013 0.273359
O O10 0.238896 0.465330 0.374066
O O11 0.498153 0.863624 0.645533
O O12 0.644185 0.109654 0.623574
O O13 0.417061 0.195414 0.524560
O O14 0.519662 0.372596 0.667248
O O15 0.305481 0.576011 0.579666
#
# Coordination Sequence:
#
# PCOD9126150 Si02
#       8
#     2   4   4   4   4   4   4   4
#     4  10  22  38  66  88 118 176 220 292 330 412
#     4  11  23  41  65  95 125 179 227 281 347 404
#     4  11  23  41  64  92 136 165 233 283 344 409
#     4  10  25  42  60 103 134 175 220 291 355 404
#     4  11  22  48  77 103 144 189 241 281 338 436
#     4  11  22  41  66  90 121 177 232 277 338 417
#     4  10  25  44  73 105 145 187 235 286 351 416
#     4   9  24  42  71 108 138 187 232 287 351 419
#
# _framework density 25.302866999999999
#
# number of rings (size 3 to 8) (size 9 to 14) (size 15 to 20)
#    0.800    0.800    1.333    2.800    3.733    4.267 
#    7.200    0.000    0.000    0.000    0.000    0.000 
#    0.000    0.000    0.000    0.000    0.000    0.000 
#
# Total GULP energy -83546.377704 kJ/mol
# GULP energy per Si atom -5569.758514 kJ/mol
# Density = 2.524528 g / cm^3
# Si number density = 25.302867 Si / 1000 Ang^3
#
#
#
# Elastic Constant Matrix: (Units=GPa)
#
#
# Indices 1 2 3 4 5 6 
#
# 1 135.9657 40.7803 22.8598 0.0000 0.5661 0.0000
# 2 40.7803 80.1974 17.2311 0.0000 -5.4439 0.0000
# 3 22.8598 17.2311 84.2365 0.0000 10.3014 0.0000
# 4 0.0000 0.0000 0.0000 21.5234 0.0000 0.0575
# 5 0.5661 -5.4439 10.3014 0.0000 52.7807 0.0000
# 6 0.0000 0.0000 0.0000 0.0575 0.0000 27.3754
#
#
#
# Elastic Compliance Matrix: (Units=1/GPa)
#
#
# Indices 1 2 3 4 5 6 
#
# 1 0.008871 -0.004200 -0.001520 0.000000 -0.000232 0.000000
# 2 -0.004200 0.015222 -0.002225 0.000000 0.002049 0.000000
# 3 -0.001520 -0.002225 0.013077 0.000000 -0.002765 0.000000
# 4 0.000000 0.000000 0.000000 0.046461 0.000000 -0.000098
# 5 -0.000232 0.002049 -0.002765 0.000000 0.019700 0.000000
# 6 0.000000 0.000000 0.000000 -0.000098 0.000000 0.036529
#
#
# Mechanical properties :
#
#
# Convention : Reuss Voigt Hill
#
# Bulk Modulus (GPa) = 46.99023 51.34912 49.16968
# Shear Modulus (GPa) = 30.70436 34.97115 32.83775
#
# Velocity S-wave (km/s) = 3.48727 3.72170 3.60639
# Velocity P-wave (km/s) = 5.90137 6.22944 6.06762
#
# Compressibility (1/GPa) = 0.02128102
#
# Stress axis : x y z
#
# Youngs Moduli (GPa) = 112.72649 65.69424 76.46989
#
# Poissons Ratio (x) = 0.27592 0.11623
# Poissons Ratio (y) = 0.47346 0.17011
# Poissons Ratio (z) = 0.17133 0.14614
#
# Static dielectric constant tensor:
#      x y z
#    x 1.916330 0.000000 0.091550 
#    y 0.000000 2.119830 0.000000 
#    z 0.091550 0.000000 2.051000 
# 
# From -- ./inp_files/65698.got.cif
#   From: 2010.05.17/outbox.cif.g08.bks.cpg/sg5_33_cif.got.tgz:65698.got - 2010.06.03 18:56:24.
