data_PCOD9126260
_publ_section_title
;
Structure prediction by ZEFSAII (Michael W. Deem and Ramdas Pophale) SiO2 
 PCOD9126260
Probable space group: C 2
;
_chemical_formula_sum "Si O2"
_cell_formula_units_Z 32
_cell_length_a 17.163577
_cell_length_b 16.971988
_cell_length_c 12.425721
_cell_angle_alpha 90.000000
_cell_angle_beta 157.297094
_cell_angle_gamma 90.000000
_cell_volume 1396.999816
_symmetry_space_group_name_H-M "C 2"
_symmetry_group_IT_number 5
_symmetry_cell_setting 'monoclinic'
loop_
_space_group_symop_operation_xyz
x,y,z
-x,y,-z
1/2+x,1/2+y,z
1/2-x,1/2+y,-z
loop_
_atom_site_type_symbol
_atom_site_label
_atom_site_fract_x
_atom_site_fract_y
_atom_site_fract_z
Si Si1 0.576454 0.813370 0.216002
Si Si2 0.844193 0.632551 0.385174
Si Si3 0.463100 0.673307 0.182097
Si Si4 0.069880 0.547401 0.968375
Si Si5 0.864783 0.705506 0.064273
Si Si6 0.192897 0.909049 0.806677
Si Si7 0.007608 0.879617 0.793407
Si Si8 0.159892 0.027031 0.327380
O O1 0.623883 0.738783 0.352517
O O2 0.780498 0.862159 0.462940
O O3 0.500000 0.792848 0.000000
O O4 0.393101 0.858637 0.040076
O O5 0.968466 0.684327 0.629846
O O6 0.706513 0.571790 0.275182
O O7 0.000000 0.592237 0.500000
O O8 0.704346 0.681301 0.126201
O O9 0.556546 0.587762 0.280624
O O10 0.348644 0.691288 0.146492
O O11 0.108990 0.638165 0.990848
O O12 0.887748 0.516733 0.661325
O O13 0.261120 0.494138 0.184592
O O14 0.000000 0.535810 0.000000
O O15 0.896049 0.793830 0.061419
O O16 0.000000 0.872738 0.500000
O O17 0.138689 0.913838 0.862534
O O18 0.967442 0.946705 0.830992
#
# Coordination Sequence:
#
# PCOD9126260 Si02
#       8
#     4   4   4   4   4   4   4   4
#     4  12  21  35  60  91 130 159 203 260 329 378
#     4   9  20  38  63  92 124 162 207 261 319 384
#     4  11  21  39  64  95 126 165 208 261 323 387
#     4  11  23  44  61  86 127 173 218 259 305 374
#     4  10  22  39  63  92 125 170 214 259 313 373
#     4  12  23  37  61  94 128 160 209 263 325 376
#     4  12  23  38  59  93 128 164 205 264 310 372
#     4  11  22  38  62  92 129 166 213 255 320 376
#
# _framework density 22.906230999999998
#
# number of rings (size 3 to 8) (size 9 to 14) (size 15 to 20)
#    0.000    1.000    3.750    5.250    0.000    0.000 
#    0.000    1.250    0.000    0.000    0.000    2.625 
#    0.000    0.000    0.000    0.000    0.000    0.000 
#
# Total GULP energy -89441.317115 kJ/mol
# GULP energy per Si atom -5590.082320 kJ/mol
# Density = 2.285409 g / cm^3
# Si number density = 22.906231 Si / 1000 Ang^3
#
#
#
# Elastic Constant Matrix: (Units=GPa)
#
#
# Indices 1 2 3 4 5 6 
#
# 1 118.9664 59.1585 20.4588 0.0000 43.1228 0.0000
# 2 59.1585 145.5087 -2.4379 0.0000 26.8065 0.0000
# 3 20.4588 -2.4379 38.5254 0.0000 26.2335 0.0000
# 4 0.0000 0.0000 0.0000 23.5116 0.0000 7.7300
# 5 43.1228 26.8065 26.2335 0.0000 35.0478 0.0000
# 6 0.0000 0.0000 0.0000 7.7300 0.0000 29.7205
#
#
#
# Elastic Compliance Matrix: (Units=1/GPa)
#
#
# Indices 1 2 3 4 5 6 
#
# 1 0.017537 -0.002160 0.008399 0.000000 -0.026211 0.000000
# 2 -0.002160 0.010450 0.011097 0.000000 -0.013640 0.000000
# 3 0.008399 0.011097 0.071414 0.000000 -0.072275 0.000000
# 4 0.000000 0.000000 0.000000 0.046509 0.000000 -0.012097
# 5 -0.026211 -0.013640 -0.072275 0.000000 0.125314 0.000000
# 6 0.000000 0.000000 0.000000 -0.012097 0.000000 0.036793
#
#
# Mechanical properties :
#
#
# Convention : Reuss Voigt Hill
#
# Bulk Modulus (GPa) = 7.45875 50.81770 29.13823
# Shear Modulus (GPa) = 15.72153 32.71075 24.21614
#
# Velocity S-wave (km/s) = 2.62266 3.78303 3.25497
# Velocity P-wave (km/s) = 3.52624 6.42767 5.18408
#
# Compressibility (1/GPa) = 0.13407073
#
# Stress axis : x y z
#
# Youngs Moduli (GPa) = 57.02350 95.69775 14.00292
#
# Poissons Ratio (x) = 0.20673 -0.11761
# Poissons Ratio (y) = 0.12318 -0.15539
# Poissons Ratio (z) = -0.47893 -1.06194
#
# Static dielectric constant tensor:
#      x y z
#    x 1.826030 0.000000 0.009840 
#    y 0.000000 1.899180 0.000000 
#    z 0.009840 0.000000 1.898730 
# 
# From -- ./inp_files/43383.got.cif
#   From: 2010.05.17/outbox.cif.g08.bks.cpg/sg5_22_cif.got.tgz:43383.got - 2010.06.03 18:56:24.
