data_PCOD9126107
_publ_section_title
;
Structure prediction by ZEFSAII (Michael W. Deem and Ramdas Pophale) SiO2 
 PCOD9126107
Probable space group: C 2
;
_chemical_formula_sum "Si O2"
_cell_formula_units_Z 28
_cell_length_a 8.437672
_cell_length_b 13.225624
_cell_length_c 11.930044
_cell_angle_alpha 90.000000
_cell_angle_beta 108.623382
_cell_angle_gamma 90.000000
_cell_volume 1261.604995
_symmetry_space_group_name_H-M "C 2"
_symmetry_group_IT_number 5
_symmetry_cell_setting 'monoclinic'
loop_
_space_group_symop_operation_xyz
x,y,z
-x,y,-z
1/2+x,1/2+y,z
1/2-x,1/2+y,-z
loop_
_atom_site_type_symbol
_atom_site_label
_atom_site_fract_x
_atom_site_fract_y
_atom_site_fract_z
Si Si1 0.832038 0.731990 0.405228
Si Si2 0.639204 0.904970 0.450744
Si Si3 0.676046 0.593239 0.507795
Si Si4 0.122300 0.270675 0.935898
Si Si5 0.396669 0.958195 0.812288
Si Si6 0.384786 0.312528 0.177999
Si Si7 0.303904 0.182065 0.773298
O O1 0.798786 0.836752 0.461045
O O2 0.668082 0.672975 0.406856
O O3 0.838473 0.742978 0.274839
O O4 0.000000 0.690067 0.500000
O O5 0.500000 0.859418 0.500000
O O6 0.578645 0.938032 0.314304
O O7 0.705936 0.008119 0.516445
O O8 0.500000 0.548175 0.500000
O O9 0.742647 0.648769 0.635283
O O10 0.161970 0.211013 0.831314
O O11 0.031975 0.379268 0.892658
O O12 0.294637 0.285102 0.041981
O O13 0.000000 0.218759 0.000000
O O14 0.210493 0.916871 0.806917
O O15 0.400521 0.078629 0.835085
O O16 0.578859 0.282336 0.208723
#
# Coordination Sequence:
#
# PCOD9126107 Si02
#       7
#     4   4   4   4   4   4   4
#     4  11  21  38  63  91 131 167 210 267 331 392
#     4  10  22  38  62  93 130 172 215 264 335 398
#     4  11  24  38  62  95 132 169 223 272 323 402
#     4  10  23  42  65  94 129 167 225 275 320 393
#     4   9  23  43  65  94 133 169 220 275 327 390
#     4  10  22  40  64  94 127 171 215 272 323 395
#     4  11  23  44  69  93 130 181 218 272 341 384
#
# _framework density 22.193950999999998
#
# number of rings (size 3 to 8) (size 9 to 14) (size 15 to 20)
#    0.000    1.714    1.429    1.714   10.000    3.429 
#    0.000    5.714    0.000    0.000    0.000    0.000 
#    0.000    0.000    0.000    0.000    0.000    0.000 
#
# Total GULP energy -77943.875111 kJ/mol
# GULP energy per Si atom -5567.419651 kJ/mol
# Density = 2.214344 g / cm^3
# Si number density = 22.193951 Si / 1000 Ang^3
#
#
#
# Elastic Constant Matrix: (Units=GPa)
#
#
# Indices 1 2 3 4 5 6 
#
# 1 93.9289 21.3133 17.6182 0.0000 -19.5736 0.0000
# 2 21.3133 58.4683 14.5019 0.0000 -4.1730 0.0000
# 3 17.6182 14.5019 39.8475 0.0000 -15.5526 0.0000
# 4 0.0000 0.0000 0.0000 16.1650 0.0000 3.7058
# 5 -19.5736 -4.1730 -15.5526 0.0000 41.0838 0.0000
# 6 0.0000 0.0000 0.0000 3.7058 0.0000 15.5593
#
#
#
# Elastic Compliance Matrix: (Units=1/GPa)
#
#
# Indices 1 2 3 4 5 6 
#
# 1 0.012979 -0.003772 -0.002466 0.000000 0.004867 0.000000
# 2 -0.003772 0.019919 -0.006446 0.000000 -0.002214 0.000000
# 3 -0.002466 -0.006446 0.032640 0.000000 0.010527 0.000000
# 4 0.000000 0.000000 0.000000 0.065435 0.000000 -0.015585
# 5 0.004867 -0.002214 0.010527 0.000000 0.030419 0.000000
# 6 0.000000 0.000000 0.000000 -0.015585 0.000000 0.067982
#
#
# Mechanical properties :
#
#
# Convention : Reuss Voigt Hill
#
# Bulk Modulus (GPa) = 24.89372 33.23461 29.06416
# Shear Modulus (GPa) = 18.64747 23.81570 21.23159
#
# Velocity S-wave (km/s) = 2.90177 3.27933 3.09631
# Velocity P-wave (km/s) = 4.74003 5.41718 5.08988
#
# Compressibility (1/GPa) = 0.04017077
#
# Stress axis : x y z
#
# Youngs Moduli (GPa) = 77.04709 50.20325 30.63684
#
# Poissons Ratio (x) = 0.18938 0.07556
# Poissons Ratio (y) = 0.29064 0.19747
# Poissons Ratio (z) = 0.19001 0.32359
#
# Static dielectric constant tensor:
#      x y z
#    x 1.833010 0.000000 0.055090 
#    y 0.000000 1.842640 0.000000 
#    z 0.055090 0.000000 1.836480 
# 
# From -- ./inp_files/35914.got.cif
#   From: 2010.05.17/outbox.cif.g08.bks.cpg/sg5_18_cif.got.tgz:35914.got - 2010.06.03 18:56:24.
