data_PCOD9126329
_publ_section_title
;
Structure prediction by ZEFSAII (Michael W. Deem and Ramdas Pophale) SiO2 
 PCOD9126329
Probable space group: C 2
;
_chemical_formula_sum "Si O2"
_cell_formula_units_Z 26
_cell_length_a 9.518418
_cell_length_b 8.922839
_cell_length_c 22.403507
_cell_angle_alpha 90.000000
_cell_angle_beta 142.533228
_cell_angle_gamma 90.000000
_cell_volume 1157.450781
_symmetry_space_group_name_H-M "C 2"
_symmetry_group_IT_number 5
_symmetry_cell_setting 'monoclinic'
loop_
_space_group_symop_operation_xyz
x,y,z
-x,y,-z
1/2+x,1/2+y,z
1/2-x,1/2+y,-z
loop_
_atom_site_type_symbol
_atom_site_label
_atom_site_fract_x
_atom_site_fract_y
_atom_site_fract_z
Si Si1 0.500000 0.349850 0.500000
Si Si2 0.476736 0.736496 0.788056
Si Si3 0.469746 0.434148 0.357742
Si Si4 0.222297 0.751729 0.915451
Si Si5 0.283579 0.421333 0.970951
Si Si6 0.518862 0.761820 0.674904
Si Si7 0.627893 0.400456 0.286317
O O1 0.527643 0.440259 0.447417
O O2 0.739670 0.257954 0.582177
O O3 0.228465 0.810507 0.712875
O O4 0.621945 0.786475 0.893469
O O5 0.586541 0.808067 0.764754
O O6 0.454915 0.563928 0.763432
O O7 0.388489 0.598556 0.310932
O O8 0.646229 0.393052 0.364145
O O9 0.172245 0.585338 0.924257
O O10 0.067747 0.786922 0.805215
O O11 0.500000 0.762407 0.000000
O O12 0.157461 0.878573 0.941887
O O13 0.500000 0.420972 0.000000
O O14 0.630045 0.869841 0.664145
#
# Coordination Sequence:
#
# PCOD9126329 Si02
#       7
#     2   4   4   4   4   4   4
#     4  10  24  42  64  94 124 154 200 256 310 372
#     4  10  22  40  60  88 125 161 205 254 304 362
#     4  10  23  41  64  90 122 160 200 253 308 369
#     4  11  24  39  60  93 127 164 211 255 301 357
#     4  11  23  39  61  89 125 168 210 254 302 357
#     4  10  23  42  64  91 122 159 202 251 310 368
#     4  11  23  39  63  91 122 164 207 252 306 364
#
# _framework density 22.463156999999999
#
# number of rings (size 3 to 8) (size 9 to 14) (size 15 to 20)
#    0.000    1.538    0.000    3.692    0.000   16.615 
#    0.000    0.000    0.000    0.923    0.000    0.000 
#    0.000    0.000    0.000    0.000    0.000    0.000 
#
# Total GULP energy -72564.187491 kJ/mol
# GULP energy per Si atom -5581.860576 kJ/mol
# Density = 2.241203 g / cm^3
# Si number density = 22.463157 Si / 1000 Ang^3
#
#
#
# Elastic Constant Matrix: (Units=GPa)
#
#
# Indices 1 2 3 4 5 6 
#
# 1 135.9983 30.6580 37.8152 0.0000 -23.7296 0.0000
# 2 30.6580 77.2475 0.7007 0.0000 -3.3718 0.0000
# 3 37.8152 0.7007 69.4167 0.0000 -13.1932 0.0000
# 4 0.0000 0.0000 0.0000 20.5436 0.0000 -4.8313
# 5 -23.7296 -3.3718 -13.1932 0.0000 45.9899 0.0000
# 6 0.0000 0.0000 0.0000 -4.8313 0.0000 25.2752
#
#
#
# Elastic Compliance Matrix: (Units=1/GPa)
#
#
# Indices 1 2 3 4 5 6 
#
# 1 0.010189 -0.003843 -0.004829 0.000000 0.003590 0.000000
# 2 -0.003843 0.014437 0.001874 0.000000 -0.000387 0.000000
# 3 -0.004829 0.001874 0.017526 0.000000 0.002673 0.000000
# 4 0.000000 0.000000 0.000000 0.050968 0.000000 0.009742
# 5 0.003590 -0.000387 0.002673 0.000000 0.024335 0.000000
# 6 0.000000 0.000000 0.000000 0.009742 0.000000 0.041427
#
#
# Mechanical properties :
#
#
# Convention : Reuss Voigt Hill
#
# Bulk Modulus (GPa) = 35.02017 46.77892 40.89954
# Shear Modulus (GPa) = 27.47331 32.59431 30.03381
#
# Velocity S-wave (km/s) = 3.50099 3.81335 3.66050
# Velocity P-wave (km/s) = 5.65389 6.34498 6.00938
#
# Compressibility (1/GPa) = 0.02855497
#
# Stress axis : x y z
#
# Youngs Moduli (GPa) = 98.14926 69.26751 57.05927
#
# Poissons Ratio (x) = 0.26620 0.27555
# Poissons Ratio (y) = 0.37720 -0.10695
# Poissons Ratio (z) = 0.47398 -0.12983
#
# Static dielectric constant tensor:
#      x y z
#    x 1.842200 0.000000 -0.013030 
#    y 0.000000 1.812150 0.000000 
#    z -0.013030 0.000000 1.882380 
# 
# From -- ./inp_files/59316.got.cif
#   From: 2010.05.17/outbox.cif.g08.bks.cpg/sg5_30_cif.got.tgz:59316.got - 2010.06.03 18:56:24.
