data_PCOD9126091
_publ_section_title
;
Structure prediction by ZEFSAII (Michael W. Deem and Ramdas Pophale) SiO2 
 PCOD9126091
Probable space group: C 2
;
_chemical_formula_sum "Si O2"
_cell_formula_units_Z 32
_cell_length_a 21.742094
_cell_length_b 6.496499
_cell_length_c 12.802815
_cell_angle_alpha 90.000000
_cell_angle_beta 135.801350
_cell_angle_gamma 90.000000
_cell_volume 1260.698779
_symmetry_space_group_name_H-M "C 2"
_symmetry_group_IT_number 5
_symmetry_cell_setting 'monoclinic'
loop_
_space_group_symop_operation_xyz
x,y,z
-x,y,-z
1/2+x,1/2+y,z
1/2-x,1/2+y,-z
loop_
_atom_site_type_symbol
_atom_site_label
_atom_site_fract_x
_atom_site_fract_y
_atom_site_fract_z
Si Si1 0.262466 0.592380 0.889475
Si Si2 0.586267 0.926914 0.957125
Si Si3 0.825905 0.959330 0.179200
Si Si4 0.551261 0.567064 0.163442
Si Si5 0.720754 0.205018 0.227201
Si Si6 0.840912 0.283611 0.559820
Si Si7 0.552242 0.181175 0.321924
Si Si8 0.481664 0.537415 0.595656
O O1 0.334780 0.772789 0.973232
O O2 0.284266 0.434561 0.824787
O O3 0.173595 0.725762 0.779164
O O4 0.264970 0.476344 0.002562
O O5 0.630662 0.079417 0.096745
O O6 0.509306 0.770653 0.894762
O O7 0.540101 0.063755 0.811824
O O8 0.791738 0.097369 0.234160
O O9 0.918506 0.026929 0.243099
O O10 0.645838 0.672946 0.311298
O O11 0.552141 0.368636 0.239290
O O12 0.500000 0.482921 0.000000
O O13 0.756149 0.221424 0.388048
O O14 0.867488 0.522846 0.594751
O O15 0.919911 0.189924 0.583334
O O16 0.555644 0.307253 0.433894
O O17 0.500000 0.596979 0.500000
#
# Coordination Sequence:
#
# PCOD9126091 Si02
#       8
#     4   4   4   4   4   4   4   4
#     4  11  22  34  55  84 122 170 218 253 296 359
#     4  10  22  41  64  88 126 161 207 262 316 375
#     4  11  21  33  51  80 121 169 225 255 288 352
#     4  10  22  44  74  97 115 151 212 267 331 402
#     4  11  22  37  58  86 128 173 207 258 318 361
#     4  10  23  41  60  93 130 164 209 267 320 380
#     4  10  22  38  61  91 125 161 206 268 319 368
#     4  11  22  35  53  84 127 171 217 251 298 356
#
# _framework density 25.382747999999999
#
# number of rings (size 3 to 8) (size 9 to 14) (size 15 to 20)
#    0.000    1.500    2.500    3.750    3.500    4.500 
#    0.000    0.000    5.500    0.000    0.000    0.000 
#    0.000    0.000    0.000    0.000    0.000    0.000 
#
# Total GULP energy -89272.297849 kJ/mol
# GULP energy per Si atom -5579.518616 kJ/mol
# Density = 2.532498 g / cm^3
# Si number density = 25.382748 Si / 1000 Ang^3
#
#
#
# Elastic Constant Matrix: (Units=GPa)
#
#
# Indices 1 2 3 4 5 6 
#
# 1 41.4279 33.4505 21.0822 0.0000 2.1205 0.0000
# 2 33.4505 131.4891 43.5056 0.0000 2.8201 0.0000
# 3 21.0822 43.5056 151.3475 0.0000 -9.8887 0.0000
# 4 0.0000 0.0000 0.0000 23.3820 0.0000 -4.6848
# 5 2.1205 2.8201 -9.8887 0.0000 28.8330 0.0000
# 6 0.0000 0.0000 0.0000 -4.6848 0.0000 27.1926
#
#
#
# Elastic Compliance Matrix: (Units=1/GPa)
#
#
# Indices 1 2 3 4 5 6 
#
# 1 0.031237 -0.007074 -0.002478 0.000000 -0.002455 0.000000
# 2 -0.007074 0.010088 -0.001989 0.000000 -0.001149 0.000000
# 3 -0.002478 -0.001989 0.007722 0.000000 0.003025 0.000000
# 4 0.000000 0.000000 0.000000 0.044297 0.000000 0.007632
# 5 -0.002455 -0.001149 0.003025 0.000000 0.036013 0.000000
# 6 0.000000 0.000000 0.000000 0.007632 0.000000 0.038090
#
#
# Mechanical properties :
#
#
# Convention : Reuss Voigt Hill
#
# Bulk Modulus (GPa) = 38.51567 57.81568 48.16568
# Shear Modulus (GPa) = 25.10244 30.96326 28.03285
#
# Velocity S-wave (km/s) = 3.14818 3.49643 3.32687
# Velocity P-wave (km/s) = 5.33119 6.25516 5.81157
#
# Compressibility (1/GPa) = 0.02596346
#
# Stress axis : x y z
#
# Youngs Moduli (GPa) = 32.01341 99.13088 129.49940
#
# Poissons Ratio (x) = 0.70125 0.32092
# Poissons Ratio (y) = 0.22646 0.25763
# Poissons Ratio (z) = 0.07933 0.19721
#
# Static dielectric constant tensor:
#      x y z
#    x 2.071480 0.000000 0.042260 
#    y 0.000000 2.000790 0.000000 
#    z 0.042260 0.000000 2.162230 
# 
# From -- ./inp_files/58320.got.cif
#   From: 2010.05.17/outbox.cif.g08.bks.cpg/sg5_30_cif.got.tgz:58320.got - 2010.06.03 18:56:24.
