data_PCOD9126895
_publ_section_title
;
Structure prediction by ZEFSAII (Michael W. Deem and Ramdas Pophale) SiO2 
 PCOD9126895
Probable space group: C 2
;
_chemical_formula_sum "Si O2"
_cell_formula_units_Z 28
_cell_length_a 13.251342
_cell_length_b 4.855162
_cell_length_c 21.604953
_cell_angle_alpha 90.000000
_cell_angle_beta 125.674179
_cell_angle_gamma 90.000000
_cell_volume 1129.167025
_symmetry_space_group_name_H-M "C 2"
_symmetry_group_IT_number 5
_symmetry_cell_setting 'monoclinic'
loop_
_space_group_symop_operation_xyz
x,y,z
-x,y,-z
1/2+x,1/2+y,z
1/2-x,1/2+y,-z
loop_
_atom_site_type_symbol
_atom_site_label
_atom_site_fract_x
_atom_site_fract_y
_atom_site_fract_z
Si Si1 0.000000 0.592411 0.000000
Si Si2 0.000000 0.478837 0.500000
Si Si3 0.613156 0.274364 0.231137
Si Si4 0.978893 0.273178 0.863771
Si Si5 0.752433 0.869098 0.959169
Si Si6 0.002228 0.945435 0.315834
Si Si7 0.108867 0.413787 0.662155
Si Si8 0.248416 0.705516 0.539585
O O1 0.980918 0.399713 0.932922
O O2 0.875592 0.773606 0.967822
O O3 0.967249 0.314724 0.425897
O O4 0.877556 0.658202 0.468243
O O5 0.562853 0.459599 0.156569
O O6 0.521796 0.319851 0.255734
O O7 0.746255 0.389035 0.298347
O O8 0.612617 0.959887 0.210023
O O9 0.116746 0.303500 0.884034
O O10 0.749694 0.687133 0.021709
O O11 0.945334 0.710630 0.339687
O O12 0.133478 0.073714 0.384840
O O13 0.913717 0.207601 0.289227
O O14 0.265588 0.022689 0.528058
#
# Coordination Sequence:
#
# PCOD9126895 Si02
#       8
#     2   2   4   4   4   4   4   4
#     4  10  24  46  76 106 136 174 226 284 340 404
#     4  12  24  44  72 104 134 178 238 298 338 396
#     4  12  27  47  66 100 143 186 230 279 339 416
#     4  11  25  45  73 102 139 182 224 281 343 407
#     4  10  22  42  69 105 136 169 218 271 336 403
#     4  12  25  46  65  96 137 181 229 284 343 410
#     4  12  27  44  72 101 135 187 236 282 348 401
#     4  12  24  42  67 101 131 174 227 287 352 400
#
# _framework density 24.797042999999999
#
# number of rings (size 3 to 8) (size 9 to 14) (size 15 to 20)
#    0.000    0.571    4.286    3.429    0.000   10.857 
#    0.000    4.286    0.000    0.000    0.000    0.000 
#    0.000    0.000    0.000    0.000    0.000    0.000 
#
# Total GULP energy -78419.873835 kJ/mol
# GULP energy per Si atom -5601.419560 kJ/mol
# Density = 2.474060 g / cm^3
# Si number density = 24.797043 Si / 1000 Ang^3
#
#
#
# Elastic Constant Matrix: (Units=GPa)
#
#
# Indices 1 2 3 4 5 6 
#
# 1 144.0770 10.8077 17.7626 -0.0001 6.1097 0.0001
# 2 10.8077 77.5171 0.6936 -0.0005 0.3098 0.0006
# 3 17.7626 0.6936 65.9146 -0.0001 -0.1237 0.0001
# 4 -0.0001 -0.0005 -0.0001 29.0169 0.0001 4.4048
# 5 6.1097 0.3098 -0.1237 0.0001 41.6323 -0.0001
# 6 0.0001 0.0006 0.0001 4.4048 -0.0001 27.2267
#
#
#
# Elastic Compliance Matrix: (Units=1/GPa)
#
#
# Indices 1 2 3 4 5 6 
#
# 1 0.007302 -0.000996 -0.001959 0.000000 -0.001070 0.000000
# 2 -0.000996 0.013038 0.000131 0.000000 0.000050 0.000000
# 3 -0.001959 0.000131 0.015698 0.000000 0.000333 0.000000
# 4 0.000000 0.000000 0.000000 0.035330 0.000000 -0.005716
# 5 -0.001070 0.000050 0.000333 0.000000 0.024177 0.000000
# 6 0.000000 0.000000 0.000000 -0.005716 0.000000 0.037653
#
#
# Mechanical properties :
#
#
# Convention : Reuss Voigt Hill
#
# Bulk Modulus (GPa) = 32.90543 38.44849 35.67696
# Shear Modulus (GPa) = 33.56190 36.79152 35.17671
#
# Velocity S-wave (km/s) = 3.68294 3.85607 3.77050
# Velocity P-wave (km/s) = 5.60215 5.94682 5.77705
#
# Compressibility (1/GPa) = 0.03039012
#
# Stress axis : x y z
#
# Youngs Moduli (GPa) = 136.94115 76.69941 63.70083
#
# Poissons Ratio (x) = 0.07642 0.12481
# Poissons Ratio (y) = 0.13644 -0.00837
# Poissons Ratio (z) = 0.26832 -0.01008
#
# Static dielectric constant tensor:
#      x y z
#    x 1.984220 0.000000 -0.005730 
#    y 0.000000 1.887210 0.000000 
#    z -0.005730 0.000000 1.996780 
# 
# From -- ./inp_files/65006.got.cif
#   From: 2010.05.17/outbox.cif.g08.bks.cpg/sg5_33_cif.got.tgz:65006.got - 2010.06.03 18:56:24.
