data_PCOD9126611
_publ_section_title
;
Structure prediction by ZEFSAII (Michael W. Deem and Ramdas Pophale) SiO2 
 PCOD9126611
Probable space group: C 2
;
_chemical_formula_sum "Si O2"
_cell_formula_units_Z 20
_cell_length_a 26.988604
_cell_length_b 8.052325
_cell_length_c 5.028115
_cell_angle_alpha 90.000000
_cell_angle_beta 121.571798
_cell_angle_gamma 90.000000
_cell_volume 930.976541
_symmetry_space_group_name_H-M "C 2"
_symmetry_group_IT_number 5
_symmetry_cell_setting 'monoclinic'
loop_
_space_group_symop_operation_xyz
x,y,z
-x,y,-z
1/2+x,1/2+y,z
1/2-x,1/2+y,-z
loop_
_atom_site_type_symbol
_atom_site_label
_atom_site_fract_x
_atom_site_fract_y
_atom_site_fract_z
Si Si1 0.064389 0.712620 0.228820
Si Si2 0.766041 0.415698 0.796315
Si Si3 0.435327 0.437319 0.267249
Si Si4 0.835121 0.459234 0.475621
Si Si5 0.330524 0.622620 0.228820
O O1 0.068344 0.781275 0.539126
O O2 0.113786 0.580686 0.302933
O O3 0.069288 0.868878 0.043404
O O4 0.000000 0.641515 0.000000
O O5 0.783687 0.451126 0.546247
O O6 0.702828 0.477958 0.705097
O O7 0.810615 0.511457 0.118390
O O8 0.783121 0.227650 0.922988
O O9 0.500000 0.509745 0.500000
O O10 0.382264 0.554410 0.196504
O O11 0.854070 0.267421 0.489459
#
# Coordination Sequence:
#
# PCOD9126611 Si02
#       5
#     4   4   4   4   4
#     4  10  22  41  65  91 122 169 212 257 312 374
#     4  10  25  39  60  95 123 171 201 264 315 371
#     4  10  23  42  66  92 124 167 210 258 312 374
#     4  10  24  40  61  94 123 169 205 262 315 369
#     4  10  26  40  64  94 130 164 212 259 316 374
#
# _framework density 21.482821000000001
#
# number of rings (size 3 to 8) (size 9 to 14) (size 15 to 20)
#    1.200    0.800    0.000    1.200   11.200    0.000 
#    3.600    0.000    0.000    0.000    0.000    0.000 
#    0.000    0.000    0.000    0.000    0.000    0.000 
#
# Total GULP energy -55794.547334 kJ/mol
# GULP energy per Si atom -5579.454733 kJ/mol
# Density = 2.143392 g / cm^3
# Si number density = 21.482821 Si / 1000 Ang^3
#
#
#
# Elastic Constant Matrix: (Units=GPa)
#
#
# Indices 1 2 3 4 5 6 
#
# 1 106.9867 38.2754 -7.1060 0.0000 6.6751 0.0000
# 2 38.2754 58.5261 8.5591 0.0000 22.1830 0.0000
# 3 -7.1060 8.5591 33.6432 0.0000 -8.7943 0.0000
# 4 0.0000 0.0000 0.0000 16.4787 0.0000 -0.8085
# 5 6.6751 22.1830 -8.7943 0.0000 36.5169 0.0000
# 6 0.0000 0.0000 0.0000 -0.8085 0.0000 27.3089
#
#
#
# Elastic Compliance Matrix: (Units=1/GPa)
#
#
# Indices 1 2 3 4 5 6 
#
# 1 0.014224 -0.013392 0.008386 0.000000 0.007555 0.000000
# 2 -0.013392 0.038303 -0.019226 0.000000 -0.025450 0.000000
# 3 0.008386 -0.019226 0.041661 0.000000 0.020179 0.000000
# 4 0.000000 0.000000 0.000000 0.060773 0.000000 0.001799
# 5 0.007555 -0.025450 0.020179 0.000000 0.046323 0.000000
# 6 0.000000 0.000000 0.000000 0.001799 0.000000 0.036671
#
#
# Mechanical properties :
#
#
# Convention : Reuss Voigt Hill
#
# Bulk Modulus (GPa) = 21.87028 30.95699 26.41364
# Shear Modulus (GPa) = 16.57497 26.68940 21.63218
#
# Velocity S-wave (km/s) = 2.78068 3.52854 3.17669
# Velocity P-wave (km/s) = 4.52902 5.57155 5.07712
#
# Compressibility (1/GPa) = 0.04572415
#
# Stress axis : x y z
#
# Youngs Moduli (GPa) = 70.30477 26.10790 24.00316
#
# Poissons Ratio (x) = 0.34964 -0.20130
# Poissons Ratio (y) = 0.94154 0.46148
# Poissons Ratio (z) = -0.58960 0.50195
#
# Static dielectric constant tensor:
#      x y z
#    x 1.735440 0.000000 0.023090 
#    y 0.000000 1.777720 0.000000 
#    z 0.023090 0.000000 1.805050 
# 
# From -- ./inp_files/9139.got.cif
#   From: 2010.05.17/outbox.cif.g08.bks.cpg/sg5_5_cif.got.tgz:9139.got - 2010.06.03 18:56:24.
