data_PCOD9126388
_publ_section_title
;
Structure prediction by ZEFSAII (Michael W. Deem and Ramdas Pophale) SiO2 
 PCOD9126388
Probable space group: C 2
;
_chemical_formula_sum "Si O2"
_cell_formula_units_Z 26
_cell_length_a 15.258864
_cell_length_b 8.650457
_cell_length_c 14.406732
_cell_angle_alpha 90.000000
_cell_angle_beta 133.875367
_cell_angle_gamma 90.000000
_cell_volume 1370.790627
_symmetry_space_group_name_H-M "C 2"
_symmetry_group_IT_number 5
_symmetry_cell_setting 'monoclinic'
loop_
_space_group_symop_operation_xyz
x,y,z
-x,y,-z
1/2+x,1/2+y,z
1/2-x,1/2+y,-z
loop_
_atom_site_type_symbol
_atom_site_label
_atom_site_fract_x
_atom_site_fract_y
_atom_site_fract_z
Si Si1 0.309573 0.169630 0.789209
Si Si2 0.699351 0.809880 0.532887
Si Si3 0.500000 0.920633 0.000000
Si Si4 0.500000 0.412901 0.000000
Si Si5 0.500000 0.353933 0.500000
Si Si6 0.996234 0.165307 0.138804
Si Si7 0.541207 0.629962 0.669726
Si Si8 0.731707 0.168690 0.611771
O O1 0.281148 0.203856 0.660857
O O2 0.389572 0.310456 0.884190
O O3 0.177767 0.164195 0.739078
O O4 0.391822 0.023142 0.876825
O O5 0.560551 0.751304 0.439492
O O6 0.742146 0.771513 0.460517
O O7 0.710056 0.990134 0.566538
O O8 0.451686 0.814820 0.049451
O O9 0.545793 0.519047 0.950314
O O10 0.506820 0.467567 0.594705
O O11 0.618509 0.246362 0.580070
O O12 0.143207 0.171651 0.239325
O O13 0.966275 0.140443 0.224318
#
# Coordination Sequence:
#
# PCOD9126388 Si02
#       8
#     4   4   2   2   2   4   4   4
#     4  11  22  41  63  90 129 163 213 260 308 376
#     4  11  23  41  66  93 128 170 204 266 323 376
#     4  10  24  40  66  88 124 180 210 248 314 374
#     4  10  22  40  64  82 122 176 210 256 308 370
#     4  12  24  38  62 104 124 166 200 268 330 370
#     4  10  22  42  62  91 124 169 214 256 310 377
#     4  11  24  40  66  93 133 158 211 266 320 366
#     4  11  24  39  66  94 130 162 214 260 325 373
#
# _framework density 18.967155000000002
#
# number of rings (size 3 to 8) (size 9 to 14) (size 15 to 20)
#    0.000    1.231    3.077    2.769    6.462    1.231 
#    0.000    0.000    0.000    0.000    0.000    0.000 
#    0.000    0.000    0.000    0.000    0.000    0.000 
#
# Total GULP energy -72573.149674 kJ/mol
# GULP energy per Si atom -5582.549975 kJ/mol
# Density = 1.892398 g / cm^3
# Si number density = 18.967155 Si / 1000 Ang^3
#
#
#
# Elastic Constant Matrix: (Units=GPa)
#
#
# Indices 1 2 3 4 5 6 
#
# 1 45.0265 11.0630 -0.1469 0.0000 -2.8103 0.0000
# 2 11.0630 105.4558 16.4848 0.0000 -9.3302 0.0000
# 3 -0.1469 16.4848 65.2214 0.0000 -11.8813 0.0000
# 4 0.0000 0.0000 0.0000 41.5239 0.0000 14.7105
# 5 -2.8103 -9.3302 -11.8813 0.0000 41.4467 0.0000
# 6 0.0000 0.0000 0.0000 14.7105 0.0000 37.8347
#
#
#
# Elastic Compliance Matrix: (Units=1/GPa)
#
#
# Indices 1 2 3 4 5 6 
#
# 1 0.022888 -0.002429 0.000895 0.000000 0.001262 0.000000
# 2 -0.002429 0.010231 -0.002323 0.000000 0.001472 0.000000
# 3 0.000895 -0.002323 0.016710 0.000000 0.004328 0.000000
# 4 0.000000 0.000000 0.000000 0.027930 0.000000 -0.010859
# 5 0.001262 0.001472 0.004328 0.000000 0.025785 0.000000
# 6 0.000000 0.000000 0.000000 -0.010859 0.000000 0.030653
#
#
# Mechanical properties :
#
#
# Convention : Reuss Voigt Hill
#
# Bulk Modulus (GPa) = 23.74484 30.05617 26.90051
# Shear Modulus (GPa) = 32.06185 36.71459 34.38822
#
# Velocity S-wave (km/s) = 4.11589 4.40442 4.26260
# Velocity P-wave (km/s) = 5.92736 6.46112 6.19999
#
# Compressibility (1/GPa) = 0.04211441
#
# Stress axis : x y z
#
# Youngs Moduli (GPa) = 43.69158 97.74287 59.84440
#
# Poissons Ratio (x) = 0.23746 -0.05359
# Poissons Ratio (y) = 0.10614 0.13903
# Poissons Ratio (z) = -0.03912 0.22707
#
# Static dielectric constant tensor:
#      x y z
#    x 1.632110 0.000000 -0.013070 
#    y 0.000000 1.675750 0.000000 
#    z -0.013070 0.000000 1.651510 
# 
# From -- ./inp_files/41461.got.cif
#   From: 2010.05.17/outbox.cif.g08.bks.cpg/sg5_21_cif.got.tgz:41461.got - 2010.06.03 18:56:24.
