data_PCOD9126704
_publ_section_title
;
Structure prediction by ZEFSAII (Michael W. Deem and Ramdas Pophale) SiO2 
 PCOD9126704
Probable space group: C 2
;
_chemical_formula_sum "Si O2"
_cell_formula_units_Z 26
_cell_length_a 20.339425
_cell_length_b 7.485340
_cell_length_c 10.508951
_cell_angle_alpha 90.000000
_cell_angle_beta 149.040080
_cell_angle_gamma 90.000000
_cell_volume 823.081604
_symmetry_space_group_name_H-M "C 2"
_symmetry_group_IT_number 5
_symmetry_cell_setting 'monoclinic'
loop_
_space_group_symop_operation_xyz
x,y,z
-x,y,-z
1/2+x,1/2+y,z
1/2-x,1/2+y,-z
loop_
_atom_site_type_symbol
_atom_site_label
_atom_site_fract_x
_atom_site_fract_y
_atom_site_fract_z
Si Si1 0.596162 0.520630 0.901245
Si Si2 0.313439 0.020804 0.453201
Si Si3 0.424510 0.946533 0.109579
Si Si4 0.000000 0.951248 0.000000
Si Si5 0.313046 0.440961 0.483334
Si Si6 0.330078 0.594191 0.239395
Si Si7 0.500000 0.922959 0.500000
Si Si8 0.000000 0.507240 0.000000
O O1 0.611558 0.473078 0.777849
O O2 0.680825 0.065292 0.991926
O O3 0.486114 0.445331 0.812252
O O4 0.598546 0.735404 0.912708
O O5 0.312489 0.233223 0.448485
O O6 0.209250 0.968982 0.399345
O O7 0.219221 0.953477 0.185173
O O8 0.466549 0.999688 0.585476
O O9 0.353988 0.981675 0.837752
O O10 0.558815 0.968401 0.245862
O O11 0.000000 0.167136 0.000000
O O12 0.000000 0.728934 0.000000
O O13 0.362662 0.554739 0.440343
O O14 0.383771 0.785196 0.295610
#
# Coordination Sequence:
#
# PCOD9126704 Si02
#       8
#     4   4   4   2   4   4   2   2
#     4  10  22  42  67 102 138 182 237 289 350 429
#     4  10  22  45  71 101 141 177 238 299 353 425
#     4  10  26  43  73 102 141 192 234 293 367 418
#     4   8  21  38  67  96 138 185 232 285 352 420
#     4  10  22  41  72 102 135 184 235 290 359 422
#     4  12  25  46  69 103 143 189 239 295 358 426
#     4  12  24  52  66 106 158 182 240 310 346 430
#     4   8  23  48  65 110 142 179 244 289 368 428
#
# _framework density 31.588602000000002
#
# number of rings (size 3 to 8) (size 9 to 14) (size 15 to 20)
#    1.846    0.000    1.538    1.385    4.308    2.462 
#    5.538    4.615    0.000    0.000    0.000    0.000 
#    0.000    0.000    0.000    0.000    0.000    0.000 
#
# Total GULP energy -72407.922687 kJ/mol
# GULP energy per Si atom -5569.840207 kJ/mol
# Density = 3.151670 g / cm^3
# Si number density = 31.588602 Si / 1000 Ang^3
#
#
#
# Elastic Constant Matrix: (Units=GPa)
#
#
# Indices 1 2 3 4 5 6 
#
# 1 238.6038 69.3103 139.8438 0.0000 -18.7153 0.0000
# 2 69.3103 88.4745 30.2681 0.0000 -2.4963 0.0000
# 3 139.8438 30.2681 239.5325 0.0000 -33.5869 0.0000
# 4 0.0000 0.0000 0.0000 60.3233 0.0000 4.7329
# 5 -18.7153 -2.4963 -33.5869 0.0000 138.7697 0.0000
# 6 0.0000 0.0000 0.0000 4.7329 0.0000 66.4113
#
#
#
# Elastic Compliance Matrix: (Units=1/GPa)
#
#
# Indices 1 2 3 4 5 6 
#
# 1 0.007971 -0.004863 -0.004038 0.000000 0.000010 0.000000
# 2 -0.004863 0.014783 0.000948 0.000000 -0.000160 0.000000
# 3 -0.004038 0.000948 0.006561 0.000000 0.001060 0.000000
# 4 0.000000 0.000000 0.000000 0.016671 0.000000 -0.001188
# 5 0.000010 -0.000160 0.001060 0.000000 0.007461 0.000000
# 6 0.000000 0.000000 0.000000 -0.001188 0.000000 0.015142
#
#
# Mechanical properties :
#
#
# Convention : Reuss Voigt Hill
#
# Bulk Modulus (GPa) = 74.56549 116.16169 95.36359
# Shear Modulus (GPa) = 56.20311 74.91342 65.55827
#
# Velocity S-wave (km/s) = 4.22266 4.87512 4.56057
# Velocity P-wave (km/s) = 6.88701 8.27902 7.61489
#
# Compressibility (1/GPa) = 0.01341103
#
# Stress axis : x y z
#
# Youngs Moduli (GPa) = 125.45836 67.64490 152.41861
#
# Poissons Ratio (x) = 0.32893 0.61540
# Poissons Ratio (y) = 0.61006 -0.14455
# Poissons Ratio (z) = 0.50655 -0.06415
#
# Static dielectric constant tensor:
#      x y z
#    x 3.723770 0.000000 0.811600 
#    y 0.000000 2.129830 0.000000 
#    z 0.811600 0.000000 3.678450 
# 
# From -- ./inp_files/45551.got.cif
#   From: 2010.05.17/outbox.cif.g08.bks.cpg/sg5_23_cif.got.tgz:45551.got - 2010.06.03 18:56:24.
