data_PCOD9126749
_publ_section_title
;
Structure prediction by ZEFSAII (Michael W. Deem and Ramdas Pophale) SiO2 
 PCOD9126749
Probable space group: C 2
;
_chemical_formula_sum "Si O2"
_cell_formula_units_Z 30
_cell_length_a 14.531191
_cell_length_b 11.834380
_cell_length_c 7.495924
_cell_angle_alpha 90.000000
_cell_angle_beta 114.817592
_cell_angle_gamma 90.000000
_cell_volume 1170.010236
_symmetry_space_group_name_H-M "C 2"
_symmetry_group_IT_number 5
_symmetry_cell_setting 'monoclinic'
loop_
_space_group_symop_operation_xyz
x,y,z
-x,y,-z
1/2+x,1/2+y,z
1/2-x,1/2+y,-z
loop_
_atom_site_type_symbol
_atom_site_label
_atom_site_fract_x
_atom_site_fract_y
_atom_site_fract_z
Si Si1 0.775803 0.819260 0.216199
Si Si2 0.919629 0.565148 0.090876
Si Si3 0.500000 0.692644 0.000000
Si Si4 0.686146 0.371436 0.382853
Si Si5 0.024980 0.823773 0.814356
Si Si6 0.207523 0.093115 0.283612
Si Si7 0.405856 0.829264 0.205094
Si Si8 0.764684 0.156435 0.288891
O O1 0.749063 0.868911 0.386414
O O2 0.872267 0.866741 0.191765
O O3 0.784969 0.685169 0.272169
O O4 0.681592 0.831496 0.013995
O O5 0.804946 0.586129 0.910021
O O6 0.961489 0.687881 0.186660
O O7 0.926219 0.463313 0.241405
O O8 0.000000 0.531494 0.000000
O O9 0.600868 0.619284 0.103292
O O10 0.497546 0.769236 0.175305
O O11 0.571294 0.379827 0.358891
O O12 0.726974 0.461602 0.277353
O O13 0.685531 0.252266 0.284690
O O14 0.000000 0.852416 0.000000
O O15 0.203389 0.101196 0.496916
O O16 0.359555 0.734393 0.300766
#
# Coordination Sequence:
#
# PCOD9126749 Si02
#       8
#     4   4   2   4   4   4   4   4
#     4  10  22  42  63  96 133 169 222 272 322 400
#     4  11  21  40  69  97 134 171 209 271 337 387
#     4  10  24  44  62  92 136 170 222 272 324 406
#     4  11  22  41  65  96 135 172 214 278 333 385
#     4  11  21  40  63 100 132 164 218 270 326 399
#     4  10  25  43  66  94 132 178 220 273 335 387
#     4  11  22  41  68  90 131 177 219 268 336 381
#     4  11  23  42  67  99 129 169 233 271 314 416
#
# _framework density 25.640802999999998
#
# number of rings (size 3 to 8) (size 9 to 14) (size 15 to 20)
#    0.000    1.333    4.667    1.200    2.800    0.533 
#    7.200    0.000    2.933    0.000    0.000    0.000 
#    0.000    0.000    0.000    0.000    0.000    0.000 
#
# Total GULP energy -83694.550835 kJ/mol
# GULP energy per Si atom -5579.636722 kJ/mol
# Density = 2.558244 g / cm^3
# Si number density = 25.640803 Si / 1000 Ang^3
#
#
#
# Elastic Constant Matrix: (Units=GPa)
#
#
# Indices 1 2 3 4 5 6 
#
# 1 99.9334 -4.1481 -1.8658 0.0000 -15.8416 0.0000
# 2 -4.1481 88.1448 14.6191 0.0000 -9.3337 0.0000
# 3 -1.8658 14.6191 72.3998 0.0000 -9.9606 0.0000
# 4 0.0000 0.0000 0.0000 21.2330 0.0000 2.4874
# 5 -15.8416 -9.3337 -9.9606 0.0000 16.4959 0.0000
# 6 0.0000 0.0000 0.0000 2.4874 0.0000 20.1763
#
#
#
# Elastic Compliance Matrix: (Units=1/GPa)
#
#
# Indices 1 2 3 4 5 6 
#
# 1 0.012328 0.001746 0.001887 0.000000 0.013967 0.000000
# 2 0.001746 0.012495 -0.001390 0.000000 0.007908 0.000000
# 3 0.001887 -0.001390 0.015577 0.000000 0.010431 0.000000
# 4 0.000000 0.000000 0.000000 0.047787 0.000000 -0.005891
# 5 0.013967 0.007908 0.010431 0.000000 0.084806 0.000000
# 6 0.000000 0.000000 0.000000 -0.005891 0.000000 0.050289
#
#
# Mechanical properties :
#
#
# Convention : Reuss Voigt Hill
#
# Bulk Modulus (GPa) = 22.27901 30.85428 26.56665
# Shear Modulus (GPa) = 21.38959 28.37256 24.88108
#
# Velocity S-wave (km/s) = 2.89139 3.33008 3.11846
# Velocity P-wave (km/s) = 4.45585 5.18124 4.83218
#
# Compressibility (1/GPa) = 0.04488529
#
# Stress axis : x y z
#
# Youngs Moduli (GPa) = 81.11374 80.03173 64.19918
#
# Poissons Ratio (x) = -0.13975 -0.12112
# Poissons Ratio (y) = -0.14164 0.08924
# Poissons Ratio (z) = -0.15303 0.11125
#
# Static dielectric constant tensor:
#      x y z
#    x 2.041330 0.000000 0.009390 
#    y 0.000000 2.145970 0.000000 
#    z 0.009390 0.000000 2.072780 
# 
# From -- ./inp_files/23915.got.cif
#   From: 2010.05.17/outbox.cif.g08.bks.cpg/sg5_12_cif.got.tgz:23915.got - 2010.06.03 18:56:24.
