data_PCOD9126725
_publ_section_title
;
Structure prediction by ZEFSAII (Michael W. Deem and Ramdas Pophale) SiO2 
 PCOD9126725
Probable space group: C 2
;
_chemical_formula_sum "Si O2"
_cell_formula_units_Z 26
_cell_length_a 10.309242
_cell_length_b 9.150276
_cell_length_c 21.483142
_cell_angle_alpha 90.000000
_cell_angle_beta 142.598939
_cell_angle_gamma 90.000000
_cell_volume 1230.911300
_symmetry_space_group_name_H-M "C 2"
_symmetry_group_IT_number 5
_symmetry_cell_setting 'monoclinic'
loop_
_space_group_symop_operation_xyz
x,y,z
-x,y,-z
1/2+x,1/2+y,z
1/2-x,1/2+y,-z
loop_
_atom_site_type_symbol
_atom_site_label
_atom_site_fract_x
_atom_site_fract_y
_atom_site_fract_z
Si Si1 0.577222 0.107760 0.230176
Si Si2 0.000000 0.544616 0.000000
Si Si3 0.528949 0.043726 0.437427
Si Si4 0.461206 0.695679 0.558140
Si Si5 0.558869 0.291305 0.105972
Si Si6 0.744000 0.097751 0.783242
Si Si7 0.586215 0.852845 0.914750
O O1 0.829956 0.128938 0.330298
O O2 0.498232 0.224378 0.149710
O O3 0.455343 0.138089 0.248111
O O4 0.522337 0.951721 0.179572
O O5 0.855740 0.652919 0.901656
O O6 0.097438 0.441816 0.984166
O O7 0.500000 0.070564 0.500000
O O8 0.338332 0.096125 0.319270
O O9 0.745585 0.121145 0.498518
O O10 0.547092 0.869462 0.434260
O O11 0.500000 0.671633 0.500000
O O12 0.692836 0.435308 0.169918
O O13 0.331515 0.332373 0.989842
O O14 0.943729 0.207303 0.868097
#
# Coordination Sequence:
#
# PCOD9126725 Si02
#       7
#     4   2   4   4   4   4   4
#     4  11  24  42  70  97 134 183 227 287 346 419
#     4  10  22  42  60  92 130 176 214 276 326 388
#     4  11  27  46  72 103 140 180 234 301 347 422
#     4  11  24  48  70 100 138 179 234 295 355 414
#     4  11  23  44  63  97 140 179 227 278 336 408
#     4  12  24  44  71 103 137 186 233 281 354 412
#     4  11  25  40  66 100 136 180 226 279 336 413
#
# _framework density 21.122561999999999
#
# number of rings (size 3 to 8) (size 9 to 14) (size 15 to 20)
#    0.000    0.923    3.077    3.692    2.154    3.692 
#   11.077    0.000    0.000    0.000    0.000    0.000 
#    0.000    0.000    0.000    0.000    0.000    0.000 
#
# Total GULP energy -72606.509418 kJ/mol
# GULP energy per Si atom -5585.116109 kJ/mol
# Density = 2.107449 g / cm^3
# Si number density = 21.122562 Si / 1000 Ang^3
#
#
#
# Elastic Constant Matrix: (Units=GPa)
#
#
# Indices 1 2 3 4 5 6 
#
# 1 87.7013 39.3273 26.5187 0.0000 -7.7821 0.0000
# 2 39.3273 77.8988 34.9643 0.0000 -7.0511 0.0000
# 3 26.5187 34.9643 89.8115 0.0000 -8.0020 0.0000
# 4 0.0000 0.0000 0.0000 36.5985 0.0000 -0.8051
# 5 -7.7821 -7.0511 -8.0020 0.0000 35.5073 0.0000
# 6 0.0000 0.0000 0.0000 -0.8051 0.0000 29.6611
#
#
#
# Elastic Compliance Matrix: (Units=1/GPa)
#
#
# Indices 1 2 3 4 5 6 
#
# 1 0.015060 -0.006697 -0.001698 0.000000 0.001588 0.000000
# 2 -0.006697 0.018642 -0.005185 0.000000 0.001066 0.000000
# 3 -0.001698 -0.005185 0.013807 0.000000 0.001710 0.000000
# 4 0.000000 0.000000 0.000000 0.027340 0.000000 0.000742
# 5 0.001588 0.001066 0.001710 0.000000 0.029108 0.000000
# 6 0.000000 0.000000 0.000000 0.000742 0.000000 0.033734
#
#
# Mechanical properties :
#
#
# Convention : Reuss Voigt Hill
#
# Bulk Modulus (GPa) = 49.14440 50.78133 49.96286
# Shear Modulus (GPa) = 29.13180 30.66015 29.89597
#
# Velocity S-wave (km/s) = 3.71776 3.81404 3.76621
# Velocity P-wave (km/s) = 6.46110 6.59464 6.52821
#
# Compressibility (1/GPa) = 0.02034820
#
# Stress axis : x y z
#
# Youngs Moduli (GPa) = 66.40188 53.64256 72.42856
#
# Poissons Ratio (x) = 0.35925 0.12298
# Poissons Ratio (y) = 0.44470 0.37555
# Poissons Ratio (z) = 0.11275 0.27814
#
# Static dielectric constant tensor:
#      x y z
#    x 1.822030 0.000000 -0.022870 
#    y 0.000000 1.780760 0.000000 
#    z -0.022870 0.000000 1.846880 
# 
# From -- ./inp_files/68321.got.cif
#   From: 2010.05.17/outbox.cif.g08.bks.cpg/sg5_35_cif.got.tgz:68321.got - 2010.06.03 18:56:24.
