data_PCOD9126740
_publ_section_title
;
Structure prediction by ZEFSAII (Michael W. Deem and Ramdas Pophale) SiO2 
 PCOD9126740
Probable space group: C 2
;
_chemical_formula_sum "Si O2"
_cell_formula_units_Z 22
_cell_length_a 8.256609
_cell_length_b 23.930756
_cell_length_c 5.983539
_cell_angle_alpha 90.000000
_cell_angle_beta 59.150955
_cell_angle_gamma 90.000000
_cell_volume 1015.002999
_symmetry_space_group_name_H-M "C 2"
_symmetry_group_IT_number 5
_symmetry_cell_setting 'monoclinic'
loop_
_space_group_symop_operation_xyz
x,y,z
-x,y,-z
1/2+x,1/2+y,z
1/2-x,1/2+y,-z
loop_
_atom_site_type_symbol
_atom_site_label
_atom_site_fract_x
_atom_site_fract_y
_atom_site_fract_z
Si Si1 0.827519 0.027300 0.971957
Si Si2 0.672518 0.719889 0.550131
Si Si3 0.797401 0.437261 0.258329
Si Si4 0.500000 0.249111 0.000000
Si Si5 0.305879 0.311680 0.759996
Si Si6 0.000000 0.133927 0.000000
Si Si7 0.000000 0.484666 0.500000
O O1 0.628618 0.021047 0.242538
O O2 0.885339 0.092079 0.916896
O O3 0.000000 0.003684 0.000000
O O4 0.812822 0.990232 0.761701
O O5 0.500000 0.718203 0.500000
O O6 0.663256 0.776754 0.705796
O O7 0.640063 0.671263 0.754473
O O8 0.868437 0.716325 0.270860
O O9 0.719322 0.377717 0.240832
O O10 0.848063 0.446151 0.479839
O O11 0.000000 0.439224 0.000000
O O12 0.346162 0.287298 0.976835
O O13 0.500000 0.299228 0.500000
#
# Coordination Sequence:
#
# PCOD9126740 Si02
#       7
#     4   4   4   2   4   2   2
#     4   9  23  43  65  95 128 171 228 275 337 389
#     4  11  24  44  67  99 138 179 227 280 336 403
#     4  10  23  38  67  98 134 174 218 273 339 402
#     4  10  24  43  64  94 146 173 228 274 336 408
#     4  10  24  39  65 100 135 175 220 275 340 405
#     4  10  24  45  72  98 132 181 232 284 332 396
#     4  10  22  42  62  98 136 170 220 276 338 404
#
# _framework density 21.674810999999998
#
# number of rings (size 3 to 8) (size 9 to 14) (size 15 to 20)
#    0.545    1.455    0.000    1.091    8.909    4.364 
#    8.182    0.000    2.000    0.000    0.000    0.000 
#    0.000    0.000    0.000    0.000    0.000    0.000 
#
# Total GULP energy -61303.947252 kJ/mol
# GULP energy per Si atom -5573.086114 kJ/mol
# Density = 2.162548 g / cm^3
# Si number density = 21.674811 Si / 1000 Ang^3
#
#
#
# Elastic Constant Matrix: (Units=GPa)
#
#
# Indices 1 2 3 4 5 6 
#
# 1 81.7181 26.8385 24.7690 0.0000 11.2552 0.0000
# 2 26.8385 125.7857 49.5647 0.0000 10.6706 0.0000
# 3 24.7690 49.5647 95.5847 0.0000 -12.3298 0.0000
# 4 0.0000 0.0000 0.0000 75.1370 0.0000 -23.4726
# 5 11.2552 10.6706 -12.3298 0.0000 44.9721 0.0000
# 6 0.0000 0.0000 0.0000 -23.4726 0.0000 44.4836
#
#
#
# Elastic Compliance Matrix: (Units=1/GPa)
#
#
# Indices 1 2 3 4 5 6 
#
# 1 0.014338 -0.001276 -0.003605 0.000000 -0.004274 0.000000
# 2 -0.001276 0.010823 -0.005776 0.000000 -0.003832 0.000000
# 3 -0.003605 -0.005776 0.015223 0.000000 0.006446 0.000000
# 4 0.000000 0.000000 0.000000 0.015936 0.000000 0.008409
# 5 -0.004274 -0.003832 0.006446 0.000000 0.025982 0.000000
# 6 0.000000 0.000000 0.000000 0.008409 0.000000 0.026917
#
#
# Mechanical properties :
#
#
# Convention : Reuss Voigt Hill
#
# Bulk Modulus (GPa) = 52.43956 56.15922 54.29939
# Shear Modulus (GPa) = 36.52571 46.37963 41.45267
#
# Velocity S-wave (km/s) = 4.10953 4.63081 4.37794
# Velocity P-wave (km/s) = 6.83842 7.38638 7.11768
#
# Compressibility (1/GPa) = 0.01906957
#
# Stress axis : x y z
#
# Youngs Moduli (GPa) = 69.74659 92.39238 65.69132
#
# Poissons Ratio (x) = 0.11791 0.23681
# Poissons Ratio (y) = 0.08901 0.37944
# Poissons Ratio (z) = 0.25143 0.53366
#
# Static dielectric constant tensor:
#      x y z
#    x 1.871210 0.000000 0.043490 
#    y 0.000000 1.797370 0.000000 
#    z 0.043490 0.000000 1.828290 
# 
# From -- ./inp_files/3349.got.cif
#   From: 2010.05.17/outbox.cif.g08.bks.cpg/sg5_2_cif.got.tgz:3349.got - 2010.06.03 18:56:24.
