data_PCOD9126712
_publ_section_title
;
Structure prediction by ZEFSAII (Michael W. Deem and Ramdas Pophale) SiO2 
 PCOD9126712
Probable space group: C 2
;
_chemical_formula_sum "Si O2"
_cell_formula_units_Z 20
_cell_length_a 9.921223
_cell_length_b 9.908078
_cell_length_c 8.967807
_cell_angle_alpha 90.000000
_cell_angle_beta 92.084268
_cell_angle_gamma 90.000000
_cell_volume 880.954472
_symmetry_space_group_name_H-M "C 2"
_symmetry_group_IT_number 5
_symmetry_cell_setting 'monoclinic'
loop_
_space_group_symop_operation_xyz
x,y,z
-x,y,-z
1/2+x,1/2+y,z
1/2-x,1/2+y,-z
loop_
_atom_site_type_symbol
_atom_site_label
_atom_site_fract_x
_atom_site_fract_y
_atom_site_fract_z
Si Si1 0.977608 0.850420 0.182009
Si Si2 0.000000 0.946327 0.500000
Si Si3 0.949731 0.577739 0.728171
Si Si4 0.000000 0.104476 0.000000
Si Si5 0.228835 0.608408 0.575705
Si Si6 0.183411 0.306883 0.161327
O O1 0.829383 0.846832 0.108580
O O2 0.050023 0.708073 0.163731
O O3 0.023859 0.997969 0.134568
O O4 0.964392 0.855960 0.358552
O O5 0.136402 0.024788 0.461367
O O6 0.848798 0.617167 0.587206
O O7 0.899847 0.441519 0.804877
O O8 0.103785 0.554918 0.674082
O O9 0.119943 0.208875 0.035509
O O10 0.291720 0.729002 0.679617
#
# Coordination Sequence:
#
# PCOD9126712 Si02
#       6
#     4   2   4   2   4   4
#     4  11  25  47  71 102 139 184 232 291 349 412
#     4  12  20  46  74 104 138 176 232 290 344 412
#     4  10  23  44  71 107 142 179 230 295 348 409
#     4  12  28  46  66 102 142 190 234 282 346 418
#     4  10  22  41  73 108 139 175 231 290 350 409
#     4  11  24  46  69 104 135 189 238 281 343 422
#
# _framework density 22.702649999999998
#
# number of rings (size 3 to 8) (size 9 to 14) (size 15 to 20)
#    0.000    1.200    4.000    2.400    0.000    7.200 
#    3.600    0.000    0.000    0.000    0.000    0.000 
#    0.000    0.000    0.000    0.000    0.000    0.000 
#
# Total GULP energy -55674.775652 kJ/mol
# GULP energy per Si atom -5567.477565 kJ/mol
# Density = 2.265098 g / cm^3
# Si number density = 22.702650 Si / 1000 Ang^3
#
#
#
# Elastic Constant Matrix: (Units=GPa)
#
#
# Indices 1 2 3 4 5 6 
#
# 1 118.4217 51.3360 5.6555 0.0000 22.6103 0.0000
# 2 51.3360 126.2215 16.0681 0.0000 5.2120 0.0000
# 3 5.6555 16.0681 76.2381 0.0000 2.9430 0.0000
# 4 0.0000 0.0000 0.0000 -3.0146 0.0000 23.5974
# 5 22.6103 5.2120 2.9430 0.0000 18.7399 0.0000
# 6 0.0000 0.0000 0.0000 23.5974 0.0000 41.0394
#
#
#
# Elastic Compliance Matrix: (Units=1/GPa)
#
#
# Indices 1 2 3 4 5 6 
#
# 1 0.013383 -0.004907 0.000616 0.000000 -0.014879 0.000000
# 2 -0.004907 0.010016 -0.001879 0.000000 0.003430 0.000000
# 3 0.000616 -0.001879 0.013558 0.000000 -0.002349 0.000000
# 4 0.000000 0.000000 0.000000 -0.060303 0.000000 0.034674
# 5 -0.014879 0.003430 -0.002349 0.000000 0.070729 0.000000
# 6 0.000000 0.000000 0.000000 0.034674 0.000000 0.004430
#
#
# Mechanical properties :
#
#
# Convention : Reuss Voigt Hill
#
# Bulk Modulus (GPa) = 40.62452 51.88896 46.25674
# Shear Modulus (GPa) = 69.09924 27.87437 48.48681
#
# Velocity S-wave (km/s) = 5.52293 3.50780 4.62641
# Velocity P-wave (km/s) = 7.65528 6.26991 6.99697
#
# Compressibility (1/GPa) = 0.02461568
#
# Stress axis : x y z
#
# Youngs Moduli (GPa) = 74.72107 99.84058 73.75769
#
# Poissons Ratio (x) = 0.48993 -0.04542
# Poissons Ratio (y) = 0.36666 0.13862
# Poissons Ratio (z) = -0.04601 0.18764
#
# Static dielectric constant tensor:
#      x y z
#    x 1.888340 0.000000 -0.018280 
#    y 0.000000 1.838660 0.000000 
#    z -0.018280 0.000000 1.899090 
# 
# From -- ./inp_files/18329.got.cif
#   From: 2010.05.17/outbox.cif.g08.bks.cpg/sg5_10_cif.got.tgz:18329.got - 2010.06.03 18:56:24.
