data_PCOD9126070
_publ_section_title
;
Structure prediction by ZEFSAII (Michael W. Deem and Ramdas Pophale) SiO2 
 PCOD9126070
Probable space group: C 2
;
_chemical_formula_sum "Si O2"
_cell_formula_units_Z 30
_cell_length_a 23.667292
_cell_length_b 5.497895
_cell_length_c 13.811467
_cell_angle_alpha 90.000000
_cell_angle_beta 120.193521
_cell_angle_gamma 90.000000
_cell_volume 1553.335439
_symmetry_space_group_name_H-M "C 2"
_symmetry_group_IT_number 5
_symmetry_cell_setting 'monoclinic'
loop_
_space_group_symop_operation_xyz
x,y,z
-x,y,-z
1/2+x,1/2+y,z
1/2-x,1/2+y,-z
loop_
_atom_site_type_symbol
_atom_site_label
_atom_site_fract_x
_atom_site_fract_y
_atom_site_fract_z
Si Si1 0.891221 0.031510 0.225280
Si Si2 0.208028 0.731724 0.750211
Si Si3 0.828822 0.006749 0.625091
Si Si4 0.610673 0.880820 0.597479
Si Si5 0.454329 0.558869 0.618069
Si Si6 0.282249 0.652071 0.991061
Si Si7 0.729711 0.008711 0.357991
Si Si8 0.500000 0.200907 0.500000
O O1 0.877138 0.182512 0.310806
O O2 0.854256 0.127051 0.098513
O O3 0.969746 0.051084 0.283410
O O4 0.849742 0.790999 0.221560
O O5 0.174559 0.547485 0.644958
O O6 0.235688 0.958153 0.714157
O O7 0.267542 0.626871 0.864503
O O8 0.785478 0.007111 0.489147
O O9 0.807338 0.764962 0.664333
O O10 0.904158 0.991942 0.658301
O O11 0.813933 0.267058 0.661208
O O12 0.579578 0.784254 0.470049
O O13 0.551711 0.031738 0.595129
O O14 0.457638 0.361948 0.534909
O O15 0.242677 0.423430 0.002921
#
# Coordination Sequence:
#
# PCOD9126070 Si02
#       8
#     4   4   4   4   4   4   4   2
#     4  11  21  37  56  93 123 159 197 255 315 379
#     4  11  23  38  63  85 122 163 211 256 301 367
#     4  10  24  39  57  86 120 162 196 251 296 362
#     4  12  20  32  56  87 125 161 191 244 310 380
#     4  12  23  36  55  92 128 161 199 247 324 383
#     4  10  22  38  59  89 125 161 204 255 307 364
#     4  10  23  40  59  82 120 158 211 244 293 352
#     4  12  20  32  50  86 122 160 192 232 312 384
#
# _framework density 19.313281
#
# number of rings (size 3 to 8) (size 9 to 14) (size 15 to 20)
#    0.000    1.067    5.333    1.600    9.333    0.000 
#    0.000    0.000    0.000    0.800    0.000    1.867 
#    0.000    0.000    0.000    0.000    0.000    0.000 
#
# Total GULP energy -83532.381119 kJ/mol
# GULP energy per Si atom -5568.825408 kJ/mol
# Density = 1.926932 g / cm^3
# Si number density = 19.313281 Si / 1000 Ang^3
#
#
#
# Elastic Constant Matrix: (Units=GPa)
#
#
# Indices 1 2 3 4 5 6 
#
# 1 129.7669 42.1502 36.1516 0.0000 20.0915 0.0000
# 2 42.1502 60.5487 28.5508 0.0000 18.0709 0.0000
# 3 36.1516 28.5508 114.9739 0.0000 27.0231 0.0000
# 4 0.0000 0.0000 0.0000 16.4364 0.0000 -9.4622
# 5 20.0915 18.0709 27.0231 0.0000 17.9060 0.0000
# 6 0.0000 0.0000 0.0000 -9.4622 0.0000 6.2866
#
#
#
# Elastic Compliance Matrix: (Units=1/GPa)
#
#
# Indices 1 2 3 4 5 6 
#
# 1 0.010465 -0.005388 -0.000730 0.000000 -0.005204 0.000000
# 2 -0.005388 0.026421 -0.000032 0.000000 -0.020570 0.000001
# 3 -0.000730 -0.000032 0.013537 0.000000 -0.019578 0.000000
# 4 0.000000 0.000000 0.000000 0.455696 0.000000 0.685884
# 5 -0.005204 -0.020570 -0.019578 0.000000 0.111993 0.000000
# 6 0.000000 0.000001 0.000000 0.685884 0.000000 1.191415
#
#
# Mechanical properties :
#
#
# Convention : Reuss Voigt Hill
#
# Bulk Modulus (GPa) = 26.23067 57.66608 41.94837
# Shear Modulus (GPa) = 2.72549 21.35492 12.04021
#
# Velocity S-wave (km/s) = 1.18923 3.32883 2.49954
# Velocity P-wave (km/s) = 3.93660 6.68565 5.48611
#
# Compressibility (1/GPa) = 0.03812332
#
# Stress axis : x y z
#
# Youngs Moduli (GPa) = 95.55479 37.84894 73.87414
#
# Poissons Ratio (x) = 0.20394 0.05389
# Poissons Ratio (y) = 0.51486 0.00236
# Poissons Ratio (z) = 0.06971 0.00121
#
# Static dielectric constant tensor:
#      x y z
#    x 1.684270 0.000000 0.018930 
#    y 0.000000 1.799940 0.000000 
#    z 0.018930 0.000000 1.702720 
# 
# From -- ./inp_files/46933.got.cif
#   From: 2010.05.17/outbox.cif.g08.bks.cpg/sg5_24_cif.got.tgz:46933.got - 2010.06.03 18:56:24.
