data_PCOD9126153
_publ_section_title
;
Structure prediction by ZEFSAII (Michael W. Deem and Ramdas Pophale) SiO2 
 PCOD9126153
Probable space group: C 2
;
_chemical_formula_sum "Si O2"
_cell_formula_units_Z 20
_cell_length_a 8.693865
_cell_length_b 10.943326
_cell_length_c 11.746899
_cell_angle_alpha 90.000000
_cell_angle_beta 52.884989
_cell_angle_gamma 90.000000
_cell_volume 891.201241
_symmetry_space_group_name_H-M "C 2"
_symmetry_group_IT_number 5
_symmetry_cell_setting 'monoclinic'
loop_
_space_group_symop_operation_xyz
x,y,z
-x,y,-z
1/2+x,1/2+y,z
1/2-x,1/2+y,-z
loop_
_atom_site_type_symbol
_atom_site_label
_atom_site_fract_x
_atom_site_fract_y
_atom_site_fract_z
Si Si1 0.054279 0.489010 0.845105
Si Si2 0.792648 0.068205 0.436954
Si Si3 0.789150 0.728808 0.326974
Si Si4 0.131099 0.479506 0.296791
Si Si5 0.079227 0.844960 0.347443
O O1 0.175011 0.613446 0.769039
O O2 0.198493 0.378145 0.750122
O O3 0.876156 0.487905 0.836115
O O4 0.000000 0.481044 0.000000
O O5 0.816381 0.184043 0.509110
O O6 0.761303 0.072256 0.314697
O O7 0.590987 0.008076 0.570285
O O8 0.959040 0.971475 0.388875
O O9 0.694997 0.845510 0.310081
O O10 0.001714 0.766996 0.277359
O O11 0.000000 0.788237 0.500000
#
# Coordination Sequence:
#
# PCOD9126153 Si02
#       5
#     4   4   4   4   4
#     4  11  25  44  59  87 133 166 204 251 300 367
#     4   9  19  37  59  97 124 148 195 265 310 352
#     4  10  22  38  66  91 124 161 203 248 323 357
#     4   9  19  37  61  89 123 158 198 251 303 360
#     4  11  21  38  63  96 120 155 206 260 298 360
#
# _framework density 22.441621000000001
#
# number of rings (size 3 to 8) (size 9 to 14) (size 15 to 20)
#    0.000    2.000    4.000    0.000    5.600    8.000 
#    0.000    3.000    0.000    0.000    0.000    0.000 
#    0.000    0.000    0.000    0.000    0.000    0.000 
#
# Total GULP energy -55852.809317 kJ/mol
# GULP energy per Si atom -5585.280932 kJ/mol
# Density = 2.239054 g / cm^3
# Si number density = 22.441621 Si / 1000 Ang^3
#
#
#
# Elastic Constant Matrix: (Units=GPa)
#
#
# Indices 1 2 3 4 5 6 
#
# 1 105.2048 26.5181 36.7589 0.0000 39.0878 0.0000
# 2 26.5181 103.1126 25.1393 0.0000 12.0311 0.0000
# 3 36.7589 25.1393 95.6686 0.0000 42.9824 0.0000
# 4 0.0000 0.0000 0.0000 9.3321 0.0000 6.6121
# 5 39.0878 12.0311 42.9824 0.0000 38.2612 0.0000
# 6 0.0000 0.0000 0.0000 6.6121 0.0000 43.9676
#
#
#
# Elastic Compliance Matrix: (Units=1/GPa)
#
#
# Indices 1 2 3 4 5 6 
#
# 1 0.016248 -0.002691 0.003113 0.000000 -0.019250 0.000000
# 2 -0.002691 0.010811 -0.003058 0.000000 0.002786 0.000000
# 3 0.003113 -0.003058 0.022325 0.000000 -0.027298 0.000000
# 4 0.000000 0.000000 0.000000 0.119937 0.000000 -0.018037
# 5 -0.019250 0.002786 -0.027298 0.000000 0.075593 0.000000
# 6 0.000000 0.000000 0.000000 -0.018037 0.000000 0.025457
#
#
# Mechanical properties :
#
#
# Convention : Reuss Voigt Hill
#
# Bulk Modulus (GPa) = 22.67056 53.42428 38.04742
# Shear Modulus (GPa) = 17.22074 32.68347 24.95211
#
# Velocity S-wave (km/s) = 2.77313 3.82039 3.33809
# Velocity P-wave (km/s) = 4.51415 6.58165 5.64339
#
# Compressibility (1/GPa) = 0.04411008
#
# Stress axis : x y z
#
# Youngs Moduli (GPa) = 61.54549 92.49930 44.79283
#
# Poissons Ratio (x) = 0.24896 -0.13943
# Poissons Ratio (y) = 0.16565 0.13699
# Poissons Ratio (z) = -0.19158 0.28289
#
# Static dielectric constant tensor:
#      x y z
#    x 1.887410 0.000000 0.055790 
#    y 0.000000 1.874120 0.000000 
#    z 0.055790 0.000000 1.829120 
# 
# From -- ./inp_files/35015.got.cif
#   From: 2010.05.17/outbox.cif.g08.bks.cpg/sg5_18_cif.got.tgz:35015.got - 2010.06.03 18:56:24.
