data_PCOD9126215
_publ_section_title
;
Structure prediction by ZEFSAII (Michael W. Deem and Ramdas Pophale) SiO2 
 PCOD9126215
Probable space group: C 2
;
_chemical_formula_sum "Si O2"
_cell_formula_units_Z 28
_cell_length_a 8.530424
_cell_length_b 11.210439
_cell_length_c 19.370518
_cell_angle_alpha 90.000000
_cell_angle_beta 139.437120
_cell_angle_gamma 90.000000
_cell_volume 1204.581869
_symmetry_space_group_name_H-M "C 2"
_symmetry_group_IT_number 5
_symmetry_cell_setting 'monoclinic'
loop_
_space_group_symop_operation_xyz
x,y,z
-x,y,-z
1/2+x,1/2+y,z
1/2-x,1/2+y,-z
loop_
_atom_site_type_symbol
_atom_site_label
_atom_site_fract_x
_atom_site_fract_y
_atom_site_fract_z
Si Si1 0.186332 0.991650 0.766454
Si Si2 0.573789 0.532514 0.103151
Si Si3 0.616885 0.255934 0.826938
Si Si4 0.335440 0.341221 0.378226
Si Si5 0.394236 0.160646 0.035104
Si Si6 0.147548 0.580961 0.619629
Si Si7 0.851169 0.358485 0.289228
O O1 0.182276 0.942958 0.685958
O O2 0.213774 0.872635 0.821739
O O3 0.403376 0.079604 0.859383
O O4 0.928786 0.050211 0.699396
O O5 0.680866 0.418923 0.175461
O O6 0.773141 0.636987 0.169072
O O7 0.500000 0.509322 0.000000
O O8 0.336003 0.580695 0.061342
O O9 0.694028 0.247351 0.933486
O O10 0.324922 0.270069 0.728406
O O11 0.500000 0.370631 0.500000
O O12 0.405363 0.213068 0.368280
O O13 0.078183 0.309221 0.325705
O O14 0.500000 0.212177 0.000000
O O15 0.061696 0.469428 0.635964
O O16 0.000000 0.578971 0.500000
#
# Coordination Sequence:
#
# PCOD9126215 Si02
#       7
#     4   4   4   4   4   4   4
#     4  11  23  42  64  91 129 168 207 260 319 373
#     4  10  22  39  58  87 123 159 204 252 301 364
#     4  10  23  39  59  85 120 163 206 251 305 362
#     4  11  23  39  66  98 124 162 212 260 316 377
#     4  11  23  40  63  93 127 167 215 259 308 372
#     4  10  22  41  62  88 124 161 205 262 316 374
#     4  11  22  40  63  88 121 164 206 252 312 370
#
# _framework density 23.244582000000001
#
# number of rings (size 3 to 8) (size 9 to 14) (size 15 to 20)
#    0.000    1.429    0.000    6.000    0.000    6.857 
#    0.000    1.429    0.000   10.286    0.000    0.000 
#    0.000    0.000    0.000    0.000    0.000    0.000 
#
# Total GULP energy -78296.886703 kJ/mol
# GULP energy per Si atom -5592.634765 kJ/mol
# Density = 2.319168 g / cm^3
# Si number density = 23.244582 Si / 1000 Ang^3
#
#
#
# Elastic Constant Matrix: (Units=GPa)
#
#
# Indices 1 2 3 4 5 6 
#
# 1 55.4990 10.9629 14.9175 0.0000 -12.1947 0.0000
# 2 10.9629 87.2676 32.3438 0.0000 -12.0781 0.0000
# 3 14.9175 32.3438 98.0801 0.0000 -12.3683 0.0000
# 4 0.0000 0.0000 0.0000 19.2190 0.0000 1.5250
# 5 -12.1947 -12.0781 -12.3683 0.0000 37.5106 0.0000
# 6 0.0000 0.0000 0.0000 1.5250 0.0000 29.9197
#
#
#
# Elastic Compliance Matrix: (Units=1/GPa)
#
#
# Indices 1 2 3 4 5 6 
#
# 1 0.019967 -0.001000 -0.002013 0.000000 0.005505 0.000000
# 2 -0.001000 0.013415 -0.003932 0.000000 0.002698 0.000000
# 3 -0.002013 -0.003932 0.012058 0.000000 0.002055 0.000000
# 4 0.000000 0.000000 0.000000 0.052243 0.000000 -0.002663
# 5 0.005505 0.002698 0.002055 0.000000 0.029995 0.000000
# 6 0.000000 0.000000 0.000000 -0.002663 0.000000 0.033558
#
#
# Mechanical properties :
#
#
# Convention : Reuss Voigt Hill
#
# Bulk Modulus (GPa) = 31.69550 39.69945 35.69747
# Shear Modulus (GPa) = 26.93351 29.50470 28.21910
#
# Velocity S-wave (km/s) = 3.40766 3.56661 3.48804
# Velocity P-wave (km/s) = 5.39890 5.83755 5.62251
#
# Compressibility (1/GPa) = 0.03155022
#
# Stress axis : x y z
#
# Youngs Moduli (GPa) = 50.08359 74.54210 82.93539
#
# Poissons Ratio (x) = 0.07457 0.16692
# Poissons Ratio (y) = 0.05010 0.32606
# Poissons Ratio (z) = 0.10080 0.29307
#
# Static dielectric constant tensor:
#      x y z
#    x 2.040670 0.000000 -0.007650 
#    y 0.000000 1.905250 0.000000 
#    z -0.007650 0.000000 1.858760 
# 
# From -- ./inp_files/64572.got.cif
#   From: 2010.05.17/outbox.cif.g08.bks.cpg/sg5_33_cif.got.tgz:64572.got - 2010.06.03 18:56:24.
