data_PCOD9126292
_publ_section_title
;
Structure prediction by ZEFSAII (Michael W. Deem and Ramdas Pophale) SiO2 
 PCOD9126292
Probable space group: C 2
;
_chemical_formula_sum "Si O2"
_cell_formula_units_Z 16
_cell_length_a 17.344079
_cell_length_b 8.781673
_cell_length_c 8.500777
_cell_angle_alpha 90.000000
_cell_angle_beta 144.021603
_cell_angle_gamma 90.000000
_cell_volume 760.642074
_symmetry_space_group_name_H-M "C 2"
_symmetry_group_IT_number 5
_symmetry_cell_setting 'monoclinic'
loop_
_space_group_symop_operation_xyz
x,y,z
-x,y,-z
1/2+x,1/2+y,z
1/2-x,1/2+y,-z
loop_
_atom_site_type_symbol
_atom_site_label
_atom_site_fract_x
_atom_site_fract_y
_atom_site_fract_z
Si Si1 0.875218 0.783930 0.099240
Si Si2 0.639337 0.147864 0.572738
Si Si3 0.924615 0.090614 0.020125
Si Si4 0.596686 0.786583 0.517404
O O1 0.856253 0.731023 0.248928
O O2 0.014813 0.716576 0.278036
O O3 0.745157 0.730748 0.792579
O O4 0.890356 0.964656 0.095974
O O5 0.607784 0.969049 0.535350
O O6 0.784287 0.160838 0.741308
O O7 0.024343 0.216472 0.248973
O O8 0.000000 0.013694 0.000000
O O9 0.500000 0.744236 0.500000
#
# Coordination Sequence:
#
# PCOD9126292 Si02
#       4
#     4   4   4   4
#     4  10  22  39  66  94 123 161 213 259 303 369
#     4  10  22  40  65  96 122 160 214 259 304 367
#     4  11  26  42  62  95 132 164 203 260 320 367
#     4  11  21  38  67  94 122 163 213 254 305 372
#
# _framework density 21.034860999999999
#
# number of rings (size 3 to 8) (size 9 to 14) (size 15 to 20)
#    0.000    1.500    5.000    0.000    3.500    6.000 
#    0.000    1.250    0.000    0.000    0.000    0.000 
#    0.000    0.000    0.000    0.000    0.000    0.000 
#
# Total GULP energy -44611.933748 kJ/mol
# GULP energy per Si atom -5576.491718 kJ/mol
# Density = 2.098698 g / cm^3
# Si number density = 21.034861 Si / 1000 Ang^3
#
#
#
# Elastic Constant Matrix: (Units=GPa)
#
#
# Indices 1 2 3 4 5 6 
#
# 1 67.5565 27.6409 36.8145 0.0000 24.8345 0.0000
# 2 27.6409 62.0076 39.3901 0.0000 6.6509 0.0000
# 3 36.8145 39.3901 181.5769 0.0000 64.0448 0.0000
# 4 0.0000 0.0000 0.0000 35.9116 0.0000 4.3514
# 5 24.8345 6.6509 64.0448 0.0000 34.7429 0.0000
# 6 0.0000 0.0000 0.0000 4.3514 0.0000 11.0093
#
#
#
# Elastic Compliance Matrix: (Units=1/GPa)
#
#
# Indices 1 2 3 4 5 6 
#
# 1 0.029398 -0.015981 0.010975 0.000000 -0.038186 0.000000
# 2 -0.015981 0.029034 -0.014657 0.000000 0.032884 0.000000
# 3 0.010975 -0.014657 0.023553 0.000000 -0.048457 0.000000
# 4 0.000000 0.000000 0.000000 0.029247 0.000000 -0.011560
# 5 -0.038186 0.032884 -0.048457 0.000000 0.139108 0.000000
# 6 0.000000 0.000000 0.000000 -0.011560 0.000000 0.095401
#
#
# Mechanical properties :
#
#
# Convention : Reuss Voigt Hill
#
# Bulk Modulus (GPa) = 23.44103 57.64802 40.54453
# Shear Modulus (GPa) = 12.52232 30.15246 21.33739
#
# Velocity S-wave (km/s) = 2.44255 3.79020 3.18839
# Velocity P-wave (km/s) = 4.37296 6.82786 5.73334
#
# Compressibility (1/GPa) = 0.04266024
#
# Stress axis : x y z
#
# Youngs Moduli (GPa) = 34.01626 34.44181 42.45717
#
# Poissons Ratio (x) = 0.55040 -0.46597
# Poissons Ratio (y) = 0.54360 0.62229
# Poissons Ratio (z) = -0.37333 0.50481
#
# Static dielectric constant tensor:
#      x y z
#    x 1.771380 0.000000 -0.008290 
#    y 0.000000 1.754220 0.000000 
#    z -0.008290 0.000000 1.792550 
# 
# From -- ./inp_files/13622.got.cif
#   From: 2010.05.17/outbox.cif.g08.bks.cpg/sg5_7_cif.got.tgz:13622.got - 2010.06.03 18:56:24.
