data_PCOD9126506
_publ_section_title
;
Structure prediction by ZEFSAII (Michael W. Deem and Ramdas Pophale) SiO2 
 PCOD9126506
Probable space group: C 2
;
_chemical_formula_sum "Si O2"
_cell_formula_units_Z 24
_cell_length_a 13.650048
_cell_length_b 5.103960
_cell_length_c 26.538083
_cell_angle_alpha 90.000000
_cell_angle_beta 151.343487
_cell_angle_gamma 90.000000
_cell_volume 886.649102
_symmetry_space_group_name_H-M "C 2"
_symmetry_group_IT_number 5
_symmetry_cell_setting 'monoclinic'
loop_
_space_group_symop_operation_xyz
x,y,z
-x,y,-z
1/2+x,1/2+y,z
1/2-x,1/2+y,-z
loop_
_atom_site_type_symbol
_atom_site_label
_atom_site_fract_x
_atom_site_fract_y
_atom_site_fract_z
Si Si1 0.000000 0.237661 0.500000
Si Si2 0.791378 0.497815 0.485096
Si Si3 0.105657 0.995698 0.971183
Si Si4 0.931776 0.320626 0.816662
Si Si5 0.259551 0.158882 0.822824
Si Si6 0.374833 0.848343 0.673789
Si Si7 0.000000 0.458540 0.000000
O O1 0.999793 0.406076 0.551538
O O2 0.803297 0.053231 0.417353
O O3 0.703317 0.254594 0.477214
O O4 0.667327 0.591313 0.379553
O O5 0.976770 0.036850 0.861666
O O6 0.343555 0.951360 0.075241
O O7 0.050070 0.247297 0.977040
O O8 0.994727 0.745157 0.946101
O O9 0.774077 0.491852 0.778996
O O10 0.874297 0.315270 0.732994
O O11 0.103919 0.398977 0.756499
O O12 0.246634 0.003561 0.868836
#
# Coordination Sequence:
#
# PCOD9126506 Si02
#       7
#     2   4   4   4   4   4   2
#     4  12  30  56  88 122 170 228 288 378 432 522
#     4  12  29  58  90 122 167 224 288 370 443 511
#     4  11  22  45  70 110 166 210 264 335 402 502
#     4  11  25  43  78 119 161 220 267 334 415 510
#     4  11  25  43  73 116 159 214 277 337 415 504
#     4  12  29  51  82 126 162 224 287 357 431 517
#     4  10  22  40  70 102 156 214 266 330 400 488
#
# _framework density 27.068204999999999
#
# number of rings (size 3 to 8) (size 9 to 14) (size 15 to 20)
#    0.000    0.667    3.333    3.000    4.667    5.333 
#    3.000    0.000    0.000    0.000    0.000    0.000 
#    0.000    0.000    0.000    0.000    0.000    0.000 
#
# Total GULP energy -66993.743160 kJ/mol
# GULP energy per Si atom -5582.811930 kJ/mol
# Density = 2.700660 g / cm^3
# Si number density = 27.068205 Si / 1000 Ang^3
#
#
#
# Elastic Constant Matrix: (Units=GPa)
#
#
# Indices 1 2 3 4 5 6 
#
# 1 188.1801 62.2484 68.7965 -0.0012 -26.0044 0.0009
# 2 62.2484 139.1659 38.2589 -0.0056 0.0179 0.0063
# 3 68.7965 38.2589 91.3159 -0.0021 -13.0353 0.0019
# 4 -0.0012 -0.0056 -0.0021 19.8291 0.0006 12.4458
# 5 -26.0044 0.0179 -13.0353 0.0006 61.8748 0.0001
# 6 0.0009 0.0063 0.0019 12.4458 0.0001 16.6565
#
#
#
# Elastic Compliance Matrix: (Units=1/GPa)
#
#
# Indices 1 2 3 4 5 6 
#
# 1 0.008193 -0.002332 -0.004850 -0.000003 0.002422 0.000003
# 2 -0.002332 0.008818 -0.002142 0.000008 -0.001434 -0.000009
# 3 -0.004850 -0.002142 0.015683 0.000002 0.001266 -0.000002
# 4 -0.000003 0.000008 0.000002 0.094971 -0.000001 -0.070963
# 5 0.002422 -0.001434 0.001266 -0.000001 0.017447 0.000001
# 6 0.000003 -0.000009 -0.000002 -0.070963 0.000001 0.113061
#
#
# Mechanical properties :
#
#
# Convention : Reuss Voigt Hill
#
# Bulk Modulus (GPa) = 71.19419 84.14108 77.66763
# Shear Modulus (GPa) = 17.76178 36.29595 27.02886
#
# Velocity S-wave (km/s) = 2.56439 3.66581 3.16341
# Velocity P-wave (km/s) = 5.92680 7.00499 6.48833
#
# Compressibility (1/GPa) = 0.01404609
#
# Stress axis : x y z
#
# Youngs Moduli (GPa) = 122.05224 113.40666 63.76228
#
# Poissons Ratio (x) = 0.26444 0.30924
# Poissons Ratio (y) = 0.28460 0.13660
# Poissons Ratio (z) = 0.59195 0.24296
#
# Static dielectric constant tensor:
#      x y z
#    x 2.378090 0.000000 0.082690 
#    y 0.000000 2.282690 0.000000 
#    z 0.082690 0.000000 2.549090 
# 
# From -- ./inp_files/71815.got.cif
#   From: 2010.05.17/outbox.cif.g08.bks.cpg/sg5_36_cif.got.tgz:71815.got - 2010.06.03 18:56:24.
