data_PCOD9126888
_publ_section_title
;
Structure prediction by ZEFSAII (Michael W. Deem and Ramdas Pophale) SiO2 
 PCOD9126888
Probable space group: C 2
;
_chemical_formula_sum "Si O2"
_cell_formula_units_Z 28
_cell_length_a 14.553894
_cell_length_b 11.264575
_cell_length_c 8.553658
_cell_angle_alpha 90.000000
_cell_angle_beta 118.111368
_cell_angle_gamma 90.000000
_cell_volume 1236.889575
_symmetry_space_group_name_H-M "C 2"
_symmetry_group_IT_number 5
_symmetry_cell_setting 'monoclinic'
loop_
_space_group_symop_operation_xyz
x,y,z
-x,y,-z
1/2+x,1/2+y,z
1/2-x,1/2+y,-z
loop_
_atom_site_type_symbol
_atom_site_label
_atom_site_fract_x
_atom_site_fract_y
_atom_site_fract_z
Si Si1 0.888168 0.557270 0.485444
Si Si2 0.095764 0.713670 0.194113
Si Si3 0.085040 0.186330 0.399277
Si Si4 0.247962 0.759503 0.703967
Si Si5 0.923986 0.338623 0.069313
Si Si6 0.414360 0.411651 0.555238
Si Si7 0.191350 0.333541 0.722290
O O1 0.895467 0.606230 0.670075
O O2 0.842301 0.663979 0.343458
O O3 0.813301 0.443499 0.403300
O O4 0.000000 0.524874 0.500000
O O5 0.074953 0.827803 0.287243
O O6 0.201044 0.758665 0.187580
O O7 0.000000 0.693342 0.000000
O O8 0.195463 0.210140 0.404048
O O9 0.106967 0.240551 0.586934
O O10 0.004133 0.254386 0.224839
O O11 0.067487 0.047474 0.390490
O O12 0.194809 0.883935 0.618652
O O13 0.335475 0.769143 0.903193
O O14 0.853219 0.391152 0.152911
O O15 0.000000 0.400528 0.000000
O O16 0.500000 0.374030 0.500000
#
# Coordination Sequence:
#
# PCOD9126888 Si02
#       7
#     4   4   4   4   4   4   4
#     4  11  24  46  72  99 147 195 233 293 366 423
#     4  11  26  44  76 107 142 184 249 288 354 434
#     4  11  22  44  68 103 134 190 237 290 350 428
#     4  10  22  42  68  99 141 178 233 299 352 409
#     4  10  24  43  69 101 145 180 247 295 345 426
#     4  11  23  42  71  98 143 186 232 288 358 419
#     4  12  24  45  74 100 146 190 238 293 367 416
#
# _framework density 22.637426999999999
#
# number of rings (size 3 to 8) (size 9 to 14) (size 15 to 20)
#    0.000    1.143    2.857    4.714    4.000    2.857 
#    2.571    7.143    0.000    0.000    0.000    0.000 
#    0.000    0.000    0.000    0.000    0.000    0.000 
#
# Total GULP energy -78094.800458 kJ/mol
# GULP energy per Si atom -5578.200033 kJ/mol
# Density = 2.258590 g / cm^3
# Si number density = 22.637427 Si / 1000 Ang^3
#
#
#
# Elastic Constant Matrix: (Units=GPa)
#
#
# Indices 1 2 3 4 5 6 
#
# 1 122.4279 8.5501 46.7544 0.0000 -4.0507 0.0000
# 2 8.5501 65.7060 12.9671 0.0000 -8.3682 0.0000
# 3 46.7544 12.9671 110.7432 0.0000 11.2122 0.0000
# 4 0.0000 0.0000 0.0000 16.2872 0.0000 3.6740
# 5 -4.0507 -8.3682 11.2122 0.0000 43.7299 0.0000
# 6 0.0000 0.0000 0.0000 3.6740 0.0000 14.6034
#
#
#
# Elastic Compliance Matrix: (Units=1/GPa)
#
#
# Indices 1 2 3 4 5 6 
#
# 1 0.009915 -0.000173 -0.004369 0.000000 0.002006 0.000000
# 2 -0.000173 0.016135 -0.002184 0.000000 0.003632 0.000000
# 3 -0.004369 -0.002184 0.011512 0.000000 -0.003774 0.000000
# 4 0.000000 0.000000 0.000000 0.065092 0.000000 -0.016376
# 5 0.002006 0.003632 -0.003774 0.000000 0.024716 0.000000
# 6 0.000000 0.000000 0.000000 -0.016376 0.000000 0.072597
#
#
# Mechanical properties :
#
#
# Convention : Reuss Voigt Hill
#
# Bulk Modulus (GPa) = 41.47413 48.38004 44.92708
# Shear Modulus (GPa) = 22.57787 30.29782 26.43784
#
# Velocity S-wave (km/s) = 3.16154 3.66238 3.42114
# Velocity P-wave (km/s) = 5.62920 6.26914 5.95777
#
# Compressibility (1/GPa) = 0.02411142
#
# Stress axis : x y z
#
# Youngs Moduli (GPa) = 100.85844 61.97576 86.86419
#
# Poissons Ratio (x) = 0.01070 0.37949
# Poissons Ratio (y) = 0.01741 0.18972
# Poissons Ratio (z) = 0.44063 0.13536
#
# Static dielectric constant tensor:
#      x y z
#    x 1.972340 0.000000 -0.060970 
#    y 0.000000 1.829450 0.000000 
#    z -0.060970 0.000000 1.836970 
# 
# From -- ./inp_files/23943.got.cif
#   From: 2010.05.17/outbox.cif.g08.bks.cpg/sg5_12_cif.got.tgz:23943.got - 2010.06.03 18:56:24.
