data_PCOD9126179
_publ_section_title
;
Structure prediction by ZEFSAII (Michael W. Deem and Ramdas Pophale) SiO2 
 PCOD9126179
Probable space group: C 2
;
_chemical_formula_sum "Si O2"
_cell_formula_units_Z 26
_cell_length_a 11.004995
_cell_length_b 11.258340
_cell_length_c 10.048273
_cell_angle_alpha 90.000000
_cell_angle_beta 67.573103
_cell_angle_gamma 90.000000
_cell_volume 1150.800622
_symmetry_space_group_name_H-M "C 2"
_symmetry_group_IT_number 5
_symmetry_cell_setting 'monoclinic'
loop_
_space_group_symop_operation_xyz
x,y,z
-x,y,-z
1/2+x,1/2+y,z
1/2-x,1/2+y,-z
loop_
_atom_site_type_symbol
_atom_site_label
_atom_site_fract_x
_atom_site_fract_y
_atom_site_fract_z
Si Si1 0.233165 0.188900 0.618841
Si Si2 0.167582 0.288135 0.118066
Si Si3 0.000000 0.567332 0.500000
Si Si4 0.687582 0.179243 0.709954
Si Si5 0.414261 0.933962 0.267764
Si Si6 0.497977 0.556727 0.159633
Si Si7 0.563395 0.300780 0.123970
O O1 0.379952 0.151613 0.592374
O O2 0.230663 0.178722 0.459759
O O3 0.177559 0.317512 0.683639
O O4 0.142343 0.090349 0.724730
O O5 0.246054 0.279433 0.224449
O O6 0.090174 0.165477 0.155706
O O7 0.056463 0.389897 0.150039
O O8 0.281562 0.279931 0.959582
O O9 0.051206 0.484257 0.599364
O O10 0.536167 0.218677 0.754387
O O11 0.663311 0.043357 0.769954
O O12 0.547219 0.431436 0.188902
O O13 0.500000 0.549487 0.000000
O O14 0.500000 0.293790 0.000000
#
# Coordination Sequence:
#
# PCOD9126179 Si02
#       7
#     4   4   2   4   4   4   4
#     4  10  23  41  64  99 125 169 218 261 320 384
#     4  10  22  42  64  93 126 173 206 267 335 356
#     4  10  22  38  68  88 134 176 202 262 328 374
#     4  10  22  40  65  93 128 166 219 258 317 391
#     4  10  22  40  63  93 129 164 215 265 310 388
#     4  10  23  41  64  93 129 165 217 264 314 394
#     4   9  21  38  64  89 121 168 216 256 309 390
#
# _framework density 22.592966000000001
#
# number of rings (size 3 to 8) (size 9 to 14) (size 15 to 20)
#    0.000    2.154    0.000    0.923   12.923    3.077 
#   11.077    0.769    0.000    0.000    0.000    0.000 
#    0.000    0.000    0.000    0.000    0.000    0.000 
#
# Total GULP energy -72526.022216 kJ/mol
# GULP energy per Si atom -5578.924786 kJ/mol
# Density = 2.254154 g / cm^3
# Si number density = 22.592966 Si / 1000 Ang^3
#
#
#
# Elastic Constant Matrix: (Units=GPa)
#
#
# Indices 1 2 3 4 5 6 
#
# 1 66.2230 7.7171 27.9377 0.0000 -28.6222 0.0000
# 2 7.7171 61.7699 18.7029 0.0000 -27.7559 0.0000
# 3 27.9377 18.7029 115.8353 0.0000 -44.9476 0.0000
# 4 0.0000 0.0000 0.0000 37.4694 0.0000 -9.7895
# 5 -28.6222 -27.7559 -44.9476 0.0000 51.2955 0.0000
# 6 0.0000 0.0000 0.0000 -9.7895 0.0000 18.5241
#
#
#
# Elastic Compliance Matrix: (Units=1/GPa)
#
#
# Indices 1 2 3 4 5 6 
#
# 1 0.020445 0.003336 -0.000519 0.000000 0.012758 0.000000
# 2 0.003336 0.022125 0.001501 0.000000 0.015148 0.000000
# 3 -0.000519 0.001501 0.013210 0.000000 0.012098 0.000000
# 4 0.000000 0.000000 0.000000 0.030964 0.000000 0.016363
# 5 0.012758 0.015148 0.012098 0.000000 0.045412 0.000000
# 6 0.000000 0.000000 0.000000 0.016363 0.000000 0.062632
#
#
# Mechanical properties :
#
#
# Convention : Reuss Voigt Hill
#
# Bulk Modulus (GPa) = 15.52419 39.17150 27.34785
# Shear Modulus (GPa) = 24.08217 34.08916 29.08567
#
# Velocity S-wave (km/s) = 3.26838 3.88859 3.59190
# Velocity P-wave (km/s) = 4.59665 6.12675 5.41601
#
# Compressibility (1/GPa) = 0.06441559
#
# Stress axis : x y z
#
# Youngs Moduli (GPa) = 48.91186 45.19842 75.69927
#
# Poissons Ratio (x) = -0.15077 0.03929
# Poissons Ratio (y) = -0.16316 -0.11364
# Poissons Ratio (z) = 0.02539 -0.06785
#
# Static dielectric constant tensor:
#      x y z
#    x 1.771430 0.000000 -0.096090 
#    y 0.000000 1.847370 0.000000 
#    z -0.096090 0.000000 1.771400 
# 
# From -- ./inp_files/39099.got.cif
#   From: 2010.05.17/outbox.cif.g08.bks.cpg/sg5_20_cif.got.tgz:39099.got - 2010.06.03 18:56:24.
