data_PCOD9126410
_publ_section_title
;
Structure prediction by ZEFSAII (Michael W. Deem and Ramdas Pophale) SiO2 
 PCOD9126410
Probable space group: C 2
;
_chemical_formula_sum "Si O2"
_cell_formula_units_Z 28
_cell_length_a 8.525271
_cell_length_b 10.335668
_cell_length_c 22.998925
_cell_angle_alpha 90.000000
_cell_angle_beta 42.290484
_cell_angle_gamma 90.000000
_cell_volume 1363.634992
_symmetry_space_group_name_H-M "C 2"
_symmetry_group_IT_number 5
_symmetry_cell_setting 'monoclinic'
loop_
_space_group_symop_operation_xyz
x,y,z
-x,y,-z
1/2+x,1/2+y,z
1/2-x,1/2+y,-z
loop_
_atom_site_type_symbol
_atom_site_label
_atom_site_fract_x
_atom_site_fract_y
_atom_site_fract_z
Si Si1 0.197968 0.315800 0.187897
Si Si2 0.630809 0.055384 0.902824
Si Si3 0.221734 0.790336 0.515035
Si Si4 0.218036 0.389069 0.619580
Si Si5 0.067054 0.806761 0.183851
Si Si6 0.751278 0.552530 0.906917
Si Si7 0.792085 0.189647 0.624933
O O1 0.221083 0.187290 0.143022
O O2 0.435629 0.331237 0.159048
O O3 0.162101 0.439536 0.158106
O O4 0.993883 0.317225 0.291234
O O5 0.429531 0.065106 0.910503
O O6 0.500000 0.038035 0.000000
O O7 0.796048 0.936655 0.840055
O O8 0.303664 0.898367 0.444951
O O9 0.244354 0.772874 0.578533
O O10 0.427699 0.689112 0.440469
O O11 0.946350 0.804382 0.575956
O O12 0.229989 0.538376 0.635962
O O13 0.870378 0.757028 0.282539
O O14 0.247140 0.688981 0.126721
O O15 0.500000 0.518942 0.000000
#
# Coordination Sequence:
#
# PCOD9126410 Si02
#       7
#     4   4   4   4   4   4   4
#     4  11  24  43  69 100 138 176 224 281 332 405
#     4  11  26  45  66 103 137 170 230 280 334 410
#     4  10  22  40  65  92 130 173 213 276 329 383
#     4  11  23  45  65  98 138 175 227 276 332 401
#     4  11  24  43  69 100 138 175 225 280 334 403
#     4  11  24  44  71  95 131 181 218 275 349 406
#     4  11  23  44  65  98 136 176 227 274 334 402
#
# _framework density 20.533353999999999
#
# number of rings (size 3 to 8) (size 9 to 14) (size 15 to 20)
#    0.000    1.143    2.857    3.429    2.000    5.714 
#    5.143    5.714    0.000    0.000    0.000    0.000 
#    0.000    0.000    0.000    0.000    0.000    0.000 
#
# Total GULP energy -77938.782780 kJ/mol
# GULP energy per Si atom -5567.055913 kJ/mol
# Density = 2.048662 g / cm^3
# Si number density = 20.533354 Si / 1000 Ang^3
#
#
#
# Elastic Constant Matrix: (Units=GPa)
#
#
# Indices 1 2 3 4 5 6 
#
# 1 52.1335 21.9743 9.4846 0.0001 1.9506 0.0000
# 2 21.9743 80.3924 10.0906 0.0002 -4.7949 -0.0001
# 3 9.4846 10.0906 87.8667 0.0003 1.5910 0.0000
# 4 0.0001 0.0002 0.0003 29.1314 -0.0001 -2.0588
# 5 1.9506 -4.7949 1.5910 -0.0001 30.1385 0.0000
# 6 0.0000 -0.0001 0.0000 -2.0588 0.0000 21.3127
#
#
#
# Elastic Compliance Matrix: (Units=1/GPa)
#
#
# Indices 1 2 3 4 5 6 
#
# 1 0.022083 -0.005965 -0.001657 0.000000 -0.002291 0.000000
# 2 -0.005965 0.014364 -0.001055 0.000000 0.002727 0.000000
# 3 -0.001657 -0.001055 0.011693 0.000000 -0.000678 0.000000
# 4 0.000000 0.000000 0.000000 0.034563 0.000000 0.003339
# 5 -0.002291 0.002727 -0.000678 0.000000 0.033798 0.000000
# 6 0.000000 0.000000 0.000000 0.003339 0.000000 0.047243
#
#
# Mechanical properties :
#
#
# Convention : Reuss Voigt Hill
#
# Bulk Modulus (GPa) = 32.48190 33.72129 33.10159
# Shear Modulus (GPa) = 26.12865 28.03940 27.08403
#
# Velocity S-wave (km/s) = 3.57108 3.69935 3.63578
# Velocity P-wave (km/s) = 5.73209 5.89112 5.81215
#
# Compressibility (1/GPa) = 0.03078638
#
# Stress axis : x y z
#
# Youngs Moduli (GPa) = 45.28405 69.61630 85.51970
#
# Poissons Ratio (x) = 0.41524 0.14172
# Poissons Ratio (y) = 0.27011 0.09024
# Poissons Ratio (z) = 0.07505 0.07346
#
# Static dielectric constant tensor:
#      x y z
#    x 1.757050 0.000000 0.016830 
#    y 0.000000 1.716450 0.000000 
#    z 0.016830 0.000000 1.763600 
# 
# From -- ./inp_files/70138.got.cif
#   From: 2010.05.17/outbox.cif.g08.bks.cpg/sg5_36_cif.got.tgz:70138.got - 2010.06.03 18:56:24.
