data_PCOD9126288
_publ_section_title
;
Structure prediction by ZEFSAII (Michael W. Deem and Ramdas Pophale) SiO2 
 PCOD9126288
Probable space group: C 2
;
_chemical_formula_sum "Si O2"
_cell_formula_units_Z 30
_cell_length_a 16.429786
_cell_length_b 15.401367
_cell_length_c 5.810909
_cell_angle_alpha 90.000000
_cell_angle_beta 115.825812
_cell_angle_gamma 90.000000
_cell_volume 1323.539540
_symmetry_space_group_name_H-M "C 2"
_symmetry_group_IT_number 5
_symmetry_cell_setting 'monoclinic'
loop_
_space_group_symop_operation_xyz
x,y,z
-x,y,-z
1/2+x,1/2+y,z
1/2-x,1/2+y,-z
loop_
_atom_site_type_symbol
_atom_site_label
_atom_site_fract_x
_atom_site_fract_y
_atom_site_fract_z
Si Si1 0.621992 0.408150 0.040590
Si Si2 0.916129 0.069509 0.252461
Si Si3 0.500000 0.263919 0.000000
Si Si4 0.770662 0.348339 0.866364
Si Si5 0.576674 0.111943 0.787961
Si Si6 0.228054 0.012098 0.546034
Si Si7 0.239378 0.154077 0.231744
Si Si8 0.546917 0.913609 0.812638
O O1 0.578414 0.334390 0.147296
O O2 0.684321 0.469877 0.267050
O O3 0.555353 0.478469 0.836431
O O4 0.684182 0.364047 0.922656
O O5 0.844302 0.039500 0.354240
O O6 0.000000 0.108070 0.500000
O O7 0.858225 0.127851 0.001318
O O8 0.454214 0.197442 0.116245
O O9 0.780873 0.430888 0.712032
O O10 0.760656 0.256568 0.731941
O O11 0.864417 0.354512 0.117139
O O12 0.500000 0.107903 0.500000
O O13 0.679630 0.127024 0.838266
O O14 0.570904 0.015653 0.885631
O O15 0.266691 0.101641 0.496013
O O16 0.500000 0.910917 0.500000
O O17 0.500000 0.885424 0.000000
#
# Coordination Sequence:
#
# PCOD9126288 Si02
#       8
#     4   4   2   4   4   4   4   4
#     4  10  22  39  66 102 139 176 232 302 375 453
#     4  10  22  43  68  96 140 184 235 299 364 442
#     4  12  22  38  68 104 136 178 232 300 384 446
#     4  11  25  45  69 101 144 192 247 308 370 449
#     4  11  25  41  66 101 144 185 237 309 376 446
#     4  10  23  42  72  97 142 187 229 302 374 440
#     4  11  25  46  67 106 142 185 249 299 374 454
#     4  11  26  48  72 104 148 202 257 311 376 449
#
# _framework density 22.666492999999999
#
# number of rings (size 3 to 8) (size 9 to 14) (size 15 to 20)
#    0.000    1.333    2.000    3.200    7.467    4.800 
#    2.400    0.000    0.000    0.000    0.000    0.000 
#    0.000    0.000    0.000    0.000    0.000    0.000 
#
# Total GULP energy -83590.440558 kJ/mol
# GULP energy per Si atom -5572.696037 kJ/mol
# Density = 2.261490 g / cm^3
# Si number density = 22.666493 Si / 1000 Ang^3
#
#
#
# Elastic Constant Matrix: (Units=GPa)
#
#
# Indices 1 2 3 4 5 6 
#
# 1 60.6002 21.4504 9.2253 0.0000 2.0089 0.0000
# 2 21.4504 83.3623 24.5384 0.0000 -4.6708 0.0000
# 3 9.2253 24.5384 62.3659 0.0000 3.0774 0.0000
# 4 0.0000 0.0000 0.0000 46.3564 0.0000 12.5290
# 5 2.0089 -4.6708 3.0774 0.0000 34.0749 0.0000
# 6 0.0000 0.0000 0.0000 12.5290 0.0000 40.0574
#
#
#
# Elastic Compliance Matrix: (Units=1/GPa)
#
#
# Indices 1 2 3 4 5 6 
#
# 1 0.018294 -0.004553 -0.000834 0.000000 -0.001627 0.000000
# 2 -0.004553 0.014891 -0.005323 0.000000 0.002790 0.000000
# 3 -0.000834 -0.005323 0.018368 0.000000 -0.002339 0.000000
# 4 0.000000 0.000000 0.000000 0.023564 0.000000 -0.007370
# 5 -0.001627 0.002790 -0.002339 0.000000 0.030037 0.000000
# 6 0.000000 0.000000 0.000000 -0.007370 0.000000 0.027269
#
#
# Mechanical properties :
#
#
# Convention : Reuss Voigt Hill
#
# Bulk Modulus (GPa) = 33.18773 35.19518 34.19145
# Shear Modulus (GPa) = 30.50878 34.17202 32.34040
#
# Velocity S-wave (km/s) = 3.67275 3.88700 3.78139
# Velocity P-wave (km/s) = 5.71480 5.97546 5.84658
#
# Compressibility (1/GPa) = 0.03013162
#
# Stress axis : x y z
#
# Youngs Moduli (GPa) = 54.66233 67.15650 54.44354
#
# Poissons Ratio (x) = 0.30576 0.04543
# Poissons Ratio (y) = 0.24887 0.28980
# Poissons Ratio (z) = 0.04561 0.35748
#
# Static dielectric constant tensor:
#      x y z
#    x 1.803410 0.000000 -0.066490 
#    y 0.000000 1.836810 0.000000 
#    z -0.066490 0.000000 1.842050 
# 
# From -- ./inp_files/8683.got.cif
#   From: 2010.05.17/outbox.cif.g08.bks.cpg/sg5_5_cif.got.tgz:8683.got - 2010.06.03 18:56:24.
