data_PCOD9126707
_publ_section_title
;
Structure prediction by ZEFSAII (Michael W. Deem and Ramdas Pophale) SiO2 
 PCOD9126707
Probable space group: C 2
;
_chemical_formula_sum "Si O2"
_cell_formula_units_Z 28
_cell_length_a 18.944544
_cell_length_b 7.499037
_cell_length_c 13.785386
_cell_angle_alpha 90.000000
_cell_angle_beta 38.030397
_cell_angle_gamma 90.000000
_cell_volume 1206.549952
_symmetry_space_group_name_H-M "C 2"
_symmetry_group_IT_number 5
_symmetry_cell_setting 'monoclinic'
loop_
_space_group_symop_operation_xyz
x,y,z
-x,y,-z
1/2+x,1/2+y,z
1/2-x,1/2+y,-z
loop_
_atom_site_type_symbol
_atom_site_label
_atom_site_fract_x
_atom_site_fract_y
_atom_site_fract_z
Si Si1 0.136183 0.569760 0.043731
Si Si2 0.284622 0.210360 0.578463
Si Si3 0.564074 0.543606 0.532071
Si Si4 0.873841 0.973287 0.883493
Si Si5 0.622351 0.576823 0.899036
Si Si6 0.106993 0.444710 0.680574
Si Si7 0.806362 0.688601 0.235980
O O1 0.103681 0.761134 0.127060
O O2 0.028893 0.440007 0.172999
O O3 0.249426 0.496171 0.971300
O O4 0.162623 0.603713 0.901740
O O5 0.372090 0.371147 0.493855
O O6 0.178664 0.266853 0.623848
O O7 0.344941 0.040601 0.467067
O O8 0.228228 0.187747 0.744461
O O9 0.500000 0.508815 0.500000
O O10 0.465132 0.575425 0.717614
O O11 0.668409 0.680535 0.399057
O O12 0.873629 0.048277 0.991942
O O13 0.640341 0.385938 0.825751
O O14 0.500000 0.653245 0.000000
O O15 0.138950 0.576407 0.735921
#
# Coordination Sequence:
#
# PCOD9126707 Si02
#       7
#     4   4   4   4   4   4   4
#     4  11  23  44  66 101 136 183 225 280 340 405
#     4  11  26  42  70 102 132 182 227 284 342 406
#     4  11  23  45  71 100 141 178 228 279 338 405
#     4  11  25  44  69  99 142 183 225 282 343 404
#     4  11  26  45  66 101 139 175 228 286 343 405
#     4  11  23  42  70  98 135 176 230 283 341 399
#     4  10  22  41  72  94 134 179 227 274 342 401
#
# _framework density 23.206664
#
# number of rings (size 3 to 8) (size 9 to 14) (size 15 to 20)
#    0.000    1.143    2.857    3.000    6.000    3.429 
#    2.571    0.714    0.000    0.000    0.000    0.000 
#    0.000    0.000    0.000    0.000    0.000    0.000 
#
# Total GULP energy -78433.709288 kJ/mol
# GULP energy per Si atom -5602.407806 kJ/mol
# Density = 2.315384 g / cm^3
# Si number density = 23.206664 Si / 1000 Ang^3
#
#
#
# Elastic Constant Matrix: (Units=GPa)
#
#
# Indices 1 2 3 4 5 6 
#
# 1 79.2239 -4.3239 47.0346 0.0000 -11.1895 0.0000
# 2 -4.3239 47.0648 23.1496 0.0003 1.8675 -0.0002
# 3 47.0346 23.1496 166.7065 0.0003 -13.6561 -0.0002
# 4 0.0000 0.0003 0.0003 31.5756 0.0000 4.2664
# 5 -11.1895 1.8675 -13.6561 0.0000 44.4683 0.0000
# 6 0.0000 -0.0002 -0.0002 4.2664 0.0000 27.0431
#
#
#
# Elastic Compliance Matrix: (Units=1/GPa)
#
#
# Indices 1 2 3 4 5 6 
#
# 1 0.016048 0.003768 -0.004855 0.000000 0.002389 0.000000
# 2 0.003768 0.023861 -0.004494 0.000000 -0.001434 0.000000
# 3 -0.004855 -0.004494 0.008112 0.000000 0.001458 0.000000
# 4 0.000000 0.000000 0.000000 0.032360 0.000000 -0.005105
# 5 0.002389 -0.001434 0.001458 0.000000 0.023597 0.000000
# 6 0.000000 0.000000 0.000000 -0.005105 0.000000 0.037783
#
#
# Mechanical properties :
#
#
# Convention : Reuss Voigt Hill
#
# Bulk Modulus (GPa) = 27.13134 47.19066 37.16100
# Shear Modulus (GPa) = 30.26451 35.75971 33.01211
#
# Velocity S-wave (km/s) = 3.61519 3.92972 3.77573
# Velocity P-wave (km/s) = 5.39840 6.40073 5.92081
#
# Compressibility (1/GPa) = 0.03685775
#
# Stress axis : x y z
#
# Youngs Moduli (GPa) = 62.31284 41.90984 123.27503
#
# Poissons Ratio (x) = -0.15791 0.59854
# Poissons Ratio (y) = -0.23478 0.55399
# Poissons Ratio (z) = 0.30255 0.18834
#
# Static dielectric constant tensor:
#      x y z
#    x 1.806400 0.000000 0.003270 
#    y 0.000000 1.917910 0.000000 
#    z 0.003270 0.000000 1.856110 
# 
# From -- ./inp_files/41866.got.cif
#   From: 2010.05.17/outbox.cif.g08.bks.cpg/sg5_21_cif.got.tgz:41866.got - 2010.06.03 18:56:24.
