data_PCOD9126221
_publ_section_title
;
Structure prediction by ZEFSAII (Michael W. Deem and Ramdas Pophale) SiO2 
 PCOD9126221
Probable space group: C 2
;
_chemical_formula_sum "Si O2"
_cell_formula_units_Z 26
_cell_length_a 7.061625
_cell_length_b 27.258503
_cell_length_c 5.718083
_cell_angle_alpha 90.000000
_cell_angle_beta 102.433524
_cell_angle_gamma 90.000000
_cell_volume 1074.855347
_symmetry_space_group_name_H-M "C 2"
_symmetry_group_IT_number 5
_symmetry_cell_setting 'monoclinic'
loop_
_space_group_symop_operation_xyz
x,y,z
-x,y,-z
1/2+x,1/2+y,z
1/2-x,1/2+y,-z
loop_
_atom_site_type_symbol
_atom_site_label
_atom_site_fract_x
_atom_site_fract_y
_atom_site_fract_z
Si Si1 0.294488 0.681040 0.173876
Si Si2 0.719037 0.289349 0.165872
Si Si3 0.500000 0.324552 0.500000
Si Si4 0.295099 0.386739 0.066292
Si Si5 0.282087 0.997207 0.931651
Si Si6 0.265735 0.645673 0.666486
Si Si7 0.224988 0.530594 0.571067
O O1 0.324514 0.739259 0.142813
O O2 0.201655 0.672307 0.407111
O O3 0.503306 0.655387 0.251272
O O4 0.195791 0.661522 0.908407
O O5 0.660910 0.291701 0.419091
O O6 0.500000 0.287096 0.000000
O O7 0.801953 0.342297 0.109046
O O8 0.365107 0.360252 0.316295
O O9 0.200704 0.438557 0.085344
O O10 0.500000 0.398728 0.000000
O O11 0.193580 0.017474 0.665402
O O12 0.500000 0.019543 0.000000
O O13 0.194360 0.008043 0.165175
O O14 0.229143 0.588659 0.611168
O O15 0.000000 0.512906 0.500000
#
# Coordination Sequence:
#
# PCOD9126221 Si02
#       7
#     4   4   2   4   4   4   4
#     4  10  22  39  59  87 124 152 203 250 302 362
#     4   9  20  36  60  86 122 167 201 247 302 364
#     4   8  18  36  58  84 126 154 208 236 304 362
#     4   9  20  38  59  93 121 161 206 252 298 371
#     4  10  22  41  63  92 121 157 207 252 310 363
#     4  10  22  41  58  86 123 153 204 252 304 360
#     4  10  22  41  64  84 121 163 202 254 308 364
#
# _framework density 24.189302000000001
#
# number of rings (size 3 to 8) (size 9 to 14) (size 15 to 20)
#    0.000    2.769    0.000    0.923    8.615    1.231 
#   11.077    0.000    0.000    0.000    0.000    0.000 
#    0.000    0.000    0.000    0.000    0.000    0.000 
#
# Total GULP energy -72466.850387 kJ/mol
# GULP energy per Si atom -5574.373107 kJ/mol
# Density = 2.413425 g / cm^3
# Si number density = 24.189302 Si / 1000 Ang^3
#
#
#
# Elastic Constant Matrix: (Units=GPa)
#
#
# Indices 1 2 3 4 5 6 
#
# 1 51.9150 -3.6529 38.1945 0.0000 4.0957 0.0000
# 2 -3.6529 157.5999 67.6702 0.0000 -10.8783 0.0000
# 3 38.1945 67.6702 219.0701 0.0000 -22.2830 0.0000
# 4 0.0000 0.0000 0.0000 31.2398 0.0000 -7.6185
# 5 4.0957 -10.8783 -22.2830 0.0000 35.0971 0.0000
# 6 0.0000 0.0000 0.0000 -7.6185 0.0000 35.9685
#
#
#
# Elastic Compliance Matrix: (Units=1/GPa)
#
#
# Indices 1 2 3 4 5 6 
#
# 1 0.023937 0.002545 -0.005520 0.000000 -0.005509 0.000000
# 2 0.002545 0.007612 -0.002764 0.000000 0.000308 0.000000
# 3 -0.005520 -0.002764 0.006798 0.000000 0.004104 0.000000
# 4 0.000000 0.000000 0.000000 0.033754 0.000000 0.007149
# 5 -0.005509 0.000308 0.004104 0.000000 0.031836 0.000000
# 6 0.000000 0.000000 0.000000 0.007149 0.000000 0.029316
#
#
# Mechanical properties :
#
#
# Convention : Reuss Voigt Hill
#
# Bulk Modulus (GPa) = 37.21691 70.33429 53.77560
# Shear Modulus (GPa) = 32.53349 42.21929 37.37639
#
# Velocity S-wave (km/s) = 3.67134 4.18230 3.93512
# Velocity P-wave (km/s) = 5.77847 7.24306 6.55182
#
# Compressibility (1/GPa) = 0.02686951
#
# Stress axis : x y z
#
# Youngs Moduli (GPa) = 41.77656 131.37023 147.09745
#
# Poissons Ratio (x) = -0.33429 0.81194
# Poissons Ratio (y) = -0.10630 0.40653
# Poissons Ratio (z) = 0.23060 0.36307
#
# Static dielectric constant tensor:
#      x y z
#    x 2.013920 0.000000 -0.044220 
#    y 0.000000 1.859800 0.000000 
#    z -0.044220 0.000000 2.039090 
# 
# From -- ./inp_files/3648.got.cif
#   From: 2010.05.17/outbox.cif.g08.bks.cpg/sg5_2_cif.got.tgz:3648.got - 2010.06.03 18:56:24.
