data_PCOD9126638
_publ_section_title
;
Structure prediction by ZEFSAII (Michael W. Deem and Ramdas Pophale) SiO2 
 PCOD9126638
Probable space group: C 2
;
_chemical_formula_sum "Si O2"
_cell_formula_units_Z 24
_cell_length_a 7.771521
_cell_length_b 15.279154
_cell_length_c 13.097394
_cell_angle_alpha 90.000000
_cell_angle_beta 132.671363
_cell_angle_gamma 90.000000
_cell_volume 1143.476645
_symmetry_space_group_name_H-M "C 2"
_symmetry_group_IT_number 5
_symmetry_cell_setting 'monoclinic'
loop_
_space_group_symop_operation_xyz
x,y,z
-x,y,-z
1/2+x,1/2+y,z
1/2-x,1/2+y,-z
loop_
_atom_site_type_symbol
_atom_site_label
_atom_site_fract_x
_atom_site_fract_y
_atom_site_fract_z
Si Si1 0.734655 0.139720 0.049793
Si Si2 0.321749 0.403690 0.753146
Si Si3 0.500000 0.515310 0.000000
Si Si4 0.221896 0.781740 0.881954
Si Si5 0.384353 0.171591 0.616084
Si Si6 0.500000 0.025101 0.500000
Si Si7 0.568611 0.717619 0.672108
O O1 0.860960 0.077127 0.021399
O O2 0.901133 0.171685 0.207371
O O3 0.500000 0.097989 0.000000
O O4 0.655646 0.225880 0.955849
O O5 0.582684 0.372150 0.829826
O O6 0.211027 0.463102 0.620763
O O7 0.175167 0.314674 0.708458
O O8 0.333940 0.455684 0.863873
O O9 0.112836 0.725285 0.744423
O O10 0.500000 0.789706 0.000000
O O11 0.445065 0.086078 0.575622
O O12 0.225893 0.161413 0.654665
O O13 0.200337 0.222721 0.470296
#
# Coordination Sequence:
#
# PCOD9126638 Si02
#       7
#     4   4   2   4   4   2   4
#     4  12  22  42  72 101 137 188 237 289 338 426
#     4  11  23  43  67 102 141 181 221 301 356 395
#     4  12  26  40  68 106 144 176 236 294 360 398
#     4  11  23  43  73 101 134 186 245 278 340 431
#     4  10  22  41  67 105 128 181 236 280 339 425
#     4  12  24  40  72 102 142 172 228 300 350 402
#     4  10  22  44  73  90 135 189 235 273 348 430
#
# _framework density 20.988621999999999
#
# number of rings (size 3 to 8) (size 9 to 14) (size 15 to 20)
#    0.000    1.000    4.167    5.000    2.333    0.667 
#    0.000    0.000    7.333    2.000    0.000    0.000 
#    0.000    0.000    0.000    0.000    0.000    0.000 
#
# Total GULP energy -67068.079945 kJ/mol
# GULP energy per Si atom -5589.006662 kJ/mol
# Density = 2.094085 g / cm^3
# Si number density = 20.988622 Si / 1000 Ang^3
#
#
#
# Elastic Constant Matrix: (Units=GPa)
#
#
# Indices 1 2 3 4 5 6 
#
# 1 108.4775 66.5177 64.2647 0.0000 2.6981 0.0000
# 2 66.5177 101.5686 62.7495 0.0000 -4.6506 0.0000
# 3 64.2647 62.7495 197.2388 0.0000 5.3217 0.0000
# 4 0.0000 0.0000 0.0000 40.0705 0.0000 -1.2654
# 5 2.6981 -4.6506 5.3217 0.0000 45.3583 0.0000
# 6 0.0000 0.0000 0.0000 -1.2654 0.0000 4.9493
#
#
#
# Elastic Compliance Matrix: (Units=1/GPa)
#
#
# Indices 1 2 3 4 5 6 
#
# 1 0.016376 -0.009375 -0.002308 0.000000 -0.001664 0.000000
# 2 -0.009375 0.017756 -0.002667 0.000000 0.002691 0.000000
# 3 -0.002308 -0.002667 0.006695 0.000000 -0.000922 0.000000
# 4 0.000000 0.000000 0.000000 0.025159 0.000000 0.006433
# 5 -0.001664 0.002691 -0.000922 0.000000 0.022530 0.000000
# 6 0.000000 0.000000 0.000000 0.006433 0.000000 0.203695
#
#
# Mechanical properties :
#
#
# Convention : Reuss Voigt Hill
#
# Bulk Modulus (GPa) = 82.45853 88.26098 85.35976
# Shear Modulus (GPa) = 15.38678 32.32582 23.85630
#
# Velocity S-wave (km/s) = 2.71052 3.92874 3.37505
# Velocity P-wave (km/s) = 7.01202 7.91979 7.47969
#
# Compressibility (1/GPa) = 0.01212731
#
# Stress axis : x y z
#
# Youngs Moduli (GPa) = 61.06510 56.31860 149.35613
#
# Poissons Ratio (x) = 0.52798 0.34475
# Poissons Ratio (y) = 0.57248 0.39833
# Poissons Ratio (z) = 0.14095 0.15020
#
# Static dielectric constant tensor:
#      x y z
#    x 1.796850 0.000000 0.027760 
#    y 0.000000 1.743580 0.000000 
#    z 0.027760 0.000000 1.815150 
# 
# From -- ./inp_files/51048.got.cif
#   From: 2010.05.17/outbox.cif.g08.bks.cpg/sg5_26_cif.got.tgz:51048.got - 2010.06.03 18:56:24.
