data_PCOD9126307
_publ_section_title
;
Structure prediction by ZEFSAII (Michael W. Deem and Ramdas Pophale) SiO2 
 PCOD9126307
Probable space group: C 2
;
_chemical_formula_sum "Si O2"
_cell_formula_units_Z 30
_cell_length_a 11.337918
_cell_length_b 14.968106
_cell_length_c 9.546298
_cell_angle_alpha 90.000000
_cell_angle_beta 110.392235
_cell_angle_gamma 90.000000
_cell_volume 1518.543738
_symmetry_space_group_name_H-M "C 2"
_symmetry_group_IT_number 5
_symmetry_cell_setting 'monoclinic'
loop_
_space_group_symop_operation_xyz
x,y,z
-x,y,-z
1/2+x,1/2+y,z
1/2-x,1/2+y,-z
loop_
_atom_site_type_symbol
_atom_site_label
_atom_site_fract_x
_atom_site_fract_y
_atom_site_fract_z
Si Si1 0.871386 0.053060 0.535704
Si Si2 0.000000 0.630159 0.000000
Si Si3 0.618490 0.479093 0.148284
Si Si4 0.636472 0.824478 0.053775
Si Si5 0.303267 0.277437 0.886004
Si Si6 0.851994 0.251132 0.445906
Si Si7 0.839628 0.414511 0.634803
Si Si8 0.097577 0.488283 0.823247
O O1 0.824514 0.156213 0.508573
O O2 0.000000 0.048731 0.500000
O O3 0.902118 0.014660 0.702957
O O4 0.762385 0.992213 0.423105
O O5 0.894319 0.695626 0.900925
O O6 0.047624 0.569545 0.893826
O O7 0.632304 0.371649 0.128988
O O8 0.763242 0.509349 0.176258
O O9 0.500000 0.507314 0.000000
O O10 0.665789 0.865648 0.216602
O O11 0.500000 0.776107 0.000000
O O12 0.749912 0.775077 0.022451
O O13 0.616502 0.907396 0.940210
O O14 0.192551 0.260255 0.731216
O O15 0.806356 0.337682 0.510454
O O16 0.000000 0.257523 0.500000
O O17 0.981947 0.454362 0.678013
#
# Coordination Sequence:
#
# PCOD9126307 Si02
#       8
#     4   2   4   4   4   4   4   4
#     4  11  27  42  65 100 136 178 220 279 343 388
#     4  12  22  40  66 104 128 166 222 282 320 398
#     4  11  24  45  66  95 137 179 217 272 342 407
#     4   9  19  38  64  94 122 173 219 258 325 393
#     4  11  23  39  66  99 133 169 217 271 337 394
#     4  11  23  41  66  96 127 170 222 268 331 394
#     4  11  21  42  70  92 138 171 226 275 328 401
#     4  10  22  39  68  99 126 174 224 272 336 381
#
# _framework density 19.755769000000001
#
# number of rings (size 3 to 8) (size 9 to 14) (size 15 to 20)
#    0.000    1.333    4.000    3.200    3.733    2.133 
#    0.000    2.667    0.000    0.000    0.000    0.000 
#    0.000    0.000    0.000    0.000    0.000    0.000 
#
# Total GULP energy -83663.585274 kJ/mol
# GULP energy per Si atom -5577.572352 kJ/mol
# Density = 1.971080 g / cm^3
# Si number density = 19.755769 Si / 1000 Ang^3
#
#
#
# Elastic Constant Matrix: (Units=GPa)
#
#
# Indices 1 2 3 4 5 6 
#
# 1 110.6536 37.9722 34.9436 0.0000 0.0110 0.0000
# 2 37.9722 88.6682 -4.7749 0.0000 -4.2081 0.0000
# 3 34.9436 -4.7749 80.5441 0.0000 7.0575 0.0000
# 4 0.0000 0.0000 0.0000 21.7015 0.0000 3.5645
# 5 0.0110 -4.2081 7.0575 0.0000 37.0359 0.0000
# 6 0.0000 0.0000 0.0000 3.5645 0.0000 15.9614
#
#
#
# Elastic Compliance Matrix: (Units=1/GPa)
#
#
# Indices 1 2 3 4 5 6 
#
# 1 0.012936 -0.005840 -0.006000 0.000000 0.000476 0.000000
# 2 -0.005840 0.014002 0.003279 0.000000 0.000968 0.000000
# 3 -0.006000 0.003279 0.015438 0.000000 -0.002568 0.000000
# 4 0.000000 0.000000 0.000000 0.047834 0.000000 -0.010683
# 5 0.000476 0.000968 -0.002568 0.000000 0.027600 0.000000
# 6 0.000000 0.000000 0.000000 -0.010683 0.000000 0.065037
#
#
# Mechanical properties :
#
#
# Convention : Reuss Voigt Hill
#
# Bulk Modulus (GPa) = 39.59954 46.23864 42.91909
# Shear Modulus (GPa) = 23.99369 29.05475 26.52422
#
# Velocity S-wave (km/s) = 3.48877 3.83913 3.66813
# Velocity P-wave (km/s) = 6.02634 6.56565 6.30177
#
# Compressibility (1/GPa) = 0.02525282
#
# Stress axis : x y z
#
# Youngs Moduli (GPa) = 77.30223 71.41987 64.77477
#
# Poissons Ratio (x) = 0.41713 0.38867
# Poissons Ratio (y) = 0.45148 -0.21240
# Poissons Ratio (z) = 0.46383 -0.23419
#
# Static dielectric constant tensor:
#      x y z
#    x 1.736030 0.000000 -0.032450 
#    y 0.000000 1.704960 0.000000 
#    z -0.032450 0.000000 1.708940 
# 
# From -- ./inp_files/20690.got.cif
#   From: 2010.05.17/outbox.cif.g08.bks.cpg/sg5_11_cif.got.tgz:20690.got - 2010.06.03 18:56:24.
