data_PCOD9126693
_publ_section_title
;
Structure prediction by ZEFSAII (Michael W. Deem and Ramdas Pophale) SiO2 
 PCOD9126693
Probable space group: C 2
;
_chemical_formula_sum "Si O2"
_cell_formula_units_Z 30
_cell_length_a 10.939534
_cell_length_b 11.180591
_cell_length_c 13.843114
_cell_angle_alpha 90.000000
_cell_angle_beta 131.085626
_cell_angle_gamma 90.000000
_cell_volume 1276.180760
_symmetry_space_group_name_H-M "C 2"
_symmetry_group_IT_number 5
_symmetry_cell_setting 'monoclinic'
loop_
_space_group_symop_operation_xyz
x,y,z
-x,y,-z
1/2+x,1/2+y,z
1/2-x,1/2+y,-z
loop_
_atom_site_type_symbol
_atom_site_label
_atom_site_fract_x
_atom_site_fract_y
_atom_site_fract_z
Si Si1 0.000000 0.937561 0.500000
Si Si2 0.601697 0.370218 0.963293
Si Si3 0.383578 0.685821 0.731743
Si Si4 0.458646 0.904666 0.086972
Si Si5 0.780885 0.919252 0.701531
Si Si6 0.659070 0.286694 0.448537
Si Si7 0.331116 0.073914 0.684672
Si Si8 0.791892 0.220177 0.199775
O O1 0.001386 0.855233 0.405571
O O2 0.159264 0.015649 0.569546
O O3 0.671028 0.249656 0.049002
O O4 0.766659 0.419145 0.004424
O O5 0.500000 0.430566 0.000000
O O6 0.464187 0.368102 0.811943
O O7 0.460496 0.772565 0.853531
O O8 0.297995 0.561812 0.717571
O O9 0.263087 0.755465 0.597453
O O10 0.544018 0.660022 0.750553
O O11 0.538603 0.978926 0.214917
O O12 0.500000 0.942315 0.000000
O O13 0.739814 0.869913 0.573772
O O14 0.680044 0.849292 0.731720
O O15 0.620267 0.164118 0.373930
O O16 0.292845 0.144549 0.762824
#
# Coordination Sequence:
#
# PCOD9126693 Si02
#       8
#     2   4   4   4   4   4   4   4
#     4  12  24  46  70 100 154 182 238 302 372 434
#     4   9  21  45  66  99 136 183 237 289 358 428
#     4  11  23  45  66 101 141 182 236 293 366 424
#     4  11  26  43  70 106 147 184 238 303 360 440
#     4  10  22  41  70  97 136 185 234 293 360 424
#     4  11  24  42  70 103 134 187 239 296 360 441
#     4  11  23  44  71 105 138 192 238 298 363 433
#     4   9  21  41  71  98 132 182 236 291 352 437
#
# _framework density 23.507642000000001
#
# number of rings (size 3 to 8) (size 9 to 14) (size 15 to 20)
#    0.000    1.600    1.333    2.400    3.733    5.867 
#   14.400    0.000    0.000    0.000    0.000    0.000 
#    0.000    0.000    0.000    0.000    0.000    0.000 
#
# Total GULP energy -83737.373377 kJ/mol
# GULP energy per Si atom -5582.491558 kJ/mol
# Density = 2.345414 g / cm^3
# Si number density = 23.507642 Si / 1000 Ang^3
#
#
#
# Elastic Constant Matrix: (Units=GPa)
#
#
# Indices 1 2 3 4 5 6 
#
# 1 77.1287 12.7750 9.4705 0.0000 -1.9081 0.0000
# 2 12.7750 93.7881 12.2371 0.0000 -5.0918 0.0000
# 3 9.4705 12.2371 77.8617 0.0000 -1.6356 0.0000
# 4 0.0000 0.0000 0.0000 23.2156 0.0000 -7.1497
# 5 -1.9081 -5.0918 -1.6356 0.0000 24.4841 0.0000
# 6 0.0000 0.0000 0.0000 -7.1497 0.0000 19.2357
#
#
#
# Elastic Compliance Matrix: (Units=1/GPa)
#
#
# Indices 1 2 3 4 5 6 
#
# 1 0.013416 -0.001616 -0.001365 0.000000 0.000618 0.000000
# 2 -0.001616 0.011195 -0.001519 0.000000 0.002101 0.000000
# 3 -0.001365 -0.001519 0.013258 0.000000 0.000463 0.000000
# 4 0.000000 0.000000 0.000000 0.048643 0.000000 0.018080
# 5 0.000618 0.002101 0.000463 0.000000 0.041359 0.000000
# 6 0.000000 0.000000 0.000000 0.018080 0.000000 0.058707
#
#
# Mechanical properties :
#
#
# Convention : Reuss Voigt Hill
#
# Bulk Modulus (GPa) = 34.63864 35.30484 34.97174
# Shear Modulus (GPa) = 24.36670 27.67349 26.02009
#
# Velocity S-wave (km/s) = 3.22303 3.43478 3.33059
# Velocity P-wave (km/s) = 5.34955 5.54809 5.44972
#
# Compressibility (1/GPa) = 0.02886949
#
# Stress axis : x y z
#
# Youngs Moduli (GPa) = 74.53868 89.32859 75.42773
#
# Poissons Ratio (x) = 0.14433 0.10295
# Poissons Ratio (y) = 0.12043 0.11455
# Poissons Ratio (z) = 0.10174 0.13567
#
# Static dielectric constant tensor:
#      x y z
#    x 1.871860 0.000000 -0.010710 
#    y 0.000000 1.993790 0.000000 
#    z -0.010710 0.000000 1.915650 
# 
# From -- ./inp_files/52895.got.cif
#   From: 2010.05.17/outbox.cif.g08.bks.cpg/sg5_27_cif.got.tgz:52895.got - 2010.06.03 18:56:24.
