data_PCOD9126746
_publ_section_title
;
Structure prediction by ZEFSAII (Michael W. Deem and Ramdas Pophale) SiO2 
 PCOD9126746
Probable space group: C 2
;
_chemical_formula_sum "Si O2"
_cell_formula_units_Z 20
_cell_length_a 23.448668
_cell_length_b 10.171976
_cell_length_c 9.245537
_cell_angle_alpha 90.000000
_cell_angle_beta 152.283301
_cell_angle_gamma 90.000000
_cell_volume 1025.656782
_symmetry_space_group_name_H-M "C 2"
_symmetry_group_IT_number 5
_symmetry_cell_setting 'monoclinic'
loop_
_space_group_symop_operation_xyz
x,y,z
-x,y,-z
1/2+x,1/2+y,z
1/2-x,1/2+y,-z
loop_
_atom_site_type_symbol
_atom_site_label
_atom_site_fract_x
_atom_site_fract_y
_atom_site_fract_z
Si Si1 0.209953 0.620430 0.143193
Si Si2 0.902131 0.873696 0.074495
Si Si3 0.005512 0.129617 0.180211
Si Si4 0.338381 0.296166 0.225072
Si Si5 0.907568 0.361721 0.160331
O O1 0.353829 0.592512 0.468169
O O2 0.181013 0.753462 0.168378
O O3 0.172090 0.664290 0.894824
O O4 0.128388 0.496372 0.000951
O O5 0.848334 0.902429 0.115017
O O6 0.036196 0.810616 0.405942
O O7 0.920648 0.003495 0.024443
O O8 0.964622 0.251132 0.186484
O O9 0.000000 0.162846 0.000000
O O10 0.220018 0.313671 0.055768
O O11 0.000000 0.386261 0.500000
#
# Coordination Sequence:
#
# PCOD9126746 Si02
#       5
#     4   4   4   4   4
#     4  10  22  42  63  95 125 158 214 262 320 365
#     4   9  20  41  64  89 130 154 212 258 316 372
#     4  12  27  42  61  93 134 177 206 248 316 386
#     4   9  19  35  70  96 115 153 208 271 319 345
#     4  12  22  38  70  97 126 157 213 273 314 364
#
# _framework density 19.499701000000002
#
# number of rings (size 3 to 8) (size 9 to 14) (size 15 to 20)
#    1.200    0.400    4.000    1.200    5.600    1.600 
#    3.600    1.000    0.000    0.000    0.000    0.000 
#    0.000    0.000    0.000    0.000    0.000    0.000 
#
# Total GULP energy -55718.053823 kJ/mol
# GULP energy per Si atom -5571.805382 kJ/mol
# Density = 1.945532 g / cm^3
# Si number density = 19.499701 Si / 1000 Ang^3
#
#
#
# Elastic Constant Matrix: (Units=GPa)
#
#
# Indices 1 2 3 4 5 6 
#
# 1 69.0901 31.7253 34.1183 0.0000 9.6362 0.0000
# 2 31.7253 116.5050 24.5111 0.0000 10.3990 0.0000
# 3 34.1183 24.5111 30.8844 0.0000 12.4063 0.0000
# 4 0.0000 0.0000 0.0000 25.3420 0.0000 14.8369
# 5 9.6362 10.3990 12.4063 0.0000 14.3839 0.0000
# 6 0.0000 0.0000 0.0000 14.8369 0.0000 13.2931
#
#
#
# Elastic Compliance Matrix: (Units=1/GPa)
#
#
# Indices 1 2 3 4 5 6 
#
# 1 0.034023 -0.001714 -0.042182 0.000000 0.014829 0.000000
# 2 -0.001714 0.010394 -0.005812 0.000000 -0.001353 0.000000
# 3 -0.042182 -0.005812 0.107954 0.000000 -0.060651 0.000000
# 4 0.000000 0.000000 0.000000 0.113867 0.000000 -0.127091
# 5 0.014829 -0.001353 -0.060651 0.000000 0.112879 0.000000
# 6 0.000000 0.000000 0.000000 -0.127091 0.000000 0.217077
#
#
# Mechanical properties :
#
#
# Convention : Reuss Voigt Hill
#
# Bulk Modulus (GPa) = 18.88398 44.13210 31.50804
# Shear Modulus (GPa) = 7.01005 19.01213 13.01109
#
# Velocity S-wave (km/s) = 1.89809 3.12588 2.58591
# Velocity P-wave (km/s) = 3.80906 5.97574 5.01091
#
# Compressibility (1/GPa) = 0.05295494
#
# Stress axis : x y z
#
# Youngs Moduli (GPa) = 29.39168 96.21362 9.26317
#
# Poissons Ratio (x) = 0.16489 0.39074
# Poissons Ratio (y) = 0.05037 0.05384
# Poissons Ratio (z) = 1.23981 0.55919
#
# Static dielectric constant tensor:
#      x y z
#    x 1.670510 0.000000 0.001490 
#    y 0.000000 1.731390 0.000000 
#    z 0.001490 0.000000 1.677500 
# 
# From -- ./inp_files/48325.got.cif
#   From: 2010.05.17/outbox.cif.g08.bks.cpg/sg5_25_cif.got.tgz:48325.got - 2010.06.03 18:56:24.
