data_PCOD9126474
_publ_section_title
;
Structure prediction by ZEFSAII (Michael W. Deem and Ramdas Pophale) SiO2 
 PCOD9126474
Probable space group: C 2
;
_chemical_formula_sum "Si O2"
_cell_formula_units_Z 20
_cell_length_a 12.571296
_cell_length_b 16.553613
_cell_length_c 6.677869
_cell_angle_alpha 90.000000
_cell_angle_beta 136.403814
_cell_angle_gamma 90.000000
_cell_volume 958.274532
_symmetry_space_group_name_H-M "C 2"
_symmetry_group_IT_number 5
_symmetry_cell_setting 'monoclinic'
loop_
_space_group_symop_operation_xyz
x,y,z
-x,y,-z
1/2+x,1/2+y,z
1/2-x,1/2+y,-z
loop_
_atom_site_type_symbol
_atom_site_label
_atom_site_fract_x
_atom_site_fract_y
_atom_site_fract_z
Si Si1 0.624110 0.160670 0.995474
Si Si2 0.375412 0.978753 0.148895
Si Si3 0.409134 0.398735 0.062931
Si Si4 0.852719 0.273547 0.440650
Si Si5 0.500000 0.278473 0.500000
Si Si6 0.500000 0.851809 0.000000
O O1 0.786306 0.184903 0.313287
O O2 0.500000 0.182006 0.000000
O O3 0.605828 0.214887 0.768109
O O4 0.607299 0.067652 0.917828
O O5 0.500000 0.971545 0.500000
O O6 0.199194 0.963411 0.975773
O O7 0.413875 0.910381 0.037907
O O8 0.281111 0.335215 0.808418
O O9 0.500000 0.433913 0.000000
O O10 0.525085 0.344948 0.357187
O O11 0.000000 0.285258 0.500000
O O12 0.892643 0.294770 0.721260
#
# Coordination Sequence:
#
# PCOD9126474 Si02
#       6
#     4   4   4   4   2   2
#     4  11  25  43  67 100 139 178 227 274 349 401
#     4  12  24  46  69  99 134 183 228 280 342 399
#     4  11  24  41  69 103 132 174 241 274 333 398
#     4  11  23  42  67 102 132 179 228 273 334 413
#     4  10  22  40  68  94 134 182 214 284 324 402
#     4  12  22  42  76  92 132 180 228 286 326 398
#
# _framework density 20.870844999999999
#
# number of rings (size 3 to 8) (size 9 to 14) (size 15 to 20)
#    0.000    0.800    6.000    2.400    5.600    0.000 
#    1.800    0.000    0.000    0.000    0.000    0.000 
#    0.000    0.000    0.000    0.000    0.000    0.000 
#
# Total GULP energy -55754.618389 kJ/mol
# GULP energy per Si atom -5575.461839 kJ/mol
# Density = 2.082334 g / cm^3
# Si number density = 20.870845 Si / 1000 Ang^3
#
#
#
# Elastic Constant Matrix: (Units=GPa)
#
#
# Indices 1 2 3 4 5 6 
#
# 1 129.7586 18.1982 36.2740 0.0000 -1.9303 0.0000
# 2 18.1982 71.6308 58.4242 0.0000 -8.3872 0.0000
# 3 36.2740 58.4242 133.8800 0.0000 -22.5535 0.0000
# 4 0.0000 0.0000 0.0000 29.7936 0.0000 3.5890
# 5 -1.9303 -8.3872 -22.5535 0.0000 24.7663 0.0000
# 6 0.0000 0.0000 0.0000 3.5890 0.0000 10.5142
#
#
#
# Elastic Compliance Matrix: (Units=1/GPa)
#
#
# Indices 1 2 3 4 5 6 
#
# 1 0.008403 -0.000379 -0.002389 0.000000 -0.001649 0.000000
# 2 -0.000379 0.021740 -0.009626 0.000000 -0.001433 0.000000
# 3 -0.002389 -0.009626 0.013864 0.000000 0.009179 0.000000
# 4 0.000000 0.000000 0.000000 0.035004 0.000000 -0.011949
# 5 -0.001649 -0.001433 0.009179 0.000000 0.048123 0.000000
# 6 0.000000 0.000000 0.000000 -0.011949 0.000000 0.099189
#
#
# Mechanical properties :
#
#
# Convention : Reuss Voigt Hill
#
# Bulk Modulus (GPa) = 52.03353 62.34023 57.18688
# Shear Modulus (GPa) = 19.41623 27.83966 23.62795
#
# Velocity S-wave (km/s) = 3.05340 3.65622 3.36832
# Velocity P-wave (km/s) = 6.11689 6.91074 6.52590
#
# Compressibility (1/GPa) = 0.01921838
#
# Stress axis : x y z
#
# Youngs Moduli (GPa) = 119.00298 45.99771 72.13126
#
# Poissons Ratio (x) = 0.01745 0.17232
# Poissons Ratio (y) = 0.04515 0.69433
# Poissons Ratio (z) = 0.28430 0.44277
#
# Static dielectric constant tensor:
#      x y z
#    x 1.800230 0.000000 -0.003840 
#    y 0.000000 1.735170 0.000000 
#    z -0.003840 0.000000 1.780130 
# 
# From -- ./inp_files/5103.got.cif
#   From: 2010.05.17/outbox.cif.g08.bks.cpg/sg5_3_cif.got.tgz:5103.got - 2010.06.03 18:56:24.
