data_PCOD9126451
_publ_section_title
;
Structure prediction by ZEFSAII (Michael W. Deem and Ramdas Pophale) SiO2 
 PCOD9126451
Probable space group: C 2
;
_chemical_formula_sum "Si O2"
_cell_formula_units_Z 24
_cell_length_a 20.567524
_cell_length_b 9.236217
_cell_length_c 4.968519
_cell_angle_alpha 90.000000
_cell_angle_beta 77.815249
_cell_angle_gamma 90.000000
_cell_volume 922.587289
_symmetry_space_group_name_H-M "C 2"
_symmetry_group_IT_number 5
_symmetry_cell_setting 'monoclinic'
loop_
_space_group_symop_operation_xyz
x,y,z
-x,y,-z
1/2+x,1/2+y,z
1/2-x,1/2+y,-z
loop_
_atom_site_type_symbol
_atom_site_label
_atom_site_fract_x
_atom_site_fract_y
_atom_site_fract_z
Si Si1 0.618879 0.084510 0.578708
Si Si2 0.263543 0.498649 0.611442
Si Si3 0.000000 0.197635 0.500000
Si Si4 0.000000 0.016015 0.000000
Si Si5 0.740188 0.753846 0.980199
Si Si6 0.400316 0.909232 0.884568
Si Si7 0.130986 0.878975 0.833396
O O1 0.698471 0.058016 0.519567
O O2 0.604320 0.246773 0.676288
O O3 0.594342 0.050634 0.304592
O O4 0.592069 0.965653 0.817822
O O5 0.268639 0.594649 0.880452
O O6 0.329767 0.499443 0.377058
O O7 0.249083 0.327768 0.677379
O O8 0.049144 0.296267 0.283039
O O9 0.028345 0.100399 0.716139
O O10 0.066533 0.935932 0.044047
O O11 0.671661 0.837411 0.106737
O O12 0.809922 0.808449 0.043659
#
# Coordination Sequence:
#
# PCOD9126451 Si02
#       7
#     4   4   2   2   4   4   4
#     4  10  24  42  71 104 134 186 237 290 360 412
#     4  10  22  40  67 103 142 182 244 293 358 412
#     4  12  28  50  74 102 144 192 236 294 364 428
#     4  12  30  46  70 108 142 194 236 288 368 428
#     4  10  23  39  68 100 137 191 232 303 342 421
#     4  11  23  46  68 103 136 181 240 287 354 423
#     4  11  25  43  68 101 147 185 237 296 354 432
#
# _framework density 26.013798000000001
#
# number of rings (size 3 to 8) (size 9 to 14) (size 15 to 20)
#    0.000    1.333    1.667    2.000   11.667    1.333 
#    0.000    0.000    0.000    0.000    0.000    0.000 
#    0.000    0.000    0.000    0.000    0.000    0.000 
#
# Total GULP energy -67072.186682 kJ/mol
# GULP energy per Si atom -5589.348890 kJ/mol
# Density = 2.595459 g / cm^3
# Si number density = 26.013798 Si / 1000 Ang^3
#
#
#
# Elastic Constant Matrix: (Units=GPa)
#
#
# Indices 1 2 3 4 5 6 
#
# 1 69.1932 5.6096 36.1657 0.0000 -32.9797 0.0000
# 2 5.6096 68.7098 19.4252 0.0000 -9.4553 0.0000
# 3 36.1657 19.4252 75.9290 0.0000 -20.2729 0.0000
# 4 0.0000 0.0000 0.0000 35.2124 0.0000 13.5779
# 5 -32.9797 -9.4553 -20.2729 0.0000 46.6223 0.0000
# 6 0.0000 0.0000 0.0000 13.5779 0.0000 2.1709
#
#
#
# Elastic Compliance Matrix: (Units=1/GPa)
#
#
# Indices 1 2 3 4 5 6 
#
# 1 0.026187 0.002507 -0.009088 0.000000 0.015081 0.000000
# 2 0.002507 0.016038 -0.004475 0.000000 0.003080 0.000000
# 3 -0.009088 -0.004475 0.018876 0.000000 0.000872 0.000000
# 4 0.000000 0.000000 0.000000 -0.020116 0.000000 0.125818
# 5 0.015081 0.003080 0.000872 0.000000 0.033121 0.000000
# 6 0.000000 0.000000 0.000000 0.125818 0.000000 -0.326292
#
#
# Mechanical properties :
#
#
# Convention : Reuss Voigt Hill
#
# Bulk Modulus (GPa) = 25.64765 37.35922 31.50344
# Shear Modulus (GPa) = -23.03327 26.97653 1.97163
#
# Velocity S-wave (km/s) = -2.97884 3.22376 0.87153
# Velocity P-wave (km/s) = 1.39665 5.31501 3.62620
#
# Compressibility (1/GPa) = 0.03898992
#
# Stress axis : x y z
#
# Youngs Moduli (GPa) = 38.18662 62.35107 52.97602
#
# Poissons Ratio (x) = -0.15629 0.48144
# Poissons Ratio (y) = -0.09572 0.23705
# Poissons Ratio (z) = 0.34704 0.27900
#
# Static dielectric constant tensor:
#      x y z
#    x 2.018150 0.000000 0.016090 
#    y 0.000000 2.121680 0.000000 
#    z 0.016090 0.000000 2.061040 
# 
# From -- ./inp_files/10146.got.cif
#   From: 2010.05.17/outbox.cif.g08.bks.cpg/sg5_6_cif.got.tgz:10146.got - 2010.06.03 18:56:24.
