data_PCOD9126672
_publ_section_title
;
Structure prediction by ZEFSAII (Michael W. Deem and Ramdas Pophale) SiO2 
 PCOD9126672
Probable space group: C 2
;
_chemical_formula_sum "Si O2"
_cell_formula_units_Z 28
_cell_length_a 13.869164
_cell_length_b 4.920027
_cell_length_c 20.747203
_cell_angle_alpha 90.000000
_cell_angle_beta 128.250058
_cell_angle_gamma 90.000000
_cell_volume 1111.787892
_symmetry_space_group_name_H-M "C 2"
_symmetry_group_IT_number 5
_symmetry_cell_setting 'monoclinic'
loop_
_space_group_symop_operation_xyz
x,y,z
-x,y,-z
1/2+x,1/2+y,z
1/2-x,1/2+y,-z
loop_
_atom_site_type_symbol
_atom_site_label
_atom_site_fract_x
_atom_site_fract_y
_atom_site_fract_z
Si Si1 0.766156 0.313560 0.465774
Si Si2 0.000000 0.109433 0.000000
Si Si3 0.664403 0.220983 0.672409
Si Si4 0.741270 0.345009 0.847990
Si Si5 0.308272 0.225681 0.695654
Si Si6 0.933176 0.700158 0.870472
Si Si7 0.500000 0.515393 0.500000
Si Si8 0.322200 0.021147 0.054334
O O1 0.770718 0.622387 0.490034
O O2 0.666467 0.279377 0.367987
O O3 0.891962 0.194053 0.488134
O O4 0.124817 0.257679 0.068418
O O5 0.991572 0.906504 0.056066
O O6 0.674058 0.251996 0.753806
O O7 0.778169 0.410653 0.695215
O O8 0.556134 0.336316 0.582258
O O9 0.690497 0.910688 0.665114
O O10 0.799156 0.636471 0.846508
O O11 0.668670 0.195150 0.875594
O O12 0.404973 0.313229 0.788492
O O13 0.035674 0.466326 0.905450
O O14 0.253117 0.730101 0.023892
#
# Coordination Sequence:
#
# PCOD9126672 Si02
#       8
#     4   2   4   4   4   4   2   4
#     4  11  24  43  71 102 136 181 228 281 341 415
#     4  12  18  40  68  84 126 176 222 264 344 388
#     4  10  22  41  69 100 134 177 229 278 339 414
#     4  11  24  41  66  99 131 178 229 278 340 407
#     4  10  22  42  66 101 135 174 229 278 339 409
#     4  11  24  41  67  94 134 183 218 284 344 396
#     4  10  24  46  72 100 142 184 222 288 350 398
#     4  12  26  43  63  99 135 171 232 282 331 410
#
# _framework density 25.184660000000001
#
# number of rings (size 3 to 8) (size 9 to 14) (size 15 to 20)
#    0.000    1.143    2.857    3.857    0.000    6.286 
#    0.000    1.429    0.000    0.000    0.000    0.000 
#    0.000    0.000    0.000    0.000    0.000    0.000 
#
# Total GULP energy -78007.038059 kJ/mol
# GULP energy per Si atom -5571.931290 kJ/mol
# Density = 2.512734 g / cm^3
# Si number density = 25.184660 Si / 1000 Ang^3
#
#
#
# Elastic Constant Matrix: (Units=GPa)
#
#
# Indices 1 2 3 4 5 6 
#
# 1 74.8613 6.9950 16.2755 0.0000 2.3901 0.0000
# 2 6.9950 75.6738 5.9901 0.0001 3.3637 -0.0001
# 3 16.2755 5.9901 190.5558 0.0000 -25.3940 0.0000
# 4 0.0000 0.0001 0.0000 -3.4033 0.0000 -24.5287
# 5 2.3901 3.3637 -25.3940 0.0000 41.1228 0.0000
# 6 0.0000 -0.0001 0.0000 -24.5287 0.0000 16.5421
#
#
#
# Elastic Compliance Matrix: (Units=1/GPa)
#
#
# Indices 1 2 3 4 5 6 
#
# 1 0.013804 -0.001100 -0.001350 0.000000 -0.001546 0.000000
# 2 -0.001100 0.013416 -0.000507 0.000000 -0.001347 0.000000
# 3 -0.001350 -0.000507 0.005879 0.000000 0.003750 0.000000
# 4 0.000000 0.000000 0.000000 -0.025142 0.000000 -0.037280
# 5 -0.001546 -0.001347 0.003750 0.000000 0.026833 0.000000
# 6 0.000000 0.000000 0.000000 -0.037280 0.000000 0.005172
#
#
# Mechanical properties :
#
#
# Convention : Reuss Voigt Hill
#
# Bulk Modulus (GPa) = 36.78771 44.40132 40.59452
# Shear Modulus (GPa) = 91.00812 31.64102 61.32457
#
# Velocity S-wave (km/s) = 6.01787 3.54836 4.93992
# Velocity P-wave (km/s) = 7.93255 5.86996 6.97788
#
# Compressibility (1/GPa) = 0.02718299
#
# Stress axis : x y z
#
# Youngs Moduli (GPa) = 72.44369 74.53599 170.10081
#
# Poissons Ratio (x) = 0.08202 0.22971
# Poissons Ratio (y) = 0.07971 0.08628
# Poissons Ratio (z) = 0.09783 0.03781
#
# Static dielectric constant tensor:
#      x y z
#    x 2.239940 0.000000 -0.001400 
#    y 0.000000 2.025480 0.000000 
#    z -0.001400 0.000000 2.106960 
# 
# From -- ./inp_files/61069.got.cif
#   From: 2010.05.17/outbox.cif.g08.bks.cpg/sg5_31_cif.got.tgz:61069.got - 2010.06.03 18:56:24.
