data_PCOD9126990
_publ_section_title
;
Structure prediction by ZEFSAII (Michael W. Deem and Ramdas Pophale) SiO2 
 PCOD9126990
Probable space group: C 2
;
_chemical_formula_sum "Si O2"
_cell_formula_units_Z 28
_cell_length_a 19.105996
_cell_length_b 12.228695
_cell_length_c 15.996459
_cell_angle_alpha 90.000000
_cell_angle_beta 22.839694
_cell_angle_gamma 90.000000
_cell_volume 1450.700928
_symmetry_space_group_name_H-M "C 2"
_symmetry_group_IT_number 5
_symmetry_cell_setting 'monoclinic'
loop_
_space_group_symop_operation_xyz
x,y,z
-x,y,-z
1/2+x,1/2+y,z
1/2-x,1/2+y,-z
loop_
_atom_site_type_symbol
_atom_site_label
_atom_site_fract_x
_atom_site_fract_y
_atom_site_fract_z
Si Si1 0.190571 0.718570 0.740448
Si Si2 0.351881 0.998414 0.303487
Si Si3 0.745419 0.504805 0.869832
Si Si4 0.500000 0.839558 0.500000
Si Si5 0.569179 0.355991 0.716871
Si Si6 0.984680 0.635777 0.726471
Si Si7 0.000000 0.352443 0.000000
Si Si8 0.307931 0.174244 0.665336
O O1 0.227452 0.596566 0.665983
O O2 0.346071 0.766188 0.627696
O O3 0.171607 0.796311 0.680277
O O4 0.000000 0.718617 0.000000
O O5 0.203087 0.919975 0.508202
O O6 0.479760 0.927301 0.103623
O O7 0.459495 0.058100 0.259123
O O8 0.719643 0.575647 0.814521
O O9 0.903962 0.418882 0.673091
O O10 0.813901 0.586736 0.866270
O O11 0.571222 0.440267 0.089607
O O12 0.466560 0.258550 0.780884
O O13 0.142854 0.640042 0.482813
O O14 0.824505 0.276189 0.187540
O O15 0.500000 0.196576 0.500000
#
# Coordination Sequence:
#
# PCOD9126990 Si02
#       8
#     4   4   4   2   4   4   2   4
#     4  11  24  44  67  97 132 167 223 265 322 398
#     4  11  25  43  63  95 133 171 217 268 325 383
#     4  11  23  40  69  99 131 170 216 267 326 378
#     4  12  22  42  70  98 124 178 212 264 324 392
#     4  11  24  40  68  96 131 173 212 277 324 374
#     4  10  22  43  61  95 135 159 223 272 304 397
#     4  12  24  44  68  88 130 182 204 262 342 366
#     4  10  23  42  66  99 127 163 224 264 308 398
#
# _framework density 19.301013999999999
#
# number of rings (size 3 to 8) (size 9 to 14) (size 15 to 20)
#    0.000    1.143    5.714    0.857    2.000    3.429 
#    1.286    0.000    0.000    0.000    0.000    0.000 
#    0.000    0.000    0.000    0.000    0.000    0.000 
#
# Total GULP energy -78252.962701 kJ/mol
# GULP energy per Si atom -5589.497336 kJ/mol
# Density = 1.925708 g / cm^3
# Si number density = 19.301014 Si / 1000 Ang^3
#
#
#
# Elastic Constant Matrix: (Units=GPa)
#
#
# Indices 1 2 3 4 5 6 
#
# 1 86.2316 53.0504 35.8807 -0.0004 15.4631 -0.0009
# 2 53.0504 123.3381 45.9140 -0.0003 12.2600 -0.0003
# 3 35.8807 45.9140 79.1044 -0.0009 21.3767 -0.0005
# 4 -0.0004 -0.0003 -0.0009 24.8210 0.0003 -7.1409
# 5 15.4631 12.2600 21.3767 0.0003 27.4013 0.0003
# 6 -0.0009 -0.0003 -0.0005 -7.1409 0.0003 -2.4509
#
#
#
# Elastic Compliance Matrix: (Units=1/GPa)
#
#
# Indices 1 2 3 4 5 6 
#
# 1 0.017345 -0.005788 -0.003247 -0.000001 -0.004665 -0.000003
# 2 -0.005788 0.012274 -0.004939 0.000000 0.001627 0.000001
# 3 -0.003247 -0.004939 0.020133 0.000000 -0.011664 -0.000003
# 4 -0.000001 0.000000 0.000000 0.021917 0.000001 -0.063857
# 5 -0.004665 0.001627 -0.011664 0.000001 0.047499 0.000007
# 6 -0.000003 0.000001 -0.000003 -0.063857 0.000007 -0.221961
#
#
# Mechanical properties :
#
#
# Convention : Reuss Voigt Hill
#
# Bulk Modulus (GPa) = 45.86212 62.04048 53.95130
# Shear Modulus (GPa) = -73.99015 20.20955 -26.89030
#
# Velocity S-wave (km/s) = -6.19823 3.23936 -3.73662
# Velocity P-wave (km/s) = 5.23555 6.79740 3.06543
#
# Compressibility (1/GPa) = 0.02180449
#
# Stress axis : x y z
#
# Youngs Moduli (GPa) = 57.65252 81.47317 49.66961
#
# Poissons Ratio (x) = 0.47156 0.16130
# Poissons Ratio (y) = 0.33369 0.24529
# Poissons Ratio (z) = 0.18722 0.40236
#
# Static dielectric constant tensor:
#      x y z
#    x 1.671460 0.000000 0.000630 
#    y 0.000000 1.669900 0.000000 
#    z 0.000630 0.000000 1.664800 
# 
# From -- ./inp_files/62895.got.cif
#   From: 2010.05.17/outbox.cif.g08.bks.cpg/sg5_32_cif.got.tgz:62895.got - 2010.06.03 18:56:24.
