data_PCOD9126635
_publ_section_title
;
Structure prediction by ZEFSAII (Michael W. Deem and Ramdas Pophale) SiO2 
 PCOD9126635
Probable space group: C 2
;
_chemical_formula_sum "Si O2"
_cell_formula_units_Z 24
_cell_length_a 12.030203
_cell_length_b 15.311124
_cell_length_c 7.226779
_cell_angle_alpha 90.000000
_cell_angle_beta 51.405929
_cell_angle_gamma 90.000000
_cell_volume 1040.401656
_symmetry_space_group_name_H-M "C 2"
_symmetry_group_IT_number 5
_symmetry_cell_setting 'monoclinic'
loop_
_space_group_symop_operation_xyz
x,y,z
-x,y,-z
1/2+x,1/2+y,z
1/2-x,1/2+y,-z
loop_
_atom_site_type_symbol
_atom_site_label
_atom_site_fract_x
_atom_site_fract_y
_atom_site_fract_z
Si Si1 0.394054 0.008310 0.265843
Si Si2 0.000000 0.832836 0.000000
Si Si3 0.452225 0.183906 0.759759
Si Si4 0.193316 0.406140 0.286454
Si Si5 0.803242 0.073563 0.041245
Si Si6 0.386853 0.592748 0.385510
Si Si7 0.000000 0.250761 0.500000
O O1 0.457147 0.102676 0.257304
O O2 0.230542 0.034698 0.387113
O O3 0.383097 0.943104 0.450536
O O4 0.500000 0.973407 0.000000
O O5 0.857176 0.887892 0.166664
O O6 0.018119 0.769531 0.155424
O O7 0.500000 0.195615 0.500000
O O8 0.288604 0.153043 0.941623
O O9 0.204112 0.488258 0.139036
O O10 0.117447 0.318348 0.299357
O O11 0.833772 0.095299 0.226853
O O12 0.953328 0.055868 0.790338
O O13 0.415554 0.687635 0.445986
#
# Coordination Sequence:
#
# PCOD9126635 Si02
#       7
#     4   2   4   4   4   4   2
#     4  11  23  44  73  99 133 191 242 278 339 435
#     4  12  26  42  76 106 144 176 232 298 352 400
#     4  12  22  43  74 105 134 191 238 279 338 432
#     4  11  23  44  68 102 142 179 221 297 358 395
#     4  10  22  44  73  90 136 187 231 272 345 428
#     4  10  22  41  67 100 127 179 234 278 337 418
#     4  12  24  40  64 102 140 164 218 294 346 388
#
# _framework density 23.068013000000001
#
# number of rings (size 3 to 8) (size 9 to 14) (size 15 to 20)
#    0.000    1.000    4.167    5.000    2.333    0.000 
#    3.000    3.333    9.167    0.000    0.000    0.000 
#    0.000    0.000    0.000    0.000    0.000    0.000 
#
# Total GULP energy -67139.088405 kJ/mol
# GULP energy per Si atom -5594.924034 kJ/mol
# Density = 2.301551 g / cm^3
# Si number density = 23.068013 Si / 1000 Ang^3
#
#
#
# Elastic Constant Matrix: (Units=GPa)
#
#
# Indices 1 2 3 4 5 6 
#
# 1 74.1056 18.7897 23.2159 0.0000 -16.3832 0.0000
# 2 18.7897 102.2459 29.6728 0.0000 0.6620 0.0000
# 3 23.2159 29.6728 147.4613 0.0000 -21.3182 0.0000
# 4 0.0000 0.0000 0.0000 41.1534 0.0000 -10.5431
# 5 -16.3832 0.6620 -21.3182 0.0000 42.3515 0.0000
# 6 0.0000 0.0000 0.0000 -10.5431 0.0000 49.8885
#
#
#
# Elastic Compliance Matrix: (Units=1/GPa)
#
#
# Indices 1 2 3 4 5 6 
#
# 1 0.015740 -0.002594 -0.001154 0.000000 0.005549 0.000000
# 2 -0.002594 0.010882 -0.002104 0.000000 -0.002233 0.000000
# 3 -0.001154 -0.002104 0.007902 0.000000 0.003564 0.000000
# 4 0.000000 0.000000 0.000000 0.025690 0.000000 0.005429
# 5 0.005549 -0.002233 0.003564 0.000000 0.027587 0.000000
# 6 0.000000 0.000000 0.000000 0.005429 0.000000 0.021192
#
#
# Mechanical properties :
#
#
# Convention : Reuss Voigt Hill
#
# Bulk Modulus (GPa) = 43.82054 51.90774 47.86414
# Shear Modulus (GPa) = 38.97004 43.48764 41.22884
#
# Velocity S-wave (km/s) = 4.11463 4.34659 4.23220
# Velocity P-wave (km/s) = 6.45067 6.90951 6.68403
#
# Compressibility (1/GPa) = 0.02282035
#
# Stress axis : x y z
#
# Youngs Moduli (GPa) = 63.53212 91.89432 126.55389
#
# Poissons Ratio (x) = 0.23833 0.14605
# Poissons Ratio (y) = 0.16477 0.26629
# Poissons Ratio (z) = 0.07332 0.19336
#
# Static dielectric constant tensor:
#      x y z
#    x 1.913670 0.000000 -0.027020 
#    y 0.000000 1.803520 0.000000 
#    z -0.027020 0.000000 1.930150 
# 
# From -- ./inp_files/24524.got.cif
#   From: 2010.05.17/outbox.cif.g08.bks.cpg/sg5_13_cif.got.tgz:24524.got - 2010.06.03 18:56:24.
