data_PCOD9126641
_publ_section_title
;
Structure prediction by ZEFSAII (Michael W. Deem and Ramdas Pophale) SiO2 
 PCOD9126641
Probable space group: C 2
;
_chemical_formula_sum "Si O2"
_cell_formula_units_Z 32
_cell_length_a 24.536560
_cell_length_b 10.271902
_cell_length_c 5.173192
_cell_angle_alpha 90.000000
_cell_angle_beta 110.398661
_cell_angle_gamma 90.000000
_cell_volume 1222.073104
_symmetry_space_group_name_H-M "C 2"
_symmetry_group_IT_number 5
_symmetry_cell_setting 'monoclinic'
loop_
_space_group_symop_operation_xyz
x,y,z
-x,y,-z
1/2+x,1/2+y,z
1/2-x,1/2+y,-z
loop_
_atom_site_type_symbol
_atom_site_label
_atom_site_fract_x
_atom_site_fract_y
_atom_site_fract_z
Si Si1 0.362109 0.061230 0.721020
Si Si2 0.443041 0.715137 0.069226
Si Si3 0.667911 0.365586 0.034308
Si Si4 0.250623 0.005628 0.826354
Si Si5 0.963939 0.915138 0.199830
Si Si6 0.433020 0.979039 0.340964
Si Si7 0.210737 0.702080 0.772125
Si Si8 0.178061 0.138870 0.339053
O O1 0.302084 0.988943 0.708201
O O2 0.341701 0.192459 0.526386
O O3 0.399359 0.993998 0.554666
O O4 0.403528 0.053108 0.045871
O O5 0.454232 0.571504 0.204262
O O6 0.432285 0.827382 0.256352
O O7 0.500000 0.749836 0.000000
O O8 0.385461 0.695980 0.800201
O O9 0.705658 0.385776 0.819611
O O10 0.599793 0.356196 0.895851
O O11 0.694207 0.223644 0.056994
O O12 0.676818 0.489053 0.226596
O O13 0.202305 0.113518 0.663866
O O14 0.279570 0.042690 0.143726
O O15 0.000000 0.867215 0.500000
O O16 0.000000 0.891060 0.000000
O O17 0.500000 0.019047 0.500000
O O18 0.273744 0.718149 0.738492
#
# Coordination Sequence:
#
# PCOD9126641 Si02
#       8
#     4   4   4   4   4   4   4   4
#     4  11  24  46  70  99 146 177 235 289 349 411
#     4  10  22  41  67 105 142 186 229 284 355 428
#     4  10  23  41  71 101 136 183 235 284 354 427
#     4  10  22  44  68 106 138 182 233 295 361 418
#     4  10  23  44  68  98 140 177 224 291 341 409
#     4  12  25  46  71 103 140 192 236 283 353 428
#     4  10  22  45  66 103 139 188 231 298 354 419
#     4   9  22  39  63 106 144 181 235 293 353 421
#
# _framework density 26.185012
#
# number of rings (size 3 to 8) (size 9 to 14) (size 15 to 20)
#    0.000    1.750    1.250    1.500    7.000    3.000 
#   11.250    0.625    0.000    0.000    0.000    0.000 
#    0.000    0.000    0.000    0.000    0.000    0.000 
#
# Total GULP energy -89246.482758 kJ/mol
# GULP energy per Si atom -5577.905172 kJ/mol
# Density = 2.612541 g / cm^3
# Si number density = 26.185012 Si / 1000 Ang^3
#
#
#
# Elastic Constant Matrix: (Units=GPa)
#
#
# Indices 1 2 3 4 5 6 
#
# 1 145.3459 23.8796 55.2399 0.0000 22.3981 0.0000
# 2 23.8796 62.7559 32.6163 0.0000 -9.8759 0.0000
# 3 55.2399 32.6163 171.5420 0.0000 17.0999 0.0000
# 4 0.0000 0.0000 0.0000 18.2513 0.0000 4.0576
# 5 22.3981 -9.8759 17.0999 0.0000 47.8666 0.0000
# 6 0.0000 0.0000 0.0000 4.0576 0.0000 39.3017
#
#
#
# Elastic Compliance Matrix: (Units=1/GPa)
#
#
# Indices 1 2 3 4 5 6 
#
# 1 0.008687 -0.002990 -0.001827 0.000000 -0.004029 0.000000
# 2 -0.002990 0.019961 -0.003507 0.000000 0.006770 0.000000
# 3 -0.001827 -0.003507 0.007333 0.000000 -0.002488 0.000000
# 4 0.000000 0.000000 0.000000 0.056078 0.000000 -0.005790
# 5 -0.004029 0.006770 -0.002488 0.000000 0.025062 0.000000
# 6 0.000000 0.000000 0.000000 -0.005790 0.000000 0.026042
#
#
# Mechanical properties :
#
#
# Convention : Reuss Voigt Hill
#
# Bulk Modulus (GPa) = 51.72910 67.01282 59.37096
# Shear Modulus (GPa) = 30.07435 38.94446 34.50940
#
# Velocity S-wave (km/s) = 3.39268 3.86071 3.63424
# Velocity P-wave (km/s) = 5.92833 6.74693 6.35083
#
# Compressibility (1/GPa) = 0.01933148
#
# Stress axis : x y z
#
# Youngs Moduli (GPa) = 115.11937 50.09833 136.37386
#
# Poissons Ratio (x) = 0.14978 0.24918
# Poissons Ratio (y) = 0.34418 0.47831
# Poissons Ratio (z) = 0.21035 0.17571
#
# Static dielectric constant tensor:
#      x y z
#    x 2.070440 0.000000 -0.071790 
#    y 0.000000 2.218120 0.000000 
#    z -0.071790 0.000000 2.033050 
# 
# From -- ./inp_files/10389.got.cif
#   From: 2010.05.17/outbox.cif.g08.bks.cpg/sg5_6_cif.got.tgz:10389.got - 2010.06.03 18:56:24.
