data_PCOD9126524
_publ_section_title
;
Structure prediction by ZEFSAII (Michael W. Deem and Ramdas Pophale) SiO2 
 PCOD9126524
Probable space group: C 2
;
_chemical_formula_sum "Si O2"
_cell_formula_units_Z 28
_cell_length_a 27.164730
_cell_length_b 5.567430
_cell_length_c 9.386721
_cell_angle_alpha 90.000000
_cell_angle_beta 110.493325
_cell_angle_gamma 90.000000
_cell_volume 1329.782481
_symmetry_space_group_name_H-M "C 2"
_symmetry_group_IT_number 5
_symmetry_cell_setting 'monoclinic'
loop_
_space_group_symop_operation_xyz
x,y,z
-x,y,-z
1/2+x,1/2+y,z
1/2-x,1/2+y,-z
loop_
_atom_site_type_symbol
_atom_site_label
_atom_site_fract_x
_atom_site_fract_y
_atom_site_fract_z
Si Si1 0.297604 0.597930 0.443728
Si Si2 0.894704 0.329086 0.373821
Si Si3 0.313523 0.929911 0.726979
Si Si4 0.473871 0.467628 0.603855
Si Si5 0.952346 0.916242 0.059554
Si Si6 0.893289 0.398636 0.034441
Si Si7 0.123194 0.709671 0.422877
O O1 0.340275 0.720019 0.382795
O O2 0.238922 0.590334 0.325574
O O3 0.322063 0.335595 0.487422
O O4 0.299430 0.716005 0.602807
O O5 0.944216 0.181437 0.487590
O O6 0.892875 0.352251 0.203454
O O7 0.895681 0.582507 0.453269
O O8 0.363723 0.044393 0.696470
O O9 0.335252 0.889057 0.906007
O O10 0.500000 0.318726 0.500000
O O11 0.520845 0.486688 0.762702
O O12 0.425477 0.380876 0.653632
O O13 0.919605 0.664731 0.038990
O O14 0.921349 0.163740 0.992085
O O15 0.000000 0.873465 0.000000
#
# Coordination Sequence:
#
# PCOD9126524 Si02
#       7
#     4   4   4   4   4   4   4
#     4  10  22  43  70 103 130 183 238 281 358 422
#     4  10  24  43  66 105 136 184 235 283 348 427
#     4  11  23  43  73  99 138 179 229 299 347 419
#     4  11  22  41  70  97 135 188 226 282 340 416
#     4  12  28  46  69 105 143 188 236 289 351 413
#     4  12  28  47  69 105 148 180 232 298 352 411
#     4  10  22  40  71  98 133 178 240 283 335 429
#
# _framework density 21.056073999999999
#
# number of rings (size 3 to 8) (size 9 to 14) (size 15 to 20)
#    0.000    1.143    2.857    2.143   12.000    0.571 
#    2.571    0.000    0.000    0.000    0.000    0.000 
#    0.000    0.000    0.000    0.000    0.000    0.000 
#
# Total GULP energy -77966.459939 kJ/mol
# GULP energy per Si atom -5569.032853 kJ/mol
# Density = 2.100815 g / cm^3
# Si number density = 21.056074 Si / 1000 Ang^3
#
#
#
# Elastic Constant Matrix: (Units=GPa)
#
#
# Indices 1 2 3 4 5 6 
#
# 1 103.1284 37.7899 39.1116 0.0000 17.1010 0.0000
# 2 37.7899 84.7332 37.5188 0.0000 10.7196 0.0000
# 3 39.1116 37.5188 136.8380 0.0000 23.4237 0.0000
# 4 0.0000 0.0000 0.0000 5.9673 0.0000 -3.4202
# 5 17.1010 10.7196 23.4237 0.0000 38.9358 0.0000
# 6 0.0000 0.0000 0.0000 -3.4202 0.0000 31.0885
#
#
#
# Elastic Compliance Matrix: (Units=1/GPa)
#
#
# Indices 1 2 3 4 5 6 
#
# 1 0.012523 -0.004369 -0.001835 0.000000 -0.003194 0.000000
# 2 -0.004369 0.015053 -0.002784 0.000000 -0.000550 0.000000
# 3 -0.001835 -0.002784 0.009283 0.000000 -0.004012 0.000000
# 4 0.000000 0.000000 0.000000 0.178859 0.000000 0.019677
# 5 -0.003194 -0.000550 -0.004012 0.000000 0.029651 0.000000
# 6 0.000000 0.000000 0.000000 0.019677 0.000000 0.034331
#
#
# Mechanical properties :
#
#
# Convention : Reuss Voigt Hill
#
# Bulk Modulus (GPa) = 52.95915 61.50449 57.23182
# Shear Modulus (GPa) = 16.44906 29.21694 22.83300
#
# Velocity S-wave (km/s) = 2.79803 3.72906 3.29658
# Velocity P-wave (km/s) = 5.97032 6.91480 6.45985
#
# Compressibility (1/GPa) = 0.01888248
#
# Stress axis : x y z
#
# Youngs Moduli (GPa) = 79.85366 66.43388 107.72927
#
# Poissons Ratio (x) = 0.29022 0.19767
# Poissons Ratio (y) = 0.34885 0.29995
# Poissons Ratio (z) = 0.14652 0.18497
#
# Static dielectric constant tensor:
#      x y z
#    x 1.843840 0.000000 0.002370 
#    y 0.000000 1.938900 0.000000 
#    z 0.002370 0.000000 1.762120 
# 
# From -- ./inp_files/32323.got.cif
#   From: 2010.05.17/outbox.cif.g08.bks.cpg/sg5_17_cif.got.tgz:32323.got - 2010.06.03 18:56:24.
