data_PCOD9126236
_publ_section_title
;
Structure prediction by ZEFSAII (Michael W. Deem and Ramdas Pophale) SiO2 
 PCOD9126236
Probable space group: C 2
;
_chemical_formula_sum "Si O2"
_cell_formula_units_Z 30
_cell_length_a 21.165603
_cell_length_b 11.614118
_cell_length_c 5.385537
_cell_angle_alpha 90.000000
_cell_angle_beta 87.834840
_cell_angle_gamma 90.000000
_cell_volume 1322.926540
_symmetry_space_group_name_H-M "C 2"
_symmetry_group_IT_number 5
_symmetry_cell_setting 'monoclinic'
loop_
_space_group_symop_operation_xyz
x,y,z
-x,y,-z
1/2+x,1/2+y,z
1/2-x,1/2+y,-z
loop_
_atom_site_type_symbol
_atom_site_label
_atom_site_fract_x
_atom_site_fract_y
_atom_site_fract_z
Si Si1 0.334280 0.418950 0.767081
Si Si2 0.263474 0.796190 0.959097
Si Si3 0.538044 0.076032 0.254853
Si Si4 0.258342 0.101684 0.368563
Si Si5 0.000000 0.801038 0.500000
Si Si6 0.654169 0.933082 0.383318
Si Si7 0.091530 0.960235 0.745581
Si Si8 0.145798 0.201339 0.698026
O O1 0.289553 0.529937 0.795042
O O2 0.366205 0.420853 0.496218
O O3 0.282749 0.320085 0.807479
O O4 0.380594 0.424890 0.993561
O O5 0.224855 0.713651 0.786075
O O6 0.284849 0.904229 0.793171
O O7 0.331240 0.750082 0.042189
O O8 0.500000 0.025706 0.500000
O O9 0.545646 0.209186 0.348389
O O10 0.600642 0.999000 0.236596
O O11 0.500000 0.074613 0.000000
O O12 0.209832 0.138927 0.591607
O O13 0.318013 0.024962 0.426340
O O14 0.970854 0.887334 0.302301
O O15 0.634075 0.813258 0.523548
O O16 0.093456 0.100553 0.725087
#
# Coordination Sequence:
#
# PCOD9126236 Si02
#       8
#     4   4   4   4   2   4   4   4
#     4  11  23  40  66 101 141 177 216 279 343 419
#     4  11  22  37  66 103 141 179 224 274 354 435
#     4  10  27  50  69  99 132 179 245 294 339 402
#     4  10  22  39  61 103 140 180 218 271 346 435
#     4  10  28  50  72  98 130 186 246 294 342 400
#     4  11  24  43  70  97 141 185 226 288 348 408
#     4  11  25  45  68  97 139 180 232 288 340 398
#     4  10  22  41  63 103 137 175 220 279 346 424
#
# _framework density 22.676997
#
# number of rings (size 3 to 8) (size 9 to 14) (size 15 to 20)
#    0.400    1.067    2.667    1.600    7.467    0.000 
#    1.200    0.000    0.000    0.000    0.000    0.000 
#    0.000    0.000    0.000    0.000    0.000    0.000 
#
# Total GULP energy -83638.047951 kJ/mol
# GULP energy per Si atom -5575.869863 kJ/mol
# Density = 2.262538 g / cm^3
# Si number density = 22.676997 Si / 1000 Ang^3
#
#
#
# Elastic Constant Matrix: (Units=GPa)
#
#
# Indices 1 2 3 4 5 6 
#
# 1 30.5493 39.7964 17.5125 0.0000 13.8854 0.0000
# 2 39.7964 117.4859 31.9882 0.0000 21.3989 0.0000
# 3 17.5125 31.9882 110.3375 0.0000 21.7508 0.0000
# 4 0.0000 0.0000 0.0000 27.3311 0.0000 18.9575
# 5 13.8854 21.3989 21.7508 0.0000 44.6397 0.0000
# 6 0.0000 0.0000 0.0000 18.9575 0.0000 32.1168
#
#
#
# Elastic Compliance Matrix: (Units=1/GPa)
#
#
# Indices 1 2 3 4 5 6 
#
# 1 0.063239 -0.019001 -0.002706 0.000000 -0.009244 0.000000
# 2 -0.019001 0.015459 -0.001295 0.000000 -0.000869 0.000000
# 3 -0.002706 -0.001295 0.010598 0.000000 -0.003701 0.000000
# 4 0.000000 0.000000 0.000000 0.061954 0.000000 -0.036569
# 5 -0.009244 -0.000869 -0.003701 0.000000 0.027497 0.000000
# 6 0.000000 0.000000 0.000000 -0.036569 0.000000 0.052722
#
#
# Mechanical properties :
#
#
# Convention : Reuss Voigt Hill
#
# Bulk Modulus (GPa) = 23.09896 48.55188 35.82542
# Shear Modulus (GPa) = 17.12909 32.08922 24.60916
#
# Velocity S-wave (km/s) = 2.75135 3.76580 3.29782
# Velocity P-wave (km/s) = 4.50571 6.35335 5.50756
#
# Compressibility (1/GPa) = 0.04329200
#
# Stress axis : x y z
#
# Youngs Moduli (GPa) = 15.81308 64.68895 94.36103
#
# Poissons Ratio (x) = 1.22912 0.25538
# Poissons Ratio (y) = 0.30046 0.12215
# Poissons Ratio (z) = 0.04280 0.08374
#
# Static dielectric constant tensor:
#      x y z
#    x 1.879860 0.000000 -0.019110 
#    y 0.000000 1.941230 0.000000 
#    z -0.019110 0.000000 1.868490 
# 
# From -- ./inp_files/10358.got.cif
#   From: 2010.05.17/outbox.cif.g08.bks.cpg/sg5_6_cif.got.tgz:10358.got - 2010.06.03 18:56:24.
