data_PCOD9126591
_publ_section_title
;
Structure prediction by ZEFSAII (Michael W. Deem and Ramdas Pophale) SiO2 
 PCOD9126591
Probable space group: C 2
;
_chemical_formula_sum "Si O2"
_cell_formula_units_Z 16
_cell_length_a 17.825884
_cell_length_b 4.742208
_cell_length_c 9.628440
_cell_angle_alpha 90.000000
_cell_angle_beta 133.537099
_cell_angle_gamma 90.000000
_cell_volume 590.041805
_symmetry_space_group_name_H-M "C 2"
_symmetry_group_IT_number 5
_symmetry_cell_setting 'monoclinic'
loop_
_space_group_symop_operation_xyz
x,y,z
-x,y,-z
1/2+x,1/2+y,z
1/2-x,1/2+y,-z
loop_
_atom_site_type_symbol
_atom_site_label
_atom_site_fract_x
_atom_site_fract_y
_atom_site_fract_z
Si Si1 0.008936 0.793100 0.155680
Si Si2 0.599491 0.513102 0.557794
Si Si3 0.216181 0.504927 0.377154
Si Si4 0.677975 0.121999 0.898982
O O1 0.095420 0.563965 0.223717
O O2 0.902987 0.671168 0.081166
O O3 0.055713 0.946929 0.348894
O O4 0.000000 0.961252 0.000000
O O5 0.500000 0.667226 0.500000
O O6 0.713938 0.616995 0.660756
O O7 0.624294 0.247689 0.691175
O O8 0.241057 0.179642 0.435099
O O9 0.783821 0.301732 0.053581
#
# Coordination Sequence:
#
# PCOD9126591 Si02
#       4
#     4   4   4   4
#     4  10  22  41  66  96 129 168 212 260 315 377
#     4   9  21  42  67  95 129 167 210 261 317 376
#     4  10  22  41  64  93 127 167 210 259 313 372
#     4  11  25  44  66  94 128 168 213 262 316 375
#
# _framework density 27.116724999999999
#
# number of rings (size 3 to 8) (size 9 to 14) (size 15 to 20)
#    0.000    2.000    0.000    1.500    0.000   18.000 
#    0.000   17.500    0.000    0.000    0.000    0.000 
#    0.000    0.000    0.000    0.000    0.000    0.000 
#
# Total GULP energy -44714.587335 kJ/mol
# GULP energy per Si atom -5589.323417 kJ/mol
# Density = 2.705501 g / cm^3
# Si number density = 27.116725 Si / 1000 Ang^3
#
#
#
# Elastic Constant Matrix: (Units=GPa)
#
#
# Indices 1 2 3 4 5 6 
#
# 1 277.2813 17.3578 59.3625 0.0000 5.4004 0.0000
# 2 17.3578 66.1804 11.8729 0.0001 -4.8938 0.0000
# 3 59.3625 11.8729 147.2155 0.0000 -18.0805 0.0000
# 4 0.0000 0.0001 0.0000 34.3178 0.0000 8.4624
# 5 5.4004 -4.8938 -18.0805 0.0000 71.7813 0.0000
# 6 0.0000 0.0000 0.0000 8.4624 0.0000 29.7839
#
#
#
# Elastic Compliance Matrix: (Units=1/GPa)
#
#
# Indices 1 2 3 4 5 6 
#
# 1 0.004027 -0.000817 -0.001653 0.000000 -0.000775 0.000000
# 2 -0.000817 0.015538 -0.000811 0.000000 0.000916 0.000000
# 3 -0.001653 -0.000811 0.007774 0.000000 0.002027 0.000000
# 4 0.000000 0.000000 0.000000 0.031335 0.000000 -0.008903
# 5 -0.000775 0.000916 0.002027 0.000000 0.014563 0.000000
# 6 0.000000 0.000000 0.000000 -0.008903 0.000000 0.036105
#
#
# Mechanical properties :
#
#
# Convention : Reuss Voigt Hill
#
# Bulk Modulus (GPa) = 48.13241 74.20708 61.16974
# Shear Modulus (GPa) = 40.70753 53.98221 47.34487
#
# Velocity S-wave (km/s) = 3.87873 4.46661 4.18301
# Velocity P-wave (km/s) = 6.15207 7.35024 6.77768
#
# Compressibility (1/GPa) = 0.02077602
#
# Stress axis : x y z
#
# Youngs Moduli (GPa) = 248.35155 64.35943 128.63930
#
# Poissons Ratio (x) = 0.05257 0.21263
# Poissons Ratio (y) = 0.20287 0.10435
# Poissons Ratio (z) = 0.41051 0.05221
#
# Static dielectric constant tensor:
#      x y z
#    x 2.074690 0.000000 0.025290 
#    y 0.000000 2.101480 0.000000 
#    z 0.025290 0.000000 2.242430 
# 
# From -- ./inp_files/25894.got.cif
#   From: 2010.05.17/outbox.cif.g08.bks.cpg/sg5_13_cif.got.tgz:25894.got - 2010.06.03 18:56:24.
