data_PCOD9126281
_publ_section_title
;
Structure prediction by ZEFSAII (Michael W. Deem and Ramdas Pophale) SiO2 
 PCOD9126281
Probable space group: C 2
;
_chemical_formula_sum "Si O2"
_cell_formula_units_Z 30
_cell_length_a 14.382118
_cell_length_b 10.903180
_cell_length_c 18.615450
_cell_angle_alpha 90.000000
_cell_angle_beta 28.831767
_cell_angle_gamma 90.000000
_cell_volume 1407.707134
_symmetry_space_group_name_H-M "C 2"
_symmetry_group_IT_number 5
_symmetry_cell_setting 'monoclinic'
loop_
_space_group_symop_operation_xyz
x,y,z
-x,y,-z
1/2+x,1/2+y,z
1/2-x,1/2+y,-z
loop_
_atom_site_type_symbol
_atom_site_label
_atom_site_fract_x
_atom_site_fract_y
_atom_site_fract_z
Si Si1 0.000000 0.692920 0.500000
Si Si2 0.323420 0.326897 0.495112
Si Si3 0.288420 0.612833 0.001282
Si Si4 0.427719 0.290996 0.262452
Si Si5 0.680358 0.526228 0.760541
Si Si6 0.567454 0.673029 0.249187
Si Si7 0.876952 0.074209 0.514886
Si Si8 0.774112 0.923772 0.129189
O O1 0.987298 0.775683 0.437568
O O2 0.820666 0.602600 0.616441
O O3 0.403375 0.337614 0.360421
O O4 0.256354 0.458990 0.568670
O O5 0.139879 0.237593 0.622804
O O6 0.217824 0.494444 0.094347
O O7 0.132495 0.721253 0.113683
O O8 0.499981 0.618611 0.895603
O O9 0.348051 0.601798 0.877022
O O10 0.391613 0.401241 0.230157
O O11 0.258430 0.188576 0.372669
O O12 0.804452 0.493018 0.747316
O O13 0.527637 0.600584 0.348870
O O14 0.710270 0.785144 0.167549
O O15 0.000000 0.039644 0.500000
O O16 0.000000 0.925928 0.000000
#
# Coordination Sequence:
#
# PCOD9126281 Si02
#       8
#     2   4   4   4   4   4   4   4
#     4  12  24  42  66  94 140 172 232 284 342 402
#     4  11  24  43  63  97 131 179 218 281 347 405
#     4  11  21  42  62  98 131 174 218 273 334 399
#     4  11  25  40  70  98 134 179 230 278 340 407
#     4  11  24  41  68 101 131 181 228 284 334 406
#     4  11  23  40  67  92 132 175 226 276 337 404
#     4  11  24  42  63  96 134 173 225 280 338 400
#     4  10  22  39  65  96 135 173 227 279 332 393
#
# _framework density 21.311252
#
# number of rings (size 3 to 8) (size 9 to 14) (size 15 to 20)
#    0.000    1.067    2.000    4.800    6.533    0.000 
#    0.000    0.000    0.000    1.600    0.000    0.000 
#    0.000    0.000    0.000    0.000    0.000    0.000 
#
# Total GULP energy -83631.988807 kJ/mol
# GULP energy per Si atom -5575.465920 kJ/mol
# Density = 2.126275 g / cm^3
# Si number density = 21.311252 Si / 1000 Ang^3
#
#
#
# Elastic Constant Matrix: (Units=GPa)
#
#
# Indices 1 2 3 4 5 6 
#
# 1 87.6812 29.7410 46.0800 0.0004 34.8605 0.0000
# 2 29.7410 67.1827 36.1282 0.0003 15.4204 0.0001
# 3 46.0800 36.1282 94.3653 0.0006 14.0846 -0.0002
# 4 0.0004 0.0003 0.0006 36.0019 0.0000 1.1321
# 5 34.8605 15.4204 14.0846 0.0000 38.5172 0.0006
# 6 0.0000 0.0001 -0.0002 1.1321 0.0006 48.1318
#
#
#
# Elastic Compliance Matrix: (Units=1/GPa)
#
#
# Indices 1 2 3 4 5 6 
#
# 1 0.023097 -0.002006 -0.007944 0.000000 -0.017197 0.000000
# 2 -0.002006 0.019941 -0.006066 0.000000 -0.003950 0.000000
# 3 -0.007944 -0.006066 0.016250 0.000000 0.003676 0.000000
# 4 0.000000 0.000000 0.000000 0.027797 0.000000 -0.000654
# 5 -0.017197 -0.003950 0.003676 0.000000 0.041764 -0.000001
# 6 0.000000 0.000000 0.000000 -0.000654 -0.000001 0.020792
#
#
# Mechanical properties :
#
#
# Convention : Reuss Voigt Hill
#
# Bulk Modulus (GPa) = 36.68716 52.56972 44.62844
# Shear Modulus (GPa) = 26.21135 33.68220 29.94677
#
# Velocity S-wave (km/s) = 3.51084 3.97985 3.75268
# Velocity P-wave (km/s) = 5.80405 6.77053 6.30583
#
# Compressibility (1/GPa) = 0.02725750
#
# Stress axis : x y z
#
# Youngs Moduli (GPa) = 43.29515 50.14748 61.53886
#
# Poissons Ratio (x) = 0.10058 0.48887
# Poissons Ratio (y) = 0.08684 0.37327
# Poissons Ratio (z) = 0.34394 0.30417
#
# Static dielectric constant tensor:
#      x y z
#    x 1.785930 0.000000 0.037550 
#    y 0.000000 1.778040 0.000000 
#    z 0.037550 0.000000 1.862960 
# 
# From -- ./inp_files/61630.got.cif
#   From: 2010.05.17/outbox.cif.g08.bks.cpg/sg5_31_cif.got.tgz:61630.got - 2010.06.03 18:56:24.
