data_PCOD9126409
_publ_section_title
;
Structure prediction by ZEFSAII (Michael W. Deem and Ramdas Pophale) SiO2 
 PCOD9126409
Probable space group: C 2
;
_chemical_formula_sum "Si O2"
_cell_formula_units_Z 28
_cell_length_a 29.011509
_cell_length_b 9.037880
_cell_length_c 13.052574
_cell_angle_alpha 90.000000
_cell_angle_beta 157.857649
_cell_angle_gamma 90.000000
_cell_volume 1289.940211
_symmetry_space_group_name_H-M "C 2"
_symmetry_group_IT_number 5
_symmetry_cell_setting 'monoclinic'
loop_
_space_group_symop_operation_xyz
x,y,z
-x,y,-z
1/2+x,1/2+y,z
1/2-x,1/2+y,-z
loop_
_atom_site_type_symbol
_atom_site_label
_atom_site_fract_x
_atom_site_fract_y
_atom_site_fract_z
Si Si1 0.154221 0.677200 0.703814
Si Si2 0.884131 0.670932 0.134752
Si Si3 0.933390 0.217037 0.022020
Si Si4 0.157331 0.997103 0.022854
Si Si5 0.273085 0.427510 0.304260
Si Si6 0.782662 0.089195 0.523223
Si Si7 0.324125 0.889588 0.541003
O O1 0.148276 0.699962 0.813221
O O2 0.273485 0.578829 0.926523
O O3 0.164377 0.821255 0.651173
O O4 0.021378 0.605935 0.406848
O O5 0.883561 0.833271 0.085415
O O6 0.789289 0.562748 0.884792
O O7 0.831117 0.324389 0.859094
O O8 0.950077 0.313812 0.768137
O O9 0.947736 0.096190 0.142002
O O10 0.879425 0.133534 0.810903
O O11 0.265638 0.982109 0.329637
O O12 0.334570 0.497392 0.533456
O O13 0.678478 0.994437 0.365406
O O14 0.738544 0.248242 0.391498
#
# Coordination Sequence:
#
# PCOD9126409 Si02
#       7
#     4   4   4   4   4   4   4
#     4  10  24  42  61  91 124 153 204 257 301 358
#     4  11  22  41  66  89 118 161 202 252 309 354
#     4  10  23  41  63  88 128 163 198 247 300 356
#     4  10  22  40  65  92 119 162 203 246 301 359
#     4  11  22  41  63  90 124 160 202 252 300 358
#     4  11  22  37  61  88 124 160 197 246 295 356
#     4  11  22  42  61  89 126 160 201 246 296 361
#
# _framework density 21.706430999999998
#
# number of rings (size 3 to 8) (size 9 to 14) (size 15 to 20)
#    0.000    1.429    2.857    2.143    2.000    0.000 
#    0.000    0.000    3.143    6.857    0.000    0.000 
#    0.000    0.000    0.000    0.000    0.000    0.000 
#
# Total GULP energy -78129.364105 kJ/mol
# GULP energy per Si atom -5580.668865 kJ/mol
# Density = 2.165703 g / cm^3
# Si number density = 21.706431 Si / 1000 Ang^3
#
#
#
# Elastic Constant Matrix: (Units=GPa)
#
#
# Indices 1 2 3 4 5 6 
#
# 1 145.0838 40.8756 43.5100 0.0000 10.0354 0.0000
# 2 40.8756 87.9512 7.6846 0.0000 11.0485 0.0000
# 3 43.5100 7.6846 46.7214 0.0000 5.5567 0.0000
# 4 0.0000 0.0000 0.0000 28.7569 0.0000 3.3065
# 5 10.0354 11.0485 5.5567 0.0000 33.6414 0.0000
# 6 0.0000 0.0000 0.0000 3.3065 0.0000 42.5320
#
#
#
# Elastic Compliance Matrix: (Units=1/GPa)
#
#
# Indices 1 2 3 4 5 6 
#
# 1 0.010938 -0.004218 -0.009455 0.000000 -0.000316 0.000000
# 2 -0.004218 0.013592 0.002115 0.000000 -0.003555 0.000000
# 3 -0.009455 0.002115 0.030201 0.000000 -0.002863 0.000000
# 4 0.000000 0.000000 0.000000 0.035088 0.000000 -0.002728
# 5 -0.000316 -0.003555 -0.002863 0.000000 0.031460 0.000000
# 6 0.000000 0.000000 0.000000 -0.002728 0.000000 0.023724
#
#
# Mechanical properties :
#
#
# Convention : Reuss Voigt Hill
#
# Bulk Modulus (GPa) = 31.62965 51.54409 41.58687
# Shear Modulus (GPa) = 27.98654 33.49847 30.74251
#
# Velocity S-wave (km/s) = 3.59461 3.93269 3.76744
# Velocity P-wave (km/s) = 5.64194 6.66475 6.17456
#
# Compressibility (1/GPa) = 0.03161591
#
# Stress axis : x y z
#
# Youngs Moduli (GPa) = 91.42203 73.57301 33.11120
#
# Poissons Ratio (x) = 0.31031 0.31307
# Poissons Ratio (y) = 0.38560 -0.07003
# Poissons Ratio (z) = 0.86441 -0.15561
#
# Static dielectric constant tensor:
#      x y z
#    x 1.811060 0.000000 0.001560 
#    y 0.000000 1.803860 0.000000 
#    z 0.001560 0.000000 1.804120 
# 
# From -- ./inp_files/47944.got.cif
#   From: 2010.05.17/outbox.cif.g08.bks.cpg/sg5_24_cif.got.tgz:47944.got - 2010.06.03 18:56:24.
