data_PCOD9126467
_publ_section_title
;
Structure prediction by ZEFSAII (Michael W. Deem and Ramdas Pophale) SiO2 
 PCOD9126467
Probable space group: C 2
;
_chemical_formula_sum "Si O2"
_cell_formula_units_Z 30
_cell_length_a 8.246384
_cell_length_b 22.891669
_cell_length_c 13.351862
_cell_angle_alpha 90.000000
_cell_angle_beta 146.241410
_cell_angle_gamma 90.000000
_cell_volume 1400.616522
_symmetry_space_group_name_H-M "C 2"
_symmetry_group_IT_number 5
_symmetry_cell_setting 'monoclinic'
loop_
_space_group_symop_operation_xyz
x,y,z
-x,y,-z
1/2+x,1/2+y,z
1/2-x,1/2+y,-z
loop_
_atom_site_type_symbol
_atom_site_label
_atom_site_fract_x
_atom_site_fract_y
_atom_site_fract_z
Si Si1 0.821682 0.349820 0.208087
Si Si2 0.733191 0.157291 0.036590
Si Si3 0.506243 0.199956 0.292341
Si Si4 0.000000 0.287487 0.500000
Si Si5 0.647025 0.972466 0.684681
Si Si6 0.826015 0.037108 0.126519
Si Si7 0.221077 0.076242 0.518657
Si Si8 0.822091 0.251265 0.709765
O O1 0.853057 0.323940 0.336132
O O2 0.882417 0.418044 0.255809
O O3 0.039418 0.312949 0.248816
O O4 0.500000 0.340749 0.000000
O O5 0.578702 0.188136 0.865241
O O6 0.500000 0.142391 0.000000
O O7 0.832974 0.092969 0.055407
O O8 0.958983 0.199694 0.207909
O O9 0.766682 0.245603 0.430952
O O10 0.616479 0.139012 0.396985
O O11 0.236340 0.231688 0.206602
O O12 0.500000 0.960177 0.500000
O O13 0.472785 0.027049 0.642810
O O14 0.983308 0.987329 0.829714
O O15 0.018871 0.061485 0.318918
O O16 0.500000 0.020787 0.000000
O O17 0.000000 0.074355 0.500000
O O18 0.500000 0.246645 0.500000
#
# Coordination Sequence:
#
# PCOD9126467 Si02
#       8
#     4   4   4   2   4   4   4   4
#     4  12  27  48  73  96 138 192 243 298 358 423
#     4  11  23  40  66 103 148 182 229 286 358 435
#     4  12  24  40  69 100 143 182 231 291 358 427
#     4  12  24  46  68  98 142 184 230 294 358 420
#     4  10  24  48  70  97 140 188 242 298 359 422
#     4  10  22  40  68 103 144 182 232 297 356 430
#     4  11  22  41  70 104 142 186 231 289 366 425
#     4  12  24  41  64  99 134 178 235 283 355 420
#
# _framework density 21.419139000000001
#
# number of rings (size 3 to 8) (size 9 to 14) (size 15 to 20)
#    0.000    0.800    2.667    5.600    0.000    3.733 
#    0.000    2.667    0.000    0.000    0.000    0.000 
#    0.000    0.000    0.000    0.000    0.000    0.000 
#
# Total GULP energy -83778.427020 kJ/mol
# GULP energy per Si atom -5585.228468 kJ/mol
# Density = 2.137039 g / cm^3
# Si number density = 21.419139 Si / 1000 Ang^3
#
#
#
# Elastic Constant Matrix: (Units=GPa)
#
#
# Indices 1 2 3 4 5 6 
#
# 1 80.5483 44.0593 13.0612 0.0000 6.6519 0.0000
# 2 44.0593 131.0648 47.7631 0.0000 18.6966 0.0000
# 3 13.0612 47.7631 113.3131 0.0000 8.0596 0.0000
# 4 0.0000 0.0000 0.0000 27.2626 0.0000 2.9359
# 5 6.6519 18.6966 8.0596 0.0000 41.4586 0.0000
# 6 0.0000 0.0000 0.0000 2.9359 0.0000 33.1606
#
#
#
# Elastic Compliance Matrix: (Units=1/GPa)
#
#
# Indices 1 2 3 4 5 6 
#
# 1 0.015235 -0.005273 0.000478 0.000000 -0.000159 0.000000
# 2 -0.005273 0.011330 -0.003919 0.000000 -0.003502 0.000000
# 3 0.000478 -0.003919 0.010446 0.000000 -0.000340 0.000000
# 4 0.000000 0.000000 0.000000 0.037033 0.000000 -0.003279
# 5 -0.000159 -0.003502 -0.000340 0.000000 0.025791 0.000000
# 6 0.000000 0.000000 0.000000 -0.003279 0.000000 0.030447
#
#
# Mechanical properties :
#
#
# Convention : Reuss Voigt Hill
#
# Bulk Modulus (GPa) = 51.06439 59.41038 55.23738
# Shear Modulus (GPa) = 32.41752 35.04586 33.73169
#
# Velocity S-wave (km/s) = 3.89457 4.04938 3.97273
# Velocity P-wave (km/s) = 6.64198 7.04702 6.84750
#
# Compressibility (1/GPa) = 0.01958312
#
# Stress axis : x y z
#
# Youngs Moduli (GPa) = 65.63931 88.26125 95.72959
#
# Poissons Ratio (x) = 0.46538 -0.04574
# Poissons Ratio (y) = 0.34610 0.37516
# Poissons Ratio (z) = -0.03136 0.34589
#
# Static dielectric constant tensor:
#      x y z
#    x 1.710070 0.000000 -0.096980 
#    y 0.000000 1.761720 0.000000 
#    z -0.096980 0.000000 1.772950 
# 
# From -- ./inp_files/51654.got.cif
#   From: 2010.05.17/outbox.cif.g08.bks.cpg/sg5_26_cif.got.tgz:51654.got - 2010.06.03 18:56:24.
