data_PCOD9126491
_publ_section_title
;
Structure prediction by ZEFSAII (Michael W. Deem and Ramdas Pophale) SiO2 
 PCOD9126491
Probable space group: C 2
;
_chemical_formula_sum "Si O2"
_cell_formula_units_Z 30
_cell_length_a 14.621628
_cell_length_b 14.560828
_cell_length_c 21.094670
_cell_angle_alpha 90.000000
_cell_angle_beta 161.516279
_cell_angle_gamma 90.000000
_cell_volume 1423.842747
_symmetry_space_group_name_H-M "C 2"
_symmetry_group_IT_number 5
_symmetry_cell_setting 'monoclinic'
loop_
_space_group_symop_operation_xyz
x,y,z
-x,y,-z
1/2+x,1/2+y,z
1/2-x,1/2+y,-z
loop_
_atom_site_type_symbol
_atom_site_label
_atom_site_fract_x
_atom_site_fract_y
_atom_site_fract_z
Si Si1 0.500000 0.390340 0.500000
Si Si2 0.702182 0.711081 0.273893
Si Si3 0.400923 0.688397 0.312967
Si Si4 0.122600 0.077435 0.016425
Si Si5 0.698418 0.237405 0.039382
Si Si6 0.830176 0.375809 0.484490
Si Si7 0.054768 0.916170 0.176408
Si Si8 0.247947 0.509127 0.446480
O O1 0.709648 0.318176 0.674225
O O2 0.328367 0.452078 0.436786
O O3 0.000000 0.669124 0.500000
O O4 0.571186 0.667406 0.124182
O O5 0.444004 0.702205 0.154359
O O6 0.636307 0.766095 0.484910
O O7 0.508709 0.585016 0.380768
O O8 0.124657 0.696250 0.178118
O O9 0.298662 0.720077 0.176413
O O10 0.462853 0.071399 0.249081
O O11 0.000000 0.032610 0.000000
O O12 0.052638 0.016568 0.909353
O O13 0.655575 0.344406 0.995875
O O14 0.591797 0.395691 0.274553
O O15 0.786933 0.436125 0.519109
O O16 0.135570 0.404966 0.654099
#
# Coordination Sequence:
#
# PCOD9126491 Si02
#       8
#     2   4   4   4   4   4   4   4
#     4  10  26  48  70  98 148 192 230 298 374 410
#     4  10  26  45  70  95 140 192 227 297 359 421
#     4  10  24  41  75 100 137 186 239 286 354 429
#     4  12  26  40  71 103 136 187 244 288 353 437
#     4  10  22  46  68  98 138 185 231 290 354 420
#     4  10  22  41  68 105 138 181 232 299 350 416
#     4  10  22  40  69 101 135 179 238 293 350 414
#     4  12  26  45  72 105 147 187 237 300 357 429
#
# _framework density 21.069742999999999
#
# number of rings (size 3 to 8) (size 9 to 14) (size 15 to 20)
#    0.400    1.067    1.333    2.400   11.200    1.067 
#    0.000    0.000    0.000    0.000    0.000    0.000 
#    0.000    0.000    0.000    0.000    0.000    0.000 
#
# Total GULP energy -83695.076609 kJ/mol
# GULP energy per Si atom -5579.671774 kJ/mol
# Density = 2.102179 g / cm^3
# Si number density = 21.069743 Si / 1000 Ang^3
#
#
#
# Elastic Constant Matrix: (Units=GPa)
#
#
# Indices 1 2 3 4 5 6 
#
# 1 62.0668 25.1887 31.2169 0.4966 7.6612 -0.0269
# 2 25.1887 94.5741 45.4651 0.9354 -0.2043 -0.0337
# 3 31.2169 45.4651 68.8722 1.6769 2.6925 -0.0864
# 4 0.4966 0.9354 1.6769 -735.6756 0.1154 33.6695
# 5 7.6612 -0.2043 2.6925 0.1154 30.5628 -0.0125
# 6 -0.0269 -0.0337 -0.0864 33.6695 -0.0125 17.1694
#
#
#
# Elastic Compliance Matrix: (Units=1/GPa)
#
#
# Indices 1 2 3 4 5 6 
#
# 1 0.021660 -0.001681 -0.008524 -0.000008 -0.004690 -0.000001
# 2 -0.001681 0.015651 -0.009623 -0.000004 0.001374 -0.000012
# 3 -0.008524 -0.009623 0.024739 0.000039 -0.000107 0.000015
# 4 -0.000008 -0.000004 0.000039 -0.001247 0.000004 0.002446
# 5 -0.004690 0.001374 -0.000107 0.000004 0.033914 0.000011
# 6 -0.000001 -0.000012 0.000015 0.002446 0.000011 0.053446
#
#
# Mechanical properties :
#
#
# Convention : Reuss Voigt Hill
#
# Bulk Modulus (GPa) = 44.65725 47.69494 46.17610
# Shear Modulus (GPa) = 25.60360 -129.34584 -51.87112
#
# Velocity S-wave (km/s) = 3.48973 -7.84364 -4.96711
# Velocity P-wave (km/s) = 6.12198 7.70353 3.30649
#
# Compressibility (1/GPa) = 0.02239278
#
# Stress axis : x y z
#
# Youngs Moduli (GPa) = 46.16756 63.89493 40.42137
#
# Poissons Ratio (x) = 0.10741 0.34457
# Poissons Ratio (y) = 0.07761 0.38899
# Poissons Ratio (z) = 0.39355 0.61488
#
# Static dielectric constant tensor:
#      x y z
#    x 1.830960 0.000290 -0.070490 
#    y 0.000290 1.769530 -0.000290 
#    z -0.070490 -0.000290 1.851060 
# 
# From -- ./inp_files/66206.got.cif
#   From: 2010.05.17/outbox.cif.g08.bks.cpg/sg5_34_cif.got.tgz:66206.got - 2010.06.03 18:56:24.
