data_PCOD9126242
_publ_section_title
;
Structure prediction by ZEFSAII (Michael W. Deem and Ramdas Pophale) SiO2 
 PCOD9126242
Probable space group: C 2
;
_chemical_formula_sum "Si O2"
_cell_formula_units_Z 26
_cell_length_a 14.217116
_cell_length_b 8.483390
_cell_length_c 15.734784
_cell_angle_alpha 90.000000
_cell_angle_beta 143.394830
_cell_angle_gamma 90.000000
_cell_volume 1131.630328
_symmetry_space_group_name_H-M "C 2"
_symmetry_group_IT_number 5
_symmetry_cell_setting 'monoclinic'
loop_
_space_group_symop_operation_xyz
x,y,z
-x,y,-z
1/2+x,1/2+y,z
1/2-x,1/2+y,-z
loop_
_atom_site_type_symbol
_atom_site_label
_atom_site_fract_x
_atom_site_fract_y
_atom_site_fract_z
Si Si1 0.641848 0.510910 0.044923
Si Si2 0.448723 0.142297 0.319919
Si Si3 0.206147 0.929466 0.688172
Si Si4 0.000000 0.323533 0.000000
Si Si5 0.986023 0.877330 0.779049
Si Si6 0.425531 0.575498 0.570443
Si Si7 0.853957 0.399354 0.457284
O O1 0.814994 0.509711 0.209671
O O2 0.500000 0.444664 0.000000
O O3 0.598184 0.699340 0.012635
O O4 0.623542 0.430739 0.940966
O O5 0.377922 0.268995 0.336420
O O6 0.475894 0.223692 0.248595
O O7 0.607747 0.063462 0.468827
O O8 0.380181 0.919693 0.853798
O O9 0.183663 0.967691 0.572084
O O10 0.098987 0.064454 0.653213
O O11 0.819181 0.880028 0.707183
O O12 0.950407 0.003467 0.679931
O O13 0.364833 0.751778 0.528100
O O14 0.000000 0.384504 0.500000
#
# Coordination Sequence:
#
# PCOD9126242 Si02
#       7
#     4   4   4   2   4   4   4
#     4   9  20  42  63  96 124 170 215 261 323 384
#     4  10  23  40  68  92 128 172 212 261 324 382
#     4   9  18  40  60  95 125 168 205 259 315 380
#     4   8  18  34  68  88 120 166 214 242 318 382
#     4  11  24  40  66  98 127 168 217 272 314 379
#     4  10  22  39  61  92 136 158 214 263 317 368
#     4  12  24  40  63  95 128 173 213 260 324 378
#
# _framework density 22.975701000000001
#
# number of rings (size 3 to 8) (size 9 to 14) (size 15 to 20)
#    0.462    1.538    1.538    1.846    4.308    2.462 
#    0.000    9.231    0.000    0.000    0.000    0.000 
#    0.000    0.000    0.000    0.000    0.000    0.000 
#
# Total GULP energy -72522.122587 kJ/mol
# GULP energy per Si atom -5578.624814 kJ/mol
# Density = 2.292341 g / cm^3
# Si number density = 22.975701 Si / 1000 Ang^3
#
#
#
# Elastic Constant Matrix: (Units=GPa)
#
#
# Indices 1 2 3 4 5 6 
#
# 1 62.5087 2.4552 13.7819 0.0000 -8.3565 0.0000
# 2 2.4552 60.9181 18.1080 0.0000 -12.9854 0.0000
# 3 13.7819 18.1080 71.9560 0.0000 4.2753 0.0000
# 4 0.0000 0.0000 0.0000 23.9628 0.0000 -0.6339
# 5 -8.3565 -12.9854 4.2753 0.0000 31.5787 0.0000
# 6 0.0000 0.0000 0.0000 -0.6339 0.0000 23.2531
#
#
#
# Elastic Compliance Matrix: (Units=1/GPa)
#
#
# Indices 1 2 3 4 5 6 
#
# 1 0.017651 0.001810 -0.004192 0.000000 0.005982 0.000000
# 2 0.001810 0.020166 -0.005991 0.000000 0.009582 0.000000
# 3 -0.004192 -0.005991 0.016553 0.000000 -0.005814 0.000000
# 4 0.000000 0.000000 0.000000 0.041761 0.000000 0.001139
# 5 0.005982 0.009582 -0.005814 0.000000 0.037977 0.000000
# 6 0.000000 0.000000 0.000000 0.001139 0.000000 0.043036
#
#
# Mechanical properties :
#
#
# Convention : Reuss Voigt Hill
#
# Bulk Modulus (GPa) = 26.57833 29.34144 27.95988
# Shear Modulus (GPa) = 24.22113 26.49477 25.35795
#
# Velocity S-wave (km/s) = 3.25038 3.39951 3.32578
# Velocity P-wave (km/s) = 5.06752 5.31105 5.19071
#
# Compressibility (1/GPa) = 0.03762464
#
# Stress axis : x y z
#
# Youngs Moduli (GPa) = 56.65526 49.58868 60.41120
#
# Poissons Ratio (x) = -0.08975 0.25322
# Poissons Ratio (y) = -0.10253 0.36191
# Poissons Ratio (z) = 0.23747 0.29708
#
# Static dielectric constant tensor:
#      x y z
#    x 1.971130 0.000000 0.026940 
#    y 0.000000 1.884180 0.000000 
#    z 0.026940 0.000000 1.848220 
# 
# From -- ./inp_files/54324.got.cif
#   From: 2010.05.17/outbox.cif.g08.bks.cpg/sg5_28_cif.got.tgz:54324.got - 2010.06.03 18:56:24.
