data_PCOD9126034
_publ_section_title
;
Structure prediction by ZEFSAII (Michael W. Deem and Ramdas Pophale) SiO2 
 PCOD9126034
Probable space group: C 2
;
_chemical_formula_sum "Si O2"
_cell_formula_units_Z 24
_cell_length_a 9.120014
_cell_length_b 10.425009
_cell_length_c 11.837070
_cell_angle_alpha 90.000000
_cell_angle_beta 88.223690
_cell_angle_gamma 90.000000
_cell_volume 1124.883158
_symmetry_space_group_name_H-M "C 2"
_symmetry_group_IT_number 5
_symmetry_cell_setting 'monoclinic'
loop_
_space_group_symop_operation_xyz
x,y,z
-x,y,-z
1/2+x,1/2+y,z
1/2-x,1/2+y,-z
loop_
_atom_site_type_symbol
_atom_site_label
_atom_site_fract_x
_atom_site_fract_y
_atom_site_fract_z
Si Si1 0.824709 0.335800 0.518166
Si Si2 0.653344 0.175056 0.141494
Si Si3 0.355845 0.104942 0.115551
Si Si4 0.103580 0.157726 0.287783
Si Si5 0.796233 0.092339 0.368542
Si Si6 0.569782 0.828226 0.880539
O O1 0.807336 0.240759 0.624657
O O2 0.774430 0.237791 0.419527
O O3 0.756971 0.475130 0.549630
O O4 0.000000 0.355664 0.500000
O O5 0.480056 0.208356 0.147509
O O6 0.712511 0.095530 0.249006
O O7 0.759067 0.297908 0.133008
O O8 0.682764 0.115608 0.015443
O O9 0.218268 0.096077 0.199998
O O10 0.450918 0.977871 0.129657
O O11 0.972711 0.076212 0.347310
O O12 0.012272 0.257150 0.215708
O O13 0.500000 0.784326 0.000000
#
# Coordination Sequence:
#
# PCOD9126034 Si02
#       6
#     4   4   4   4   4   4
#     4  10  23  44  67  93 128 169 219 274 323 374
#     4  10  22  37  62  96 124 166 212 250 318 382
#     4  11  22  39  62  95 132 164 202 260 319 385
#     4  10  23  41  66  94 128 167 213 261 322 382
#     4  10  23  43  69  95 126 173 220 266 325 378
#     4  11  20  37  61  87 128 168 203 255 311 376
#
# _framework density 21.335550000000001
#
# number of rings (size 3 to 8) (size 9 to 14) (size 15 to 20)
#    0.000    1.667    3.333    1.000    0.000    6.667 
#    0.000   12.500    0.000    0.000    0.000    0.000 
#    0.000    0.000    0.000    0.000    0.000    0.000 
#
# Total GULP energy -66841.387581 kJ/mol
# GULP energy per Si atom -5570.115632 kJ/mol
# Density = 2.128699 g / cm^3
# Si number density = 21.335550 Si / 1000 Ang^3
#
#
#
# Elastic Constant Matrix: (Units=GPa)
#
#
# Indices 1 2 3 4 5 6 
#
# 1 82.9941 36.7574 44.9741 0.0000 -10.6327 0.0000
# 2 36.7574 60.1624 35.2484 0.0000 -10.4037 0.0000
# 3 44.9741 35.2484 98.9351 0.0000 -13.5887 0.0000
# 4 0.0000 0.0000 0.0000 -93.1735 0.0000 -17.3530
# 5 -10.6327 -10.4037 -13.5887 0.0000 31.5615 0.0000
# 6 0.0000 0.0000 0.0000 -17.3530 0.0000 25.8227
#
#
#
# Elastic Compliance Matrix: (Units=1/GPa)
#
#
# Indices 1 2 3 4 5 6 
#
# 1 0.018735 -0.008007 -0.005484 0.000000 0.001311 0.000000
# 2 -0.008007 0.024898 -0.004755 0.000000 0.003463 0.000000
# 3 -0.005484 -0.004755 0.014695 0.000000 0.002912 0.000000
# 4 0.000000 0.000000 0.000000 -0.009539 0.000000 -0.006410
# 5 0.001311 0.003463 0.002912 0.000000 0.034521 0.000000
# 6 0.000000 0.000000 0.000000 -0.006410 0.000000 0.034418
#
#
# Mechanical properties :
#
#
# Convention : Reuss Voigt Hill
#
# Bulk Modulus (GPa) = 45.79610 52.89461 49.34535
# Shear Modulus (GPa) = 30.96001 1.18293 16.07147
#
# Velocity S-wave (km/s) = 3.81346 0.74541 2.74756
# Velocity P-wave (km/s) = 6.39541 5.05830 5.76575
#
# Compressibility (1/GPa) = 0.02183592
#
# Stress axis : x y z
#
# Youngs Moduli (GPa) = 53.37664 40.16308 68.05197
#
# Poissons Ratio (x) = 0.32158 0.37318
# Poissons Ratio (y) = 0.42737 0.32362
# Poissons Ratio (z) = 0.29271 0.19099
#
# Static dielectric constant tensor:
#      x y z
#    x 1.831050 0.000000 0.132020 
#    y 0.000000 1.744490 0.000000 
#    z 0.132020 0.000000 2.433650 
# 
# From -- ./inp_files/35419.got.cif
#   From: 2010.05.17/outbox.cif.g08.bks.cpg/sg5_18_cif.got.tgz:35419.got - 2010.06.03 18:56:24.
