data_PCOD9126798
_publ_section_title
;
Structure prediction by ZEFSAII (Michael W. Deem and Ramdas Pophale) SiO2 
 PCOD9126798
Probable space group: C 2
;
_chemical_formula_sum "Si O2"
_cell_formula_units_Z 26
_cell_length_a 5.767141
_cell_length_b 13.475938
_cell_length_c 17.251536
_cell_angle_alpha 90.000000
_cell_angle_beta 57.657093
_cell_angle_gamma 90.000000
_cell_volume 1132.746763
_symmetry_space_group_name_H-M "C 2"
_symmetry_group_IT_number 5
_symmetry_cell_setting 'monoclinic'
loop_
_space_group_symop_operation_xyz
x,y,z
-x,y,-z
1/2+x,1/2+y,z
1/2-x,1/2+y,-z
loop_
_atom_site_type_symbol
_atom_site_label
_atom_site_fract_x
_atom_site_fract_y
_atom_site_fract_z
Si Si1 0.197082 0.034710 0.856752
Si Si2 0.710651 0.532629 0.670217
Si Si3 0.000000 0.198834 0.000000
Si Si4 0.784999 0.665717 0.243686
Si Si5 0.685701 0.168049 0.582112
Si Si6 0.165022 0.885533 0.546889
Si Si7 0.973624 0.812729 0.091103
O O1 0.197564 0.015652 0.764372
O O2 0.497669 0.080893 0.823608
O O3 0.114442 0.926275 0.901513
O O4 0.993428 0.118831 0.929269
O O5 0.517739 0.625982 0.693539
O O6 0.587541 0.448316 0.637109
O O7 0.012171 0.570244 0.593014
O O8 0.768915 0.277053 0.069361
O O9 0.864117 0.687718 0.317581
O O10 0.778633 0.755558 0.184925
O O11 0.584325 0.270452 0.564570
O O12 0.000000 0.154734 0.500000
O O13 0.500000 0.883735 0.500000
O O14 0.000000 0.922985 0.500000
O O15 0.000000 0.769643 0.000000
#
# Coordination Sequence:
#
# PCOD9126798 Si02
#       7
#     4   4   2   4   4   4   4
#     4  10  22  43  64 102 143 183 236 302 359 441
#     4  11  25  42  71 100 144 189 243 310 369 438
#     4  10  22  42  66 104 138 182 244 284 358 450
#     4  10  24  40  67 102 140 182 246 293 368 442
#     4  10  25  46  70 101 142 195 245 311 372 438
#     4  11  28  45  69 106 142 190 254 307 369 447
#     4  11  22  41  70  99 140 188 230 296 367 433
#
# _framework density 22.953054000000002
#
# number of rings (size 3 to 8) (size 9 to 14) (size 15 to 20)
#    0.000    1.538    0.769    1.846   10.769    2.462 
#    1.385    0.000    0.000    0.000    0.000    0.000 
#    0.000    0.000    0.000    0.000    0.000    0.000 
#
# Total GULP energy -72415.949651 kJ/mol
# GULP energy per Si atom -5570.457665 kJ/mol
# Density = 2.290081 g / cm^3
# Si number density = 22.953054 Si / 1000 Ang^3
#
#
#
# Elastic Constant Matrix: (Units=GPa)
#
#
# Indices 1 2 3 4 5 6 
#
# 1 62.8610 38.3702 33.6430 0.0000 8.8229 -0.0001
# 2 38.3702 114.2655 48.9938 0.0000 -3.6933 0.0000
# 3 33.6430 48.9938 107.2950 0.0000 13.6062 0.0000
# 4 0.0000 0.0000 0.0000 35.1072 0.0000 -5.7878
# 5 8.8229 -3.6933 13.6062 0.0000 33.1571 0.0000
# 6 -0.0001 0.0000 0.0000 -5.7878 0.0000 51.1038
#
#
#
# Elastic Compliance Matrix: (Units=1/GPa)
#
#
# Indices 1 2 3 4 5 6 
#
# 1 0.022261 -0.006130 -0.003527 0.000000 -0.005159 0.000000
# 2 -0.006130 0.012953 -0.004623 0.000000 0.004971 0.000000
# 3 -0.003527 -0.004623 0.013168 0.000000 -0.004980 0.000000
# 4 0.000000 0.000000 0.000000 0.029026 0.000000 0.003287
# 5 -0.005159 0.004971 -0.004980 0.000000 0.034130 0.000000
# 6 0.000000 0.000000 0.000000 0.003287 0.000000 0.019940
#
#
# Mechanical properties :
#
#
# Convention : Reuss Voigt Hill
#
# Bulk Modulus (GPa) = 50.44557 58.49283 54.46920
# Shear Modulus (GPa) = 30.00371 34.76793 32.38582
#
# Velocity S-wave (km/s) = 3.61941 3.89619 3.76035
# Velocity P-wave (km/s) = 6.28429 6.76605 6.52961
#
# Compressibility (1/GPa) = 0.01982334
#
# Stress axis : x y z
#
# Youngs Moduli (GPa) = 44.92061 77.20342 75.93893
#
# Poissons Ratio (x) = 0.47325 0.26783
# Poissons Ratio (y) = 0.27536 0.35106
# Poissons Ratio (z) = 0.15843 0.35690
#
# Static dielectric constant tensor:
#      x y z
#    x 2.068780 0.000000 -0.034510 
#    y 0.000000 1.836750 0.000000 
#    z -0.034510 0.000000 1.205590 
# 
# From -- ./inp_files/58733.got.cif
#   From: 2010.05.17/outbox.cif.g08.bks.cpg/sg5_30_cif.got.tgz:58733.got - 2010.06.03 18:56:24.
