data_PCOD9126334
_publ_section_title
;
Structure prediction by ZEFSAII (Michael W. Deem and Ramdas Pophale) SiO2 
 PCOD9126334
Probable space group: C 2
;
_chemical_formula_sum "Si O2"
_cell_formula_units_Z 32
_cell_length_a 12.607773
_cell_length_b 6.861301
_cell_length_c 30.965012
_cell_angle_alpha 90.000000
_cell_angle_beta 153.373837
_cell_angle_gamma 90.000000
_cell_volume 1200.483814
_symmetry_space_group_name_H-M "C 2"
_symmetry_group_IT_number 5
_symmetry_cell_setting 'monoclinic'
loop_
_space_group_symop_operation_xyz
x,y,z
-x,y,-z
1/2+x,1/2+y,z
1/2-x,1/2+y,-z
loop_
_atom_site_type_symbol
_atom_site_label
_atom_site_fract_x
_atom_site_fract_y
_atom_site_fract_z
Si Si1 0.306396 0.096390 0.159649
Si Si2 0.614764 0.907912 0.999476
Si Si3 0.851041 0.950360 0.713733
Si Si4 0.915122 0.540121 0.108719
Si Si5 0.816125 0.063898 0.466464
Si Si6 0.804857 0.483957 0.254827
Si Si7 0.065662 0.049142 0.706081
Si Si8 0.344814 0.114279 0.500427
O O1 0.092551 0.248429 0.080194
O O2 0.549780 0.226845 0.250653
O O3 0.305567 0.973195 0.114932
O O4 0.257065 0.991556 0.186841
O O5 0.649305 0.007107 0.965248
O O6 0.500000 0.018273 0.000000
O O7 0.849318 0.771683 0.090277
O O8 0.860927 0.039713 0.765442
O O9 0.586784 0.005516 0.601168
O O10 0.016227 0.053938 0.738807
O O11 0.180791 0.450823 0.207643
O O12 0.554951 0.090652 0.352240
O O13 0.882529 0.833238 0.496818
O O14 0.000000 0.147796 0.500000
O O15 0.806748 0.139523 0.511360
O O16 0.874020 0.261739 0.289978
O O17 0.823308 0.998968 0.593836
#
# Coordination Sequence:
#
# PCOD9126334 Si02
#       8
#     4   4   4   4   4   4   4   4
#     4  11  24  44  71  99 137 172 225 281 338 407
#     4  10  25  48  70 101 134 171 218 282 347 413
#     4  11  22  43  64  96 140 182 226 274 330 396
#     4  11  24  46  74 100 135 172 219 281 347 404
#     4  10  22  40  60  91 133 179 226 281 324 383
#     4  10  24  40  65  99 133 179 226 276 330 398
#     4  11  22  42  68  96 136 181 221 281 335 392
#     4  10  23  41  64  94 136 182 232 273 325 394
#
# _framework density 26.655919000000001
#
# number of rings (size 3 to 8) (size 9 to 14) (size 15 to 20)
#    0.000    1.500    2.500    1.875    3.500    3.000 
#    2.250    3.125    0.000    0.000    0.000    0.000 
#    0.000    0.000    0.000    0.000    0.000    0.000 
#
# Total GULP energy -89296.595310 kJ/mol
# GULP energy per Si atom -5581.037207 kJ/mol
# Density = 2.659525 g / cm^3
# Si number density = 26.655919 Si / 1000 Ang^3
#
#
#
# Elastic Constant Matrix: (Units=GPa)
#
#
# Indices 1 2 3 4 5 6 
#
# 1 283.1228 22.9807 51.9870 -0.0001 -17.6190 0.0001
# 2 22.9807 51.9272 22.3832 -0.0003 4.1335 0.0002
# 3 51.9870 22.3832 100.8441 -0.0005 -1.9548 0.0004
# 4 -0.0001 -0.0003 -0.0005 36.1366 0.0002 -1.4695
# 5 -17.6190 4.1335 -1.9548 0.0002 53.5160 -0.0002
# 6 0.0001 0.0002 0.0004 -1.4695 -0.0002 41.6133
#
#
#
# Elastic Compliance Matrix: (Units=1/GPa)
#
#
# Indices 1 2 3 4 5 6 
#
# 1 0.004039 -0.001115 -0.001808 0.000000 0.001350 0.000000
# 2 -0.001115 0.021782 -0.004302 0.000000 -0.002207 0.000000
# 3 -0.001808 -0.004302 0.011807 0.000000 0.000168 0.000000
# 4 0.000000 0.000000 0.000000 0.027713 0.000000 0.000979
# 5 0.001350 -0.002207 0.000168 0.000000 0.019307 0.000000
# 6 0.000000 0.000000 0.000000 0.000979 0.000000 0.024065
#
#
# Mechanical properties :
#
#
# Convention : Reuss Voigt Hill
#
# Bulk Modulus (GPa) = 43.15014 70.06621 56.60818
# Shear Modulus (GPa) = 38.20043 48.82274 43.51159
#
# Velocity S-wave (km/s) = 3.78973 4.28435 4.04461
# Velocity P-wave (km/s) = 5.94747 7.12858 6.56464
#
# Compressibility (1/GPa) = 0.02317490
#
# Stress axis : x y z
#
# Youngs Moduli (GPa) = 247.61131 45.91044 84.69768
#
# Poissons Ratio (x) = 0.05120 0.15315
# Poissons Ratio (y) = 0.27616 0.36440
# Poissons Ratio (z) = 0.44774 0.19753
#
# Static dielectric constant tensor:
#      x y z
#    x 2.067930 0.000000 0.001680 
#    y 0.000000 2.129390 0.000000 
#    z 0.001680 0.000000 2.212930 
# 
# From -- ./inp_files/71768.got.cif
#   From: 2010.05.17/outbox.cif.g08.bks.cpg/sg5_36_cif.got.tgz:71768.got - 2010.06.03 18:56:24.
