data_PCOD9126062
_publ_section_title
;
Structure prediction by ZEFSAII (Michael W. Deem and Ramdas Pophale) SiO2 
 PCOD9126062
Probable space group: C 2
;
_chemical_formula_sum "Si O2"
_cell_formula_units_Z 18
_cell_length_a 23.287605
_cell_length_b 4.885215
_cell_length_c 13.175557
_cell_angle_alpha 90.000000
_cell_angle_beta 150.809453
_cell_angle_gamma 90.000000
_cell_volume 731.045096
_symmetry_space_group_name_H-M "C 2"
_symmetry_group_IT_number 5
_symmetry_cell_setting 'monoclinic'
loop_
_space_group_symop_operation_xyz
x,y,z
-x,y,-z
1/2+x,1/2+y,z
1/2-x,1/2+y,-z
loop_
_atom_site_type_symbol
_atom_site_label
_atom_site_fract_x
_atom_site_fract_y
_atom_site_fract_z
Si Si1 0.218925 0.434400 0.227774
Si Si2 0.500000 0.663177 0.500000
Si Si3 0.766929 0.828765 0.087999
Si Si4 0.879944 0.433043 0.502933
Si Si5 0.168160 0.295085 0.359469
O O1 0.186122 0.370633 0.061860
O O2 0.263221 0.744679 0.304746
O O3 0.135460 0.358500 0.192863
O O4 0.335292 0.242688 0.424684
O O5 0.391305 0.466424 0.305377
O O6 0.466004 0.841062 0.546485
O O7 0.723334 0.014115 0.927196
O O8 0.913687 0.368990 0.671608
O O9 0.283806 0.488251 0.555947
#
# Coordination Sequence:
#
# PCOD9126062 Si02
#       5
#     4   2   4   4   4
#     4   9  17  31  50  76 108 140 180 224 266 320
#     4  10  22  38  58  84 116 144 182 230 274 330
#     4  11  23  37  56  84 113 147 185 225 277 328
#     4   9  17  29  51  79 106 141 178 220 272 321
#     4   8  14  26  46  74 103 134 178 219 260 320
#
# _framework density 24.62228
#
# number of rings (size 3 to 8) (size 9 to 14) (size 15 to 20)
#    0.000    2.667    0.000    2.667    0.000    8.000 
#    0.000    0.000    0.000    1.333    0.000   18.667 
#    0.000    0.000    0.000    0.000    0.000    0.000 
#
# Total GULP energy -50291.098963 kJ/mol
# GULP energy per Si atom -5587.899885 kJ/mol
# Density = 2.456624 g / cm^3
# Si number density = 24.622280 Si / 1000 Ang^3
#
#
#
# Elastic Constant Matrix: (Units=GPa)
#
#
# Indices 1 2 3 4 5 6 
#
# 1 192.2638 5.1670 50.8849 -0.0001 -42.4756 0.0000
# 2 5.1670 86.5910 1.4360 0.0010 -2.0676 0.0003
# 3 50.8849 1.4360 52.5563 0.0001 -16.2368 0.0001
# 4 -0.0001 0.0010 0.0001 27.2126 0.0001 -16.8498
# 5 -42.4756 -2.0676 -16.2368 0.0001 58.6301 -0.0001
# 6 0.0000 0.0003 0.0001 -16.8498 -0.0001 39.8125
#
#
#
# Elastic Compliance Matrix: (Units=1/GPa)
#
#
# Indices 1 2 3 4 5 6 
#
# 1 0.007719 -0.000265 -0.006279 0.000000 0.003844 0.000000
# 2 -0.000265 0.011569 0.000008 -0.000001 0.000218 0.000000
# 3 -0.006279 0.000008 0.025919 0.000000 0.002629 0.000000
# 4 0.000000 -0.000001 0.000000 0.049798 0.000000 0.021076
# 5 0.003844 0.000218 0.002629 0.000000 0.020577 0.000000
# 6 0.000000 0.000000 0.000000 0.021076 0.000000 0.034038
#
#
# Mechanical properties :
#
#
# Convention : Reuss Voigt Hill
#
# Bulk Modulus (GPa) = 31.11856 49.59855 40.35855
# Shear Modulus (GPa) = 28.83451 43.39258 36.11355
#
# Velocity S-wave (km/s) = 3.42581 4.20257 3.83391
# Velocity P-wave (km/s) = 5.32109 6.61334 6.00209
#
# Compressibility (1/GPa) = 0.03213517
#
# Stress axis : x y z
#
# Youngs Moduli (GPa) = 129.54371 86.43475 38.58239
#
# Poissons Ratio (x) = 0.02288 0.24226
# Poissons Ratio (y) = 0.03429 -0.00029
# Poissons Ratio (z) = 0.81341 -0.00066
#
# Static dielectric constant tensor:
#      x y z
#    x 1.993270 0.000000 -0.065300 
#    y 0.000000 1.841860 0.000000 
#    z -0.065300 0.000000 2.033760 
# 
# From -- ./inp_files/40896.got.cif
#   From: 2010.05.17/outbox.cif.g08.bks.cpg/sg5_21_cif.got.tgz:40896.got - 2010.06.03 18:56:24.
