data_PCOD9126503
_publ_section_title
;
Structure prediction by ZEFSAII (Michael W. Deem and Ramdas Pophale) SiO2 
 PCOD9126503
Probable space group: C 2
;
_chemical_formula_sum "Si O2"
_cell_formula_units_Z 26
_cell_length_a 13.467286
_cell_length_b 9.668070
_cell_length_c 13.837803
_cell_angle_alpha 90.000000
_cell_angle_beta 40.696418
_cell_angle_gamma 90.000000
_cell_volume 1174.812563
_symmetry_space_group_name_H-M "C 2"
_symmetry_group_IT_number 5
_symmetry_cell_setting 'monoclinic'
loop_
_space_group_symop_operation_xyz
x,y,z
-x,y,-z
1/2+x,1/2+y,z
1/2-x,1/2+y,-z
loop_
_atom_site_type_symbol
_atom_site_label
_atom_site_fract_x
_atom_site_fract_y
_atom_site_fract_z
Si Si1 0.590859 0.553140 0.072232
Si Si2 0.820089 0.911021 0.809331
Si Si3 0.500000 0.511773 0.500000
Si Si4 0.500000 0.021024 0.500000
Si Si5 0.695828 0.420920 0.649430
Si Si6 0.000000 0.297145 0.000000
Si Si7 0.726624 0.115055 0.581371
Si Si8 0.406191 0.109879 0.775082
O O1 0.651221 0.538168 0.138548
O O2 0.450326 0.446522 0.176042
O O3 0.519134 0.692486 0.078057
O O4 0.748961 0.525555 0.899454
O O5 0.651328 0.889612 0.891879
O O6 0.856748 0.766282 0.836780
O O7 0.937210 0.925527 0.635798
O O8 0.351662 0.593186 0.571495
O O9 0.463150 0.107180 0.622764
O O10 0.351850 0.930000 0.591910
O O11 0.696746 0.277390 0.592402
O O12 0.706058 0.544814 0.564154
O O13 0.554127 0.057209 0.724596
#
# Coordination Sequence:
#
# PCOD9126503 Si02
#       8
#     4   4   2   2   4   2   4   4
#     4  11  22  44  68 105 138 186 247 299 355 453
#     4  11  23  45  69 103 142 188 246 297 364 442
#     4  12  24  42  68 104 139 184 241 298 369 436
#     4  10  22  40  70 100 133 176 241 278 371 440
#     4  11  22  43  66  97 139 179 236 295 360 431
#     4  10  26  44  74 100 152 196 240 302 388 426
#     4  11  23  42  65  98 138 182 233 293 361 433
#     4  10  22  42  68  99 136 188 231 296 364 433
#
# _framework density 22.131191999999999
#
# number of rings (size 3 to 8) (size 9 to 14) (size 15 to 20)
#    0.000    1.231    3.077    2.769    2.154    3.692 
#    8.308    3.077    0.000    0.000    0.000    0.000 
#    0.000    0.000    0.000    0.000    0.000    0.000 
#
# Total GULP energy -72460.202868 kJ/mol
# GULP energy per Si atom -5573.861759 kJ/mol
# Density = 2.208082 g / cm^3
# Si number density = 22.131192 Si / 1000 Ang^3
#
#
#
# Elastic Constant Matrix: (Units=GPa)
#
#
# Indices 1 2 3 4 5 6 
#
# 1 161.0376 30.2544 56.9782 0.0000 -44.1623 0.0000
# 2 30.2544 70.1546 35.5662 0.0000 -3.6061 0.0000
# 3 56.9782 35.5662 123.5603 0.0000 -31.0581 0.0000
# 4 0.0000 0.0000 0.0000 16.8127 0.0000 -4.9924
# 5 -44.1623 -3.6061 -31.0581 0.0000 54.4083 0.0000
# 6 0.0000 0.0000 0.0000 -4.9924 0.0000 21.8227
#
#
#
# Elastic Compliance Matrix: (Units=1/GPa)
#
#
# Indices 1 2 3 4 5 6 
#
# 1 0.009039 -0.002632 -0.001880 0.000000 0.006089 0.000000
# 2 -0.002632 0.017628 -0.004791 0.000000 -0.003703 0.000000
# 3 -0.001880 -0.004791 0.011530 0.000000 0.004738 0.000000
# 4 0.000000 0.000000 0.000000 0.063814 0.000000 0.014599
# 5 0.006089 -0.003703 0.004738 0.000000 0.025782 0.000000
# 6 0.000000 0.000000 0.000000 0.014599 0.000000 0.049164
#
#
# Mechanical properties :
#
#
# Convention : Reuss Voigt Hill
#
# Bulk Modulus (GPa) = 51.04401 66.70557 58.87479
# Shear Modulus (GPa) = 24.74100 34.07233 29.40666
#
# Velocity S-wave (km/s) = 3.34716 3.92798 3.64915
# Velocity P-wave (km/s) = 6.16866 7.12590 6.66449
#
# Compressibility (1/GPa) = 0.01959094
#
# Stress axis : x y z
#
# Youngs Moduli (GPa) = 110.62694 56.72812 86.72784
#
# Poissons Ratio (x) = 0.14931 0.16306
# Poissons Ratio (y) = 0.29118 0.41553
# Poissons Ratio (z) = 0.20799 0.27179
#
# Static dielectric constant tensor:
#      x y z
#    x 1.895750 0.000000 -0.029070 
#    y 0.000000 1.838580 0.000000 
#    z -0.029070 0.000000 1.801490 
# 
# From -- ./inp_files/54308.got.cif
#   From: 2010.05.17/outbox.cif.g08.bks.cpg/sg5_28_cif.got.tgz:54308.got - 2010.06.03 18:56:24.
