data_PCOD9126843
_publ_section_title
;
Structure prediction by ZEFSAII (Michael W. Deem and Ramdas Pophale) SiO2 
 PCOD9126843
Probable space group: C 2
;
_chemical_formula_sum "Si O2"
_cell_formula_units_Z 24
_cell_length_a 14.524291
_cell_length_b 13.516920
_cell_length_c 8.047252
_cell_angle_alpha 90.000000
_cell_angle_beta 139.068145
_cell_angle_gamma 90.000000
_cell_volume 1035.066586
_symmetry_space_group_name_H-M "C 2"
_symmetry_group_IT_number 5
_symmetry_cell_setting 'monoclinic'
loop_
_space_group_symop_operation_xyz
x,y,z
-x,y,-z
1/2+x,1/2+y,z
1/2-x,1/2+y,-z
loop_
_atom_site_type_symbol
_atom_site_label
_atom_site_fract_x
_atom_site_fract_y
_atom_site_fract_z
Si Si1 0.097559 0.997210 0.792456
Si Si2 0.661172 0.731963 0.870080
Si Si3 0.806649 0.715170 0.400524
Si Si4 0.432379 0.298205 0.082083
Si Si5 0.656203 0.999895 0.650197
Si Si6 0.916164 0.340404 0.711627
O O1 0.040403 0.915537 0.846778
O O2 0.000000 0.974494 0.500000
O O3 0.109344 0.117504 0.805205
O O4 0.260418 0.974082 0.065169
O O5 0.522571 0.793270 0.722452
O O6 0.759975 0.758600 0.161369
O O7 0.770884 0.760728 0.875277
O O8 0.780939 0.599502 0.341681
O O9 0.701456 0.763231 0.389070
O O10 0.967300 0.738210 0.656397
O O11 0.500000 0.273232 0.000000
O O12 0.500000 0.018331 0.500000
O O13 0.654869 0.926566 0.492018
O O14 0.000000 0.367211 0.000000
#
# Coordination Sequence:
#
# PCOD9126843 Si02
#       6
#     4   4   4   4   4   4
#     4  11  25  43  69 100 138 184 231 283 345 407
#     4  10  23  45  68  97 137 183 230 284 346 412
#     4  10  22  42  67  97 137 181 227 284 344 409
#     4  12  25  43  69 103 138 179 230 287 347 413
#     4  11  23  44  72 103 139 185 234 284 344 416
#     4  10  23  43  71 104 141 180 227 286 351 415
#
# _framework density 23.186913000000001
#
# number of rings (size 3 to 8) (size 9 to 14) (size 15 to 20)
#    0.000    1.333    0.000    5.500    0.000   10.000 
#    0.000    1.667    0.000    0.000    0.000    0.000 
#    0.000    0.000    0.000    0.000    0.000    0.000 
#
# Total GULP energy -66831.406191 kJ/mol
# GULP energy per Si atom -5569.283849 kJ/mol
# Density = 2.313414 g / cm^3
# Si number density = 23.186913 Si / 1000 Ang^3
#
#
#
# Elastic Constant Matrix: (Units=GPa)
#
#
# Indices 1 2 3 4 5 6 
#
# 1 136.2419 41.1267 41.2865 0.0000 1.6523 0.0000
# 2 41.1267 108.1042 23.3972 0.0000 -2.1363 0.0000
# 3 41.2865 23.3972 160.0848 0.0000 3.0164 0.0000
# 4 0.0000 0.0000 0.0000 29.3585 0.0000 -9.9870
# 5 1.6523 -2.1363 3.0164 0.0000 29.7594 0.0000
# 6 0.0000 0.0000 0.0000 -9.9870 0.0000 23.6828
#
#
#
# Elastic Compliance Matrix: (Units=1/GPa)
#
#
# Indices 1 2 3 4 5 6 
#
# 1 0.008793 -0.002960 -0.001825 0.000000 -0.000516 0.000000
# 2 -0.002960 0.010570 -0.000800 0.000000 0.001004 0.000000
# 3 -0.001825 -0.000800 0.006847 0.000000 -0.000650 0.000000
# 4 0.000000 0.000000 0.000000 0.039766 0.000000 0.016769
# 5 -0.000516 0.001004 -0.000650 0.000000 0.033769 0.000000
# 6 0.000000 0.000000 0.000000 0.016769 0.000000 0.049296
#
#
# Mechanical properties :
#
#
# Convention : Reuss Voigt Hill
#
# Bulk Modulus (GPa) = 66.50085 68.45018 67.47551
# Shear Modulus (GPa) = 30.26175 36.46819 33.36497
#
# Velocity S-wave (km/s) = 3.61657 3.97015 3.79747
# Velocity P-wave (km/s) = 6.79573 7.11345 6.95641
#
# Compressibility (1/GPa) = 0.01503740
#
# Stress axis : x y z
#
# Youngs Moduli (GPa) = 113.72831 94.61130 146.05655
#
# Poissons Ratio (x) = 0.28007 0.26660
# Poissons Ratio (y) = 0.33666 0.11688
# Poissons Ratio (z) = 0.20759 0.07571
#
# Static dielectric constant tensor:
#      x y z
#    x 1.927940 0.000000 -0.022860 
#    y 0.000000 1.922180 0.000000 
#    z -0.022860 0.000000 1.966370 
# 
# From -- ./inp_files/24721.got.cif
#   From: 2010.05.17/outbox.cif.g08.bks.cpg/sg5_13_cif.got.tgz:24721.got - 2010.06.03 18:56:24.
