data_PCOD9126127
_publ_section_title
;
Structure prediction by ZEFSAII (Michael W. Deem and Ramdas Pophale) SiO2 
 PCOD9126127
Probable space group: C 2
;
_chemical_formula_sum "Si O2"
_cell_formula_units_Z 30
_cell_length_a 14.644428
_cell_length_b 7.761539
_cell_length_c 12.011829
_cell_angle_alpha 90.000000
_cell_angle_beta 105.939624
_cell_angle_gamma 90.000000
_cell_volume 1312.810378
_symmetry_space_group_name_H-M "C 2"
_symmetry_group_IT_number 5
_symmetry_cell_setting 'monoclinic'
loop_
_space_group_symop_operation_xyz
x,y,z
-x,y,-z
1/2+x,1/2+y,z
1/2-x,1/2+y,-z
loop_
_atom_site_type_symbol
_atom_site_label
_atom_site_fract_x
_atom_site_fract_y
_atom_site_fract_z
Si Si1 0.801140 0.677130 0.645752
Si Si2 0.341158 0.820003 0.584695
Si Si3 0.500000 0.030403 0.500000
Si Si4 0.091247 0.709675 0.955810
Si Si5 0.012975 0.137504 0.639803
Si Si6 0.979973 0.758370 0.301426
Si Si7 0.766820 0.032012 0.009102
Si Si8 0.816472 0.320066 0.191827
O O1 0.735670 0.736525 0.521189
O O2 0.800847 0.468936 0.648792
O O3 0.905980 0.747550 0.659018
O O4 0.759018 0.751131 0.744395
O O5 0.409297 0.674363 0.657406
O O6 0.420217 0.921614 0.536711
O O7 0.445755 0.152500 0.395736
O O8 0.160456 0.873283 0.956743
O O9 0.049772 0.667283 0.821534
O O10 0.160849 0.561114 0.026837
O O11 0.000000 0.748864 0.000000
O O12 0.000000 0.118714 0.500000
O O13 0.085017 0.284746 0.709048
O O14 0.050647 0.955284 0.696116
O O15 0.819712 0.195937 0.082560
O O16 0.728335 0.999322 0.869339
#
# Coordination Sequence:
#
# PCOD9126127 Si02
#       8
#     4   4   2   4   4   4   4   4
#     4  11  24  40  66  97 139 176 223 295 355 425
#     4  11  23  40  62 101 135 176 225 275 363 434
#     4  10  22  38  64 100 128 178 220 276 356 434
#     4  11  24  47  72 101 142 183 244 302 361 426
#     4  12  22  41  67  94 136 176 218 285 353 429
#     4  11  23  39  66  98 133 178 226 284 356 433
#     4  10  24  45  71 100 131 193 239 290 361 425
#     4  11  23  45  68  94 136 176 234 289 351 422
#
# _framework density 22.851738000000001
#
# number of rings (size 3 to 8) (size 9 to 14) (size 15 to 20)
#    0.000    1.067    4.000    2.400    5.600    0.000 
#    0.000    8.000    0.000    0.000    0.000    0.000 
#    0.000    0.000    0.000    0.000    0.000    0.000 
#
# Total GULP energy -83554.244592 kJ/mol
# GULP energy per Si atom -5570.282973 kJ/mol
# Density = 2.279973 g / cm^3
# Si number density = 22.851738 Si / 1000 Ang^3
#
#
#
# Elastic Constant Matrix: (Units=GPa)
#
#
# Indices 1 2 3 4 5 6 
#
# 1 86.9390 8.6346 13.8194 0.0000 20.1387 0.0000
# 2 8.6346 61.3449 -3.2005 0.0000 -5.2747 0.0000
# 3 13.8194 -3.2005 94.9698 0.0000 17.4283 0.0000
# 4 0.0000 0.0000 0.0000 44.1829 0.0000 6.1988
# 5 20.1387 -5.2747 17.4283 0.0000 29.5305 0.0000
# 6 0.0000 0.0000 0.0000 6.1988 0.0000 19.8625
#
#
#
# Elastic Compliance Matrix: (Units=1/GPa)
#
#
# Indices 1 2 3 4 5 6 
#
# 1 0.014148 -0.002865 -0.000326 0.000000 -0.009968 0.000000
# 2 -0.002865 0.017136 0.000083 0.000000 0.004966 0.000000
# 3 -0.000326 0.000083 0.011816 0.000000 -0.006736 0.000000
# 4 0.000000 0.000000 0.000000 0.023670 0.000000 -0.007387
# 5 -0.009968 0.004966 -0.006736 0.000000 0.045523 0.000000
# 6 0.000000 0.000000 0.000000 -0.007387 0.000000 0.052651
#
#
# Mechanical properties :
#
#
# Convention : Reuss Voigt Hill
#
# Bulk Modulus (GPa) = 27.11277 31.30677 29.20977
# Shear Modulus (GPa) = 27.25461 33.64853 30.45157
#
# Velocity S-wave (km/s) = 3.45725 3.84144 3.65440
# Velocity P-wave (km/s) = 5.27515 5.77973 5.53319
#
# Compressibility (1/GPa) = 0.03688299
#
# Stress axis : x y z
#
# Youngs Moduli (GPa) = 70.68324 58.35698 84.63000
#
# Poissons Ratio (x) = 0.16722 0.02759
# Poissons Ratio (y) = 0.20254 -0.00704
# Poissons Ratio (z) = 0.02305 -0.00485
#
# Static dielectric constant tensor:
#      x y z
#    x 1.872060 0.000000 0.018930 
#    y 0.000000 1.984490 0.000000 
#    z 0.018930 0.000000 1.883060 
# 
# From -- ./inp_files/42002.got.cif
#   From: 2010.05.17/outbox.cif.g08.bks.cpg/sg5_22_cif.got.tgz:42002.got - 2010.06.03 18:56:24.
