data_PCOD9126278
_publ_section_title
;
Structure prediction by ZEFSAII (Michael W. Deem and Ramdas Pophale) SiO2 
 PCOD9126278
Probable space group: C 2
;
_chemical_formula_sum "Si O2"
_cell_formula_units_Z 20
_cell_length_a 11.964371
_cell_length_b 7.947818
_cell_length_c 12.369652
_cell_angle_alpha 90.000000
_cell_angle_beta 66.216623
_cell_angle_gamma 90.000000
_cell_volume 1076.348148
_symmetry_space_group_name_H-M "C 2"
_symmetry_group_IT_number 5
_symmetry_cell_setting 'monoclinic'
loop_
_space_group_symop_operation_xyz
x,y,z
-x,y,-z
1/2+x,1/2+y,z
1/2-x,1/2+y,-z
loop_
_atom_site_type_symbol
_atom_site_label
_atom_site_fract_x
_atom_site_fract_y
_atom_site_fract_z
Si Si1 0.939527 0.143280 0.139578
Si Si2 0.300499 0.961805 0.285079
Si Si3 0.111505 0.348471 0.517585
Si Si4 0.528360 0.535666 0.320975
Si Si5 0.653662 0.322019 0.722336
O O1 0.856228 0.302623 0.201439
O O2 0.039500 0.121492 0.197297
O O3 0.860423 0.972445 0.186256
O O4 0.000000 0.155352 0.000000
O O5 0.333005 0.937565 0.398932
O O6 0.156419 0.983847 0.321061
O O7 0.362266 0.136802 0.225156
O O8 0.217157 0.325080 0.388803
O O9 0.000000 0.439984 0.500000
O O10 0.052765 0.172360 0.582851
O O11 0.446801 0.371966 0.328289
#
# Coordination Sequence:
#
# PCOD9126278 Si02
#       5
#     4   4   4   4   4
#     4   9  23  46  60  94 130 160 224 264 295 379
#     4  11  22  42  65  89 130 174 205 257 328 362
#     4  11  21  38  62  95 136 159 202 266 303 386
#     4   9  22  42  60  92 132 159 214 262 298 389
#     4  10  22  39  65  93 125 170 204 255 324 368
#
# _framework density 18.58135
#
# number of rings (size 3 to 8) (size 9 to 14) (size 15 to 20)
#    1.200    0.800    2.000    1.200    0.000    2.400 
#    3.600    0.000    0.000    0.000    0.000    0.000 
#    0.000    0.000    0.000    0.000    0.000    0.000 
#
# Total GULP energy -55681.922353 kJ/mol
# GULP energy per Si atom -5568.192235 kJ/mol
# Density = 1.853906 g / cm^3
# Si number density = 18.581350 Si / 1000 Ang^3
#
#
#
# Elastic Constant Matrix: (Units=GPa)
#
#
# Indices 1 2 3 4 5 6 
#
# 1 142.0620 29.2782 31.8944 0.0000 -18.7166 0.0000
# 2 29.2782 112.1137 23.2103 0.0000 -18.9437 0.0000
# 3 31.8944 23.2103 100.0545 0.0000 3.1090 0.0000
# 4 0.0000 0.0000 0.0000 17.4135 0.0000 -5.6525
# 5 -18.7166 -18.9437 3.1090 0.0000 17.9742 0.0000
# 6 0.0000 0.0000 0.0000 -5.6525 0.0000 27.0843
#
#
#
# Elastic Compliance Matrix: (Units=1/GPa)
#
#
# Indices 1 2 3 4 5 6 
#
# 1 0.009077 -0.000022 -0.003199 0.000000 0.009982 0.000000
# 2 -0.000022 0.011751 -0.003120 0.000000 0.012902 0.000000
# 3 -0.003199 -0.003120 0.012008 0.000000 -0.008696 0.000000
# 4 0.000000 0.000000 0.000000 0.061600 0.000000 0.012856
# 5 0.009982 0.012902 -0.008696 0.000000 0.081132 0.000000
# 6 0.000000 0.000000 0.000000 0.012856 0.000000 0.039605
#
#
# Mechanical properties :
#
#
# Convention : Reuss Voigt Hill
#
# Bulk Modulus (GPa) = 49.61344 58.11069 53.86207
# Shear Modulus (GPa) = 21.31541 30.48422 25.89982
#
# Velocity S-wave (km/s) = 3.39062 4.05480 3.73749
# Velocity P-wave (km/s) = 6.48745 7.29818 6.90473
#
# Compressibility (1/GPa) = 0.02015583
#
# Stress axis : x y z
#
# Youngs Moduli (GPa) = 110.16956 85.09825 83.27657
#
# Poissons Ratio (x) = 0.00183 0.26637
# Poissons Ratio (y) = 0.00237 0.25983
# Poissons Ratio (z) = 0.35239 0.26551
#
# Static dielectric constant tensor:
#      x y z
#    x 1.679490 0.000000 0.026470 
#    y 0.000000 1.682290 0.000000 
#    z 0.026470 0.000000 1.621350 
# 
# From -- ./inp_files/47148.got.cif
#   From: 2010.05.17/outbox.cif.g08.bks.cpg/sg5_24_cif.got.tgz:47148.got - 2010.06.03 18:56:24.
