data_PCOD9126969
_publ_section_title
;
Structure prediction by ZEFSAII (Michael W. Deem and Ramdas Pophale) SiO2 
 PCOD9126969
Probable space group: C 2
;
_chemical_formula_sum "Si O2"
_cell_formula_units_Z 28
_cell_length_a 19.798141
_cell_length_b 4.979515
_cell_length_c 11.111535
_cell_angle_alpha 90.000000
_cell_angle_beta 70.607016
_cell_angle_gamma 90.000000
_cell_volume 1033.281052
_symmetry_space_group_name_H-M "C 2"
_symmetry_group_IT_number 5
_symmetry_cell_setting 'monoclinic'
loop_
_space_group_symop_operation_xyz
x,y,z
-x,y,-z
1/2+x,1/2+y,z
1/2-x,1/2+y,-z
loop_
_atom_site_type_symbol
_atom_site_label
_atom_site_fract_x
_atom_site_fract_y
_atom_site_fract_z
Si Si1 0.500000 0.243181 0.500000
Si Si2 0.256095 0.686621 0.336431
Si Si3 0.391472 0.000891 0.234036
Si Si4 0.867897 0.923753 0.439523
Si Si5 0.226726 0.987630 0.938233
Si Si6 0.500000 0.765571 0.000000
Si Si7 0.971570 0.346459 0.719515
Si Si8 0.076201 0.875434 0.127472
O O1 0.443848 0.429444 0.462965
O O2 0.461349 0.027396 0.608730
O O3 0.309539 0.922146 0.260890
O O4 0.179197 0.749674 0.436565
O O5 0.303860 0.609945 0.426671
O O6 0.250756 0.514596 0.215232
O O7 0.435201 0.943390 0.088057
O O8 0.441755 0.841372 0.303584
O O9 0.388423 0.284372 0.299992
O O10 0.231134 0.270111 0.006716
O O11 0.145447 0.894794 0.004210
O O12 0.518645 0.554720 0.092583
O O13 0.924963 0.073730 0.754110
O O14 0.943373 0.571434 0.832441
#
# Coordination Sequence:
#
# PCOD9126969 Si02
#       8
#     2   4   4   4   4   2   4   4
#     4  10  26  48  74 110 154 208 272 328 408 482
#     4  12  26  49  79 115 164 214 276 330 424 497
#     4  10  23  45  69 112 148 205 260 322 404 472
#     4  11  26  48  78 115 160 214 266 340 408 500
#     4  12  30  50  78 114 159 216 272 336 408 488
#     4  10  22  42  74 104 142 198 254 330 378 474
#     4  10  25  44  70 106 152 194 255 326 391 472
#     4  11  24  45  70 105 147 195 257 322 396 457
#
# _framework density 27.098147999999998
#
# number of rings (size 3 to 8) (size 9 to 14) (size 15 to 20)
#    0.000    1.143    2.857    0.857   14.000    5.143 
#    2.571    0.000    0.000    0.000    0.000    0.000 
#    0.000    0.000    0.000    0.000    0.000    0.000 
#
# Total GULP energy -78138.285961 kJ/mol
# GULP energy per Si atom -5581.306140 kJ/mol
# Density = 2.703647 g / cm^3
# Si number density = 27.098148 Si / 1000 Ang^3
#
#
#
# Elastic Constant Matrix: (Units=GPa)
#
#
# Indices 1 2 3 4 5 6 
#
# 1 100.3329 16.5412 24.5848 0.0000 -6.8843 0.0000
# 2 16.5412 100.0796 11.1742 0.0000 6.7674 0.0000
# 3 24.5848 11.1742 135.6646 0.0000 -0.7921 0.0000
# 4 0.0000 0.0000 0.0000 32.4809 0.0000 11.0259
# 5 -6.8843 6.7674 -0.7921 0.0000 40.7233 0.0000
# 6 0.0000 0.0000 0.0000 11.0259 0.0000 28.4394
#
#
#
# Elastic Compliance Matrix: (Units=1/GPa)
#
#
# Indices 1 2 3 4 5 6 
#
# 1 0.010838 -0.001730 -0.001809 0.000000 0.002085 0.000000
# 2 -0.001730 0.010479 -0.000561 0.000000 -0.002045 0.000000
# 3 -0.001809 -0.000561 0.007745 0.000000 -0.000062 0.000000
# 4 0.000000 0.000000 0.000000 0.035453 0.000000 -0.013745
# 5 0.002085 -0.002045 -0.000062 0.000000 0.025247 0.000000
# 6 0.000000 0.000000 0.000000 -0.013745 0.000000 0.040491
#
#
# Mechanical properties :
#
#
# Convention : Reuss Voigt Hill
#
# Bulk Modulus (GPa) = 47.93886 48.96416 48.45151
# Shear Modulus (GPa) = 34.38556 39.24719 36.81638
#
# Velocity S-wave (km/s) = 3.56606 3.80983 3.68996
# Velocity P-wave (km/s) = 5.88940 6.12058 6.00610
#
# Compressibility (1/GPa) = 0.02085990
#
# Stress axis : x y z
#
# Youngs Moduli (GPa) = 92.26379 95.42901 129.11712
#
# Poissons Ratio (x) = 0.16512 0.23363
# Poissons Ratio (y) = 0.15965 0.07250
# Poissons Ratio (z) = 0.16694 0.05358
#
# Static dielectric constant tensor:
#      x y z
#    x 2.284090 0.000000 0.167170 
#    y 0.000000 2.257010 0.000000 
#    z 0.167170 0.000000 2.548250 
# 
# From -- ./inp_files/45660.got.cif
#   From: 2010.05.17/outbox.cif.g08.bks.cpg/sg5_23_cif.got.tgz:45660.got - 2010.06.03 18:56:24.
