data_PCOD9126010
_publ_section_title
;
Structure prediction by ZEFSAII (Michael W. Deem and Ramdas Pophale) SiO2 
 PCOD9126010
Probable space group: C 2
;
_chemical_formula_sum "Si O2"
_cell_formula_units_Z 28
_cell_length_a 12.358121
_cell_length_b 7.171826
_cell_length_c 13.898119
_cell_angle_alpha 90.000000
_cell_angle_beta 116.302903
_cell_angle_gamma 90.000000
_cell_volume 1104.259280
_symmetry_space_group_name_H-M "C 2"
_symmetry_group_IT_number 5
_symmetry_cell_setting 'monoclinic'
loop_
_space_group_symop_operation_xyz
x,y,z
-x,y,-z
1/2+x,1/2+y,z
1/2-x,1/2+y,-z
loop_
_atom_site_type_symbol
_atom_site_label
_atom_site_fract_x
_atom_site_fract_y
_atom_site_fract_z
Si Si1 0.768706 0.953370 0.119588
Si Si2 0.456917 0.902834 0.203166
Si Si3 0.887904 0.612721 0.508108
Si Si4 0.880830 0.136622 0.998043
Si Si5 0.256647 0.258741 0.754569
Si Si6 0.516317 0.310288 0.261644
Si Si7 0.726640 0.915240 0.377261
O O1 0.902405 0.945162 0.219066
O O2 0.796597 0.990431 0.018866
O O3 0.701301 0.127564 0.139860
O O4 0.695410 0.764641 0.104116
O O5 0.425228 0.781535 0.097834
O O6 0.358330 0.865894 0.248460
O O7 0.593296 0.857089 0.290299
O O8 0.465217 0.124231 0.188854
O O9 0.820743 0.750287 0.409476
O O10 0.794509 0.472664 0.520005
O O11 0.000000 0.518037 0.500000
O O12 0.940356 0.736370 0.617513
O O13 0.000000 0.050793 0.000000
O O14 0.367413 0.374686 0.753652
O O15 0.232560 0.100217 0.663685
#
# Coordination Sequence:
#
# PCOD9126010 Si02
#       7
#     4   4   4   4   4   4   4
#     4  11  23  38  59  85 114 149 188 232 281 335
#     4   9  20  40  60  81 114 151 187 233 282 329
#     4  10  22  37  57  84 113 147 188 232 280 334
#     4  11  23  38  59  86 113 149 191 231 281 335
#     4   9  20  40  60  81 114 152 187 231 282 330
#     4  10  22  39  58  84 115 148 188 233 281 333
#     4  10  22  38  57  85 115 148 189 232 281 334
#
# _framework density 25.356365
#
# number of rings (size 3 to 8) (size 9 to 14) (size 15 to 20)
#    0.000    2.286    0.000    3.429    0.000   11.429 
#    0.000    0.714    0.000    0.000    0.000    0.000 
#    0.000    0.000    0.000    0.000    0.000    0.000 
#
# Total GULP energy -78331.068900 kJ/mol
# GULP energy per Si atom -5595.076350 kJ/mol
# Density = 2.529865 g / cm^3
# Si number density = 25.356365 Si / 1000 Ang^3
#
#
#
# Elastic Constant Matrix: (Units=GPa)
#
#
# Indices 1 2 3 4 5 6 
#
# 1 152.6014 15.9494 10.3461 0.0000 -23.3415 0.0000
# 2 15.9494 40.1524 7.6080 0.0000 4.7827 0.0000
# 3 10.3461 7.6080 51.7502 0.0000 7.1339 0.0000
# 4 0.0000 0.0000 0.0000 44.5288 0.0000 3.7896
# 5 -23.3415 4.7827 7.1339 0.0000 30.2992 0.0000
# 6 0.0000 0.0000 0.0000 3.7896 0.0000 29.2641
#
#
#
# Elastic Compliance Matrix: (Units=1/GPa)
#
#
# Indices 1 2 3 4 5 6 
#
# 1 0.008224 -0.003750 -0.002117 0.000000 0.007426 0.000000
# 2 -0.003750 0.027645 -0.002392 0.000000 -0.006690 0.000000
# 3 -0.002117 -0.002392 0.020951 0.000000 -0.006186 0.000000
# 4 0.000000 0.000000 0.000000 0.022708 0.000000 -0.002941
# 5 0.007426 -0.006690 -0.006186 0.000000 0.041237 0.000000
# 6 0.000000 0.000000 0.000000 -0.002941 0.000000 0.034552
#
#
# Mechanical properties :
#
#
# Convention : Reuss Voigt Hill
#
# Bulk Modulus (GPa) = 24.81262 34.70123 29.75692
# Shear Modulus (GPa) = 26.98760 34.85848 30.92304
#
# Velocity S-wave (km/s) = 3.26595 3.71177 3.49598
# Velocity P-wave (km/s) = 4.90191 5.66435 5.29686
#
# Compressibility (1/GPa) = 0.04030208
#
# Stress axis : x y z
#
# Youngs Moduli (GPa) = 121.58979 36.17293 47.73006
#
# Poissons Ratio (x) = 0.13566 0.10102
# Poissons Ratio (y) = 0.45601 0.11418
# Poissons Ratio (z) = 0.25735 0.08653
#
# Static dielectric constant tensor:
#      x y z
#    x 1.972210 0.000000 -0.032430 
#    y 0.000000 1.941970 0.000000 
#    z -0.032430 0.000000 2.050430 
# 
# From -- ./inp_files/52223.got.cif
#   From: 2010.05.17/outbox.cif.g08.bks.cpg/sg5_27_cif.got.tgz:52223.got - 2010.06.03 18:56:24.
