data_PCOD9126609
_publ_section_title
;
Structure prediction by ZEFSAII (Michael W. Deem and Ramdas Pophale) SiO2 
 PCOD9126609
Probable space group: C 2
;
_chemical_formula_sum "Si O2"
_cell_formula_units_Z 18
_cell_length_a 17.394554
_cell_length_b 8.561367
_cell_length_c 13.532650
_cell_angle_alpha 90.000000
_cell_angle_beta 22.533349
_cell_angle_gamma 90.000000
_cell_volume 772.304718
_symmetry_space_group_name_H-M "C 2"
_symmetry_group_IT_number 5
_symmetry_cell_setting 'monoclinic'
loop_
_space_group_symop_operation_xyz
x,y,z
-x,y,-z
1/2+x,1/2+y,z
1/2-x,1/2+y,-z
loop_
_atom_site_type_symbol
_atom_site_label
_atom_site_fract_x
_atom_site_fract_y
_atom_site_fract_z
Si Si1 0.581582 0.052660 0.719300
Si Si2 0.979067 0.915347 0.214164
Si Si3 0.216605 0.849495 0.228835
Si Si4 0.904096 0.530509 0.720625
Si Si5 0.500000 0.638167 0.000000
O O1 0.569725 0.236736 0.751058
O O2 0.551526 0.018984 0.637921
O O3 0.797267 0.985167 0.494363
O O4 0.393888 0.965472 0.990941
O O5 0.985012 0.027657 0.111791
O O6 0.205895 0.932273 0.982599
O O7 0.168096 0.709998 0.208451
O O8 0.307635 0.748576 0.211525
O O9 0.000000 0.927057 0.500000
O O10 0.000000 0.484973 0.500000
#
# Coordination Sequence:
#
# PCOD9126609 Si02
#       5
#     4   4   4   4   2
#     4  12  24  39  64  97 126 169 215 255 312 377
#     4  11  23  40  64  92 129 167 211 261 310 376
#     4  10  22  41  65  89 127 170 209 260 314 373
#     4  10  22  42  66  89 126 170 207 261 319 371
#     4  10  22  44  64  90 128 168 208 262 322 366
#
# _framework density 23.306861000000001
#
# number of rings (size 3 to 8) (size 9 to 14) (size 15 to 20)
#    0.000    1.333    0.000    8.000    0.000    3.556 
#    0.000    2.222    0.000    0.000    0.000    0.000 
#    0.000    0.000    0.000    0.000    0.000    0.000 
#
# Total GULP energy -50320.671642 kJ/mol
# GULP energy per Si atom -5591.185738 kJ/mol
# Density = 2.325381 g / cm^3
# Si number density = 23.306861 Si / 1000 Ang^3
#
#
#
# Elastic Constant Matrix: (Units=GPa)
#
#
# Indices 1 2 3 4 5 6 
#
# 1 79.9155 -1.4827 17.9072 0.0000 -6.0445 0.0000
# 2 -1.4827 98.4234 63.6051 0.0000 -5.6322 0.0000
# 3 17.9072 63.6051 178.1804 0.0000 -31.2897 0.0000
# 4 0.0000 0.0000 0.0000 46.4939 0.0000 2.0681
# 5 -6.0445 -5.6322 -31.2897 0.0000 36.4991 0.0000
# 6 0.0000 0.0000 0.0000 2.0681 0.0000 30.9826
#
#
#
# Elastic Compliance Matrix: (Units=1/GPa)
#
#
# Indices 1 2 3 4 5 6 
#
# 1 0.012967 0.001277 -0.001586 0.000000 0.000985 0.000000
# 2 0.001277 0.013507 -0.005353 0.000000 -0.002293 0.000000
# 3 -0.001586 -0.005353 0.008819 0.000000 0.006472 0.000000
# 4 0.000000 0.000000 0.000000 0.021572 0.000000 -0.001440
# 5 0.000985 -0.002293 0.006472 0.000000 0.032755 0.000000
# 6 0.000000 0.000000 0.000000 -0.001440 0.000000 0.032372
#
#
# Mechanical properties :
#
#
# Convention : Reuss Voigt Hill
#
# Bulk Modulus (GPa) = 41.72069 57.39761 49.55915
# Shear Modulus (GPa) = 35.38416 41.22778 38.30597
#
# Velocity S-wave (km/s) = 3.90062 4.21041 4.05847
# Velocity P-wave (km/s) = 6.18271 6.95105 6.57811
#
# Compressibility (1/GPa) = 0.02396892
#
# Stress axis : x y z
#
# Youngs Moduli (GPa) = 77.12030 74.03394 113.39322
#
# Poissons Ratio (x) = -0.09451 0.17983
# Poissons Ratio (y) = -0.09845 0.60696
# Poissons Ratio (z) = 0.12231 0.39628
#
# Static dielectric constant tensor:
#      x y z
#    x 1.960040 0.000000 -0.013790 
#    y 0.000000 1.808480 0.000000 
#    z -0.013790 0.000000 1.949100 
# 
# From -- ./inp_files/56713.got.cif
#   From: 2010.05.17/outbox.cif.g08.bks.cpg/sg5_29_cif.got.tgz:56713.got - 2010.06.03 18:56:24.
