data_PCOD9126190
_publ_section_title
;
Structure prediction by ZEFSAII (Michael W. Deem and Ramdas Pophale) SiO2 
 PCOD9126190
Probable space group: C 2
;
_chemical_formula_sum "Si O2"
_cell_formula_units_Z 28
_cell_length_a 5.409347
_cell_length_b 22.155549
_cell_length_c 10.174547
_cell_angle_alpha 90.000000
_cell_angle_beta 75.443663
_cell_angle_gamma 90.000000
_cell_volume 1180.248264
_symmetry_space_group_name_H-M "C 2"
_symmetry_group_IT_number 5
_symmetry_cell_setting 'monoclinic'
loop_
_space_group_symop_operation_xyz
x,y,z
-x,y,-z
1/2+x,1/2+y,z
1/2-x,1/2+y,-z
loop_
_atom_site_type_symbol
_atom_site_label
_atom_site_fract_x
_atom_site_fract_y
_atom_site_fract_z
Si Si1 0.047589 0.815690 0.203916
Si Si2 0.500000 0.414086 0.000000
Si Si3 0.043904 0.476911 0.230473
Si Si4 0.890121 0.688950 0.245658
Si Si5 0.247389 0.079643 0.116946
Si Si6 0.967415 0.348944 0.349286
Si Si7 0.262807 0.585731 0.297478
Si Si8 0.500000 0.661603 0.500000
O O1 0.229200 0.817170 0.308190
O O2 0.040961 0.745076 0.167903
O O3 0.745910 0.829155 0.260170
O O4 0.126636 0.867709 0.089726
O O5 0.730349 0.452922 0.900723
O O6 0.929521 0.417886 0.310332
O O7 0.153142 0.519566 0.331374
O O8 0.829478 0.521304 0.196272
O O9 0.732873 0.650670 0.162124
O O10 0.702553 0.702433 0.393947
O O11 0.065862 0.635730 0.277932
O O12 0.945637 0.071983 0.147541
O O13 0.500000 0.080332 0.000000
O O14 0.000000 0.343161 0.500000
O O15 0.385511 0.615656 0.408154
#
# Coordination Sequence:
#
# PCOD9126190 Si02
#       8
#     4   2   4   4   4   4   4   2
#     4  11  27  47  72 103 142 192 243 293 356 425
#     4  10  24  48  72 102 140 196 246 292 354 422
#     4  10  23  41  67  96 137 179 236 295 349 424
#     4  10  24  42  65 102 135 180 235 294 361 425
#     4  10  22  38  68  97 135 178 227 291 358 421
#     4  11  27  45  69 104 140 188 240 293 358 423
#     4  10  22  41  64 103 130 180 231 288 364 423
#     4  10  22  40  70  98 138 180 228 292 368 432
#
# _framework density 23.723821999999998
#
# number of rings (size 3 to 8) (size 9 to 14) (size 15 to 20)
#    0.000    1.714    0.000    1.714   12.000    8.000 
#    0.000    2.857    0.000    0.000    0.000    0.000 
#    0.000    0.000    0.000    0.000    0.000    0.000 
#
# Total GULP energy -77937.319022 kJ/mol
# GULP energy per Si atom -5566.951359 kJ/mol
# Density = 2.366983 g / cm^3
# Si number density = 23.723822 Si / 1000 Ang^3
#
#
#
# Elastic Constant Matrix: (Units=GPa)
#
#
# Indices 1 2 3 4 5 6 
#
# 1 57.5607 11.3149 2.4792 0.0000 -16.7585 0.0000
# 2 11.3149 143.1491 10.7658 0.0000 0.3878 0.0000
# 3 2.4792 10.7658 38.8134 0.0000 -0.6188 0.0000
# 4 0.0000 0.0000 0.0000 19.7827 0.0000 -6.4771
# 5 -16.7585 0.3878 -0.6188 0.0000 14.6545 0.0000
# 6 0.0000 0.0000 0.0000 -6.4771 0.0000 6.6078
#
#
#
# Elastic Compliance Matrix: (Units=1/GPa)
#
#
# Indices 1 2 3 4 5 6 
#
# 1 0.026731 -0.002149 -0.000624 0.000000 0.030599 0.000000
# 2 -0.002149 0.007308 -0.001933 0.000000 -0.002732 0.000000
# 3 -0.000624 -0.001933 0.026348 0.000000 0.000451 0.000000
# 4 0.000000 0.000000 0.000000 0.074439 0.000000 0.072967
# 5 0.030599 -0.002732 0.000451 0.000000 0.103322 0.000000
# 6 0.000000 0.000000 0.000000 0.072967 0.000000 0.222861
#
#
# Mechanical properties :
#
#
# Convention : Reuss Voigt Hill
#
# Bulk Modulus (GPa) = 19.61740 32.07145 25.84443
# Shear Modulus (GPa) = 10.25823 22.53988 16.39906
#
# Velocity S-wave (km/s) = 2.08168 3.08570 2.63201
# Velocity P-wave (km/s) = 3.75032 5.12284 4.48934
#
# Compressibility (1/GPa) = 0.05097515
#
# Stress axis : x y z
#
# Youngs Moduli (GPa) = 37.40965 136.82903 37.95416
#
# Poissons Ratio (x) = 0.29403 0.02367
# Poissons Ratio (y) = 0.08039 0.07338
# Poissons Ratio (z) = 0.02333 0.26455
#
# Static dielectric constant tensor:
#      x y z
#    x 2.051980 0.000000 0.038280 
#    y 0.000000 1.893220 0.000000 
#    z 0.038280 0.000000 2.129190 
# 
# From -- ./inp_files/33932.got.cif
#   From: 2010.05.17/outbox.cif.g08.bks.cpg/sg5_17_cif.got.tgz:33932.got - 2010.06.03 18:56:24.
