data_PCOD9126279
_publ_section_title
;
Structure prediction by ZEFSAII (Michael W. Deem and Ramdas Pophale) SiO2 
 PCOD9126279
Probable space group: C 2
;
_chemical_formula_sum "Si O2"
_cell_formula_units_Z 18
_cell_length_a 7.943018
_cell_length_b 6.618863
_cell_length_c 22.235340
_cell_angle_alpha 90.000000
_cell_angle_beta 140.799895
_cell_angle_gamma 90.000000
_cell_volume 738.840856
_symmetry_space_group_name_H-M "C 2"
_symmetry_group_IT_number 5
_symmetry_cell_setting 'monoclinic'
loop_
_space_group_symop_operation_xyz
x,y,z
-x,y,-z
1/2+x,1/2+y,z
1/2-x,1/2+y,-z
loop_
_atom_site_type_symbol
_atom_site_label
_atom_site_fract_x
_atom_site_fract_y
_atom_site_fract_z
Si Si1 0.000000 0.726231 0.500000
Si Si2 0.766969 0.312037 0.053872
Si Si3 0.163090 0.726199 0.779888
Si Si4 0.050702 0.892969 0.871090
Si Si5 0.700252 0.113949 0.425561
O O1 0.912656 0.620145 0.537850
O O2 0.753593 0.882177 0.419921
O O3 0.074029 0.369708 0.148102
O O4 0.775675 0.097026 0.090522
O O5 0.500000 0.424539 0.000000
O O6 0.706687 0.277167 0.966548
O O7 0.010430 0.781874 0.797808
O O8 0.278233 0.498002 0.817540
O O9 0.994218 0.731284 0.672906
O O10 0.000000 0.200242 0.500000
#
# Coordination Sequence:
#
# PCOD9126279 Si02
#       5
#     2   4   4   4   4
#     4  10  26  44  78 102 144 182 228 300 350 420
#     4  10  22  39  65  95 141 176 228 276 335 403
#     4  10  24  42  70  99 138 182 232 278 347 413
#     4  10  24  42  66  95 141 177 230 273 342 397
#     4  10  26  48  75 104 145 179 239 290 358 414
#
# _framework density 24.362486000000001
#
# number of rings (size 3 to 8) (size 9 to 14) (size 15 to 20)
#    2.000    0.000    0.000    2.000    7.778    1.778 
#    4.000    0.000    0.000    0.000    0.000    0.000 
#    0.000    0.000    0.000    0.000    0.000    0.000 
#
# Total GULP energy -50117.394125 kJ/mol
# GULP energy per Si atom -5568.599347 kJ/mol
# Density = 2.430704 g / cm^3
# Si number density = 24.362486 Si / 1000 Ang^3
#
#
#
# Elastic Constant Matrix: (Units=GPa)
#
#
# Indices 1 2 3 4 5 6 
#
# 1 147.8740 44.3422 36.9305 0.0000 -20.0389 0.0000
# 2 44.3422 51.3513 4.0054 0.0000 -1.0034 0.0000
# 3 36.9305 4.0054 130.3865 0.0000 -14.5979 0.0000
# 4 0.0000 0.0000 0.0000 4.9789 0.0000 -8.3656
# 5 -20.0389 -1.0034 -14.5979 0.0000 25.6124 0.0000
# 6 0.0000 0.0000 0.0000 -8.3656 0.0000 43.4969
#
#
#
# Elastic Compliance Matrix: (Units=1/GPa)
#
#
# Indices 1 2 3 4 5 6 
#
# 1 0.010985 -0.009189 -0.002037 0.000000 0.007074 0.000000
# 2 -0.009189 0.027211 0.001155 0.000000 -0.005465 0.000000
# 3 -0.002037 0.001155 0.008586 0.000000 0.003345 0.000000
# 4 0.000000 0.000000 0.000000 0.296740 0.000000 0.057071
# 5 0.007074 -0.005465 0.003345 0.000000 0.046270 0.000000
# 6 0.000000 0.000000 0.000000 0.057071 0.000000 0.033966
#
#
# Mechanical properties :
#
#
# Convention : Reuss Voigt Hill
#
# Bulk Modulus (GPa) = 37.53760 55.57422 46.55591
# Shear Modulus (GPa) = 11.04287 31.10655 21.07471
#
# Velocity S-wave (km/s) = 2.13133 3.57714 2.94436
# Velocity P-wave (km/s) = 4.63661 6.31840 5.54168
#
# Compressibility (1/GPa) = 0.02663995
#
# Stress axis : x y z
#
# Youngs Moduli (GPa) = 91.03121 36.74935 116.47525
#
# Poissons Ratio (x) = 0.33768 0.23729
# Poissons Ratio (y) = 0.83646 -0.13451
# Poissons Ratio (z) = 0.18545 -0.04244
#
# Static dielectric constant tensor:
#      x y z
#    x 1.980890 0.000000 0.035560 
#    y 0.000000 2.078830 0.000000 
#    z 0.035560 0.000000 1.924630 
# 
# From -- ./inp_files/67886.got.cif
#   From: 2010.05.17/outbox.cif.g08.bks.cpg/sg5_34_cif.got.tgz:67886.got - 2010.06.03 18:56:24.
