data_PCOD9126030
_publ_section_title
;
Structure prediction by ZEFSAII (Michael W. Deem and Ramdas Pophale) SiO2 
 PCOD9126030
Probable space group: C 2
;
_chemical_formula_sum "Si O2"
_cell_formula_units_Z 30
_cell_length_a 5.772697
_cell_length_b 15.090837
_cell_length_c 14.821515
_cell_angle_alpha 90.000000
_cell_angle_beta 76.801276
_cell_angle_gamma 90.000000
_cell_volume 1257.066091
_symmetry_space_group_name_H-M "C 2"
_symmetry_group_IT_number 5
_symmetry_cell_setting 'monoclinic'
loop_
_space_group_symop_operation_xyz
x,y,z
-x,y,-z
1/2+x,1/2+y,z
1/2-x,1/2+y,-z
loop_
_atom_site_type_symbol
_atom_site_label
_atom_site_fract_x
_atom_site_fract_y
_atom_site_fract_z
Si Si1 0.064460 0.426250 0.396096
Si Si2 0.137535 0.082997 0.568075
Si Si3 0.063329 0.362000 0.763783
Si Si4 0.655189 0.669314 0.250677
Si Si5 0.774772 0.153602 0.956382
Si Si6 0.484976 0.299597 0.303230
Si Si7 0.000000 0.728454 0.500000
Si Si8 0.273899 0.870297 0.957116
O O1 0.159435 0.523053 0.407058
O O2 0.270323 0.367226 0.334716
O O3 0.000000 0.388107 0.500000
O O4 0.884651 0.420778 0.329428
O O5 0.267004 0.166822 0.510868
O O6 0.000000 0.033242 0.500000
O O7 0.963549 0.111425 0.662277
O O8 0.325562 0.345816 0.779251
O O9 0.999605 0.259619 0.745578
O O10 0.867693 0.396903 0.849290
O O11 0.671922 0.626718 0.151471
O O12 0.904420 0.708182 0.264422
O O13 0.770902 0.261999 0.958716
O O14 0.500000 0.125517 0.000000
O O15 0.000000 0.127141 0.000000
O O16 0.545408 0.279242 0.402673
O O17 0.500000 0.896945 0.000000
O O18 0.000000 0.898890 0.000000
#
# Coordination Sequence:
#
# PCOD9126030 Si02
#       8
#     4   4   4   4   4   4   2   4
#     4  11  26  40  59  89 127 170 218 262 326 394
#     4  12  25  42  58  92 127 172 217 263 325 394
#     4  10  22  38  62  92 124 167 210 267 331 391
#     4  10  22  37  62  93 125 165 217 267 330 389
#     4   9  19  33  58  93 130 163 208 270 337 394
#     4  11  23  37  64  91 128 166 216 276 330 392
#     4  12  22  38  62  86 126 166 214 266 320 384
#     4   9  19  33  58  92 129 161 207 271 333 391
#
# _framework density 23.865095
#
# number of rings (size 3 to 8) (size 9 to 14) (size 15 to 20)
#    0.000    1.600    3.333    0.800   15.867    0.000 
#    0.000    0.000    0.000    0.800    0.000    0.000 
#    0.000    0.000    0.000    0.000    0.000    0.000 
#
# Total GULP energy -83705.819042 kJ/mol
# GULP energy per Si atom -5580.387936 kJ/mol
# Density = 2.381078 g / cm^3
# Si number density = 23.865095 Si / 1000 Ang^3
#
#
#
# Elastic Constant Matrix: (Units=GPa)
#
#
# Indices 1 2 3 4 5 6 
#
# 1 112.1692 9.0567 76.7149 0.0000 -15.0116 0.0000
# 2 9.0567 28.4554 20.2777 0.0000 -4.2052 0.0000
# 3 76.7149 20.2777 189.0967 0.0000 -9.9723 0.0000
# 4 0.0000 0.0000 0.0000 5.9906 0.0000 -0.4661
# 5 -15.0116 -4.2052 -9.9723 0.0000 41.9883 0.0000
# 6 0.0000 0.0000 0.0000 -0.4661 0.0000 17.4380
#
#
#
# Elastic Compliance Matrix: (Units=1/GPa)
#
#
# Indices 1 2 3 4 5 6 
#
# 1 0.012797 0.000000 -0.005013 0.000000 0.003384 0.000000
# 2 0.000000 0.038397 -0.003964 0.000000 0.002904 0.000000
# 3 -0.005013 -0.003964 0.007728 0.000000 -0.000354 0.000000
# 4 0.000000 0.000000 0.000000 0.167275 0.000000 0.004472
# 5 0.003384 0.002904 -0.000354 0.000000 0.025233 0.000000
# 6 0.000000 0.000000 0.000000 0.004472 0.000000 0.057466
#
#
# Mechanical properties :
#
#
# Convention : Reuss Voigt Hill
#
# Bulk Modulus (GPa) = 24.40995 60.20220 42.30608
# Shear Modulus (GPa) = 14.68402 27.99485 21.33943
#
# Velocity S-wave (km/s) = 2.48320 3.42869 2.99351
# Velocity P-wave (km/s) = 4.29793 6.39964 5.45104
#
# Compressibility (1/GPa) = 0.04096690
#
# Stress axis : x y z
#
# Youngs Moduli (GPa) = 78.14633 26.04375 129.39230
#
# Poissons Ratio (x) = 0.00001 0.64863
# Poissons Ratio (y) = 0.00003 0.51293
# Poissons Ratio (z) = 0.39174 0.10324
#
# Static dielectric constant tensor:
#      x y z
#    x 2.450850 0.000000 0.257710 
#    y 0.000000 1.876810 0.000000 
#    z 0.257710 0.000000 2.062710 
# 
# From -- ./inp_files/49327.got.cif
#   From: 2010.05.17/outbox.cif.g08.bks.cpg/sg5_25_cif.got.tgz:49327.got - 2010.06.03 18:56:24.
