data_PCOD9126059
_publ_section_title
;
Structure prediction by ZEFSAII (Michael W. Deem and Ramdas Pophale) SiO2 
 PCOD9126059
Probable space group: C 2
;
_chemical_formula_sum "Si O2"
_cell_formula_units_Z 30
_cell_length_a 11.914515
_cell_length_b 19.388773
_cell_length_c 8.533311
_cell_angle_alpha 90.000000
_cell_angle_beta 50.591204
_cell_angle_gamma 90.000000
_cell_volume 1523.067939
_symmetry_space_group_name_H-M "C 2"
_symmetry_group_IT_number 5
_symmetry_cell_setting 'monoclinic'
loop_
_space_group_symop_operation_xyz
x,y,z
-x,y,-z
1/2+x,1/2+y,z
1/2-x,1/2+y,-z
loop_
_atom_site_type_symbol
_atom_site_label
_atom_site_fract_x
_atom_site_fract_y
_atom_site_fract_z
Si Si1 0.580453 0.514500 0.688411
Si Si2 0.238489 0.018462 0.872314
Si Si3 0.059919 0.711322 0.613204
Si Si4 0.000000 0.270455 0.500000
Si Si5 0.123131 0.624771 0.012527
Si Si6 0.050372 0.861367 0.709703
Si Si7 0.743570 0.364212 0.855616
Si Si8 0.676102 0.649566 0.449933
O O1 0.698416 0.525866 0.723804
O O2 0.586591 0.437341 0.611078
O O3 0.602266 0.577678 0.553930
O O4 0.420868 0.518000 0.906273
O O5 0.302046 0.941582 0.829586
O O6 0.332849 0.073421 0.885932
O O7 0.000000 0.690085 0.500000
O O8 0.095216 0.792456 0.579995
O O9 0.194351 0.665015 0.545309
O O10 0.942561 0.693639 0.851696
O O11 0.878287 0.314518 0.699292
O O12 0.922672 0.216926 0.451885
O O13 0.256991 0.644261 0.783207
O O14 0.000000 0.596752 0.000000
O O15 0.142814 0.861703 0.789036
O O16 0.878259 0.853569 0.901363
#
# Coordination Sequence:
#
# PCOD9126059 Si02
#       8
#     4   4   4   2   4   4   4   4
#     4   9  19  36  63  87 113 151 201 250 293 354
#     4   9  18  39  59  86 114 156 198 245 295 351
#     4  11  22  38  59  86 117 163 205 247 296 362
#     4  12  20  34  58  94 118 150 196 250 296 356
#     4  10  22  38  57  85 122 160 195 247 304 359
#     4   9  18  39  60  83 118 160 203 238 292 362
#     4   9  19  35  63  84 117 160 201 238 293 361
#     4  11  22  36  59  90 121 152 199 255 305 353
#
# _framework density 19.697087
#
# number of rings (size 3 to 8) (size 9 to 14) (size 15 to 20)
#    0.000    2.133    1.333    4.000    3.733    0.000 
#   16.800    0.000    0.000    0.000    0.000    0.000 
#    0.000    0.000    0.000    0.000    0.000    0.000 
#
# Total GULP energy -83596.345530 kJ/mol
# GULP energy per Si atom -5573.089702 kJ/mol
# Density = 1.965226 g / cm^3
# Si number density = 19.697087 Si / 1000 Ang^3
#
#
#
# Elastic Constant Matrix: (Units=GPa)
#
#
# Indices 1 2 3 4 5 6 
#
# 1 80.2423 50.8359 23.3047 0.0000 8.2980 0.0000
# 2 50.8359 159.9301 49.1962 0.0000 -12.7003 0.0000
# 3 23.3047 49.1962 53.7397 0.0000 -7.9738 0.0000
# 4 0.0000 0.0000 0.0000 24.3934 0.0000 -0.0622
# 5 8.2980 -12.7003 -7.9738 0.0000 24.7385 0.0000
# 6 0.0000 0.0000 0.0000 -0.0622 0.0000 12.4700
#
#
#
# Elastic Compliance Matrix: (Units=1/GPa)
#
#
# Indices 1 2 3 4 5 6 
#
# 1 0.018133 -0.005137 -0.004679 0.000000 -0.010227 0.000000
# 2 -0.005137 0.010254 -0.006430 0.000000 0.004915 0.000000
# 3 -0.004679 -0.006430 0.027586 0.000000 0.007160 0.000000
# 4 0.000000 0.000000 0.000000 0.040995 0.000000 0.000204
# 5 -0.010227 0.004915 0.007160 0.000000 0.048684 0.000000
# 6 0.000000 0.000000 0.000000 0.000204 0.000000 0.080193
#
#
# Mechanical properties :
#
#
# Convention : Reuss Voigt Hill
#
# Bulk Modulus (GPa) = 42.58604 60.06506 51.32555
# Shear Modulus (GPa) = 18.78546 23.69208 21.23877
#
# Velocity S-wave (km/s) = 3.09158 3.47193 3.28726
# Velocity P-wave (km/s) = 5.86611 6.82884 6.36570
#
# Compressibility (1/GPa) = 0.02348187
#
# Stress axis : x y z
#
# Youngs Moduli (GPa) = 55.14799 97.52549 36.25045
#
# Poissons Ratio (x) = 0.50097 0.16960
# Poissons Ratio (y) = 0.28328 0.23309
# Poissons Ratio (z) = 0.25802 0.62709
#
# Static dielectric constant tensor:
#      x y z
#    x 1.738120 0.000000 0.003300 
#    y 0.000000 1.702930 0.000000 
#    z 0.003300 0.000000 1.781860 
# 
# From -- ./inp_files/21460.got.cif
#   From: 2010.05.17/outbox.cif.g08.bks.cpg/sg5_11_cif.got.tgz:21460.got - 2010.06.03 18:56:24.
