data_PCOD9126939
_publ_section_title
;
Structure prediction by ZEFSAII (Michael W. Deem and Ramdas Pophale) SiO2 
 PCOD9126939
Probable space group: C 2
;
_chemical_formula_sum "Si O2"
_cell_formula_units_Z 24
_cell_length_a 11.476560
_cell_length_b 11.386929
_cell_length_c 9.195508
_cell_angle_alpha 90.000000
_cell_angle_beta 112.344299
_cell_angle_gamma 90.000000
_cell_volume 1111.466536
_symmetry_space_group_name_H-M "C 2"
_symmetry_group_IT_number 5
_symmetry_cell_setting 'monoclinic'
loop_
_space_group_symop_operation_xyz
x,y,z
-x,y,-z
1/2+x,1/2+y,z
1/2-x,1/2+y,-z
loop_
_atom_site_type_symbol
_atom_site_label
_atom_site_fract_x
_atom_site_fract_y
_atom_site_fract_z
Si Si1 0.763428 0.640500 0.310010
Si Si2 0.860369 0.186858 0.456392
Si Si3 0.122572 0.983805 0.769073
Si Si4 0.500000 0.461583 0.000000
Si Si5 0.741847 0.875187 0.771137
Si Si6 0.853685 0.320052 0.968746
Si Si7 0.500000 0.300992 0.500000
O O1 0.665016 0.638832 0.396017
O O2 0.798255 0.508651 0.280858
O O3 0.700656 0.708108 0.144521
O O4 0.880835 0.714246 0.428030
O O5 0.769660 0.293454 0.373571
O O6 0.000000 0.235285 0.500000
O O7 0.849245 0.082518 0.335445
O O8 0.255477 0.922242 0.872296
O O9 0.028170 0.889608 0.648191
O O10 0.056172 0.027066 0.886133
O O11 0.615119 0.382862 0.108131
O O12 0.662840 0.818047 0.865223
O O13 0.000000 0.339434 0.000000
#
# Coordination Sequence:
#
# PCOD9126939 Si02
#       7
#     4   4   4   2   4   4   2
#     4  11  26  42  71  94 135 175 216 276 324 388
#     4  12  25  42  69  99 132 169 223 271 332 385
#     4  10  22  42  71  95 128 176 218 272 324 391
#     4  10  22  44  66  90 132 170 226 260 318 394
#     4  11  26  41  69 100 129 174 222 268 332 385
#     4  10  24  45  66  95 133 171 221 270 327 387
#     4  10  22  46  66  96 130 174 222 268 326 388
#
# _framework density 21.593091999999999
#
# number of rings (size 3 to 8) (size 9 to 14) (size 15 to 20)
#    0.000    1.333    0.833    3.000   11.667    1.333 
#    1.500    0.000    0.000    0.000    0.000    0.000 
#    0.000    0.000    0.000    0.000    0.000    0.000 
#
# Total GULP energy -67057.124819 kJ/mol
# GULP energy per Si atom -5588.093735 kJ/mol
# Density = 2.154395 g / cm^3
# Si number density = 21.593092 Si / 1000 Ang^3
#
#
#
# Elastic Constant Matrix: (Units=GPa)
#
#
# Indices 1 2 3 4 5 6 
#
# 1 89.9121 35.2061 42.9656 0.0000 -1.8052 0.0000
# 2 35.2061 117.4523 59.6210 0.0000 -8.4541 0.0000
# 3 42.9656 59.6210 109.4410 0.0000 -4.4421 0.0000
# 4 0.0000 0.0000 0.0000 52.3822 0.0000 3.1324
# 5 -1.8052 -8.4541 -4.4421 0.0000 52.1522 0.0000
# 6 0.0000 0.0000 0.0000 3.1324 0.0000 17.6900
#
#
#
# Elastic Compliance Matrix: (Units=1/GPa)
#
#
# Indices 1 2 3 4 5 6 
#
# 1 0.014007 -0.001960 -0.004440 0.000000 -0.000211 0.000000
# 2 -0.001960 0.012141 -0.005787 0.000000 0.001407 0.000000
# 3 -0.004440 -0.005787 0.014037 0.000000 0.000104 0.000000
# 4 0.000000 0.000000 0.000000 0.019295 0.000000 -0.003417
# 5 -0.000211 0.001407 0.000104 0.000000 0.019404 0.000000
# 6 0.000000 0.000000 0.000000 -0.003417 0.000000 0.057134
#
#
# Mechanical properties :
#
#
# Convention : Reuss Voigt Hill
#
# Bulk Modulus (GPa) = 63.24864 65.82123 64.53493
# Shear Modulus (GPa) = 30.18184 36.37905 33.28044
#
# Velocity S-wave (km/s) = 3.74271 4.10903 3.93014
# Velocity P-wave (km/s) = 6.93051 7.28429 7.10960
#
# Compressibility (1/GPa) = 0.01581062
#
# Stress axis : x y z
#
# Youngs Moduli (GPa) = 71.39393 82.36775 71.23833
#
# Poissons Ratio (x) = 0.16144 0.31628
# Poissons Ratio (y) = 0.13993 0.41228
# Poissons Ratio (z) = 0.31697 0.47669
#
# Static dielectric constant tensor:
#      x y z
#    x 1.788640 0.000000 -0.006520 
#    y 0.000000 1.760140 0.000000 
#    z -0.006520 0.000000 1.822340 
# 
# From -- ./inp_files/19311.got.cif
#   From: 2010.05.17/outbox.cif.g08.bks.cpg/sg5_10_cif.got.tgz:19311.got - 2010.06.03 18:56:24.
