data_PCOD9126582
_publ_section_title
;
Structure prediction by ZEFSAII (Michael W. Deem and Ramdas Pophale) SiO2 
 PCOD9126582
Probable space group: C 2
;
_chemical_formula_sum "Si O2"
_cell_formula_units_Z 28
_cell_length_a 20.730753
_cell_length_b 12.229403
_cell_length_c 10.262383
_cell_angle_alpha 90.000000
_cell_angle_beta 149.673053
_cell_angle_gamma 90.000000
_cell_volume 1313.720128
_symmetry_space_group_name_H-M "C 2"
_symmetry_group_IT_number 5
_symmetry_cell_setting 'monoclinic'
loop_
_space_group_symop_operation_xyz
x,y,z
-x,y,-z
1/2+x,1/2+y,z
1/2-x,1/2+y,-z
loop_
_atom_site_type_symbol
_atom_site_label
_atom_site_fract_x
_atom_site_fract_y
_atom_site_fract_z
Si Si1 0.941094 0.568310 0.021752
Si Si2 0.889090 0.692319 0.196300
Si Si3 0.171157 0.984608 0.449980
Si Si4 0.022979 0.216651 0.185062
Si Si5 0.328694 0.922454 0.487746
Si Si6 0.473859 0.412275 0.302851
Si Si7 0.300443 0.601802 0.927811
O O1 0.927132 0.625174 0.136301
O O2 0.048251 0.477432 0.231066
O O3 0.803138 0.520813 0.746570
O O4 0.000000 0.634022 0.000000
O O5 0.875243 0.813682 0.113325
O O6 0.770782 0.650582 0.072386
O O7 0.000000 0.688336 0.500000
O O8 0.093154 0.098009 0.291062
O O9 0.210356 0.926519 0.383191
O O10 0.091891 0.906795 0.409421
O O11 0.115692 0.298215 0.430319
O O12 0.000000 0.261671 0.000000
O O13 0.878684 0.194914 0.986512
O O14 0.285962 0.013317 0.303913
O O15 0.500000 0.406674 0.500000
O O16 0.414099 0.528074 0.176551
#
# Coordination Sequence:
#
# PCOD9126582 Si02
#       7
#     4   4   4   4   4   4   4
#     4  10  22  41  64 102 133 171 232 287 343 428
#     4  11  23  42  67  93 135 181 223 289 356 412
#     4  10  22  41  66  97 142 170 242 288 341 438
#     4  11  23  41  69 101 144 191 229 294 365 410
#     4  11  23  41  69 103 136 188 227 297 353 415
#     4  10  24  42  65  93 132 190 226 290 365 408
#     4  11  24  45  66 102 144 176 246 293 346 439
#
# _framework density 21.31352
#
# number of rings (size 3 to 8) (size 9 to 14) (size 15 to 20)
#    0.000    1.429    2.857    2.143    2.000    8.000 
#    0.000    0.000    0.000    0.000    0.000    0.000 
#    0.000    0.000    0.000    0.000    0.000    0.000 
#
# Total GULP energy -77955.437809 kJ/mol
# GULP energy per Si atom -5568.245558 kJ/mol
# Density = 2.126501 g / cm^3
# Si number density = 21.313520 Si / 1000 Ang^3
#
#
#
# Elastic Constant Matrix: (Units=GPa)
#
#
# Indices 1 2 3 4 5 6 
#
# 1 173.3461 56.8975 23.7432 0.0000 21.6505 0.0000
# 2 56.8975 73.6592 7.4809 0.0000 10.0048 0.0000
# 3 23.7432 7.4809 36.7612 0.0000 16.4082 0.0000
# 4 0.0000 0.0000 0.0000 25.2457 0.0000 -0.0101
# 5 21.6505 10.0048 16.4082 0.0000 26.3729 0.0000
# 6 0.0000 0.0000 0.0000 -0.0101 0.0000 -40.0824
#
#
#
# Elastic Compliance Matrix: (Units=1/GPa)
#
#
# Indices 1 2 3 4 5 6 
#
# 1 0.008452 -0.005836 -0.002994 0.000000 -0.002862 0.000000
# 2 -0.005836 0.018355 0.001389 0.000000 -0.003037 0.000000
# 3 -0.002994 0.001389 0.038754 0.000000 -0.022180 0.000000
# 4 0.000000 0.000000 0.000000 0.039611 0.000000 -0.000010
# 5 -0.002862 -0.003037 -0.022180 0.000000 0.055219 0.000000
# 6 0.000000 0.000000 0.000000 -0.000010 0.000000 -0.024949
#
#
# Mechanical properties :
#
#
# Convention : Reuss Voigt Hill
#
# Bulk Modulus (GPa) = 19.73162 51.11216 35.42189
# Shear Modulus (GPa) = 29.90161 15.35025 22.62593
#
# Velocity S-wave (km/s) = 3.74965 2.68659 3.26172
# Velocity P-wave (km/s) = 5.29381 5.80145 5.55343
#
# Compressibility (1/GPa) = 0.05068008
#
# Stress axis : x y z
#
# Youngs Moduli (GPa) = 118.31826 54.48051 25.80412
#
# Poissons Ratio (x) = 0.31793 0.07725
# Poissons Ratio (y) = 0.69047 -0.03585
# Poissons Ratio (z) = 0.35423 -0.07569
#
# Static dielectric constant tensor:
#      x y z
#    x 2.405690 0.000000 -0.017330 
#    y 0.000000 1.900290 0.000000 
#    z -0.017330 0.000000 1.791450 
# 
# From -- ./inp_files/46426.got.cif
#   From: 2010.05.17/outbox.cif.g08.bks.cpg/sg5_24_cif.got.tgz:46426.got - 2010.06.03 18:56:24.
