data_PCOD9126934
_publ_section_title
;
Structure prediction by ZEFSAII (Michael W. Deem and Ramdas Pophale) SiO2 
 PCOD9126934
Probable space group: C 2
;
_chemical_formula_sum "Si O2"
_cell_formula_units_Z 18
_cell_length_a 6.916829
_cell_length_b 20.190657
_cell_length_c 7.613236
_cell_angle_alpha 90.000000
_cell_angle_beta 40.517968
_cell_angle_gamma 90.000000
_cell_volume 690.765457
_symmetry_space_group_name_H-M "C 2"
_symmetry_group_IT_number 5
_symmetry_cell_setting 'monoclinic'
loop_
_space_group_symop_operation_xyz
x,y,z
-x,y,-z
1/2+x,1/2+y,z
1/2-x,1/2+y,-z
loop_
_atom_site_type_symbol
_atom_site_label
_atom_site_fract_x
_atom_site_fract_y
_atom_site_fract_z
Si Si1 0.161813 0.811220 0.077062
Si Si2 0.379546 0.592953 0.899800
Si Si3 0.842799 0.228061 0.420284
Si Si4 0.135314 0.526069 0.605146
Si Si5 0.500000 0.923192 0.000000
O O1 0.215108 0.877681 0.147522
O O2 0.985863 0.753837 0.305660
O O3 0.487438 0.785341 0.800915
O O4 0.000000 0.821563 0.000000
O O5 0.557621 0.660856 0.744190
O O6 0.519491 0.542561 0.665029
O O7 0.500000 0.567166 0.000000
O O8 0.028046 0.588731 0.179981
O O9 0.000000 0.221548 0.500000
O O10 0.000000 0.517830 0.500000
O O11 0.061094 0.465637 0.782770
#
# Coordination Sequence:
#
# PCOD9126934 Si02
#       5
#     4   4   4   4   2
#     4  10  25  46  68 109 146 192 244 308 361 433
#     4  10  22  43  70 103 146 185 236 310 368 430
#     4  10  22  42  71 101 147 187 240 308 369 430
#     4  10  25  44  69 108 145 189 244 307 363 430
#     4  12  28  48  80 106 152 206 252 290 374 466
#
# _framework density 26.058049
#
# number of rings (size 3 to 8) (size 9 to 14) (size 15 to 20)
#    0.000    1.778    0.000    1.333    4.667    9.778 
#    0.000    0.000    0.000    0.000    0.000    0.000 
#    0.000    0.000    0.000    0.000    0.000    0.000 
#
# Total GULP energy -50323.326509 kJ/mol
# GULP energy per Si atom -5591.480723 kJ/mol
# Density = 2.599874 g / cm^3
# Si number density = 26.058049 Si / 1000 Ang^3
#
#
#
# Elastic Constant Matrix: (Units=GPa)
#
#
# Indices 1 2 3 4 5 6 
#
# 1 101.5319 32.6889 55.5101 0.0000 26.0021 0.0000
# 2 32.6889 121.9315 60.6292 0.0000 15.8711 0.0000
# 3 55.5101 60.6292 190.0995 0.0000 11.6136 0.0000
# 4 0.0000 0.0000 0.0000 42.9170 0.0000 9.0688
# 5 26.0021 15.8711 11.6136 0.0000 59.1563 0.0000
# 6 0.0000 0.0000 0.0000 9.0688 0.0000 39.9849
#
#
#
# Elastic Compliance Matrix: (Units=1/GPa)
#
#
# Indices 1 2 3 4 5 6 
#
# 1 0.013242 -0.001360 -0.003137 0.000000 -0.004840 0.000000
# 2 -0.001360 0.010134 -0.002738 0.000000 -0.001583 0.000000
# 3 -0.003137 -0.002738 0.007005 0.000000 0.000738 0.000000
# 4 0.000000 0.000000 0.000000 0.024474 0.000000 -0.005551
# 5 -0.004840 -0.001583 0.000738 0.000000 0.019311 0.000000
# 6 0.000000 0.000000 0.000000 -0.005551 0.000000 0.026268
#
#
# Mechanical properties :
#
#
# Convention : Reuss Voigt Hill
#
# Bulk Modulus (GPa) = 62.85715 79.02438 70.94077
# Shear Modulus (GPa) = 41.59494 46.06062 43.82778
#
# Velocity S-wave (km/s) = 3.99963 4.20886 4.10558
# Velocity P-wave (km/s) = 6.74565 7.34925 7.05391
#
# Compressibility (1/GPa) = 0.01590909
#
# Stress axis : x y z
#
# Youngs Moduli (GPa) = 75.51959 98.68247 142.76296
#
# Poissons Ratio (x) = 0.13422 0.44787
# Poissons Ratio (y) = 0.10272 0.39089
# Poissons Ratio (z) = 0.23692 0.27020
#
# Static dielectric constant tensor:
#      x y z
#    x 2.094400 0.000000 -0.030250 
#    y 0.000000 2.111190 0.000000 
#    z -0.030250 0.000000 2.063470 
# 
# From -- ./inp_files/2310.got.cif
#   From: 2010.05.17/outbox.cif.g08.bks.cpg/sg5_2_cif.got.tgz:2310.got - 2010.06.03 18:56:24.
