data_PCOD9126718
_publ_section_title
;
Structure prediction by ZEFSAII (Michael W. Deem and Ramdas Pophale) SiO2 
 PCOD9126718
Probable space group: C 2
;
_chemical_formula_sum "Si O2"
_cell_formula_units_Z 20
_cell_length_a 10.764701
_cell_length_b 15.446882
_cell_length_c 8.472335
_cell_angle_alpha 90.000000
_cell_angle_beta 145.410623
_cell_angle_gamma 90.000000
_cell_volume 799.756947
_symmetry_space_group_name_H-M "C 2"
_symmetry_group_IT_number 5
_symmetry_cell_setting 'monoclinic'
loop_
_space_group_symop_operation_xyz
x,y,z
-x,y,-z
1/2+x,1/2+y,z
1/2-x,1/2+y,-z
loop_
_atom_site_type_symbol
_atom_site_label
_atom_site_fract_x
_atom_site_fract_y
_atom_site_fract_z
Si Si1 0.652300 0.913460 0.298636
Si Si2 0.099441 0.250429 0.431543
Si Si3 0.500000 0.173530 0.000000
Si Si4 0.746981 0.977578 0.715762
Si Si5 0.000000 0.789839 0.500000
Si Si6 0.249300 0.140314 0.047752
O O1 0.533538 0.835706 0.268716
O O2 0.849631 0.856672 0.437268
O O3 0.725632 0.983394 0.503685
O O4 0.500000 0.946156 0.000000
O O5 0.000000 0.252200 0.500000
O O6 0.349953 0.234275 0.733269
O O7 0.000865 0.168780 0.238257
O O8 0.353903 0.125543 0.982015
O O9 0.500000 0.939835 0.500000
O O10 0.743700 0.060815 0.825325
O O11 0.000000 0.939810 0.000000
O O12 0.136767 0.723316 0.751466
#
# Coordination Sequence:
#
# PCOD9126718 Si02
#       6
#     4   4   2   4   2   4
#     4  12  27  48  80 120 166 224 282 345 422 515
#     4  10  22  41  77 116 153 202 284 351 406 494
#     4  10  22  42  74 120 152 196 276 352 412 482
#     4  12  32  54  82 115 177 228 273 348 442 495
#     4  12  24  44  84 116 156 218 292 338 410 498
#     4  11  24  47  80 121 156 219 279 355 416 502
#
# _framework density 25.007598000000002
#
# number of rings (size 3 to 8) (size 9 to 14) (size 15 to 20)
#    0.000    0.800    5.000    0.600    9.800    0.000 
#    1.800    0.000    0.000    0.000    0.000    0.000 
#    0.000    0.000    0.000    0.000    0.000    0.000 
#
# Total GULP energy -55770.230620 kJ/mol
# GULP energy per Si atom -5577.023062 kJ/mol
# Density = 2.495068 g / cm^3
# Si number density = 25.007598 Si / 1000 Ang^3
#
#
#
# Elastic Constant Matrix: (Units=GPa)
#
#
# Indices 1 2 3 4 5 6 
#
# 1 117.2887 47.5042 45.8016 0.0000 -21.7799 0.0000
# 2 47.5042 102.3683 42.5149 0.0000 -18.3639 0.0000
# 3 45.8016 42.5149 190.5449 0.0000 -14.8743 0.0000
# 4 0.0000 0.0000 0.0000 106.5964 0.0000 -26.6850
# 5 -21.7799 -18.3639 -14.8743 0.0000 52.2443 0.0000
# 6 0.0000 0.0000 0.0000 -26.6850 0.0000 34.8111
#
#
#
# Elastic Compliance Matrix: (Units=1/GPa)
#
#
# Indices 1 2 3 4 5 6 
#
# 1 0.011329 -0.004089 -0.001590 0.000000 0.002833 0.000000
# 2 -0.004089 0.012781 -0.001689 0.000000 0.002307 0.000000
# 3 -0.001590 -0.001689 0.006043 0.000000 0.000464 0.000000
# 4 0.000000 0.000000 0.000000 0.011609 0.000000 0.008899
# 5 0.002833 0.002307 0.000464 0.000000 0.021265 0.000000
# 6 0.000000 0.000000 0.000000 0.008899 0.000000 0.035548
#
#
# Mechanical properties :
#
#
# Convention : Reuss Voigt Hill
#
# Bulk Modulus (GPa) = 64.85557 75.76037 70.30797
# Shear Modulus (GPa) = 42.21195 57.02243 49.61719
#
# Velocity S-wave (km/s) = 4.11294 4.78033 4.45914
# Velocity P-wave (km/s) = 6.96747 7.79932 7.39510
#
# Compressibility (1/GPa) = 0.01541888
#
# Stress axis : x y z
#
# Youngs Moduli (GPa) = 88.27020 78.23898 165.47279
#
# Poissons Ratio (x) = 0.31990 0.26305
# Poissons Ratio (y) = 0.36091 0.27946
# Poissons Ratio (z) = 0.14032 0.13214
#
# Static dielectric constant tensor:
#      x y z
#    x 1.727890 0.000000 0.066080 
#    y 0.000000 1.931260 0.000000 
#    z 0.066080 0.000000 2.022150 
# 
# From -- ./inp_files/21507.got.cif
#   From: 2010.05.17/outbox.cif.g08.bks.cpg/sg5_11_cif.got.tgz:21507.got - 2010.06.03 18:56:24.
