data_PCOD9126403
_publ_section_title
;
Structure prediction by ZEFSAII (Michael W. Deem and Ramdas Pophale) SiO2 
 PCOD9126403
Probable space group: C 2
;
_chemical_formula_sum "Si O2"
_cell_formula_units_Z 28
_cell_length_a 12.296423
_cell_length_b 6.710842
_cell_length_c 19.474367
_cell_angle_alpha 90.000000
_cell_angle_beta 52.991871
_cell_angle_gamma 90.000000
_cell_volume 1283.279737
_symmetry_space_group_name_H-M "C 2"
_symmetry_group_IT_number 5
_symmetry_cell_setting 'monoclinic'
loop_
_space_group_symop_operation_xyz
x,y,z
-x,y,-z
1/2+x,1/2+y,z
1/2-x,1/2+y,-z
loop_
_atom_site_type_symbol
_atom_site_label
_atom_site_fract_x
_atom_site_fract_y
_atom_site_fract_z
Si Si1 0.098763 0.878210 0.598597
Si Si2 0.639310 0.153516 0.981175
Si Si3 0.650925 0.625994 0.295892
Si Si4 0.588092 0.912231 0.127533
Si Si5 0.650197 0.643321 0.447443
Si Si6 0.167670 0.348997 0.857404
Si Si7 0.404200 0.049460 0.727742
O O1 0.238451 0.809318 0.579506
O O2 0.005135 0.681470 0.643283
O O3 0.139103 0.973408 0.509990
O O4 0.997827 0.043245 0.670029
O O5 0.772497 0.286695 0.918979
O O6 0.655002 0.935471 0.938755
O O7 0.500000 0.237880 0.000000
O O8 0.617277 0.107030 0.069740
O O9 0.675099 0.549610 0.363619
O O10 0.769476 0.542291 0.204371
O O11 0.646256 0.861564 0.295599
O O12 0.472562 0.798811 0.127488
O O13 0.534664 0.968275 0.223555
O O14 0.500000 0.736429 0.500000
O O15 0.277645 0.180102 0.802307
#
# Coordination Sequence:
#
# PCOD9126403 Si02
#       7
#     4   4   4   4   4   4   4
#     4  10  24  43  66  95 130 166 218 269 324 399
#     4  10  22  40  64  97 141 172 220 273 315 389
#     4  10  22  45  64  96 131 165 217 276 322 390
#     4  11  22  40  67  96 136 179 219 269 327 381
#     4  10  23  45  64  93 130 166 214 271 325 389
#     4  10  22  43  63  97 132 167 222 271 316 392
#     4  11  23  42  70  96 128 178 220 266 336 384
#
# _framework density 21.819092999999999
#
# number of rings (size 3 to 8) (size 9 to 14) (size 15 to 20)
#    0.000    1.714    1.429    1.714    4.000    2.286 
#   12.857    0.000    0.000    0.000    0.000    0.000 
#    0.000    0.000    0.000    0.000    0.000    0.000 
#
# Total GULP energy -78112.151714 kJ/mol
# GULP energy per Si atom -5579.439408 kJ/mol
# Density = 2.176943 g / cm^3
# Si number density = 21.819093 Si / 1000 Ang^3
#
#
#
# Elastic Constant Matrix: (Units=GPa)
#
#
# Indices 1 2 3 4 5 6 
#
# 1 127.1770 32.6059 29.7159 0.0000 -17.0869 0.0000
# 2 32.6059 61.3509 6.2025 0.0000 -8.8528 0.0001
# 3 29.7159 6.2025 72.6194 0.0000 -0.9181 0.0000
# 4 0.0000 0.0000 0.0000 26.1652 0.0000 -5.2110
# 5 -17.0869 -8.8528 -0.9181 0.0000 31.4035 0.0000
# 6 0.0000 0.0001 0.0000 -5.2110 0.0000 23.0426
#
#
#
# Elastic Compliance Matrix: (Units=1/GPa)
#
#
# Indices 1 2 3 4 5 6 
#
# 1 0.010518 -0.004577 -0.003859 0.000000 0.004320 0.000000
# 2 -0.004577 0.019124 0.000276 0.000000 0.002909 0.000000
# 3 -0.003859 0.000276 0.015306 0.000000 -0.001574 0.000000
# 4 0.000000 0.000000 0.000000 0.040021 0.000000 0.009051
# 5 0.004320 0.002909 -0.001574 0.000000 0.034968 0.000000
# 6 0.000000 0.000000 0.000000 0.009051 0.000000 0.045445
#
#
# Mechanical properties :
#
#
# Convention : Reuss Voigt Hill
#
# Bulk Modulus (GPa) = 34.92854 44.24401 39.58627
# Shear Modulus (GPa) = 26.14460 28.96380 27.55420
#
# Velocity S-wave (km/s) = 3.46532 3.64737 3.55751
# Velocity P-wave (km/s) = 5.66165 6.16924 5.92088
#
# Compressibility (1/GPa) = 0.02862988
#
# Stress axis : x y z
#
# Youngs Moduli (GPa) = 95.07074 52.29065 65.33430
#
# Poissons Ratio (x) = 0.23932 0.25210
# Poissons Ratio (y) = 0.43511 -0.01804
# Poissons Ratio (z) = 0.36684 -0.01444
#
# Static dielectric constant tensor:
#      x y z
#    x 1.816470 0.000000 0.007020 
#    y 0.000000 1.776710 0.000000 
#    z 0.007020 0.000000 1.835290 
# 
# From -- ./inp_files/64934.got.cif
#   From: 2010.05.17/outbox.cif.g08.bks.cpg/sg5_33_cif.got.tgz:64934.got - 2010.06.03 18:56:24.
