data_PCOD9126301
_publ_section_title
;
Structure prediction by ZEFSAII (Michael W. Deem and Ramdas Pophale) SiO2 
 PCOD9126301
Probable space group: C 2
;
_chemical_formula_sum "Si O2"
_cell_formula_units_Z 24
_cell_length_a 19.409091
_cell_length_b 8.905831
_cell_length_c 7.797519
_cell_angle_alpha 90.000000
_cell_angle_beta 122.895781
_cell_angle_gamma 90.000000
_cell_volume 1131.721273
_symmetry_space_group_name_H-M "C 2"
_symmetry_group_IT_number 5
_symmetry_cell_setting 'monoclinic'
loop_
_space_group_symop_operation_xyz
x,y,z
-x,y,-z
1/2+x,1/2+y,z
1/2-x,1/2+y,-z
loop_
_atom_site_type_symbol
_atom_site_label
_atom_site_fract_x
_atom_site_fract_y
_atom_site_fract_z
Si Si1 0.286596 0.823820 0.973236
Si Si2 0.139133 0.066274 0.166974
Si Si3 0.442872 0.824442 0.769683
Si Si4 0.358315 0.250107 0.958377
Si Si5 0.558420 0.001160 0.718079
Si Si6 0.716426 0.011432 0.371584
O O1 0.332256 0.682689 0.943658
O O2 0.259124 0.925427 0.772381
O O3 0.211418 0.774958 0.989982
O O4 0.352197 0.921264 0.173579
O O5 0.078068 0.155583 0.209362
O O6 0.216160 0.028577 0.392450
O O7 0.107697 0.912318 0.044774
O O8 0.498235 0.863768 0.685769
O O9 0.359153 0.916471 0.655488
O O10 0.500000 0.883314 0.000000
O O11 0.315508 0.172516 0.736470
O O12 0.422935 0.129671 0.116730
O O13 0.500000 0.079883 0.500000
#
# Coordination Sequence:
#
# PCOD9126301 Si02
#       6
#     4   4   4   4   4   4
#     4  10  22  41  64  96 134 170 214 261 326 393
#     4  11  22  39  68  99 126 171 219 268 318 382
#     4  11  21  46  62  89 131 168 215 261 329 382
#     4  11  22  41  63 100 133 165 217 273 313 388
#     4  11  25  44  66  92 129 179 209 264 338 382
#     4  10  22  39  67  96 125 175 212 260 326 389
#
# _framework density 21.206634000000001
#
# number of rings (size 3 to 8) (size 9 to 14) (size 15 to 20)
#    0.000    1.333    5.000    4.000    7.000    0.000 
#    3.000    0.833    0.000    0.000    0.000    0.000 
#    0.000    0.000    0.000    0.000    0.000    0.000 
#
# Total GULP energy -66930.700621 kJ/mol
# GULP energy per Si atom -5577.558385 kJ/mol
# Density = 2.115837 g / cm^3
# Si number density = 21.206634 Si / 1000 Ang^3
#
#
#
# Elastic Constant Matrix: (Units=GPa)
#
#
# Indices 1 2 3 4 5 6 
#
# 1 57.5996 28.2311 12.7610 0.0000 3.6859 0.0000
# 2 28.2311 145.9007 16.5623 0.0000 4.2191 0.0000
# 3 12.7610 16.5623 118.3300 0.0000 20.3331 0.0000
# 4 0.0000 0.0000 0.0000 22.4758 0.0000 4.3517
# 5 3.6859 4.2191 20.3331 0.0000 22.0773 0.0000
# 6 0.0000 0.0000 0.0000 4.3517 0.0000 18.8470
#
#
#
# Elastic Compliance Matrix: (Units=1/GPa)
#
#
# Indices 1 2 3 4 5 6 
#
# 1 0.019505 -0.003580 -0.001379 0.000000 -0.001303 0.000000
# 2 -0.003580 0.007627 -0.000634 0.000000 -0.000276 0.000000
# 3 -0.001379 -0.000634 0.010250 0.000000 -0.009089 0.000000
# 4 0.000000 0.000000 0.000000 0.046574 0.000000 -0.010754
# 5 -0.001303 -0.000276 -0.009089 0.000000 0.053937 0.000000
# 6 0.000000 0.000000 0.000000 -0.010754 0.000000 0.055542
#
#
# Mechanical properties :
#
#
# Convention : Reuss Voigt Hill
#
# Bulk Modulus (GPa) = 38.17294 48.54876 43.36085
# Shear Modulus (GPa) = 23.43552 30.29842 26.86697
#
# Velocity S-wave (km/s) = 3.32792 3.78395 3.56323
# Velocity P-wave (km/s) = 5.72767 6.48336 6.11719
#
# Compressibility (1/GPa) = 0.02619657
#
# Stress axis : x y z
#
# Youngs Moduli (GPa) = 51.26993 131.11972 97.55949
#
# Poissons Ratio (x) = 0.46939 0.13449
# Poissons Ratio (y) = 0.18354 0.06185
# Poissons Ratio (z) = 0.07068 0.08313
#
# Static dielectric constant tensor:
#      x y z
#    x 1.794890 0.000000 0.000210 
#    y 0.000000 1.774980 0.000000 
#    z 0.000210 0.000000 1.850750 
# 
# From -- ./inp_files/28996.got.cif
#   From: 2010.05.17/outbox.cif.g08.bks.cpg/sg5_15_cif.got.tgz:28996.got - 2010.06.03 18:56:24.
