data_PCOD9126264
_publ_section_title
;
Structure prediction by ZEFSAII (Michael W. Deem and Ramdas Pophale) SiO2 
 PCOD9126264
Probable space group: C 2
;
_chemical_formula_sum "Si O2"
_cell_formula_units_Z 20
_cell_length_a 17.295092
_cell_length_b 4.982292
_cell_length_c 11.287492
_cell_angle_alpha 90.000000
_cell_angle_beta 125.161902
_cell_angle_gamma 90.000000
_cell_volume 795.155650
_symmetry_space_group_name_H-M "C 2"
_symmetry_group_IT_number 5
_symmetry_cell_setting 'monoclinic'
loop_
_space_group_symop_operation_xyz
x,y,z
-x,y,-z
1/2+x,1/2+y,z
1/2-x,1/2+y,-z
loop_
_atom_site_type_symbol
_atom_site_label
_atom_site_fract_x
_atom_site_fract_y
_atom_site_fract_z
Si Si1 0.232981 0.906090 0.772643
Si Si2 0.931467 0.408479 0.049417
Si Si3 0.209572 0.641062 0.415022
Si Si4 0.925807 0.612579 0.515660
Si Si5 0.434199 0.435204 0.212722
O O1 0.164558 0.696491 0.643162
O O2 0.162856 0.024912 0.808999
O O3 0.272261 0.106859 0.706729
O O4 0.329031 0.802998 0.914992
O O5 0.916732 0.668535 0.118875
O O6 0.971680 0.164798 0.161249
O O7 0.000000 0.471840 0.000000
O O8 0.287878 0.449562 0.545165
O O9 0.117957 0.515592 0.398759
O O10 0.000000 0.448826 0.500000
O O11 0.991617 0.854911 0.620182
#
# Coordination Sequence:
#
# PCOD9126264 Si02
#       5
#     4   4   4   4   4
#     4  10  23  43  68  94 128 171 214 261 316 379
#     4  12  26  44  66  95 130 169 212 263 320 380
#     4  10  22  39  63  96 128 164 210 262 314 370
#     4   9  21  42  67  96 129 168 214 263 315 375
#     4  11  25  44  65  95 130 168 212 263 319 378
#
# _framework density 25.15231
#
# number of rings (size 3 to 8) (size 9 to 14) (size 15 to 20)
#    0.000    1.600    0.000    3.000    0.000   17.600 
#    0.000    9.000    0.000    0.000    0.000    0.000 
#    0.000    0.000    0.000    0.000    0.000    0.000 
#
# Total GULP energy -55869.667676 kJ/mol
# GULP energy per Si atom -5586.966768 kJ/mol
# Density = 2.509506 g / cm^3
# Si number density = 25.152310 Si / 1000 Ang^3
#
#
#
# Elastic Constant Matrix: (Units=GPa)
#
#
# Indices 1 2 3 4 5 6 
#
# 1 185.6067 18.2524 43.0545 0.0000 -13.8712 0.0000
# 2 18.2524 90.3254 35.4751 0.0000 -7.0198 0.0000
# 3 43.0545 35.4751 131.8866 0.0000 14.3023 0.0000
# 4 0.0000 0.0000 0.0000 22.5154 0.0000 -8.3716
# 5 -13.8712 -7.0198 14.3023 0.0000 55.1817 0.0000
# 6 0.0000 0.0000 0.0000 -8.3716 0.0000 29.3457
#
#
#
# Elastic Compliance Matrix: (Units=1/GPa)
#
#
# Indices 1 2 3 4 5 6 
#
# 1 0.006059 -0.000225 -0.002140 0.000000 0.002049 0.000000
# 2 -0.000225 0.012734 -0.003623 0.000000 0.002503 0.000000
# 3 -0.002140 -0.003623 0.009635 0.000000 -0.003496 0.000000
# 4 0.000000 0.000000 0.000000 0.049684 0.000000 0.014174
# 5 0.002049 0.002503 -0.003496 0.000000 0.019862 0.000000
# 6 0.000000 0.000000 0.000000 0.014174 0.000000 0.038120
#
#
# Mechanical properties :
#
#
# Convention : Reuss Voigt Hill
#
# Bulk Modulus (GPa) = 60.78210 66.82031 63.80121
# Shear Modulus (GPa) = 32.56206 42.14434 37.35320
#
# Velocity S-wave (km/s) = 3.60195 4.09781 3.85785
# Velocity P-wave (km/s) = 6.44335 7.00095 6.72793
#
# Compressibility (1/GPa) = 0.01645221
#
# Stress axis : x y z
#
# Youngs Moduli (GPa) = 165.03404 78.52989 103.79338
#
# Poissons Ratio (x) = 0.01765 0.22210
# Poissons Ratio (y) = 0.03709 0.37607
# Poissons Ratio (z) = 0.35315 0.28453
#
# Static dielectric constant tensor:
#      x y z
#    x 2.070590 0.000000 0.010310 
#    y 0.000000 1.971860 0.000000 
#    z 0.010310 0.000000 2.039800 
# 
# From -- ./inp_files/43825.got.cif
#   From: 2010.05.17/outbox.cif.g08.bks.cpg/sg5_22_cif.got.tgz:43825.got - 2010.06.03 18:56:24.
