data_PCOD9126501
_publ_section_title
;
Structure prediction by ZEFSAII (Michael W. Deem and Ramdas Pophale) SiO2 
 PCOD9126501
Probable space group: C 2
;
_chemical_formula_sum "Si O2"
_cell_formula_units_Z 14
_cell_length_a 13.022647
_cell_length_b 6.255951
_cell_length_c 19.453235
_cell_angle_alpha 90.000000
_cell_angle_beta 19.499024
_cell_angle_gamma 90.000000
_cell_volume 529.003816
_symmetry_space_group_name_H-M "C 2"
_symmetry_group_IT_number 5
_symmetry_cell_setting 'monoclinic'
loop_
_space_group_symop_operation_xyz
x,y,z
-x,y,-z
1/2+x,1/2+y,z
1/2-x,1/2+y,-z
loop_
_atom_site_type_symbol
_atom_site_label
_atom_site_fract_x
_atom_site_fract_y
_atom_site_fract_z
Si Si1 0.500000 0.464810 0.000000
Si Si2 0.722158 0.445320 0.602166
Si Si3 0.906011 0.813240 0.665837
Si Si4 0.115004 0.719253 0.802461
O O1 0.267161 0.626317 0.183322
O O2 0.592141 0.308004 0.004522
O O3 0.566266 0.439951 0.626714
O O4 0.529510 0.332107 0.784559
O O5 0.836799 0.687705 0.540099
O O6 0.035452 0.305434 0.405236
O O7 0.674078 0.967427 0.771821
#
# Coordination Sequence:
#
# PCOD9126501 Si02
#       4
#     2   4   4   4
#     4  10  24  42  58 102 136 168 218 264 334 386
#     4  10  22  40  70 100 122 176 225 263 331 381
#     4  11  21  45  67  96 138 168 217 281 313 399
#     4  10  22  42  65 100 130 172 216 270 325 389
#
# _framework density 26.464835999999998
#
# number of rings (size 3 to 8) (size 9 to 14) (size 15 to 20)
#    0.000    1.714    2.857    0.857    0.000    9.143 
#   10.286    0.000    0.000    0.000    0.000    0.000 
#    0.000    0.000    0.000    0.000    0.000    0.000 
#
# Total GULP energy -39107.812514 kJ/mol
# GULP energy per Si atom -5586.830359 kJ/mol
# Density = 2.640460 g / cm^3
# Si number density = 26.464836 Si / 1000 Ang^3
#
#
#
# Elastic Constant Matrix: (Units=GPa)
#
#
# Indices 1 2 3 4 5 6 
#
# 1 135.1724 72.7792 19.6772 -0.0091 26.2032 0.0123
# 2 72.7792 169.8093 50.7881 -0.0282 28.7591 -0.0018
# 3 19.6772 50.7881 78.6496 -0.1026 11.9959 0.0008
# 4 -0.0091 -0.0282 -0.1026 36.5615 -0.0014 16.6863
# 5 26.2032 28.7591 11.9959 -0.0014 38.8344 -0.0125
# 6 0.0123 -0.0018 0.0008 16.6863 -0.0125 30.0087
#
#
#
# Elastic Compliance Matrix: (Units=1/GPa)
#
#
# Indices 1 2 3 4 5 6 
#
# 1 0.010192 -0.003821 0.000561 0.000005 -0.004220 -0.000009
# 2 -0.003821 0.009428 -0.004681 -0.000010 -0.002957 0.000007
# 3 0.000561 -0.004681 0.015874 0.000056 -0.001816 -0.000033
# 4 0.000005 -0.000010 0.000056 0.036653 -0.000019 -0.020381
# 5 -0.004220 -0.002957 -0.001816 -0.000019 0.031349 0.000025
# 6 -0.000009 0.000007 -0.000033 -0.020381 0.000025 0.044656
#
#
# Mechanical properties :
#
#
# Convention : Reuss Voigt Hill
#
# Bulk Modulus (GPa) = 50.98935 74.45784 62.72360
# Shear Modulus (GPa) = 29.31346 37.10670 33.21008
#
# Velocity S-wave (km/s) = 3.33173 3.74854 3.54627
# Velocity P-wave (km/s) = 5.84031 6.85063 6.36555
#
# Compressibility (1/GPa) = 0.01961194
#
# Stress axis : x y z
#
# Youngs Moduli (GPa) = 98.11804 106.07178 62.99687
#
# Poissons Ratio (x) = 0.40533 -0.03537
# Poissons Ratio (y) = 0.37494 0.29487
# Poissons Ratio (z) = -0.05509 0.49650
#
# Static dielectric constant tensor:
#      x y z
#    x 2.086520 0.000010 0.068100 
#    y 0.000010 2.167820 0.000010 
#    z 0.068100 0.000010 2.249640 
# 
# From -- ./inp_files/22263.got.cif
#   From: 2010.05.17/outbox.cif.g08.bks.cpg/sg5_12_cif.got.tgz:22263.got - 2010.06.03 18:56:24.
