data_PCOD9126455
_publ_section_title
;
Structure prediction by ZEFSAII (Michael W. Deem and Ramdas Pophale) SiO2 
 PCOD9126455
Probable space group: C 2
;
_chemical_formula_sum "Si O2"
_cell_formula_units_Z 32
_cell_length_a 19.568222
_cell_length_b 11.624433
_cell_length_c 8.700314
_cell_angle_alpha 90.000000
_cell_angle_beta 46.475848
_cell_angle_gamma 90.000000
_cell_volume 1434.982088
_symmetry_space_group_name_H-M "C 2"
_symmetry_group_IT_number 5
_symmetry_cell_setting 'monoclinic'
loop_
_space_group_symop_operation_xyz
x,y,z
-x,y,-z
1/2+x,1/2+y,z
1/2-x,1/2+y,-z
loop_
_atom_site_type_symbol
_atom_site_label
_atom_site_fract_x
_atom_site_fract_y
_atom_site_fract_z
Si Si1 0.738034 0.122770 0.355246
Si Si2 0.606934 0.774637 0.374220
Si Si3 0.600421 0.519690 0.305438
Si Si4 0.602018 0.021525 0.806824
Si Si5 0.795381 0.317895 0.465834
Si Si6 0.078498 0.002267 0.998173
Si Si7 0.226332 0.799725 0.093911
Si Si8 0.876823 0.756794 0.061258
O O1 0.641466 0.082297 0.587727
O O2 0.804791 0.198420 0.362842
O O3 0.719617 0.206054 0.239121
O O4 0.809686 0.018259 0.211888
O O5 0.500000 0.797001 0.500000
O O6 0.621461 0.636030 0.364605
O O7 0.638550 0.827767 0.487090
O O8 0.669454 0.817352 0.134635
O O9 0.500000 0.465059 0.500000
O O10 0.678918 0.422744 0.200909
O O11 0.580350 0.560855 0.161870
O O12 0.596501 0.128632 0.933015
O O13 0.679945 0.919965 0.690535
O O14 0.500000 0.965592 0.000000
O O15 0.691460 0.299106 0.695664
O O16 0.054761 0.866431 0.060857
O O17 0.000000 0.044976 0.000000
O O18 0.174274 0.751348 0.022819
#
# Coordination Sequence:
#
# PCOD9126455 Si02
#       8
#     4   4   4   4   4   4   4   4
#     4  11  24  40  65 101 128 174 222 272 336 400
#     4  10  22  42  65  95 136 177 222 276 334 401
#     4  10  23  41  66 100 129 174 224 279 344 395
#     4  11  24  45  66  95 133 175 225 272 334 402
#     4  10  23  41  64  90 132 168 221 269 328 399
#     4  11  22  39  69  99 132 170 224 280 330 394
#     4  10  22  40  67  96 137 171 222 277 336 406
#     4   9  21  44  66  96 129 175 220 279 334 389
#
# _framework density 22.299931000000001
#
# number of rings (size 3 to 8) (size 9 to 14) (size 15 to 20)
#    0.000    1.750    2.500    0.375    3.500    8.500 
#    0.000    1.250    0.000    0.750    0.000    0.000 
#    0.000    0.000    0.000    0.000    0.000    0.000 
#
# Total GULP energy -89081.163977 kJ/mol
# GULP energy per Si atom -5567.572749 kJ/mol
# Density = 2.224918 g / cm^3
# Si number density = 22.299931 Si / 1000 Ang^3
#
#
#
# Elastic Constant Matrix: (Units=GPa)
#
#
# Indices 1 2 3 4 5 6 
#
# 1 55.5842 7.4951 27.5804 0.0000 -5.9818 0.0000
# 2 7.4951 81.5939 5.2148 0.0000 -3.3640 0.0000
# 3 27.5804 5.2148 88.4546 0.0000 -14.5121 0.0000
# 4 0.0000 0.0000 0.0000 27.1956 0.0000 -3.3696
# 5 -5.9818 -3.3640 -14.5121 0.0000 27.2663 0.0000
# 6 0.0000 0.0000 0.0000 -3.3696 0.0000 15.3907
#
#
#
# Elastic Compliance Matrix: (Units=1/GPa)
#
#
# Indices 1 2 3 4 5 6 
#
# 1 0.021508 -0.001519 -0.006435 0.000000 0.001106 0.000000
# 2 -0.001519 0.012448 -0.000069 0.000000 0.001166 0.000000
# 3 -0.006435 -0.000069 0.014334 0.000000 0.006209 0.000000
# 4 0.000000 0.000000 0.000000 0.037796 0.000000 0.008275
# 5 0.001106 0.001166 0.006209 0.000000 0.040366 0.000000
# 6 0.000000 0.000000 0.000000 0.008275 0.000000 0.066786
#
#
# Mechanical properties :
#
#
# Convention : Reuss Voigt Hill
#
# Bulk Modulus (GPa) = 31.01351 34.02368 32.51859
# Shear Modulus (GPa) = 22.72395 26.32669 24.52532
#
# Velocity S-wave (km/s) = 3.19566 3.43967 3.31991
# Velocity P-wave (km/s) = 5.24919 5.57365 5.41385
#
# Compressibility (1/GPa) = 0.03224402
#
# Stress axis : x y z
#
# Youngs Moduli (GPa) = 46.49520 80.33544 69.76198
#
# Poissons Ratio (x) = 0.12201 0.44893
# Poissons Ratio (y) = 0.07062 0.00482
# Poissons Ratio (z) = 0.29920 0.00555
#
# Static dielectric constant tensor:
#      x y z
#    x 1.855650 0.000000 -0.028680 
#    y 0.000000 1.874250 0.000000 
#    z -0.028680 0.000000 1.924470 
# 
# From -- ./inp_files/29602.got.cif
#   From: 2010.05.17/outbox.cif.g08.bks.cpg/sg5_15_cif.got.tgz:29602.got - 2010.06.03 18:56:24.
