data_PCOD9126665
_publ_section_title
;
Structure prediction by ZEFSAII (Michael W. Deem and Ramdas Pophale) SiO2 
 PCOD9126665
Probable space group: C 2
;
_chemical_formula_sum "Si O2"
_cell_formula_units_Z 32
_cell_length_a 21.973589
_cell_length_b 11.880250
_cell_length_c 11.181502
_cell_angle_alpha 90.000000
_cell_angle_beta 32.064970
_cell_angle_gamma 90.000000
_cell_volume 1549.614047
_symmetry_space_group_name_H-M "C 2"
_symmetry_group_IT_number 5
_symmetry_cell_setting 'monoclinic'
loop_
_space_group_symop_operation_xyz
x,y,z
-x,y,-z
1/2+x,1/2+y,z
1/2-x,1/2+y,-z
loop_
_atom_site_type_symbol
_atom_site_label
_atom_site_fract_x
_atom_site_fract_y
_atom_site_fract_z
Si Si1 0.735867 0.202530 0.807996
Si Si2 0.108337 0.267659 0.241143
Si Si3 0.542890 0.365460 0.062631
Si Si4 0.724730 0.966420 0.941851
Si Si5 0.840475 0.219292 0.176005
Si Si6 0.828580 0.060899 0.002911
Si Si7 0.899367 0.146812 0.332350
Si Si8 0.838807 0.901215 0.538108
O O1 0.780922 0.255244 0.857072
O O2 0.843654 0.207447 0.538656
O O3 0.696929 0.076343 0.908906
O O4 0.636533 0.268395 0.907267
O O5 0.092611 0.144055 0.209272
O O6 0.000000 0.297875 0.500000
O O7 0.135712 0.364325 0.100117
O O8 0.605002 0.468985 0.028702
O O9 0.437789 0.323959 0.319838
O O10 0.500000 0.393983 0.000000
O O11 0.837174 0.922284 0.683105
O O12 0.749028 0.004296 0.036584
O O13 0.832524 0.168281 0.320878
O O14 0.784450 0.343045 0.278867
O O15 0.771199 0.146826 0.192462
O O16 0.972865 0.194283 0.912883
O O17 0.871948 0.016844 0.414122
#
# Coordination Sequence:
#
# PCOD9126665 Si02
#       8
#     4   4   4   4   4   4   4   4
#     4  10  23  43  65  95 136 178 224 279 356 416
#     4  11  22  41  69  94 129 173 226 287 344 412
#     4  12  24  42  67  99 137 182 226 280 351 420
#     4  10  23  43  63  95 134 170 224 286 344 417
#     4  11  21  40  68  98 129 170 237 273 344 425
#     4  11  22  39  64  98 127 171 230 280 338 415
#     4  10  22  41  68  95 129 177 220 291 340 413
#     4  11  23  40  68  97 133 177 226 286 342 415
#
# _framework density 20.650302
#
# number of rings (size 3 to 8) (size 9 to 14) (size 15 to 20)
#    0.000    1.250    3.750    2.250    3.500    0.000 
#    2.250    0.000   22.000    0.750    0.000    0.000 
#    0.000    0.000    0.000    0.000    0.000    0.000 
#
# Total GULP energy -89076.523604 kJ/mol
# GULP energy per Si atom -5567.282725 kJ/mol
# Density = 2.060330 g / cm^3
# Si number density = 20.650302 Si / 1000 Ang^3
#
#
#
# Elastic Constant Matrix: (Units=GPa)
#
#
# Indices 1 2 3 4 5 6 
#
# 1 76.2807 22.7286 -0.7977 0.0000 10.0074 0.0000
# 2 22.7286 101.6207 51.4461 0.0000 -4.3365 0.0000
# 3 -0.7977 51.4461 67.1288 0.0000 -0.7500 0.0000
# 4 0.0000 0.0000 0.0000 31.5622 0.0000 -0.2250
# 5 10.0074 -4.3365 -0.7500 0.0000 25.4284 0.0000
# 6 0.0000 0.0000 0.0000 -0.2250 0.0000 25.0015
#
#
#
# Elastic Compliance Matrix: (Units=1/GPa)
#
#
# Indices 1 2 3 4 5 6 
#
# 1 0.016040 -0.006459 0.005059 0.000000 -0.007265 0.000000
# 2 -0.006459 0.018825 -0.014444 0.000000 0.005326 0.000000
# 3 0.005059 -0.014444 0.025985 0.000000 -0.003688 0.000000
# 4 0.000000 0.000000 0.000000 0.031686 0.000000 0.000285
# 5 -0.007265 0.005326 -0.003688 0.000000 0.042985 0.000000
# 6 0.000000 0.000000 0.000000 0.000285 0.000000 0.040000
#
#
# Mechanical properties :
#
#
# Convention : Reuss Voigt Hill
#
# Bulk Modulus (GPa) = 34.29024 43.53157 38.91091
# Shear Modulus (GPa) = 23.04901 27.84197 25.44549
#
# Velocity S-wave (km/s) = 3.34452 3.67585 3.51409
# Velocity P-wave (km/s) = 5.61744 6.25635 5.94549
#
# Compressibility (1/GPa) = 0.02916281
#
# Stress axis : x y z
#
# Youngs Moduli (GPa) = 62.34429 53.12113 38.48309
#
# Poissons Ratio (x) = 0.34310 -0.19470
# Poissons Ratio (y) = 0.40267 0.55586
# Poissons Ratio (z) = -0.31542 0.76730
#
# Static dielectric constant tensor:
#      x y z
#    x 1.798580 0.000000 -0.016760 
#    y 0.000000 1.820110 0.000000 
#    z -0.016760 0.000000 1.765560 
# 
# From -- ./inp_files/47477.got.cif
#   From: 2010.05.17/outbox.cif.g08.bks.cpg/sg5_24_cif.got.tgz:47477.got - 2010.06.03 18:56:24.
