data_PCOD9126044
_publ_section_title
;
Structure prediction by ZEFSAII (Michael W. Deem and Ramdas Pophale) SiO2 
 PCOD9126044
Probable space group: C 2
;
_chemical_formula_sum "Si O2"
_cell_formula_units_Z 32
_cell_length_a 14.607383
_cell_length_b 16.783741
_cell_length_c 11.542025
_cell_angle_alpha 90.000000
_cell_angle_beta 29.752794
_cell_angle_gamma 90.000000
_cell_volume 1404.272699
_symmetry_space_group_name_H-M "C 2"
_symmetry_group_IT_number 5
_symmetry_cell_setting 'monoclinic'
loop_
_space_group_symop_operation_xyz
x,y,z
-x,y,-z
1/2+x,1/2+y,z
1/2-x,1/2+y,-z
loop_
_atom_site_type_symbol
_atom_site_label
_atom_site_fract_x
_atom_site_fract_y
_atom_site_fract_z
Si Si1 0.585033 0.759510 0.018217
Si Si2 0.698359 0.930201 0.833573
Si Si3 0.221190 0.802378 0.553086
Si Si4 0.971596 0.667603 0.899035
Si Si5 0.282128 0.817754 0.746817
Si Si6 0.633442 0.485857 0.960973
Si Si7 0.501123 0.439714 0.321203
Si Si8 0.625329 0.132306 0.250097
O O1 0.422486 0.796690 0.274988
O O2 0.500000 0.715078 0.000000
O O3 0.692906 0.833967 0.844487
O O4 0.721338 0.701078 0.931897
O O5 0.849682 0.963352 0.580436
O O6 0.792961 0.946598 0.853085
O O7 0.500000 0.953023 0.000000
O O8 0.224505 0.838221 0.677981
O O9 0.076585 0.853161 0.635627
O O10 0.152894 0.713873 0.655242
O O11 0.930087 0.618887 0.825715
O O12 0.825231 0.740355 0.086332
O O13 0.000000 0.633329 0.000000
O O14 0.500000 0.803260 0.500000
O O15 0.224943 0.898282 0.875343
O O16 0.788620 0.551701 0.794850
O O17 0.500000 0.489508 0.000000
O O18 0.498674 0.498234 0.217142
O O19 0.500000 0.160051 0.500000
#
# Coordination Sequence:
#
# PCOD9126044 Si02
#       8
#     4   4   4   4   4   4   4   4
#     4  11  21  35  63 101 140 174 227 289 356 424
#     4  10  22  37  65 105 132 175 227 291 359 406
#     4  11  19  37  66 102 130 178 227 303 357 405
#     4  10  22  43  69  99 134 178 238 298 361 409
#     4  11  22  37  68 103 132 176 235 300 355 419
#     4  12  25  45  65  95 140 188 232 285 363 427
#     4  11  21  39  66  95 139 178 232 294 347 416
#     4  12  27  44  67 102 140 193 235 288 364 436
#
# _framework density 22.787597000000002
#
# number of rings (size 3 to 8) (size 9 to 14) (size 15 to 20)
#    0.000    1.000    5.000    3.375    3.500    0.000 
#    2.250    0.625   16.500    0.000    0.000    0.000 
#    0.000    0.000    0.000    0.000    0.000    0.000 
#
# Total GULP energy -89134.603888 kJ/mol
# GULP energy per Si atom -5570.912743 kJ/mol
# Density = 2.273573 g / cm^3
# Si number density = 22.787597 Si / 1000 Ang^3
#
#
#
# Elastic Constant Matrix: (Units=GPa)
#
#
# Indices 1 2 3 4 5 6 
#
# 1 165.3368 8.0154 44.8963 0.0053 9.3028 -0.0065
# 2 8.0154 46.7883 18.7263 0.0074 -7.7791 -0.0135
# 3 44.8963 18.7263 95.7667 0.0023 6.7052 -0.0086
# 4 0.0053 0.0074 0.0023 14.6295 -0.0044 -2.8832
# 5 9.3028 -7.7791 6.7052 -0.0044 36.4485 0.0079
# 6 -0.0065 -0.0135 -0.0086 -2.8832 0.0079 -12.6539
#
#
#
# Elastic Compliance Matrix: (Units=1/GPa)
#
#
# Indices 1 2 3 4 5 6 
#
# 1 0.006982 -0.000136 -0.003161 -0.000003 -0.001230 -0.000001
# 2 -0.000136 0.024495 -0.005161 -0.000013 0.006212 -0.000016
# 3 -0.003161 -0.005161 0.013123 0.000000 -0.002709 -0.000004
# 4 -0.000003 -0.000013 0.000000 0.065417 0.000009 -0.014905
# 5 -0.001230 0.006212 -0.002709 0.000009 0.029574 0.000012
# 6 -0.000001 -0.000016 -0.000004 -0.014905 0.000012 -0.075631
#
#
# Mechanical properties :
#
#
# Convention : Reuss Voigt Hill
#
# Bulk Modulus (GPa) = 36.12093 50.12976 43.12535
# Shear Modulus (GPa) = 55.49193 23.43508 39.46350
#
# Velocity S-wave (km/s) = 4.94011 3.21037 4.16600
# Velocity P-wave (km/s) = 6.95882 5.98234 6.48897
#
# Compressibility (1/GPa) = 0.02768478
#
# Stress axis : x y z
#
# Youngs Moduli (GPa) = 143.21921 40.82544 76.20380
#
# Poissons Ratio (x) = 0.00553 0.24086
# Poissons Ratio (y) = 0.01941 0.39329
# Poissons Ratio (z) = 0.45268 0.21070
#
# Static dielectric constant tensor:
#      x y z
#    x 2.116330 0.000000 0.087990 
#    y 0.000000 1.830560 0.000000 
#    z 0.087990 0.000000 1.925120 
# 
# From -- ./inp_files/43359.got.cif
#   From: 2010.05.17/outbox.cif.g08.bks.cpg/sg5_22_cif.got.tgz:43359.got - 2010.06.03 18:56:24.
