data_PCOD9126058
_publ_section_title
;
Structure prediction by ZEFSAII (Michael W. Deem and Ramdas Pophale) SiO2 
 PCOD9126058
Probable space group: C 2
;
_chemical_formula_sum "Si O2"
_cell_formula_units_Z 24
_cell_length_a 11.111041
_cell_length_b 9.001930
_cell_length_c 10.775892
_cell_angle_alpha 90.000000
_cell_angle_beta 83.915934
_cell_angle_gamma 90.000000
_cell_volume 1071.742652
_symmetry_space_group_name_H-M "C 2"
_symmetry_group_IT_number 5
_symmetry_cell_setting 'monoclinic'
loop_
_space_group_symop_operation_xyz
x,y,z
-x,y,-z
1/2+x,1/2+y,z
1/2-x,1/2+y,-z
loop_
_atom_site_type_symbol
_atom_site_label
_atom_site_fract_x
_atom_site_fract_y
_atom_site_fract_z
Si Si1 0.867717 0.204940 0.161544
Si Si2 0.405721 0.608607 0.417344
Si Si3 0.247834 0.366812 0.502134
Si Si4 0.588739 0.107371 0.589324
Si Si5 0.000000 0.460065 0.000000
Si Si6 0.500000 0.459341 0.000000
Si Si7 0.912291 0.704088 0.827591
O O1 0.940335 0.171814 0.280690
O O2 0.917346 0.352893 0.092199
O O3 0.725025 0.217470 0.205007
O O4 0.897914 0.068107 0.066938
O O5 0.500000 0.533774 0.500000
O O6 0.300556 0.487518 0.400803
O O7 0.357819 0.747474 0.503354
O O8 0.355537 0.246507 0.492790
O O9 0.192726 0.484515 0.608197
O O10 0.500000 0.031665 0.500000
O O11 0.512730 0.166154 0.713117
O O12 0.079905 0.567821 0.076682
O O13 0.550501 0.352475 0.102371
#
# Coordination Sequence:
#
# PCOD9126058 Si02
#       7
#     4   4   4   4   2   2   4
#     4  11  23  42  65  91 128 165 208 261 310 367
#     4  11  23  39  61  91 123 159 202 252 311 371
#     4  10  22  38  56  88 124 156 198 246 304 368
#     4  11  22  38  62  90 123 160 200 250 311 370
#     4  10  24  42  64  94 124 166 214 258 308 364
#     4  10  24  42  64  94 124 166 214 258 308 364
#     4  11  22  41  66  92 125 165 210 258 309 371
#
# _framework density 22.393435
#
# number of rings (size 3 to 8) (size 9 to 14) (size 15 to 20)
#    0.000    1.333    0.000    6.000    0.000    2.667 
#    0.000   13.333    0.000    0.000    0.000    0.000 
#    0.000    0.000    0.000    0.000    0.000    0.000 
#
# Total GULP energy -66852.388237 kJ/mol
# GULP energy per Si atom -5571.032353 kJ/mol
# Density = 2.234247 g / cm^3
# Si number density = 22.393435 Si / 1000 Ang^3
#
#
#
# Elastic Constant Matrix: (Units=GPa)
#
#
# Indices 1 2 3 4 5 6 
#
# 1 72.4480 34.1868 34.3192 0.0000 -14.7260 0.0000
# 2 34.1868 142.7238 16.8836 0.0000 -8.4830 0.0000
# 3 34.3192 16.8836 80.8742 0.0000 -5.9074 0.0000
# 4 0.0000 0.0000 0.0000 28.4854 0.0000 -2.6636
# 5 -14.7260 -8.4830 -5.9074 0.0000 32.9474 0.0000
# 6 0.0000 0.0000 0.0000 -2.6636 0.0000 23.3241
#
#
#
# Elastic Compliance Matrix: (Units=1/GPa)
#
#
# Indices 1 2 3 4 5 6 
#
# 1 0.020408 -0.003604 -0.007406 0.000000 0.006865 0.000000
# 2 -0.003604 0.007905 -0.000091 0.000000 0.000408 0.000000
# 3 -0.007406 -0.000091 0.015486 0.000000 -0.000557 0.000000
# 4 0.000000 0.000000 0.000000 0.035485 0.000000 0.004052
# 5 0.006865 0.000408 -0.000557 0.000000 0.033425 0.000000
# 6 0.000000 0.000000 0.000000 0.004052 0.000000 0.043337
#
#
# Mechanical properties :
#
#
# Convention : Reuss Voigt Hill
#
# Bulk Modulus (GPa) = 46.30503 51.86946 49.08725
# Shear Modulus (GPa) = 26.96202 30.99515 28.97858
#
# Velocity S-wave (km/s) = 3.47366 3.72441 3.60122
# Velocity P-wave (km/s) = 6.06722 6.45818 6.26575
#
# Compressibility (1/GPa) = 0.02159592
#
# Stress axis : x y z
#
# Youngs Moduli (GPa) = 49.00159 126.50464 64.57446
#
# Poissons Ratio (x) = 0.45593 0.47825
# Poissons Ratio (y) = 0.17660 0.00588
# Poissons Ratio (z) = 0.36291 0.01152
#
# Static dielectric constant tensor:
#      x y z
#    x 1.841680 0.000000 -0.034150 
#    y 0.000000 1.806970 0.000000 
#    z -0.034150 0.000000 1.815150 
# 
# From -- ./inp_files/38298.got.cif
#   From: 2010.05.17/outbox.cif.g08.bks.cpg/sg5_20_cif.got.tgz:38298.got - 2010.06.03 18:56:24.
