data_PCOD9126858
_publ_section_title
;
Structure prediction by ZEFSAII (Michael W. Deem and Ramdas Pophale) SiO2 
 PCOD9126858
Probable space group: C 2
;
_chemical_formula_sum "Si O2"
_cell_formula_units_Z 22
_cell_length_a 13.806992
_cell_length_b 7.149273
_cell_length_c 9.940865
_cell_angle_alpha 90.000000
_cell_angle_beta 97.386914
_cell_angle_gamma 90.000000
_cell_volume 973.118403
_symmetry_space_group_name_H-M "C 2"
_symmetry_group_IT_number 5
_symmetry_cell_setting 'monoclinic'
loop_
_space_group_symop_operation_xyz
x,y,z
-x,y,-z
1/2+x,1/2+y,z
1/2-x,1/2+y,-z
loop_
_atom_site_type_symbol
_atom_site_label
_atom_site_fract_x
_atom_site_fract_y
_atom_site_fract_z
Si Si1 0.144144 0.240980 0.924164
Si Si2 0.089894 0.554949 0.706362
Si Si3 0.500000 0.424384 0.000000
Si Si4 0.773431 0.246837 0.778568
Si Si5 0.328019 0.308736 0.792388
Si Si6 0.364468 0.030168 0.588531
O O1 0.097412 0.399663 0.823080
O O2 0.246590 0.204598 0.867467
O O3 0.072735 0.065691 0.932844
O O4 0.175194 0.315108 0.076002
O O5 0.155279 0.733584 0.762377
O O6 0.138792 0.503997 0.570896
O O7 0.977073 0.562514 0.649629
O O8 0.567825 0.303770 0.112109
O O9 0.815713 0.361149 0.661686
O O10 0.804126 0.028348 0.780979
O O11 0.320172 0.218022 0.644404
#
# Coordination Sequence:
#
# PCOD9126858 Si02
#       6
#     4   4   2   4   4   4
#     4  10  22  43  67 100 134 172 230 282 336 396
#     4  10  24  44  66 102 135 179 234 267 347 419
#     4  10  22  42  68 104 140 174 224 298 334 404
#     4  10  24  43  67  96 135 178 223 284 340 395
#     4  10  24  39  66 103 131 174 232 268 345 408
#     4  11  25  43  68  98 140 182 218 284 340 404
#
# _framework density 22.607731000000001
#
# number of rings (size 3 to 8) (size 9 to 14) (size 15 to 20)
#    0.000    1.818    0.000    2.182   15.273    0.000 
#    0.000    7.273    0.000    0.000    0.000    0.000 
#    0.000    0.000    0.000    0.000    0.000    0.000 
#
# Total GULP energy -61434.709788 kJ/mol
# GULP energy per Si atom -5584.973617 kJ/mol
# Density = 2.255627 g / cm^3
# Si number density = 22.607731 Si / 1000 Ang^3
#
#
#
# Elastic Constant Matrix: (Units=GPa)
#
#
# Indices 1 2 3 4 5 6 
#
# 1 115.1939 23.1118 23.1085 0.0000 8.8955 0.0000
# 2 23.1118 78.2260 44.0826 0.0000 -23.6320 0.0000
# 3 23.1085 44.0826 140.3247 0.0000 1.1598 0.0000
# 4 0.0000 0.0000 0.0000 23.1376 0.0000 -2.2155
# 5 8.8955 -23.6320 1.1598 0.0000 31.6925 0.0000
# 6 0.0000 0.0000 0.0000 -2.2155 0.0000 27.8913
#
#
#
# Elastic Compliance Matrix: (Units=1/GPa)
#
#
# Indices 1 2 3 4 5 6 
#
# 1 0.010194 -0.004952 -0.000069 0.000000 -0.006552 0.000000
# 2 -0.004952 0.024050 -0.006901 0.000000 0.019576 0.000000
# 3 -0.000069 -0.006901 0.009351 0.000000 -0.005469 0.000000
# 4 0.000000 0.000000 0.000000 0.043551 0.000000 0.003459
# 5 -0.006552 0.019576 -0.005469 0.000000 0.048189 0.000000
# 6 0.000000 0.000000 0.000000 0.003459 0.000000 0.036128
#
#
# Mechanical properties :
#
#
# Convention : Reuss Voigt Hill
#
# Bulk Modulus (GPa) = 50.63380 57.15005 53.89192
# Shear Modulus (GPa) = 24.76577 32.77371 28.76974
#
# Velocity S-wave (km/s) = 3.31336 3.81158 3.57117
# Velocity P-wave (km/s) = 6.08959 6.68616 6.39483
#
# Compressibility (1/GPa) = 0.01974965
#
# Stress axis : x y z
#
# Youngs Moduli (GPa) = 98.09326 41.58089 106.94154
#
# Poissons Ratio (x) = 0.20592 0.00737
# Poissons Ratio (y) = 0.48579 0.73804
# Poissons Ratio (z) = 0.00676 0.28696
#
# Static dielectric constant tensor:
#      x y z
#    x 1.904140 0.000000 -0.002530 
#    y 0.000000 1.834100 0.000000 
#    z -0.002530 0.000000 1.839130 
# 
# From -- ./inp_files/22723.got.cif
#   From: 2010.05.17/outbox.cif.g08.bks.cpg/sg5_12_cif.got.tgz:22723.got - 2010.06.03 18:56:24.
