data_PCOD9126170
_publ_section_title
;
Structure prediction by ZEFSAII (Michael W. Deem and Ramdas Pophale) SiO2 
 PCOD9126170
Probable space group: C 2
;
_chemical_formula_sum "Si O2"
_cell_formula_units_Z 28
_cell_length_a 21.435732
_cell_length_b 12.172374
_cell_length_c 5.289756
_cell_angle_alpha 90.000000
_cell_angle_beta 115.597591
_cell_angle_gamma 90.000000
_cell_volume 1244.755028
_symmetry_space_group_name_H-M "C 2"
_symmetry_group_IT_number 5
_symmetry_cell_setting 'monoclinic'
loop_
_space_group_symop_operation_xyz
x,y,z
-x,y,-z
1/2+x,1/2+y,z
1/2-x,1/2+y,-z
loop_
_atom_site_type_symbol
_atom_site_label
_atom_site_fract_x
_atom_site_fract_y
_atom_site_fract_z
Si Si1 0.727597 0.006280 0.070636
Si Si2 0.000000 0.448368 0.000000
Si Si3 0.838723 0.093018 0.609754
Si Si4 0.138043 0.701467 0.731672
Si Si5 0.272358 0.788701 0.689759
Si Si6 0.321626 0.386689 0.856509
Si Si7 0.000000 0.591168 0.500000
Si Si8 0.957877 0.237339 0.686738
O O1 0.763093 0.073727 0.358290
O O2 0.696874 0.891966 0.110634
O O3 0.673225 0.085038 0.851609
O O4 0.792919 0.969732 0.017554
O O5 0.979576 0.519982 0.212068
O O6 0.054807 0.360344 0.220131
O O7 0.822101 0.185453 0.790050
O O8 0.892908 0.157849 0.533236
O O9 0.859013 0.970888 0.731556
O O10 0.195939 0.758860 0.659926
O O11 0.062318 0.668641 0.514442
O O12 0.134514 0.786510 0.959275
O O13 0.249817 0.834379 0.377025
O O14 0.000000 0.247398 0.500000
O O15 0.000000 0.185978 0.000000
#
# Coordination Sequence:
#
# PCOD9126170 Si02
#       8
#     4   2   4   4   4   4   2   4
#     4  10  22  38  68 101 135 170 232 290 351 414
#     4  10  24  50  64 112 134 188 236 290 342 438
#     4  11  22  40  73  98 136 183 223 296 361 408
#     4  11  24  44  67 102 141 182 236 286 355 424
#     4  10  22  40  66 102 130 177 224 294 345 420
#     4  10  22  43  62 100 134 172 235 282 345 423
#     4  12  28  44  78  96 150 194 232 288 360 424
#     4  10  24  45  68 102 148 179 232 291 349 433
#
# _framework density 22.494387
#
# number of rings (size 3 to 8) (size 9 to 14) (size 15 to 20)
#    0.429    1.143    3.571    0.000    6.000    1.143 
#    0.000    4.286    0.000    0.000    0.000    0.000 
#    0.000    0.000    0.000    0.000    0.000    0.000 
#
# Total GULP energy -77968.141602 kJ/mol
# GULP energy per Si atom -5569.152972 kJ/mol
# Density = 2.244319 g / cm^3
# Si number density = 22.494387 Si / 1000 Ang^3
#
#
#
# Elastic Constant Matrix: (Units=GPa)
#
#
# Indices 1 2 3 4 5 6 
#
# 1 68.9041 29.9728 7.5415 0.0000 -6.0197 0.0000
# 2 29.9728 125.2135 17.8519 0.0000 -0.9327 0.0000
# 3 7.5415 17.8519 48.3421 0.0000 -14.5344 0.0000
# 4 0.0000 0.0000 0.0000 15.8903 0.0000 -1.9920
# 5 -6.0197 -0.9327 -14.5344 0.0000 23.1622 0.0000
# 6 0.0000 0.0000 0.0000 -1.9920 0.0000 24.7390
#
#
#
# Elastic Compliance Matrix: (Units=1/GPa)
#
#
# Indices 1 2 3 4 5 6 
#
# 1 0.016591 -0.003961 0.000152 0.000000 0.004247 0.000000
# 2 -0.003961 0.009451 -0.003781 0.000000 -0.003021 0.000000
# 3 0.000152 -0.003781 0.027146 0.000000 0.016921 0.000000
# 4 0.000000 0.000000 0.000000 0.063573 0.000000 0.005119
# 5 0.004247 -0.003021 0.016921 0.000000 0.054774 0.000000
# 6 0.000000 0.000000 0.000000 0.005119 0.000000 0.040834
#
#
# Mechanical properties :
#
#
# Convention : Reuss Voigt Hill
#
# Bulk Modulus (GPa) = 26.31075 39.24355 32.77715
# Shear Modulus (GPa) = 20.81436 25.23118 23.02277
#
# Velocity S-wave (km/s) = 3.04520 3.35276 3.20267
# Velocity P-wave (km/s) = 4.90778 5.69840 5.31780
#
# Compressibility (1/GPa) = 0.03800729
#
# Stress axis : x y z
#
# Youngs Moduli (GPa) = 60.27527 105.80789 36.83800
#
# Poissons Ratio (x) = 0.41914 -0.00559
# Poissons Ratio (y) = 0.23877 0.13927
# Poissons Ratio (z) = -0.00915 0.40001
#
# Static dielectric constant tensor:
#      x y z
#    x 1.863500 0.000000 -0.073580 
#    y 0.000000 1.826630 0.000000 
#    z -0.073580 0.000000 1.918250 
# 
# From -- ./inp_files/9608.got.cif
#   From: 2010.05.17/outbox.cif.g08.bks.cpg/sg5_5_cif.got.tgz:9608.got - 2010.06.03 18:56:24.
