data_PCOD9126772
_publ_section_title
;
Structure prediction by ZEFSAII (Michael W. Deem and Ramdas Pophale) SiO2 
 PCOD9126772
Probable space group: C 2
;
_chemical_formula_sum "Si O2"
_cell_formula_units_Z 22
_cell_length_a 23.596870
_cell_length_b 8.646894
_cell_length_c 14.562011
_cell_angle_alpha 90.000000
_cell_angle_beta 159.583275
_cell_angle_gamma 90.000000
_cell_volume 1036.499693
_symmetry_space_group_name_H-M "C 2"
_symmetry_group_IT_number 5
_symmetry_cell_setting 'monoclinic'
loop_
_space_group_symop_operation_xyz
x,y,z
-x,y,-z
1/2+x,1/2+y,z
1/2-x,1/2+y,-z
loop_
_atom_site_type_symbol
_atom_site_label
_atom_site_fract_x
_atom_site_fract_y
_atom_site_fract_z
Si Si1 0.000000 0.694640 0.500000
Si Si2 0.454351 0.884381 0.224365
Si Si3 0.426809 0.491112 0.794443
Si Si4 0.781115 0.704623 0.017819
Si Si5 0.740923 0.936264 0.792874
Si Si6 0.581173 0.854825 0.216416
O O1 0.145249 0.581529 0.690129
O O2 0.069984 0.778560 0.695647
O O3 0.373257 0.736853 0.151036
O O4 0.634242 0.901103 0.540425
O O5 0.471089 0.878485 0.140235
O O6 0.346196 0.033542 0.091270
O O7 0.396974 0.672123 0.764167
O O8 0.258856 0.421144 0.505868
O O9 0.500000 0.422716 0.000000
O O10 0.573865 0.472426 0.947185
O O11 0.739777 0.796564 0.862971
O O12 0.500000 0.918801 0.000000
#
# Coordination Sequence:
#
# PCOD9126772 Si02
#       6
#     2   4   4   4   4   4
#     4  10  22  42  64  98 140 176 230 282 354 420
#     4  11  24  45  70 104 143 181 242 284 354 426
#     4  11  25  45  71  97 141 190 232 289 357 413
#     4  11  22  41  70 100 137 182 225 293 350 403
#     4  11  21  42  71  95 137 186 227 286 354 416
#     4  11  27  46  72 108 140 186 243 293 349 422
#
# _framework density 21.225283999999998
#
# number of rings (size 3 to 8) (size 9 to 14) (size 15 to 20)
#    0.000    1.091    5.455    1.091    2.545    5.091 
#    3.273    1.818    0.000    0.000    0.000    0.000 
#    0.000    0.000    0.000    0.000    0.000    0.000 
#
# Total GULP energy -61398.159306 kJ/mol
# GULP energy per Si atom -5581.650846 kJ/mol
# Density = 2.117697 g / cm^3
# Si number density = 21.225284 Si / 1000 Ang^3
#
#
#
# Elastic Constant Matrix: (Units=GPa)
#
#
# Indices 1 2 3 4 5 6 
#
# 1 125.3857 24.5452 73.9684 0.0000 -9.2520 0.0000
# 2 24.5452 38.8175 50.9648 0.0000 -2.4905 0.0000
# 3 73.9684 50.9648 136.1162 0.0000 -1.7245 0.0000
# 4 0.0000 0.0000 0.0000 42.1054 0.0000 -5.8102
# 5 -9.2520 -2.4905 -1.7245 0.0000 53.1073 0.0000
# 6 0.0000 0.0000 0.0000 -5.8102 0.0000 8.5158
#
#
#
# Elastic Compliance Matrix: (Units=1/GPa)
#
#
# Indices 1 2 3 4 5 6 
#
# 1 0.012007 0.002099 -0.007286 0.000000 0.001954 0.000000
# 2 0.002099 0.051203 -0.020285 0.000000 0.002108 0.000000
# 3 -0.007286 -0.020285 0.018881 0.000000 -0.001607 0.000000
# 4 0.000000 0.000000 0.000000 0.026218 0.000000 0.017889
# 5 0.001954 0.002108 -0.001607 0.000000 0.019217 0.000000
# 6 0.000000 0.000000 0.000000 0.017889 0.000000 0.129634
#
#
# Mechanical properties :
#
#
# Convention : Reuss Voigt Hill
#
# Bulk Modulus (GPa) = 32.10676 66.58625 49.34651
# Shear Modulus (GPa) = 15.69925 30.80178 23.25051
#
# Velocity S-wave (km/s) = 2.72260 3.81357 3.31330
# Velocity P-wave (km/s) = 5.00429 7.12955 6.15927
#
# Compressibility (1/GPa) = 0.03114609
#
# Stress axis : x y z
#
# Youngs Moduli (GPa) = 83.28607 19.53016 52.96350
#
# Poissons Ratio (x) = -0.04100 0.38589
# Poissons Ratio (y) = -0.17483 1.07439
# Poissons Ratio (z) = 0.60682 0.39618
#
# Static dielectric constant tensor:
#      x y z
#    x 1.828810 0.000000 -0.038580 
#    y 0.000000 1.768810 0.000000 
#    z -0.038580 0.000000 1.779750 
# 
# From -- ./inp_files/57571.got.cif
#   From: 2010.05.17/outbox.cif.g08.bks.cpg/sg5_29_cif.got.tgz:57571.got - 2010.06.03 18:56:24.
