data_PCOD9126645
_publ_section_title
;
Structure prediction by ZEFSAII (Michael W. Deem and Ramdas Pophale) SiO2 
 PCOD9126645
Probable space group: C 2
;
_chemical_formula_sum "Si O2"
_cell_formula_units_Z 28
_cell_length_a 11.133023
_cell_length_b 8.977960
_cell_length_c 21.365479
_cell_angle_alpha 90.000000
_cell_angle_beta 140.565155
_cell_angle_gamma 90.000000
_cell_volume 1356.482293
_symmetry_space_group_name_H-M "C 2"
_symmetry_group_IT_number 5
_symmetry_cell_setting 'monoclinic'
loop_
_space_group_symop_operation_xyz
x,y,z
-x,y,-z
1/2+x,1/2+y,z
1/2-x,1/2+y,-z
loop_
_atom_site_type_symbol
_atom_site_label
_atom_site_fract_x
_atom_site_fract_y
_atom_site_fract_z
Si Si1 0.832335 0.500000 0.052990
Si Si2 0.727080 0.298605 0.371798
Si Si3 0.311273 0.225659 0.158648
Si Si4 0.500000 0.556866 0.500000
Si Si5 0.500000 0.965227 0.000000
Si Si6 0.242600 0.629868 0.644133
Si Si7 0.502349 0.670801 0.138212
Si Si8 0.151409 0.787927 0.486460
O O1 0.840328 0.596558 0.119159
O O2 0.976123 0.551546 0.055354
O O3 0.888460 0.327870 0.087546
O O4 0.628954 0.539848 0.941492
O O5 0.513956 0.280496 0.262646
O O6 0.802024 0.455983 0.378544
O O7 0.727074 0.294467 0.447291
O O8 0.857960 0.161669 0.404628
O O9 0.181653 0.357190 0.077949
O O10 0.185100 0.175429 0.166790
O O11 0.621302 0.450935 0.503763
O O12 0.420626 0.651527 0.760916
O O13 0.270106 0.694901 0.585353
O O14 0.058692 0.714886 0.596846
#
# Coordination Sequence:
#
# PCOD9126645 Si02
#       8
#     4   4   4   2   2   4   4   4
#     4  11  22  42  68  95 134 169 224 280 331 401
#     4  12  23  41  69  93 133 180 218 273 334 398
#     4  11  22  40  69  93 133 179 214 277 342 388
#     4  10  24  38  64  98 124 170 230 264 322 392
#     4  10  22  44  64  94 136 170 220 276 340 394
#     4  10  22  41  67  94 131 177 224 267 336 396
#     4  11  23  45  68  97 137 181 225 277 343 397
#     4  10  23  44  63  93 138 172 217 287 324 383
#
# _framework density 20.641627
#
# number of rings (size 3 to 8) (size 9 to 14) (size 15 to 20)
#    0.000    1.429    4.286    2.571    4.000    0.000 
#    2.571    2.857    0.000    0.000    0.000    0.000 
#    0.000    0.000    0.000    0.000    0.000    0.000 
#
# Total GULP energy -78187.619746 kJ/mol
# GULP energy per Si atom -5584.829982 kJ/mol
# Density = 2.059465 g / cm^3
# Si number density = 20.641627 Si / 1000 Ang^3
#
#
#
# Elastic Constant Matrix: (Units=GPa)
#
#
# Indices 1 2 3 4 5 6 
#
# 1 39.5568 20.8863 15.4612 0.0000 -0.3245 0.0000
# 2 20.8863 100.4797 44.4887 0.0000 10.5406 0.0000
# 3 15.4612 44.4887 138.2368 0.0000 -3.8731 0.0000
# 4 0.0000 0.0000 0.0000 21.3656 0.0000 -3.7585
# 5 -0.3245 10.5406 -3.8731 0.0000 34.4672 0.0000
# 6 0.0000 0.0000 0.0000 -3.7585 0.0000 23.5775
#
#
#
# Elastic Compliance Matrix: (Units=1/GPa)
#
#
# Indices 1 2 3 4 5 6 
#
# 1 0.028770 -0.005561 -0.001377 0.000000 0.001817 0.000000
# 2 -0.005561 0.013252 -0.003770 0.000000 -0.004529 0.000000
# 3 -0.001377 -0.003770 0.008660 0.000000 0.002113 0.000000
# 4 0.000000 0.000000 0.000000 0.048154 0.000000 0.007676
# 5 0.001817 -0.004529 0.002113 0.000000 0.030653 0.000000
# 6 0.000000 0.000000 0.000000 0.007676 0.000000 0.043637
#
#
# Mechanical properties :
#
#
# Convention : Reuss Voigt Hill
#
# Bulk Modulus (GPa) = 34.16903 48.88285 41.52594
# Shear Modulus (GPa) = 24.47400 29.04454 26.75927
#
# Velocity S-wave (km/s) = 3.44708 3.75518 3.60443
# Velocity P-wave (km/s) = 5.69496 6.52188 6.12240
#
# Compressibility (1/GPa) = 0.02926627
#
# Stress axis : x y z
#
# Youngs Moduli (GPa) = 34.75891 75.45749 115.46712
#
# Poissons Ratio (x) = 0.41962 0.15901
# Poissons Ratio (y) = 0.19330 0.43530
# Poissons Ratio (z) = 0.04787 0.28447
#
# Static dielectric constant tensor:
#      x y z
#    x 1.759470 0.000000 -0.021460 
#    y 0.000000 1.741670 0.000000 
#    z -0.021460 0.000000 1.737830 
# 
# From -- ./inp_files/65172.got.cif
#   From: 2010.05.17/outbox.cif.g08.bks.cpg/sg5_33_cif.got.tgz:65172.got - 2010.06.03 18:56:24.
