data_PCOD9126828
_publ_section_title
;
Structure prediction by ZEFSAII (Michael W. Deem and Ramdas Pophale) SiO2 
 PCOD9126828
Probable space group: C 2
;
_chemical_formula_sum "Si O2"
_cell_formula_units_Z 28
_cell_length_a 21.811645
_cell_length_b 6.656441
_cell_length_c 19.147627
_cell_angle_alpha 90.000000
_cell_angle_beta 28.079147
_cell_angle_gamma 90.000000
_cell_volume 1308.522435
_symmetry_space_group_name_H-M "C 2"
_symmetry_group_IT_number 5
_symmetry_cell_setting 'monoclinic'
loop_
_space_group_symop_operation_xyz
x,y,z
-x,y,-z
1/2+x,1/2+y,z
1/2-x,1/2+y,-z
loop_
_atom_site_type_symbol
_atom_site_label
_atom_site_fract_x
_atom_site_fract_y
_atom_site_fract_z
Si Si1 0.410378 0.248670 0.256886
Si Si2 0.399183 0.910909 0.960307
Si Si3 0.025589 0.135277 0.714649
Si Si4 0.500000 0.717904 0.000000
Si Si5 0.000000 0.612206 0.500000
Si Si6 0.758256 0.984971 0.306395
Si Si7 0.387070 0.040747 0.415597
Si Si8 0.904964 0.819302 0.733679
O O1 0.425365 0.459456 0.282840
O O2 0.328202 0.290450 0.269828
O O3 0.346239 0.106590 0.379687
O O4 0.548573 0.139034 0.102694
O O5 0.444974 0.777485 0.848369
O O6 0.467674 0.840627 0.962807
O O7 0.247706 0.859984 0.117744
O O8 0.109139 0.302043 0.590127
O O9 0.957575 0.013650 0.720968
O O10 0.628594 0.590352 0.851366
O O11 0.875485 0.476713 0.603049
O O12 0.956006 0.758617 0.606414
O O13 0.706804 0.107862 0.427007
O O14 0.530071 0.135534 0.286892
#
# Coordination Sequence:
#
# PCOD9126828 Si02
#       8
#     4   4   4   2   2   4   4   4
#     4  10  23  41  67 105 136 185 240 295 360 418
#     4  11  24  42  68 103 142 189 238 293 358 426
#     4  10  22  42  67 104 140 183 234 304 350 426
#     4  12  24  46  68  98 150 198 234 306 354 424
#     4  10  22  48  72 102 144 194 240 288 362 428
#     4  11  23  45  73  99 144 190 234 299 359 430
#     4   9  23  42  69 106 137 187 241 296 360 425
#     4  10  22  42  71  99 145 187 236 291 358 423
#
# _framework density 21.39818
#
# number of rings (size 3 to 8) (size 9 to 14) (size 15 to 20)
#    0.000    1.714    2.857    0.000    8.000    0.571 
#    5.143    7.143    0.000    0.000    0.000    0.000 
#    0.000    0.000    0.000    0.000    0.000    0.000 
#
# Total GULP energy -77984.560937 kJ/mol
# GULP energy per Si atom -5570.325781 kJ/mol
# Density = 2.134948 g / cm^3
# Si number density = 21.398180 Si / 1000 Ang^3
#
#
#
# Elastic Constant Matrix: (Units=GPa)
#
#
# Indices 1 2 3 4 5 6 
#
# 1 125.5649 40.0181 40.4407 -0.0046 -9.5287 -0.0049
# 2 40.0181 93.2485 35.7262 0.0016 -12.4126 0.0103
# 3 40.4407 35.7262 107.9005 -0.0005 -11.7559 0.0041
# 4 -0.0046 0.0016 -0.0005 5.6825 -0.0006 -22.2739
# 5 -9.5287 -12.4126 -11.7559 -0.0006 45.3701 -0.0018
# 6 -0.0049 0.0103 0.0041 -22.2739 -0.0018 18.4326
#
#
#
# Elastic Compliance Matrix: (Units=1/GPa)
#
#
# Indices 1 2 3 4 5 6 
#
# 1 0.009845 -0.003164 -0.002584 -0.000008 0.000532 -0.000004
# 2 -0.003164 0.013553 -0.003056 0.000010 0.002251 0.000004
# 3 -0.002584 -0.003056 0.011420 0.000001 0.001580 0.000000
# 4 -0.000008 0.000010 0.000001 -0.047096 -0.000001 -0.056911
# 5 0.000532 0.002251 0.001580 -0.000001 0.023178 -0.000001
# 6 -0.000004 0.000004 0.000000 -0.056911 -0.000001 -0.014519
#
#
# Mechanical properties :
#
#
# Convention : Reuss Voigt Hill
#
# Bulk Modulus (GPa) = 58.10871 62.12044 60.11458
# Shear Modulus (GPa) = 253.46923 27.93231 140.70077
#
# Velocity S-wave (km/s) = 10.89545 3.61689 8.11766
# Velocity P-wave (km/s) = 13.61969 6.82175 10.77108
#
# Compressibility (1/GPa) = 0.01720912
#
# Stress axis : x y z
#
# Youngs Moduli (GPa) = 101.57296 73.78712 87.56243
#
# Poissons Ratio (x) = 0.23347 0.22628
# Poissons Ratio (y) = 0.32139 0.26760
# Poissons Ratio (z) = 0.26249 0.22550
#
# Static dielectric constant tensor:
#      x y z
#    x 1.846030 0.000010 -0.024600 
#    y 0.000010 1.768980 0.000000 
#    z -0.024600 0.000000 1.825260 
# 
# From -- ./inp_files/67244.got.cif
#   From: 2010.05.17/outbox.cif.g08.bks.cpg/sg5_34_cif.got.tgz:67244.got - 2010.06.03 18:56:24.
