data_PCOD9126261
_publ_section_title
;
Structure prediction by ZEFSAII (Michael W. Deem and Ramdas Pophale) SiO2 
 PCOD9126261
Probable space group: C 2
;
_chemical_formula_sum "Si O2"
_cell_formula_units_Z 24
_cell_length_a 17.493443
_cell_length_b 7.271606
_cell_length_c 23.485086
_cell_angle_alpha 90.000000
_cell_angle_beta 19.321703
_cell_angle_gamma 90.000000
_cell_volume 988.456666
_symmetry_space_group_name_H-M "C 2"
_symmetry_group_IT_number 5
_symmetry_cell_setting 'monoclinic'
loop_
_space_group_symop_operation_xyz
x,y,z
-x,y,-z
1/2+x,1/2+y,z
1/2-x,1/2+y,-z
loop_
_atom_site_type_symbol
_atom_site_label
_atom_site_fract_x
_atom_site_fract_y
_atom_site_fract_z
Si Si1 0.532905 0.015940 0.698563
Si Si2 0.108392 0.845354 0.864819
Si Si3 0.029769 0.122739 0.545527
Si Si4 0.476298 0.324452 0.372476
Si Si5 0.237464 0.515469 0.928762
Si Si6 0.083518 0.117721 0.078208
O O1 0.471481 0.121709 0.683996
O O2 0.710865 0.137405 0.612534
O O3 0.304677 0.009544 0.895709
O O4 0.697863 0.847126 0.568267
O O5 0.359174 0.760274 0.696513
O O6 0.000000 0.913612 0.000000
O O7 0.947750 0.671391 0.957942
O O8 0.117439 0.004829 0.811172
O O9 0.000000 0.149019 0.500000
O O10 0.956377 0.914714 0.615162
O O11 0.604396 0.450554 0.235163
O O12 0.110588 0.328913 0.040195
O O13 0.394605 0.589572 0.870064
#
# Coordination Sequence:
#
# PCOD9126261 Si02
#       6
#     4   4   4   4   4   4
#     4   9  21  40  64  90 119 170 219 251 310 397
#     4  12  24  42  65  95 136 168 207 274 334 366
#     4  10  22  39  63  92 129 166 203 270 333 366
#     4   9  21  37  62  88 123 167 211 259 315 386
#     4  11  22  42  62  96 125 170 217 264 314 391
#     4  11  24  39  70  94 125 170 225 256 314 398
#
# _framework density 24.280275
#
# number of rings (size 3 to 8) (size 9 to 14) (size 15 to 20)
#    1.000    0.667    3.333    1.000    7.000    0.667 
#    0.000    0.000    0.000    2.000    0.000    0.000 
#    0.000    0.000    0.000    0.000    0.000    0.000 
#
# Total GULP energy -67041.339009 kJ/mol
# GULP energy per Si atom -5586.778251 kJ/mol
# Density = 2.422501 g / cm^3
# Si number density = 24.280275 Si / 1000 Ang^3
#
#
#
# Elastic Constant Matrix: (Units=GPa)
#
#
# Indices 1 2 3 4 5 6 
#
# 1 60.8433 25.3985 -2.5584 0.0043 -1.4050 0.0048
# 2 25.3985 97.4228 8.6239 -0.0343 -10.6086 -0.0010
# 3 -2.5584 8.6239 50.0656 -0.0317 -4.6495 -0.0009
# 4 0.0043 -0.0343 -0.0317 26.2452 -0.0018 -5.9856
# 5 -1.4050 -10.6086 -4.6495 -0.0018 35.1660 0.0001
# 6 0.0048 -0.0010 -0.0009 -5.9856 0.0001 38.2819
#
#
#
# Elastic Compliance Matrix: (Units=1/GPa)
#
#
# Indices 1 2 3 4 5 6 
#
# 1 0.018614 -0.005070 0.001773 -0.000008 -0.000551 -0.000004
# 2 -0.005070 0.012114 -0.002050 0.000015 0.003181 0.000003
# 3 0.001773 -0.002050 0.020620 0.000023 0.002179 0.000004
# 4 -0.000008 0.000015 0.000023 0.039511 0.000009 0.006178
# 5 -0.000551 0.003181 0.002179 0.000009 0.029662 0.000002
# 6 -0.000004 0.000003 0.000004 0.006178 0.000002 0.027088
#
#
# Mechanical properties :
#
#
# Convention : Reuss Voigt Hill
#
# Bulk Modulus (GPa) = 24.59768 30.13998 27.36883
# Shear Modulus (GPa) = 29.09445 31.72980 30.41213
#
# Velocity S-wave (km/s) = 3.46537 3.61891 3.54297
# Velocity P-wave (km/s) = 5.11512 5.46830 5.29465
#
# Compressibility (1/GPa) = 0.04065424
#
# Stress axis : x y z
#
# Youngs Moduli (GPa) = 53.72358 82.54845 48.49680
#
# Poissons Ratio (x) = 0.41850 -0.08600
# Poissons Ratio (y) = 0.27236 0.09944
# Poissons Ratio (z) = -0.09527 0.16925
#
# Static dielectric constant tensor:
#      x y z
#    x 1.906270 0.000000 -0.035530 
#    y 0.000000 1.963160 0.000010 
#    z -0.035530 0.000010 1.933310 
# 
# From -- ./inp_files/70851.got.cif
#   From: 2010.05.17/outbox.cif.g08.bks.cpg/sg5_36_cif.got.tgz:70851.got - 2010.06.03 18:56:24.
