data_PCOD9126589
_publ_section_title
;
Structure prediction by ZEFSAII (Michael W. Deem and Ramdas Pophale) SiO2 
 PCOD9126589
Probable space group: C 2
;
_chemical_formula_sum "Si O2"
_cell_formula_units_Z 26
_cell_length_a 13.646641
_cell_length_b 16.071383
_cell_length_c 8.588334
_cell_angle_alpha 90.000000
_cell_angle_beta 133.939381
_cell_angle_gamma 90.000000
_cell_volume 1356.329734
_symmetry_space_group_name_H-M "C 2"
_symmetry_group_IT_number 5
_symmetry_cell_setting 'monoclinic'
loop_
_space_group_symop_operation_xyz
x,y,z
-x,y,-z
1/2+x,1/2+y,z
1/2-x,1/2+y,-z
loop_
_atom_site_type_symbol
_atom_site_label
_atom_site_fract_x
_atom_site_fract_y
_atom_site_fract_z
Si Si1 0.620612 0.619170 0.009950
Si Si2 0.687448 0.205400 0.546243
Si Si3 0.862641 0.562458 0.748918
Si Si4 0.198234 0.987794 0.837881
Si Si5 0.526683 0.785769 0.203552
Si Si6 0.989779 0.448554 0.313292
Si Si7 0.500000 0.342115 0.500000
O O1 0.631996 0.549809 0.890837
O O2 0.572018 0.707393 0.887427
O O3 0.500000 0.597079 0.000000
O O4 0.759344 0.643905 0.255242
O O5 0.646165 0.146215 0.359776
O O6 0.822174 0.252504 0.640671
O O7 0.581691 0.276527 0.481005
O O8 0.737508 0.537452 0.722527
O O9 0.891433 0.489501 0.657616
O O10 0.000000 0.567872 0.000000
O O11 0.107856 0.905995 0.700276
O O12 0.343705 0.965527 0.074749
O O13 0.508459 0.850683 0.318212
O O14 0.500000 0.823761 0.000000
O O15 0.000000 0.478728 0.500000
#
# Coordination Sequence:
#
# PCOD9126589 Si02
#       7
#     4   4   4   4   4   4   2
#     4   9  21  41  69  89 125 171 221 257 319 396
#     4  10  22  41  64  92 130 174 208 267 323 393
#     4  10  23  40  65  89 127 170 221 260 318 390
#     4  11  24  42  65  98 130 172 211 276 324 389
#     4   9  19  40  62  88 123 166 208 259 319 388
#     4  11  22  40  64  93 123 169 218 266 315 389
#     4  12  26  38  68 100 140 164 214 272 348 366
#
# _framework density 19.169378999999999
#
# number of rings (size 3 to 8) (size 9 to 14) (size 15 to 20)
#    0.000    2.154    0.000    5.077    9.692    1.231 
#    5.538    0.000    0.000    0.000    0.000    0.000 
#    0.000    0.000    0.000    0.000    0.000    0.000 
#
# Total GULP energy -72485.566639 kJ/mol
# GULP energy per Si atom -5575.812818 kJ/mol
# Density = 1.912575 g / cm^3
# Si number density = 19.169379 Si / 1000 Ang^3
#
#
#
# Elastic Constant Matrix: (Units=GPa)
#
#
# Indices 1 2 3 4 5 6 
#
# 1 84.9017 71.8356 40.7960 0.0000 -21.5816 0.0000
# 2 71.8356 106.9945 42.9249 0.0000 -18.1723 0.0000
# 3 40.7960 42.9249 58.1251 0.0000 -10.0404 0.0000
# 4 0.0000 0.0000 0.0000 12.5881 0.0000 -21.4734
# 5 -21.5816 -18.1723 -10.0404 0.0000 19.2575 0.0000
# 6 0.0000 0.0000 0.0000 -21.4734 0.0000 35.0770
#
#
#
# Elastic Compliance Matrix: (Units=1/GPa)
#
#
# Indices 1 2 3 4 5 6 
#
# 1 0.035008 -0.016709 -0.008988 0.000000 0.018780 0.000000
# 2 -0.016709 0.022533 -0.004918 0.000000 -0.000026 0.000000
# 3 -0.008988 -0.004918 0.027038 0.000000 -0.000616 0.000000
# 4 0.000000 0.000000 0.000000 -1.793774 0.000000 -1.098111
# 5 0.018780 -0.000026 -0.000616 0.000000 0.072628 0.000000
# 6 0.000000 0.000000 0.000000 -1.098111 0.000000 -0.643731
#
#
# Mechanical properties :
#
#
# Convention : Reuss Voigt Hill
#
# Bulk Modulus (GPa) = 42.82557 62.34826 52.58691
# Shear Modulus (GPa) = -2.26113 19.68215 8.71051
#
# Velocity S-wave (km/s) = -1.08725 3.20777 2.13397
# Velocity P-wave (km/s) = 4.56212 6.80553 5.79345
#
# Compressibility (1/GPa) = 0.02335054
#
# Stress axis : x y z
#
# Youngs Moduli (GPa) = 28.56477 44.37934 36.98560
#
# Poissons Ratio (x) = 0.74153 0.33241
# Poissons Ratio (y) = 0.47729 0.18188
# Poissons Ratio (z) = 0.25673 0.21824
#
# Static dielectric constant tensor:
#      x y z
#    x 1.673760 0.000000 -0.015530 
#    y 0.000000 1.674100 0.000000 
#    z -0.015530 0.000000 1.743140 
# 
# From -- ./inp_files/24822.got.cif
#   From: 2010.05.17/outbox.cif.g08.bks.cpg/sg5_13_cif.got.tgz:24822.got - 2010.06.03 18:56:24.
