data_PCOD9126824
_publ_section_title
;
Structure prediction by ZEFSAII (Michael W. Deem and Ramdas Pophale) SiO2 
 PCOD9126824
Probable space group: C 2
;
_chemical_formula_sum "Si O2"
_cell_formula_units_Z 28
_cell_length_a 12.535191
_cell_length_b 7.290770
_cell_length_c 28.927366
_cell_angle_alpha 90.000000
_cell_angle_beta 151.202917
_cell_angle_gamma 90.000000
_cell_volume 1273.497387
_symmetry_space_group_name_H-M "C 2"
_symmetry_group_IT_number 5
_symmetry_cell_setting 'monoclinic'
loop_
_space_group_symop_operation_xyz
x,y,z
-x,y,-z
1/2+x,1/2+y,z
1/2-x,1/2+y,-z
loop_
_atom_site_type_symbol
_atom_site_label
_atom_site_fract_x
_atom_site_fract_y
_atom_site_fract_z
Si Si1 0.172551 0.777400 0.872753
Si Si2 0.849331 0.141604 0.557429
Si Si3 0.617120 0.710947 0.138718
Si Si4 0.500000 0.114786 0.000000
Si Si5 0.038736 0.745030 0.649485
Si Si6 0.710106 0.915795 0.666445
Si Si7 0.344971 0.094428 0.033649
Si Si8 0.500000 0.040484 0.500000
O O1 0.307950 0.668336 0.884990
O O2 0.155941 0.683078 0.915994
O O3 0.932042 0.814704 0.762013
O O4 0.294801 0.973759 0.919674
O O5 0.702100 0.156594 0.454548
O O6 0.016989 0.309350 0.620116
O O7 0.990504 0.955736 0.617611
O O8 0.668144 0.147167 0.529959
O O9 0.833774 0.724145 0.253443
O O10 0.489347 0.908304 0.091211
O O11 0.417872 0.576642 0.077531
O O12 0.542741 0.206471 0.966573
O O13 0.204224 0.628326 0.679488
O O14 0.650593 0.916816 0.590187
#
# Coordination Sequence:
#
# PCOD9126824 Si02
#       8
#     4   4   4   2   4   4   4   2
#     4  11  21  42  69  99 136 188 226 287 362 418
#     4  11  22  44  67 102 140 186 234 292 350 429
#     4  11  24  42  71  99 142 183 234 292 358 421
#     4  10  22  42  66  98 138 180 224 296 350 402
#     4  11  22  42  68 102 140 181 236 291 349 427
#     4  11  24  42  73  98 145 187 232 297 357 413
#     4  11  21  44  67  99 139 177 233 286 347 427
#     4  10  22  42  70  98 140 188 228 296 348 410
#
# _framework density 21.986695999999998
#
# number of rings (size 3 to 8) (size 9 to 14) (size 15 to 20)
#    0.000    1.143    5.714    2.571    0.000    1.143 
#    2.571   12.143    3.143    0.000    0.000    0.000 
#    0.000    0.000    0.000    0.000    0.000    0.000 
#
# Total GULP energy -78033.573977 kJ/mol
# GULP energy per Si atom -5573.826713 kJ/mol
# Density = 2.193665 g / cm^3
# Si number density = 21.986696 Si / 1000 Ang^3
#
#
#
# Elastic Constant Matrix: (Units=GPa)
#
#
# Indices 1 2 3 4 5 6 
#
# 1 174.6107 40.5282 69.0231 0.0000 -6.2823 0.0000
# 2 40.5282 63.2137 9.8592 0.0000 -2.0654 0.0000
# 3 69.0231 9.8592 130.9183 -0.0002 -4.3028 0.0000
# 4 0.0000 0.0000 -0.0002 4.6675 0.0000 -4.5983
# 5 -6.2823 -2.0654 -4.3028 0.0000 40.5945 0.0000
# 6 0.0000 0.0000 0.0000 -4.5983 0.0000 29.7688
#
#
#
# Elastic Compliance Matrix: (Units=1/GPa)
#
#
# Indices 1 2 3 4 5 6 
#
# 1 0.008474 -0.004775 -0.004087 0.000000 0.000635 0.000000
# 2 -0.004775 0.018717 0.001119 0.000000 0.000332 0.000000
# 3 -0.004087 0.001119 0.009724 0.000000 0.000455 0.000000
# 4 0.000000 0.000000 0.000000 0.252703 0.000000 0.039034
# 5 0.000635 0.000332 0.000455 0.000000 0.024797 0.000000
# 6 0.000000 0.000000 0.000000 0.039034 0.000000 0.039622
#
#
# Mechanical properties :
#
#
# Convention : Reuss Voigt Hill
#
# Bulk Modulus (GPa) = 46.66705 67.50708 57.08707
# Shear Modulus (GPa) = 13.27438 31.62831 22.45135
#
# Velocity S-wave (km/s) = 2.45979 3.79690 3.19898
# Velocity P-wave (km/s) = 5.41651 7.07051 6.29805
#
# Compressibility (1/GPa) = 0.02142839
#
# Stress axis : x y z
#
# Youngs Moduli (GPa) = 118.01243 53.42791 102.83972
#
# Poissons Ratio (x) = 0.25509 0.42031
# Poissons Ratio (y) = 0.56345 -0.11504
# Poissons Ratio (z) = 0.48233 -0.05977
#
# Static dielectric constant tensor:
#      x y z
#    x 1.870750 0.000000 -0.029000 
#    y 0.000000 1.860460 0.000000 
#    z -0.029000 0.000000 1.848130 
# 
# From -- ./inp_files/70381.got.cif
#   From: 2010.05.17/outbox.cif.g08.bks.cpg/sg5_36_cif.got.tgz:70381.got - 2010.06.03 18:56:24.
