data_PCOD9126881
_publ_section_title
;
Structure prediction by ZEFSAII (Michael W. Deem and Ramdas Pophale) SiO2 
 PCOD9126881
Probable space group: C 2
;
_chemical_formula_sum "Si O2"
_cell_formula_units_Z 28
_cell_length_a 5.622305
_cell_length_b 21.663648
_cell_length_c 12.800659
_cell_angle_alpha 90.000000
_cell_angle_beta 67.356194
_cell_angle_gamma 90.000000
_cell_volume 1438.932949
_symmetry_space_group_name_H-M "C 2"
_symmetry_group_IT_number 5
_symmetry_cell_setting 'monoclinic'
loop_
_space_group_symop_operation_xyz
x,y,z
-x,y,-z
1/2+x,1/2+y,z
1/2-x,1/2+y,-z
loop_
_atom_site_type_symbol
_atom_site_label
_atom_site_fract_x
_atom_site_fract_y
_atom_site_fract_z
Si Si1 0.500000 0.306680 0.500000
Si Si2 0.344078 0.968013 0.634059
Si Si3 0.460662 0.705738 0.790066
Si Si4 0.877158 0.614022 0.637128
Si Si5 0.283937 0.404868 0.691405
Si Si6 0.500000 0.233293 0.000000
Si Si7 0.735019 0.709878 0.389721
Si Si8 0.225786 0.308698 0.879113
O O1 0.323638 0.352711 0.595954
O O2 0.367919 0.261557 0.438572
O O3 0.500000 0.956722 0.500000
O O4 0.523199 0.939236 0.696417
O O5 0.051510 0.944056 0.660409
O O6 0.344403 0.041492 0.653934
O O7 0.614246 0.647983 0.715297
O O8 0.357506 0.738201 0.702719
O O9 0.649595 0.753007 0.814963
O O10 0.239363 0.694024 0.914407
O O11 0.000000 0.624832 0.500000
O O12 0.086701 0.651722 0.668877
O O13 0.263566 0.368706 0.803836
O O14 0.555503 0.279677 0.085772
O O15 0.500000 0.686672 0.500000
O O16 0.000000 0.319885 0.000000
#
# Coordination Sequence:
#
# PCOD9126881 Si02
#       8
#     2   4   4   4   4   2   4   4
#     4  12  24  36  58 100 130 174 212 272 346 394
#     4  11  26  44  65  96 137 189 221 269 328 394
#     4  11  22  40  65 100 131 171 213 280 337 405
#     4  11  23  41  62  97 135 177 226 264 330 400
#     4  12  25  43  66  96 135 176 226 273 328 400
#     4  10  22  42  68  98 132 168 216 276 356 398
#     4  12  22  36  62  96 136 169 211 280 334 405
#     4  10  24  42  69  97 127 172 219 278 344 403
#
# _framework density 19.458864999999999
#
# number of rings (size 3 to 8) (size 9 to 14) (size 15 to 20)
#    0.000    0.857    3.571    3.429   10.000    0.000 
#    0.000    0.000    1.571    1.714    0.000    0.000 
#    0.000    0.000    0.000    0.000    0.000    0.000 
#
# Total GULP energy -78042.040750 kJ/mol
# GULP energy per Si atom -5574.431482 kJ/mol
# Density = 1.941458 g / cm^3
# Si number density = 19.458865 Si / 1000 Ang^3
#
#
#
# Elastic Constant Matrix: (Units=GPa)
#
#
# Indices 1 2 3 4 5 6 
#
# 1 103.6449 50.5622 35.2694 0.0000 18.5858 0.0000
# 2 50.5622 112.0298 46.7052 0.0000 1.6008 0.0000
# 3 35.2694 46.7052 102.6618 0.0000 6.8572 0.0000
# 4 0.0000 0.0000 0.0000 23.7399 0.0000 0.2068
# 5 18.5858 1.6008 6.8572 0.0000 48.5523 0.0000
# 6 0.0000 0.0000 0.0000 0.2068 0.0000 1.8576
#
#
#
# Elastic Compliance Matrix: (Units=1/GPa)
#
#
# Indices 1 2 3 4 5 6 
#
# 1 0.013788 -0.005323 -0.001993 0.000000 -0.004821 0.000000
# 2 -0.005323 0.013076 -0.004268 0.000000 0.002209 0.000000
# 3 -0.001993 -0.004268 0.012424 0.000000 -0.000851 0.000000
# 4 0.000000 0.000000 0.000000 0.042164 0.000000 -0.004694
# 5 -0.004821 0.002209 -0.000851 0.000000 0.022489 0.000000
# 6 0.000000 0.000000 0.000000 -0.004694 0.000000 0.538838
#
#
# Mechanical properties :
#
#
# Convention : Reuss Voigt Hill
#
# Bulk Modulus (GPa) = 62.03417 64.82334 63.42876
# Shear Modulus (GPa) = 7.44800 27.21662 17.33231
#
# Velocity S-wave (km/s) = 1.95854 3.74394 2.98772
# Velocity P-wave (km/s) = 6.08797 7.21629 6.67601
#
# Compressibility (1/GPa) = 0.01612015
#
# Stress axis : x y z
#
# Youngs Moduli (GPa) = 72.52752 76.47420 80.49000
#
# Poissons Ratio (x) = 0.40707 0.16043
# Poissons Ratio (y) = 0.38607 0.34352
# Poissons Ratio (z) = 0.14456 0.32638
#
# Static dielectric constant tensor:
#      x y z
#    x 1.856160 0.000000 -0.012260 
#    y 0.000000 1.657190 0.000000 
#    z -0.012260 0.000000 1.697930 
# 
# From -- ./inp_files/33942.got.cif
#   From: 2010.05.17/outbox.cif.g08.bks.cpg/sg5_17_cif.got.tgz:33942.got - 2010.06.03 18:56:24.
