data_PCOD9126163
_publ_section_title
;
Structure prediction by ZEFSAII (Michael W. Deem and Ramdas Pophale) SiO2 
 PCOD9126163
Probable space group: C 2
;
_chemical_formula_sum "Si O2"
_cell_formula_units_Z 30
_cell_length_a 19.573744
_cell_length_b 11.715761
_cell_length_c 6.303994
_cell_angle_alpha 90.000000
_cell_angle_beta 81.158419
_cell_angle_gamma 90.000000
_cell_volume 1428.461737
_symmetry_space_group_name_H-M "C 2"
_symmetry_group_IT_number 5
_symmetry_cell_setting 'monoclinic'
loop_
_space_group_symop_operation_xyz
x,y,z
-x,y,-z
1/2+x,1/2+y,z
1/2-x,1/2+y,-z
loop_
_atom_site_type_symbol
_atom_site_label
_atom_site_fract_x
_atom_site_fract_y
_atom_site_fract_z
Si Si1 0.681864 0.734900 0.550750
Si Si2 0.255567 0.879108 0.117945
Si Si3 0.597339 0.333869 0.275742
Si Si4 0.500000 0.466802 0.000000
Si Si5 0.928235 0.038529 0.415755
Si Si6 0.693571 0.103032 0.672098
Si Si7 0.573636 0.107415 0.075750
Si Si8 0.347492 0.946418 0.691205
O O1 0.701301 0.780479 0.777457
O O2 0.635756 0.623174 0.535219
O O3 0.755211 0.706861 0.403224
O O4 0.640283 0.837751 0.461271
O O5 0.175902 0.845685 0.162409
O O6 0.265785 0.996959 0.241708
O O7 0.284529 0.909069 0.873374
O O8 0.544678 0.393136 0.139043
O O9 0.589395 0.410227 0.491960
O O10 0.577089 0.202449 0.259473
O O11 0.446935 0.538614 0.161157
O O12 0.000000 0.072796 0.500000
O O13 0.669910 0.050238 0.458617
O O14 0.631567 0.130998 0.865220
O O15 0.593336 0.988389 0.177761
O O16 0.500000 0.106741 0.000000
#
# Coordination Sequence:
#
# PCOD9126163 Si02
#       8
#     4   4   4   2   4   4   4   4
#     4  11  22  43  68  97 130 171 220 273 327 390
#     4  10  22  38  67 100 129 169 218 269 327 390
#     4  11  21  42  67  98 131 170 217 271 335 388
#     4  10  24  40  64  96 132 174 216 264 330 402
#     4  10  24  44  66  98 133 172 219 272 332 389
#     4  10  22  42  66  98 129 170 217 271 328 383
#     4  11  24  44  66  99 133 174 216 268 329 400
#     4  10  24  43  64  99 131 170 220 266 333 389
#
# _framework density 21.001615000000001
#
# number of rings (size 3 to 8) (size 9 to 14) (size 15 to 20)
#    0.000    1.600    2.000    1.600    1.867    5.867 
#   12.000    0.000    0.000    0.000    0.000    0.000 
#    0.000    0.000    0.000    0.000    0.000    0.000 
#
# Total GULP energy -83697.323863 kJ/mol
# GULP energy per Si atom -5579.821591 kJ/mol
# Density = 2.095381 g / cm^3
# Si number density = 21.001615 Si / 1000 Ang^3
#
#
#
# Elastic Constant Matrix: (Units=GPa)
#
#
# Indices 1 2 3 4 5 6 
#
# 1 99.3926 44.2882 20.6377 0.0000 -3.9466 0.0000
# 2 44.2882 78.2198 31.8164 0.0000 5.0567 0.0000
# 3 20.6377 31.8164 80.0883 0.0000 -4.0876 0.0000
# 4 0.0000 0.0000 0.0000 22.6449 0.0000 7.5975
# 5 -3.9466 5.0567 -4.0876 0.0000 14.0938 0.0000
# 6 0.0000 0.0000 0.0000 7.5975 0.0000 15.1430
#
#
#
# Elastic Compliance Matrix: (Units=1/GPa)
#
#
# Indices 1 2 3 4 5 6 
#
# 1 0.014095 -0.008471 0.000091 0.000000 0.007013 0.000000
# 2 -0.008471 0.021126 -0.006818 0.000000 -0.011929 0.000000
# 3 0.000091 -0.006818 0.015527 0.000000 0.006975 0.000000
# 4 0.000000 0.000000 0.000000 0.053098 0.000000 -0.026640
# 5 0.007013 -0.011929 0.006975 0.000000 0.079220 0.000000
# 6 0.000000 0.000000 0.000000 -0.026640 0.000000 0.079403
#
#
# Mechanical properties :
#
#
# Convention : Reuss Voigt Hill
#
# Bulk Modulus (GPa) = 49.13698 50.13168 49.63433
# Shear Modulus (GPa) = 16.68613 21.10690 18.89652
#
# Velocity S-wave (km/s) = 2.82177 3.17363 3.00286
# Velocity P-wave (km/s) = 5.83645 6.11159 5.97560
#
# Compressibility (1/GPa) = 0.02035127
#
# Stress axis : x y z
#
# Youngs Moduli (GPa) = 70.94542 47.33614 64.40205
#
# Poissons Ratio (x) = 0.40099 -0.00586
# Poissons Ratio (y) = 0.60099 0.43912
# Poissons Ratio (z) = -0.00646 0.32276
#
# Static dielectric constant tensor:
#      x y z
#    x 1.733910 0.000000 0.004900 
#    y 0.000000 1.782170 0.000000 
#    z 0.004900 0.000000 1.808650 
# 
# From -- ./inp_files/9592.got.cif
#   From: 2010.05.17/outbox.cif.g08.bks.cpg/sg5_5_cif.got.tgz:9592.got - 2010.06.03 18:56:24.
