data_PCOD9126652
_publ_section_title
;
Structure prediction by ZEFSAII (Michael W. Deem and Ramdas Pophale) SiO2 
 PCOD9126652
Probable space group: C 2
;
_chemical_formula_sum "Si O2"
_cell_formula_units_Z 26
_cell_length_a 12.535485
_cell_length_b 8.033930
_cell_length_c 27.084563
_cell_angle_alpha 90.000000
_cell_angle_beta 26.182395
_cell_angle_gamma 90.000000
_cell_volume 1203.527961
_symmetry_space_group_name_H-M "C 2"
_symmetry_group_IT_number 5
_symmetry_cell_setting 'monoclinic'
loop_
_space_group_symop_operation_xyz
x,y,z
-x,y,-z
1/2+x,1/2+y,z
1/2-x,1/2+y,-z
loop_
_atom_site_type_symbol
_atom_site_label
_atom_site_fract_x
_atom_site_fract_y
_atom_site_fract_z
Si Si1 0.500000 0.475600 0.500000
Si Si2 0.369534 0.148753 0.417938
Si Si3 0.465540 0.240669 0.067998
Si Si4 0.264722 0.996862 0.565234
Si Si5 0.667317 0.927311 0.031948
Si Si6 0.566859 0.753040 0.719986
Si Si7 0.904424 0.122015 0.181008
O O1 0.639933 0.576445 0.484168
O O2 0.288218 0.368438 0.612767
O O3 0.343253 0.114441 0.487052
O O4 0.364692 0.342190 0.406454
O O5 0.623699 0.075030 0.293164
O O6 0.201311 0.316407 0.179805
O O7 0.514044 0.095682 0.088316
O O8 0.500000 0.158458 0.000000
O O9 0.669849 0.382353 0.987905
O O10 0.500000 0.949134 0.500000
O O11 0.094757 0.090758 0.674110
O O12 0.497174 0.762518 0.102782
O O13 0.899675 0.971737 0.900338
O O14 0.586093 0.706518 0.769144
#
# Coordination Sequence:
#
# PCOD9126652 Si02
#       7
#     2   4   4   4   4   4   4
#     4  12  26  42  74 112 138 194 238 288 374 422
#     4  12  25  46  71 106 150 180 237 297 357 435
#     4  11  22  43  70  93 137 179 227 289 346 406
#     4  12  24  45  72 103 141 188 231 284 359 430
#     4  10  22  41  67  98 124 187 232 274 349 411
#     4  12  22  45  72  99 143 189 230 298 352 415
#     4  11  22  43  70  97 142 181 237 293 346 417
#
# _framework density 21.603155999999998
#
# number of rings (size 3 to 8) (size 9 to 14) (size 15 to 20)
#    0.000    0.615    6.154    3.692    0.000    0.000 
#    0.000    7.692    0.000    0.000    0.000    0.000 
#    0.000    0.000    0.000    0.000    0.000    0.000 
#
# Total GULP energy -72445.242795 kJ/mol
# GULP energy per Si atom -5572.710984 kJ/mol
# Density = 2.155399 g / cm^3
# Si number density = 21.603156 Si / 1000 Ang^3
#
#
#
# Elastic Constant Matrix: (Units=GPa)
#
#
# Indices 1 2 3 4 5 6 
#
# 1 100.7201 30.2270 32.8490 0.0008 -15.5562 0.0000
# 2 30.2270 61.5918 17.8939 0.0011 17.5885 -0.0005
# 3 32.8490 17.8939 101.1065 0.0060 -15.2881 -0.0038
# 4 0.0008 0.0011 0.0060 25.6478 -0.0028 0.5126
# 5 -15.5562 17.5885 -15.2881 -0.0028 43.8568 0.0011
# 6 0.0000 -0.0005 -0.0038 0.5126 0.0011 35.1439
#
#
#
# Elastic Compliance Matrix: (Units=1/GPa)
#
#
# Indices 1 2 3 4 5 6 
#
# 1 0.014429 -0.008800 -0.001924 0.000001 0.007976 -0.000001
# 2 -0.008800 0.025981 -0.003997 -0.000002 -0.014934 0.000000
# 3 -0.001924 -0.003997 0.011995 -0.000002 0.005102 0.000001
# 4 0.000001 -0.000002 -0.000002 0.039001 0.000003 -0.000569
# 5 0.007976 -0.014934 0.005102 0.000003 0.033398 -0.000001
# 6 -0.000001 0.000000 0.000001 -0.000569 -0.000001 0.028463
#
#
# Mechanical properties :
#
#
# Convention : Reuss Voigt Hill
#
# Bulk Modulus (GPa) = 43.55171 47.26201 45.40686
# Shear Modulus (GPa) = 26.26559 33.09291 29.67925
#
# Velocity S-wave (km/s) = 3.49065 3.91814 3.71055
# Velocity P-wave (km/s) = 6.03737 6.51106 6.27868
#
# Compressibility (1/GPa) = 0.02296121
#
# Stress axis : x y z
#
# Youngs Moduli (GPa) = 69.30480 38.49034 83.37070
#
# Poissons Ratio (x) = 0.33871 0.16044
# Poissons Ratio (y) = 0.60988 0.33325
# Poissons Ratio (z) = 0.13337 0.15385
#
# Static dielectric constant tensor:
#      x y z
#    x 1.796480 0.000000 -0.057320 
#    y 0.000000 1.833160 0.000000 
#    z -0.057320 0.000000 1.829410 
# 
# From -- ./inp_files/68268.got.cif
#   From: 2010.05.17/outbox.cif.g08.bks.cpg/sg5_35_cif.got.tgz:68268.got - 2010.06.03 18:56:24.
