data_PCOD9126837
_publ_section_title
;
Structure prediction by ZEFSAII (Michael W. Deem and Ramdas Pophale) SiO2 
 PCOD9126837
Probable space group: C 2
;
_chemical_formula_sum "Si O2"
_cell_formula_units_Z 28
_cell_length_a 16.599549
_cell_length_b 12.427185
_cell_length_c 8.072941
_cell_angle_alpha 90.000000
_cell_angle_beta 128.900088
_cell_angle_gamma 90.000000
_cell_volume 1296.031623
_symmetry_space_group_name_H-M "C 2"
_symmetry_group_IT_number 5
_symmetry_cell_setting 'monoclinic'
loop_
_space_group_symop_operation_xyz
x,y,z
-x,y,-z
1/2+x,1/2+y,z
1/2-x,1/2+y,-z
loop_
_atom_site_type_symbol
_atom_site_label
_atom_site_fract_x
_atom_site_fract_y
_atom_site_fract_z
Si Si1 0.161933 0.422840 0.440837
Si Si2 0.760549 0.072425 0.821488
Si Si3 0.819239 0.664142 0.936234
Si Si4 0.917893 0.878992 0.044499
Si Si5 0.500000 0.389023 0.500000
Si Si6 0.500000 0.046369 0.000000
Si Si7 0.900318 0.198742 0.759286
Si Si8 0.161197 0.020647 0.532826
O O1 0.175500 0.495558 0.622335
O O2 0.129143 0.298663 0.395580
O O3 0.273613 0.439696 0.496811
O O4 0.077694 0.476600 0.210686
O O5 0.803977 0.163254 0.751472
O O6 0.716139 0.130109 0.926205
O O7 0.857963 0.992658 0.980435
O O8 0.740645 0.604951 0.711978
O O9 0.827877 0.790030 0.910339
O O10 0.931363 0.617454 0.034417
O O11 0.976098 0.840641 0.288803
O O12 0.000000 0.879547 0.000000
O O13 0.601453 0.458779 0.596093
O O14 0.918788 0.090967 0.676688
O O15 0.000000 0.223675 0.000000
#
# Coordination Sequence:
#
# PCOD9126837 Si02
#       8
#     4   4   4   4   2   2   4   4
#     4  10  22  42  67  95 136 183 227 292 358 419
#     4  11  24  42  71 100 142 182 245 292 352 437
#     4  11  24  44  69  99 139 185 236 288 357 420
#     4  12  25  46  72 106 143 188 241 299 360 428
#     4  12  24  42  70 100 140 180 232 294 350 418
#     4  10  22  44  64  96 138 178 226 294 346 422
#     4  11  22  41  70 101 135 185 230 290 371 426
#     4  10  23  42  64  95 141 175 232 291 348 420
#
# _framework density 21.604412
#
# number of rings (size 3 to 8) (size 9 to 14) (size 15 to 20)
#    0.000    1.143    2.857    3.857    2.000    1.714 
#    0.000    1.429    0.000    0.000    0.000    0.000 
#    0.000    0.000    0.000    0.000    0.000    0.000 
#
# Total GULP energy -78179.501793 kJ/mol
# GULP energy per Si atom -5584.250128 kJ/mol
# Density = 2.155524 g / cm^3
# Si number density = 21.604412 Si / 1000 Ang^3
#
#
#
# Elastic Constant Matrix: (Units=GPa)
#
#
# Indices 1 2 3 4 5 6 
#
# 1 92.5129 21.2568 6.0508 0.0000 -15.1453 0.0000
# 2 21.2568 63.5060 6.4881 0.0000 5.9862 0.0000
# 3 6.0508 6.4881 94.2169 0.0000 0.3863 0.0000
# 4 0.0000 0.0000 0.0000 30.3873 0.0000 3.9803
# 5 -15.1453 5.9862 0.3863 0.0000 38.3295 0.0000
# 6 0.0000 0.0000 0.0000 3.9803 0.0000 16.3218
#
#
#
# Elastic Compliance Matrix: (Units=1/GPa)
#
#
# Indices 1 2 3 4 5 6 
#
# 1 0.012910 -0.004820 -0.000521 0.000000 0.005859 0.000000
# 2 -0.004820 0.017894 -0.000903 0.000000 -0.004690 0.000000
# 3 -0.000521 -0.000903 0.010710 0.000000 -0.000173 0.000000
# 4 0.000000 0.000000 0.000000 0.033994 0.000000 -0.008290
# 5 0.005859 -0.004690 -0.000173 0.000000 0.029139 0.000000
# 6 0.000000 0.000000 0.000000 -0.008290 0.000000 0.063289
#
#
# Mechanical properties :
#
#
# Convention : Reuss Voigt Hill
#
# Bulk Modulus (GPa) = 34.45334 35.31414 34.88374
# Shear Modulus (GPa) = 26.30159 31.43706 28.86932
#
# Velocity S-wave (km/s) = 3.49294 3.81874 3.65947
# Velocity P-wave (km/s) = 5.67886 5.98540 5.83414
#
# Compressibility (1/GPa) = 0.02902476
#
# Stress axis : x y z
#
# Youngs Moduli (GPa) = 77.45802 55.88325 93.36885
#
# Poissons Ratio (x) = 0.26938 0.04866
# Poissons Ratio (y) = 0.37338 0.08436
# Poissons Ratio (z) = 0.04037 0.05049
#
# Static dielectric constant tensor:
#      x y z
#    x 1.738290 0.000000 -0.006040 
#    y 0.000000 1.799590 0.000000 
#    z -0.006040 0.000000 1.866410 
# 
# From -- ./inp_files/23960.got.cif
#   From: 2010.05.17/outbox.cif.g08.bks.cpg/sg5_12_cif.got.tgz:23960.got - 2010.06.03 18:56:24.
