data_PCOD9126716
_publ_section_title
;
Structure prediction by ZEFSAII (Michael W. Deem and Ramdas Pophale) SiO2 
 PCOD9126716
Probable space group: C 2
;
_chemical_formula_sum "Si O2"
_cell_formula_units_Z 18
_cell_length_a 5.714437
_cell_length_b 18.472870
_cell_length_c 7.838813
_cell_angle_alpha 90.000000
_cell_angle_beta 61.791228
_cell_angle_gamma 90.000000
_cell_volume 729.202149
_symmetry_space_group_name_H-M "C 2"
_symmetry_group_IT_number 5
_symmetry_cell_setting 'monoclinic'
loop_
_space_group_symop_operation_xyz
x,y,z
-x,y,-z
1/2+x,1/2+y,z
1/2-x,1/2+y,-z
loop_
_atom_site_type_symbol
_atom_site_label
_atom_site_fract_x
_atom_site_fract_y
_atom_site_fract_z
Si Si1 0.507838 0.833590 0.701041
Si Si2 0.000000 0.920109 0.000000
Si Si3 0.303008 0.467869 0.717437
Si Si4 0.090183 0.164021 0.718258
Si Si5 0.078028 0.609765 0.730908
O O1 0.500000 0.843207 0.500000
O O2 0.239651 0.866413 0.869670
O O3 0.726796 0.885478 0.707435
O O4 0.565560 0.750513 0.719506
O O5 0.930883 0.968084 0.858721
O O6 0.500000 0.490375 0.500000
O O7 0.063254 0.523531 0.767829
O O8 0.285780 0.141856 0.804265
O O9 0.257060 0.134175 0.496292
O O10 0.789055 0.135261 0.801677
#
# Coordination Sequence:
#
# PCOD9126716 Si02
#       5
#     4   2   4   4   4
#     4  12  26  47  82 116 161 217 265 341 408 486
#     4  12  30  48  80 124 160 204 296 324 406 502
#     4  12  26  47  82 116 161 217 265 341 408 486
#     4  10  22  41  75 118 150 205 271 318 402 483
#     4  10  22  41  75 118 150 205 271 318 402 483
#
# _framework density 24.684512000000002
#
# number of rings (size 3 to 8) (size 9 to 14) (size 15 to 20)
#    0.000    0.889    6.667    0.667   12.444    0.000 
#    0.000    0.000    9.778    0.000    0.000    0.000 
#    0.000    0.000    0.000    0.000    0.000    0.000 
#
# Total GULP energy -50376.683075 kJ/mol
# GULP energy per Si atom -5597.409231 kJ/mol
# Density = 2.462833 g / cm^3
# Si number density = 24.684512 Si / 1000 Ang^3
#
#
#
# Elastic Constant Matrix: (Units=GPa)
#
#
# Indices 1 2 3 4 5 6 
#
# 1 199.7528 43.4381 70.3640 0.0000 15.7814 0.0000
# 2 43.4381 150.9528 20.7715 0.0000 14.8936 0.0000
# 3 70.3640 20.7715 131.4769 0.0000 27.0972 0.0000
# 4 0.0000 0.0000 0.0000 -0.6602 0.0000 -7.3251
# 5 15.7814 14.8936 27.0972 0.0000 46.4622 0.0000
# 6 0.0000 0.0000 0.0000 -7.3251 0.0000 33.3035
#
#
#
# Elastic Compliance Matrix: (Units=1/GPa)
#
#
# Indices 1 2 3 4 5 6 
#
# 1 0.006452 -0.001424 -0.003262 0.000000 0.000168 0.000000
# 2 -0.001424 0.007215 -0.000001 0.000000 -0.001829 0.000000
# 3 -0.003262 -0.000001 0.010370 0.000000 -0.004940 0.000000
# 4 0.000000 0.000000 0.000000 -0.440271 0.000000 -0.096838
# 5 0.000168 -0.001829 -0.004940 0.000000 0.024933 0.000000
# 6 0.000000 0.000000 0.000000 -0.096838 0.000000 0.008727
#
#
# Mechanical properties :
#
#
# Convention : Reuss Voigt Hill
#
# Bulk Modulus (GPa) = 68.20401 83.48109 75.84255
# Shear Modulus (GPa) = -13.57544 38.99503 12.70980
#
# Velocity S-wave (km/s) = -2.34766 3.97890 2.27158
# Velocity P-wave (km/s) = 4.51016 7.41630 6.13772
#
# Compressibility (1/GPa) = 0.01466190
#
# Stress axis : x y z
#
# Youngs Moduli (GPa) = 154.99378 138.60123 96.43133
#
# Poissons Ratio (x) = 0.19740 0.31461
# Poissons Ratio (y) = 0.22074 0.00008
# Poissons Ratio (z) = 0.50567 0.00011
#
# Static dielectric constant tensor:
#      x y z
#    x 1.973030 0.000000 -0.026810 
#    y 0.000000 1.869230 0.000000 
#    z -0.026810 0.000000 1.994150 
# 
# From -- ./inp_files/12015.got.cif
#   From: 2010.05.17/outbox.cif.g08.bks.cpg/sg5_7_cif.got.tgz:12015.got - 2010.06.03 18:56:24.
