data_PCOD9126868
_publ_section_title
;
Structure prediction by ZEFSAII (Michael W. Deem and Ramdas Pophale) SiO2 
 PCOD9126868
Probable space group: C 2
;
_chemical_formula_sum "Si O2"
_cell_formula_units_Z 24
_cell_length_a 12.482087
_cell_length_b 10.258758
_cell_length_c 18.494158
_cell_angle_alpha 90.000000
_cell_angle_beta 152.399115
_cell_angle_gamma 90.000000
_cell_volume 1097.205482
_symmetry_space_group_name_H-M "C 2"
_symmetry_group_IT_number 5
_symmetry_cell_setting 'monoclinic'
loop_
_space_group_symop_operation_xyz
x,y,z
-x,y,-z
1/2+x,1/2+y,z
1/2-x,1/2+y,-z
loop_
_atom_site_type_symbol
_atom_site_label
_atom_site_fract_x
_atom_site_fract_y
_atom_site_fract_z
Si Si1 0.295840 0.272450 0.067447
Si Si2 0.248312 0.297991 0.873487
Si Si3 0.877846 0.448190 0.858879
Si Si4 0.100148 0.917679 0.348251
Si Si5 0.380523 0.665403 0.566534
Si Si6 0.574204 0.033826 0.273671
O O1 0.491427 0.381807 0.204764
O O2 0.386112 0.148887 0.164981
O O3 0.279148 0.241341 0.972807
O O4 0.051159 0.326831 0.947899
O O5 0.135908 0.204266 0.745725
O O6 0.054505 0.409103 0.770731
O O7 0.500000 0.346225 0.000000
O O8 0.624853 0.412074 0.734498
O O9 0.871759 0.515481 0.777996
O O10 0.000000 0.519204 0.000000
O O11 0.264294 0.802979 0.475169
O O12 0.197816 0.064761 0.415739
O O13 0.303609 0.577020 0.452786
#
# Coordination Sequence:
#
# PCOD9126868 Si02
#       6
#     4   4   4   4   4   4
#     4   9  22  40  66  95 128 169 222 272 321 398
#     4  11  25  41  66  95 131 174 220 270 327 385
#     4   9  20  39  68  99 122 174 221 269 328 394
#     4  10  22  42  68  91 136 170 220 272 339 387
#     4  11  23  43  64  97 132 175 214 280 324 396
#     4  10  22  43  66  96 135 168 222 270 331 393
#
# _framework density 21.873752
#
# number of rings (size 3 to 8) (size 9 to 14) (size 15 to 20)
#    0.000    2.000    1.667    0.000    9.333    4.000 
#    3.000    0.000    7.333    0.000    0.000    0.000 
#    0.000    0.000    0.000    0.000    0.000    0.000 
#
# Total GULP energy -66860.893894 kJ/mol
# GULP energy per Si atom -5571.741158 kJ/mol
# Density = 2.182397 g / cm^3
# Si number density = 21.873752 Si / 1000 Ang^3
#
#
#
# Elastic Constant Matrix: (Units=GPa)
#
#
# Indices 1 2 3 4 5 6 
#
# 1 75.6702 10.1870 60.9749 0.0002 -15.5343 0.0000
# 2 10.1870 44.5212 30.6740 0.0000 -5.2988 -0.0001
# 3 60.9749 30.6740 158.4336 0.0015 -23.4431 0.0003
# 4 0.0002 0.0000 0.0015 37.4481 0.0002 -7.5781
# 5 -15.5343 -5.2988 -23.4431 0.0002 28.8780 -0.0001
# 6 0.0000 -0.0001 0.0003 -7.5781 -0.0001 19.8515
#
#
#
# Elastic Compliance Matrix: (Units=1/GPa)
#
#
# Indices 1 2 3 4 5 6 
#
# 1 0.019822 0.000932 -0.007053 0.000000 0.005108 0.000000
# 2 0.000932 0.025978 -0.005238 0.000000 0.001016 0.000000
# 3 -0.007053 -0.005238 0.010611 -0.000001 0.003859 0.000000
# 4 0.000000 0.000000 -0.000001 0.028939 0.000000 0.011047
# 5 0.005108 0.001016 0.003859 0.000000 0.040695 0.000000
# 6 0.000000 0.000000 0.000000 0.011047 0.000000 0.054591
#
#
# Mechanical properties :
#
#
# Convention : Reuss Voigt Hill
#
# Bulk Modulus (GPa) = 29.68010 53.58855 41.63433
# Shear Modulus (GPa) = 23.30068 29.02145 26.16107
#
# Velocity S-wave (km/s) = 3.26733 3.64644 3.46208
# Velocity P-wave (km/s) = 5.27563 6.50237 5.92086
#
# Compressibility (1/GPa) = 0.03369260
#
# Stress axis : x y z
#
# Youngs Moduli (GPa) = 50.44920 38.49469 94.23779
#
# Poissons Ratio (x) = -0.03588 0.66469
# Poissons Ratio (y) = -0.04702 0.49360
# Poissons Ratio (z) = 0.35583 0.20163
#
# Static dielectric constant tensor:
#      x y z
#    x 1.768390 0.000000 -0.033640 
#    y 0.000000 1.910100 0.000000 
#    z -0.033640 0.000000 1.826470 
# 
# From -- ./inp_files/30968.got.cif
#   From: 2010.05.17/outbox.cif.g08.bks.cpg/sg5_16_cif.got.tgz:30968.got - 2010.06.03 18:56:24.
