data_PCOD9126695
_publ_section_title
;
Structure prediction by ZEFSAII (Michael W. Deem and Ramdas Pophale) SiO2 
 PCOD9126695
Probable space group: C 2
;
_chemical_formula_sum "Si O2"
_cell_formula_units_Z 26
_cell_length_a 19.224456
_cell_length_b 9.212047
_cell_length_c 7.408080
_cell_angle_alpha 90.000000
_cell_angle_beta 122.512154
_cell_angle_gamma 90.000000
_cell_volume 1106.334245
_symmetry_space_group_name_H-M "C 2"
_symmetry_group_IT_number 5
_symmetry_cell_setting 'monoclinic'
loop_
_space_group_symop_operation_xyz
x,y,z
-x,y,-z
1/2+x,1/2+y,z
1/2-x,1/2+y,-z
loop_
_atom_site_type_symbol
_atom_site_label
_atom_site_fract_x
_atom_site_fract_y
_atom_site_fract_z
Si Si1 0.192076 0.138450 0.809481
Si Si2 0.340392 0.323686 0.096823
Si Si3 0.500000 0.635544 0.000000
Si Si4 0.053164 0.341132 0.756958
Si Si5 0.827063 0.715755 0.493187
Si Si6 0.490125 0.155059 0.269646
Si Si7 0.329401 0.531310 0.621435
O O1 0.138830 0.265906 0.826115
O O2 0.159284 0.093241 0.566640
O O3 0.186358 0.991588 0.922152
O O4 0.280569 0.212800 0.910767
O O5 0.335441 0.263616 0.295901
O O6 0.432780 0.294103 0.153296
O O7 0.511342 0.738214 0.843502
O O8 0.414550 0.552821 0.846014
O O9 0.056087 0.504527 0.836261
O O10 0.000000 0.344275 0.500000
O O11 0.750182 0.609990 0.407506
O O12 0.917185 0.656633 0.676453
O O13 0.810074 0.862487 0.577065
O O14 0.500000 0.156005 0.500000
#
# Coordination Sequence:
#
# PCOD9126695 Si02
#       7
#     4   4   2   4   4   4   4
#     4  11  23  42  70 104 138 190 238 289 357 427
#     4  10  22  41  70  99 139 184 235 293 358 418
#     4  12  26  44  72 108 142 186 232 300 354 410
#     4  11  23  42  71 100 137 182 237 283 352 423
#     4  10  24  46  68 100 142 184 238 294 352 423
#     4   9  21  42  69  99 139 184 233 294 355 418
#     4  11  26  44  71 101 145 185 238 294 356 422
#
# _framework density 23.501035999999999
#
# number of rings (size 3 to 8) (size 9 to 14) (size 15 to 20)
#    0.000    1.538    1.538    1.846    4.308    5.538 
#    0.000    0.000    0.000    0.000    0.000    0.000 
#    0.000    0.000    0.000    0.000    0.000    0.000 
#
# Total GULP energy -72734.377051 kJ/mol
# GULP energy per Si atom -5594.952081 kJ/mol
# Density = 2.344755 g / cm^3
# Si number density = 23.501036 Si / 1000 Ang^3
#
#
#
# Elastic Constant Matrix: (Units=GPa)
#
#
# Indices 1 2 3 4 5 6 
#
# 1 123.6277 55.6942 39.9311 0.0000 30.1491 0.0000
# 2 55.6942 132.5022 66.9584 0.0000 22.9282 0.0000
# 3 39.9311 66.9584 93.2160 0.0000 14.9625 0.0000
# 4 0.0000 0.0000 0.0000 29.7798 0.0000 0.4509
# 5 30.1491 22.9282 14.9625 0.0000 42.5417 0.0000
# 6 0.0000 0.0000 0.0000 0.4509 0.0000 28.6491
#
#
#
# Elastic Compliance Matrix: (Units=1/GPa)
#
#
# Indices 1 2 3 4 5 6 
#
# 1 0.011413 -0.002801 -0.001930 0.000000 -0.005900 0.000000
# 2 -0.002801 0.013078 -0.007823 0.000000 -0.002312 0.000000
# 3 -0.001930 -0.007823 0.017251 0.000000 -0.000484 0.000000
# 4 0.000000 0.000000 0.000000 0.033588 0.000000 -0.000529
# 5 -0.005900 -0.002312 -0.000484 0.000000 0.029104 0.000000
# 6 0.000000 0.000000 0.000000 -0.000529 0.000000 0.034913
#
#
# Mechanical properties :
#
#
# Convention : Reuss Voigt Hill
#
# Bulk Modulus (GPa) = 60.11693 74.94592 67.53142
# Shear Modulus (GPa) = 29.41192 32.64492 31.02842
#
# Velocity S-wave (km/s) = 3.54152 3.73109 3.63754
# Velocity P-wave (km/s) = 6.50839 7.10782 6.81470
#
# Compressibility (1/GPa) = 0.01663425
#
# Stress axis : x y z
#
# Youngs Moduli (GPa) = 87.62123 76.46661 57.96605
#
# Poissons Ratio (x) = 0.21417 0.11187
# Poissons Ratio (y) = 0.24542 0.45346
# Poissons Ratio (z) = 0.16911 0.59819
#
# Static dielectric constant tensor:
#      x y z
#    x 1.933420 0.000000 -0.002630 
#    y 0.000000 1.856110 0.000000 
#    z -0.002630 0.000000 1.945970 
# 
# From -- ./inp_files/29164.got.cif
#   From: 2010.05.17/outbox.cif.g08.bks.cpg/sg5_15_cif.got.tgz:29164.got - 2010.06.03 18:56:24.
