data_PCOD9126628
_publ_section_title
;
Structure prediction by ZEFSAII (Michael W. Deem and Ramdas Pophale) SiO2 
 PCOD9126628
Probable space group: C 2
;
_chemical_formula_sum "Si O2"
_cell_formula_units_Z 28
_cell_length_a 5.038741
_cell_length_b 21.884328
_cell_length_c 12.446229
_cell_angle_alpha 90.000000
_cell_angle_beta 103.171840
_cell_angle_gamma 90.000000
_cell_volume 1336.331486
_symmetry_space_group_name_H-M "C 2"
_symmetry_group_IT_number 5
_symmetry_cell_setting 'monoclinic'
loop_
_space_group_symop_operation_xyz
x,y,z
-x,y,-z
1/2+x,1/2+y,z
1/2-x,1/2+y,-z
loop_
_atom_site_type_symbol
_atom_site_label
_atom_site_fract_x
_atom_site_fract_y
_atom_site_fract_z
Si Si1 0.464676 0.258380 0.123820
Si Si2 0.433624 0.522481 0.809356
Si Si3 0.297115 0.587959 0.580091
Si Si4 0.295307 0.727245 0.578866
Si Si5 0.473702 0.946185 0.870614
Si Si6 0.719211 0.135839 0.928130
Si Si7 0.532670 0.815961 0.219977
O O1 0.444896 0.186933 0.154608
O O2 0.182146 0.287530 0.131221
O O3 0.716045 0.296706 0.193585
O O4 0.500000 0.257489 0.000000
O O5 0.347762 0.540934 0.681148
O O6 0.744411 0.499054 0.839540
O O7 0.346340 0.580836 0.872418
O O8 0.257820 0.469925 0.849505
O O9 0.500000 0.577889 0.500000
O O10 0.341337 0.657882 0.625726
O O11 0.000000 0.583549 0.500000
O O12 0.500000 0.736825 0.500000
O O13 0.331589 0.780225 0.668812
O O14 0.000000 0.728514 0.500000
O O15 0.411909 0.887386 0.791262
O O16 0.500000 0.930733 0.000000
O O17 0.500000 0.116620 0.000000
O O18 0.000000 0.165430 0.000000
#
# Coordination Sequence:
#
# PCOD9126628 Si02
#       7
#     4   4   4   4   4   4   4
#     4  11  22  37  61  93 126 160 206 268 331 392
#     4  12  24  42  64  90 127 175 217 262 320 381
#     4  10  22  41  66  95 125 159 206 267 330 388
#     4  10  22  42  67  95 125 158 205 268 333 389
#     4  12  26  43  64  92 130 177 222 261 308 379
#     4  11  22  37  60  94 130 163 208 269 335 399
#     4  12  24  42  64  91 126 172 217 261 320 384
#
# _framework density 20.952887
#
# number of rings (size 3 to 8) (size 9 to 14) (size 15 to 20)
#    0.000    0.857    0.000    9.000    0.000    3.429 
#    0.000    4.286    0.000    0.000    0.000    0.000 
#    0.000    0.000    0.000    0.000    0.000    0.000 
#
# Total GULP energy -78216.092620 kJ/mol
# GULP energy per Si atom -5586.863759 kJ/mol
# Density = 2.090520 g / cm^3
# Si number density = 20.952887 Si / 1000 Ang^3
#
#
#
# Elastic Constant Matrix: (Units=GPa)
#
#
# Indices 1 2 3 4 5 6 
#
# 1 115.7083 -2.0026 17.1398 0.0000 -6.7428 0.0000
# 2 -2.0026 63.0929 12.9706 0.0000 -0.7813 0.0000
# 3 17.1398 12.9706 67.9615 0.0000 -6.8376 0.0000
# 4 0.0000 0.0000 0.0000 38.6140 0.0000 7.8139
# 5 -6.7428 -0.7813 -6.8376 0.0000 25.3054 0.0000
# 6 0.0000 0.0000 0.0000 7.8139 0.0000 82.3360
#
#
#
# Elastic Compliance Matrix: (Units=1/GPa)
#
#
# Indices 1 2 3 4 5 6 
#
# 1 0.009097 0.000776 -0.002257 0.000000 0.001838 0.000000
# 2 0.000776 0.016566 -0.003377 0.000000 -0.000194 0.000000
# 3 -0.002257 -0.003377 0.016300 0.000000 0.003699 0.000000
# 4 0.000000 0.000000 0.000000 0.026404 0.000000 -0.002506
# 5 0.001838 -0.000194 0.003699 0.000000 0.041000 0.000000
# 6 0.000000 0.000000 0.000000 -0.002506 0.000000 0.012383
#
#
# Mechanical properties :
#
#
# Convention : Reuss Voigt Hill
#
# Bulk Modulus (GPa) = 31.01139 33.66425 32.33782
# Shear Modulus (GPa) = 35.15743 43.82809 39.49276
#
# Velocity S-wave (km/s) = 4.10070 4.57852 4.34618
# Velocity P-wave (km/s) = 6.10357 6.63717 6.37595
#
# Compressibility (1/GPa) = 0.03224622
#
# Stress axis : x y z
#
# Youngs Moduli (GPa) = 109.92211 60.36435 61.34929
#
# Poissons Ratio (x) = -0.04682 0.13849
# Poissons Ratio (y) = -0.08526 0.20717
# Poissons Ratio (z) = 0.24814 0.20384
#
# Static dielectric constant tensor:
#      x y z
#    x 1.709350 0.000000 -0.000790 
#    y 0.000000 1.813010 0.000000 
#    z -0.000790 0.000000 1.739770 
# 
# From -- ./inp_files/33976.got.cif
#   From: 2010.05.17/outbox.cif.g08.bks.cpg/sg5_17_cif.got.tgz:33976.got - 2010.06.03 18:56:24.
