data_PCOD9126373
_publ_section_title
;
Structure prediction by ZEFSAII (Michael W. Deem and Ramdas Pophale) SiO2 
 PCOD9126373
Probable space group: C 2
;
_chemical_formula_sum "Si O2"
_cell_formula_units_Z 22
_cell_length_a 21.989560
_cell_length_b 7.447465
_cell_length_c 13.732961
_cell_angle_alpha 90.000000
_cell_angle_beta 23.007511
_cell_angle_gamma 90.000000
_cell_volume 879.025165
_symmetry_space_group_name_H-M "C 2"
_symmetry_group_IT_number 5
_symmetry_cell_setting 'monoclinic'
loop_
_space_group_symop_operation_xyz
x,y,z
-x,y,-z
1/2+x,1/2+y,z
1/2-x,1/2+y,-z
loop_
_atom_site_type_symbol
_atom_site_label
_atom_site_fract_x
_atom_site_fract_y
_atom_site_fract_z
Si Si1 0.178632 0.776070 0.529992
Si Si2 0.859700 0.708117 0.761846
Si Si3 0.404055 0.507814 0.973237
Si Si4 0.562074 0.825225 0.303291
Si Si5 0.000000 0.269489 0.000000
Si Si6 0.207573 0.360461 0.427650
O O1 0.333507 0.862755 0.252741
O O2 0.172391 0.569255 0.506905
O O3 0.209038 0.782430 0.600956
O O4 0.026928 0.892275 0.731129
O O5 0.734435 0.617980 0.873046
O O6 0.948894 0.540405 0.676685
O O7 0.000000 0.812906 0.500000
O O8 0.742832 0.792489 0.012627
O O9 0.492095 0.643441 0.916567
O O10 0.320343 0.366933 0.168954
O O11 0.500000 0.760063 0.500000
O O12 0.449626 0.768737 0.380704
#
# Coordination Sequence:
#
# PCOD9126373 Si02
#       6
#     4   4   4   4   2   4
#     4  11  22  41  70  98 138 180 223 283 338 405
#     4  11  25  45  72  99 138 188 228 286 347 406
#     4  11  20  42  69  91 137 178 223 279 338 399
#     4  11  25  45  70 102 139 181 235 286 340 412
#     4  10  22  40  62  98 134 176 218 280 342 398
#     4  11  23  44  69 101 135 183 227 277 349 403
#
# _framework density 25.027723000000002
#
# number of rings (size 3 to 8) (size 9 to 14) (size 15 to 20)
#    0.000    1.091    7.273    1.091    2.545    0.727 
#    3.273    1.818    0.000    0.000    0.000    0.000 
#    0.000    0.000    0.000    0.000    0.000    0.000 
#
# Total GULP energy -61481.515953 kJ/mol
# GULP energy per Si atom -5589.228723 kJ/mol
# Density = 2.497076 g / cm^3
# Si number density = 25.027723 Si / 1000 Ang^3
#
#
#
# Elastic Constant Matrix: (Units=GPa)
#
#
# Indices 1 2 3 4 5 6 
#
# 1 114.9117 13.0386 30.6845 0.0000 -23.7844 0.0000
# 2 13.0386 59.3849 34.8335 0.0000 1.3242 0.0000
# 3 30.6845 34.8335 237.2967 0.0000 0.8453 0.0000
# 4 0.0000 0.0000 0.0000 40.2747 0.0000 -8.8839
# 5 -23.7844 1.3242 0.8453 0.0000 46.3844 0.0000
# 6 0.0000 0.0000 0.0000 -8.8839 0.0000 12.8131
#
#
#
# Elastic Compliance Matrix: (Units=1/GPa)
#
#
# Indices 1 2 3 4 5 6 
#
# 1 0.010300 -0.001738 -0.001096 0.000000 0.005351 0.000000
# 2 -0.001738 0.018730 -0.002520 0.000000 -0.001380 0.000000
# 3 -0.001096 -0.002520 0.004728 0.000000 -0.000576 0.000000
# 4 0.000000 0.000000 0.000000 0.029312 0.000000 0.020324
# 5 0.005351 -0.001380 -0.000576 0.000000 0.024353 0.000000
# 6 0.000000 0.000000 0.000000 0.020324 0.000000 0.092136
#
#
# Mechanical properties :
#
#
# Convention : Reuss Voigt Hill
#
# Bulk Modulus (GPa) = 43.38372 63.18961 53.28666
# Shear Modulus (GPa) = 25.25903 42.09689 33.67796
#
# Velocity S-wave (km/s) = 3.18030 4.10568 3.67226
# Velocity P-wave (km/s) = 5.55497 6.91217 6.27040
#
# Compressibility (1/GPa) = 0.02305012
#
# Stress axis : x y z
#
# Youngs Moduli (GPa) = 97.09053 53.39130 211.51678
#
# Poissons Ratio (x) = 0.09279 0.23177
# Poissons Ratio (y) = 0.16874 0.53297
# Poissons Ratio (z) = 0.10639 0.13453
#
# Static dielectric constant tensor:
#      x y z
#    x 2.021400 0.000000 0.014330 
#    y 0.000000 1.979740 0.000000 
#    z 0.014330 0.000000 2.108990 
# 
# From -- ./inp_files/52046.got.cif
#   From: 2010.05.17/outbox.cif.g08.bks.cpg/sg5_27_cif.got.tgz:52046.got - 2010.06.03 18:56:24.
