data_PCOD9126619
_publ_section_title
;
Structure prediction by ZEFSAII (Michael W. Deem and Ramdas Pophale) SiO2 
 PCOD9126619
Probable space group: C 2
;
_chemical_formula_sum "Si O2"
_cell_formula_units_Z 28
_cell_length_a 12.938188
_cell_length_b 4.928469
_cell_length_c 20.836070
_cell_angle_alpha 90.000000
_cell_angle_beta 120.478858
_cell_angle_gamma 90.000000
_cell_volume 1145.027823
_symmetry_space_group_name_H-M "C 2"
_symmetry_group_IT_number 5
_symmetry_cell_setting 'monoclinic'
loop_
_space_group_symop_operation_xyz
x,y,z
-x,y,-z
1/2+x,1/2+y,z
1/2-x,1/2+y,-z
loop_
_atom_site_type_symbol
_atom_site_label
_atom_site_fract_x
_atom_site_fract_y
_atom_site_fract_z
Si Si1 0.257332 0.590520 0.960139
Si Si2 0.770824 0.301426 0.354702
Si Si3 0.000000 0.371492 0.000000
Si Si4 0.426249 0.236481 0.608581
Si Si5 0.441632 0.730148 0.307312
Si Si6 0.500000 0.023191 0.500000
Si Si7 0.921391 0.174681 0.770843
Si Si8 0.005349 0.677496 0.136250
O O1 0.133720 0.657957 0.885784
O O2 0.254053 0.276466 0.978912
O O3 0.380999 0.687193 0.968640
O O4 0.687492 0.167261 0.382774
O O5 0.692643 0.555168 0.302978
O O6 0.820636 0.158471 0.306088
O O7 0.894335 0.368095 0.430144
O O8 0.010824 0.558149 0.066639
O O9 0.455934 0.551920 0.625782
O O10 0.529898 0.047251 0.672559
O O11 0.429632 0.180241 0.534290
O O12 0.464298 0.655917 0.241071
O O13 0.947825 0.979456 0.839182
O O14 0.920161 0.480590 0.793993
#
# Coordination Sequence:
#
# PCOD9126619 Si02
#       8
#     4   4   2   4   4   2   4   4
#     4  10  22  41  65  96 131 164 212 268 321 395
#     4  10  24  44  68  97 136 180 230 282 335 399
#     4  10  24  44  72 100 132 176 220 272 342 400
#     4  10  23  42  65  95 130 169 222 281 336 397
#     4  10  23  43  65  91 129 176 223 275 335 396
#     4  10  24  42  70 104 134 180 230 282 340 392
#     4  11  24  42  64  96 136 178 225 277 336 400
#     4  11  24  42  68 100 133 174 223 275 334 405
#
# _framework density 24.453555000000001
#
# number of rings (size 3 to 8) (size 9 to 14) (size 15 to 20)
#    0.000    1.714    0.000    3.429    0.000   22.286 
#    0.000    0.000    0.000    0.000    0.000    0.000 
#    0.000    0.000    0.000    0.000    0.000    0.000 
#
# Total GULP energy -78219.496817 kJ/mol
# GULP energy per Si atom -5587.106916 kJ/mol
# Density = 2.439790 g / cm^3
# Si number density = 24.453555 Si / 1000 Ang^3
#
#
#
# Elastic Constant Matrix: (Units=GPa)
#
#
# Indices 1 2 3 4 5 6 
#
# 1 198.1878 17.3171 50.3561 0.0000 -14.7217 0.0000
# 2 17.3171 52.4341 8.0113 0.0000 -0.6129 0.0001
# 3 50.3561 8.0113 84.7638 0.0000 3.7879 0.0000
# 4 0.0000 0.0000 0.0000 26.6959 0.0000 -0.4088
# 5 -14.7217 -0.6129 3.7879 0.0000 54.6689 0.0000
# 6 0.0000 0.0001 0.0000 -0.4088 0.0000 35.5485
#
#
#
# Elastic Compliance Matrix: (Units=1/GPa)
#
#
# Indices 1 2 3 4 5 6 
#
# 1 0.006247 -0.001482 -0.003657 0.000000 0.001919 0.000000
# 2 -0.001482 0.019709 -0.000977 0.000000 -0.000110 0.000000
# 3 -0.003657 -0.000977 0.014151 0.000000 -0.001976 0.000000
# 4 0.000000 0.000000 0.000000 0.037466 0.000000 0.000431
# 5 0.001919 -0.000110 -0.001976 0.000000 0.018944 0.000000
# 6 0.000000 0.000000 0.000000 0.000431 0.000000 0.028136
#
#
# Mechanical properties :
#
#
# Convention : Reuss Voigt Hill
#
# Bulk Modulus (GPa) = 35.87556 54.08386 44.97971
# Shear Modulus (GPa) = 34.20540 40.69608 37.45074
#
# Velocity S-wave (km/s) = 3.74410 4.08391 3.91769
# Velocity P-wave (km/s) = 5.77873 6.66354 6.23685
#
# Compressibility (1/GPa) = 0.02787413
#
# Stress axis : x y z
#
# Youngs Moduli (GPa) = 160.07972 50.73810 70.66840
#
# Poissons Ratio (x) = 0.07519 0.25842
# Poissons Ratio (y) = 0.23723 0.06907
# Poissons Ratio (z) = 0.58538 0.04959
#
# Static dielectric constant tensor:
#      x y z
#    x 1.973310 0.000000 -0.014930 
#    y 0.000000 1.914880 0.000000 
#    z -0.014930 0.000000 1.944130 
# 
# From -- ./inp_files/65007.got.cif
#   From: 2010.05.17/outbox.cif.g08.bks.cpg/sg5_33_cif.got.tgz:65007.got - 2010.06.03 18:56:24.
