data_PCOD9126886
_publ_section_title
;
Structure prediction by ZEFSAII (Michael W. Deem and Ramdas Pophale) SiO2 
 PCOD9126886
Probable space group: C 2
;
_chemical_formula_sum "Si O2"
_cell_formula_units_Z 24
_cell_length_a 15.637162
_cell_length_b 11.704333
_cell_length_c 14.928152
_cell_angle_alpha 90.000000
_cell_angle_beta 25.845617
_cell_angle_gamma 90.000000
_cell_volume 1191.091455
_symmetry_space_group_name_H-M "C 2"
_symmetry_group_IT_number 5
_symmetry_cell_setting 'monoclinic'
loop_
_space_group_symop_operation_xyz
x,y,z
-x,y,-z
1/2+x,1/2+y,z
1/2-x,1/2+y,-z
loop_
_atom_site_type_symbol
_atom_site_label
_atom_site_fract_x
_atom_site_fract_y
_atom_site_fract_z
Si Si1 0.073427 0.685490 0.609115
Si Si2 0.000000 0.815688 0.500000
Si Si3 0.000000 0.699521 0.000000
Si Si4 0.392923 0.531082 0.370189
Si Si5 0.474294 0.955256 0.782250
Si Si6 0.606667 0.345485 0.071697
Si Si7 0.230980 0.010055 0.189744
O O1 0.956058 0.567129 0.735780
O O2 0.969746 0.774066 0.772044
O O3 0.070083 0.736003 0.514289
O O4 0.289335 0.647763 0.438198
O O5 0.171167 0.899365 0.302578
O O6 0.816658 0.611787 0.169164
O O7 0.030165 0.780088 0.057145
O O8 0.511670 0.470015 0.178308
O O9 0.536596 0.545100 0.318103
O O10 0.209183 0.447338 0.567643
O O11 0.340598 0.859406 0.862258
O O12 0.385535 0.981226 0.964310
#
# Coordination Sequence:
#
# PCOD9126886 Si02
#       7
#     4   2   2   4   4   4   4
#     4  10  22  42  68  99 135 175 226 283 347 396
#     4  12  24  42  72 102 132 172 234 288 336 396
#     4  12  26  42  68 104 138 182 232 282 348 404
#     4   9  22  45  70  94 139 180 231 278 341 422
#     4   9  21  46  67  91 135 178 227 277 339 413
#     4  11  22  44  65  99 139 181 225 283 348 405
#     4  11  24  43  69 101 136 172 238 284 325 425
#
# _framework density 20.149585999999999
#
# number of rings (size 3 to 8) (size 9 to 14) (size 15 to 20)
#    1.000    0.667    5.000    0.000    4.667    2.667 
#    0.000    3.333    0.000    0.000    0.000    0.000 
#    0.000    0.000    0.000    0.000    0.000    0.000 
#
# Total GULP energy -66907.551519 kJ/mol
# GULP energy per Si atom -5575.629293 kJ/mol
# Density = 2.010372 g / cm^3
# Si number density = 20.149586 Si / 1000 Ang^3
#
#
#
# Elastic Constant Matrix: (Units=GPa)
#
#
# Indices 1 2 3 4 5 6 
#
# 1 131.1870 44.3209 48.6233 0.0002 -6.4790 -0.0001
# 2 44.3209 70.0216 20.0328 0.0003 -8.2583 -0.0002
# 3 48.6233 20.0328 88.0976 0.0000 -19.9231 -0.0008
# 4 0.0002 0.0003 0.0000 17.1302 0.0004 -9.5164
# 5 -6.4790 -8.2583 -19.9231 0.0004 36.3625 0.0001
# 6 -0.0001 -0.0002 -0.0008 -9.5164 0.0001 42.8256
#
#
#
# Elastic Compliance Matrix: (Units=1/GPa)
#
#
# Indices 1 2 3 4 5 6 
#
# 1 0.011608 -0.006032 -0.005567 0.000000 -0.002352 0.000000
# 2 -0.006032 0.018512 -0.000197 0.000000 0.003022 0.000000
# 3 -0.005567 -0.000197 0.016247 0.000000 0.007865 0.000000
# 4 0.000000 0.000000 0.000000 0.066598 -0.000001 0.014799
# 5 -0.002352 0.003022 0.007865 -0.000001 0.032077 0.000000
# 6 0.000000 0.000000 0.000000 0.014799 0.000000 0.026639
#
#
# Mechanical properties :
#
#
# Convention : Reuss Voigt Hill
#
# Bulk Modulus (GPa) = 43.90737 57.25113 50.57925
# Shear Modulus (GPa) = 24.64704 31.01894 27.83299
#
# Velocity S-wave (km/s) = 3.50123 3.92782 3.72064
# Velocity P-wave (km/s) = 6.17922 7.00322 6.60408
#
# Compressibility (1/GPa) = 0.02277522
#
# Stress axis : x y z
#
# Youngs Moduli (GPa) = 86.14955 54.01891 61.54977
#
# Poissons Ratio (x) = 0.32584 0.34264
# Poissons Ratio (y) = 0.51965 0.01213
# Poissons Ratio (z) = 0.47958 0.01064
#
# Static dielectric constant tensor:
#      x y z
#    x 1.711170 0.000000 -0.024970 
#    y 0.000000 1.768610 0.000000 
#    z -0.024970 0.000000 1.742120 
# 
# From -- ./inp_files/54541.got.cif
#   From: 2010.05.17/outbox.cif.g08.bks.cpg/sg5_28_cif.got.tgz:54541.got - 2010.06.03 18:56:24.
