data_PCOD9126760
_publ_section_title
;
Structure prediction by ZEFSAII (Michael W. Deem and Ramdas Pophale) SiO2 
 PCOD9126760
Probable space group: C 2
;
_chemical_formula_sum "Si O2"
_cell_formula_units_Z 30
_cell_length_a 10.340820
_cell_length_b 9.503165
_cell_length_c 14.931520
_cell_angle_alpha 90.000000
_cell_angle_beta 80.607834
_cell_angle_gamma 90.000000
_cell_volume 1447.657923
_symmetry_space_group_name_H-M "C 2"
_symmetry_group_IT_number 5
_symmetry_cell_setting 'monoclinic'
loop_
_space_group_symop_operation_xyz
x,y,z
-x,y,-z
1/2+x,1/2+y,z
1/2-x,1/2+y,-z
loop_
_atom_site_type_symbol
_atom_site_label
_atom_site_fract_x
_atom_site_fract_y
_atom_site_fract_z
Si Si1 0.215106 0.656350 0.848743
Si Si2 0.500000 0.262853 0.000000
Si Si3 0.542347 0.324766 0.344731
Si Si4 0.746386 0.473100 0.776090
Si Si5 0.320955 0.832121 0.412120
Si Si6 0.470744 0.033308 0.276009
Si Si7 0.689640 0.510916 0.573671
Si Si8 0.965271 0.977896 0.846939
O O1 0.116466 0.674375 0.942834
O O2 0.234294 0.809306 0.802130
O O3 0.143548 0.561990 0.782078
O O4 0.353171 0.593109 0.861287
O O5 0.448952 0.365560 0.927524
O O6 0.685945 0.325314 0.370500
O O7 0.484141 0.168759 0.339017
O O8 0.441330 0.417597 0.412601
O O9 0.545376 0.395120 0.246045
O O10 0.739963 0.498535 0.670278
O O11 0.613862 0.538704 0.832287
O O12 0.888881 0.524774 0.788941
O O13 0.342393 0.673261 0.442633
O O14 0.435100 0.894981 0.336769
O O15 0.293018 0.941421 0.494974
#
# Coordination Sequence:
#
# PCOD9126760 Si02
#       8
#     4   2   4   4   4   4   4   4
#     4  11  23  44  72  96 136 175 222 271 340 403
#     4  10  22  42  64 108 130 170 214 286 334 400
#     4  11  22  45  65  92 131 180 222 277 333 395
#     4  10  24  41  66  97 134 174 225 274 329 388
#     4  12  26  40  65  98 135 179 232 276 328 394
#     4  12  23  41  71  96 131 179 227 272 332 395
#     4  11  24  43  62  95 139 175 224 283 326 383
#     4  10  22  44  70  93 137 174 215 272 338 403
#
# _framework density 20.723127000000002
#
# number of rings (size 3 to 8) (size 9 to 14) (size 15 to 20)
#    0.000    1.067    6.667    1.200    3.733    2.667 
#    2.400    0.000    0.000    0.000    0.000    0.000 
#    0.000    0.000    0.000    0.000    0.000    0.000 
#
# Total GULP energy -83848.882790 kJ/mol
# GULP energy per Si atom -5589.925519 kJ/mol
# Density = 2.067596 g / cm^3
# Si number density = 20.723127 Si / 1000 Ang^3
#
#
#
# Elastic Constant Matrix: (Units=GPa)
#
#
# Indices 1 2 3 4 5 6 
#
# 1 111.3870 39.7846 7.5630 0.0000 -25.8684 0.0000
# 2 39.7846 92.7898 29.9525 0.0000 -33.0871 0.0000
# 3 7.5630 29.9525 73.9702 0.0000 -18.4175 0.0000
# 4 0.0000 0.0000 0.0000 20.5702 0.0000 -11.0485
# 5 -25.8684 -33.0871 -18.4175 0.0000 22.3206 0.0000
# 6 0.0000 0.0000 0.0000 -11.0485 0.0000 40.0456
#
#
#
# Elastic Compliance Matrix: (Units=1/GPa)
#
#
# Indices 1 2 3 4 5 6 
#
# 1 0.012808 -0.000605 0.003031 0.000000 0.016447 0.000000
# 2 -0.000605 0.022952 -0.001177 0.000000 0.032351 0.000000
# 3 0.003031 -0.001177 0.017778 0.000000 0.016437 0.000000
# 4 0.000000 0.000000 0.000000 0.057071 0.000000 0.015746
# 5 0.016447 0.032351 0.016437 0.000000 0.125381 0.000000
# 6 0.000000 0.000000 0.000000 0.015746 0.000000 0.029316
#
#
# Mechanical properties :
#
#
# Convention : Reuss Voigt Hill
#
# Bulk Modulus (GPa) = 17.84599 48.08302 32.96450
# Shear Modulus (GPa) = 17.76282 29.97710 23.86996
#
# Velocity S-wave (km/s) = 2.93089 3.80748 3.39758
# Velocity P-wave (km/s) = 4.48150 6.52550 5.59759
#
# Compressibility (1/GPa) = 0.05603500
#
# Stress axis : x y z
#
# Youngs Moduli (GPa) = 78.07778 43.56919 56.24850
#
# Poissons Ratio (x) = 0.02635 -0.17047
# Poissons Ratio (y) = 0.04723 0.06622
# Poissons Ratio (z) = -0.23662 0.05129
#
# Static dielectric constant tensor:
#      x y z
#    x 1.765470 0.000000 -0.003880 
#    y 0.000000 1.731580 0.000000 
#    z -0.003880 0.000000 1.736020 
# 
# From -- ./inp_files/52412.got.cif
#   From: 2010.05.17/outbox.cif.g08.bks.cpg/sg5_27_cif.got.tgz:52412.got - 2010.06.03 18:56:24.
