data_PCOD9126980
_publ_section_title
;
Structure prediction by ZEFSAII (Michael W. Deem and Ramdas Pophale) SiO2 
 PCOD9126980
Probable space group: C 2
;
_chemical_formula_sum "Si O2"
_cell_formula_units_Z 20
_cell_length_a 12.069097
_cell_length_b 9.417575
_cell_length_c 11.214972
_cell_angle_alpha 90.000000
_cell_angle_beta 143.603951
_cell_angle_gamma 90.000000
_cell_volume 756.367396
_symmetry_space_group_name_H-M "C 2"
_symmetry_group_IT_number 5
_symmetry_cell_setting 'monoclinic'
loop_
_space_group_symop_operation_xyz
x,y,z
-x,y,-z
1/2+x,1/2+y,z
1/2-x,1/2+y,-z
loop_
_atom_site_type_symbol
_atom_site_label
_atom_site_fract_x
_atom_site_fract_y
_atom_site_fract_z
Si Si1 0.738852 0.392970 0.873515
Si Si2 0.146630 0.522000 0.245434
Si Si3 0.121025 0.021301 0.325172
Si Si4 0.284879 0.803929 0.297184
Si Si5 0.700535 0.106316 0.743059
O O1 0.728805 0.410851 0.720535
O O2 0.578690 0.485973 0.794490
O O3 0.711900 0.222538 0.856557
O O4 0.944572 0.450772 0.084182
O O5 0.239327 0.563966 0.449443
O O6 0.175003 0.660411 0.186102
O O7 0.203229 0.874576 0.345268
O O8 0.143899 0.119868 0.228310
O O9 0.500000 0.767754 0.500000
O O10 0.272653 0.938799 0.196863
O O11 0.500000 0.108908 0.500000
#
# Coordination Sequence:
#
# PCOD9126980 Si02
#       5
#     4   4   4   4   4
#     4  11  24  45  67 106 151 189 243 310 374 442
#     4  11  24  43  67 105 147 189 240 310 374 442
#     4  10  22  42  76 104 140 196 245 300 377 445
#     4   9  21  42  74 103 139 195 251 307 373 449
#     4   9  21  42  76 106 140 196 250 306 371 453
#
# _framework density 26.442174999999999
#
# number of rings (size 3 to 8) (size 9 to 14) (size 15 to 20)
#    1.200    0.800    0.000    3.000    5.600    0.000 
#    7.200    6.000    0.000    0.000    0.000    0.000 
#    0.000    0.000    0.000    0.000    0.000    0.000 
#
# Total GULP energy -55853.493834 kJ/mol
# GULP energy per Si atom -5585.349383 kJ/mol
# Density = 2.638199 g / cm^3
# Si number density = 26.442175 Si / 1000 Ang^3
#
#
#
# Elastic Constant Matrix: (Units=GPa)
#
#
# Indices 1 2 3 4 5 6 
#
# 1 130.7985 14.2372 43.0746 0.0000 38.0117 0.0000
# 2 14.2372 164.8000 39.8851 0.0000 20.0260 0.0000
# 3 43.0746 39.8851 123.5512 0.0000 23.9116 0.0000
# 4 0.0000 0.0000 0.0000 25.3728 0.0000 5.5032
# 5 38.0117 20.0260 23.9116 0.0000 47.3063 0.0000
# 6 0.0000 0.0000 0.0000 5.5032 0.0000 35.8311
#
#
#
# Elastic Compliance Matrix: (Units=1/GPa)
#
#
# Indices 1 2 3 4 5 6 
#
# 1 0.010561 0.000585 -0.002417 0.000000 -0.007512 0.000000
# 2 0.000585 0.006772 -0.001934 0.000000 -0.002360 0.000000
# 3 -0.002417 -0.001934 0.010005 0.000000 -0.002297 0.000000
# 4 0.000000 0.000000 0.000000 0.040770 0.000000 -0.006262
# 5 -0.007512 -0.002360 -0.002297 0.000000 0.029335 0.000000
# 6 0.000000 0.000000 0.000000 -0.006262 0.000000 0.028870
#
#
# Mechanical properties :
#
#
# Convention : Reuss Voigt Hill
#
# Bulk Modulus (GPa) = 50.48572 68.17151 59.32861
# Shear Modulus (GPa) = 35.60084 43.16557 39.38321
#
# Velocity S-wave (km/s) = 3.67327 4.04474 3.86347
# Velocity P-wave (km/s) = 6.09302 6.90294 6.51059
#
# Compressibility (1/GPa) = 0.01980758
#
# Stress axis : x y z
#
# Youngs Moduli (GPa) = 94.69143 147.66430 99.94859
#
# Poissons Ratio (x) = -0.08645 0.24158
# Poissons Ratio (y) = -0.05544 0.19326
# Poissons Ratio (z) = 0.22887 0.28552
#
# Static dielectric constant tensor:
#      x y z
#    x 2.110770 0.000000 -0.069100 
#    y 0.000000 2.094340 0.000000 
#    z -0.069100 0.000000 2.087570 
# 
# From -- ./inp_files/39334.got.cif
#   From: 2010.05.17/outbox.cif.g08.bks.cpg/sg5_20_cif.got.tgz:39334.got - 2010.06.03 18:56:24.
