data_PCOD9126266
_publ_section_title
;
Structure prediction by ZEFSAII (Michael W. Deem and Ramdas Pophale) SiO2 
 PCOD9126266
Probable space group: C 2
;
_chemical_formula_sum "Si O2"
_cell_formula_units_Z 18
_cell_length_a 7.768787
_cell_length_b 22.666777
_cell_length_c 5.381645
_cell_angle_alpha 90.000000
_cell_angle_beta 115.730443
_cell_angle_gamma 90.000000
_cell_volume 853.706951
_symmetry_space_group_name_H-M "C 2"
_symmetry_group_IT_number 5
_symmetry_cell_setting 'monoclinic'
loop_
_space_group_symop_operation_xyz
x,y,z
-x,y,-z
1/2+x,1/2+y,z
1/2-x,1/2+y,-z
loop_
_atom_site_type_symbol
_atom_site_label
_atom_site_fract_x
_atom_site_fract_y
_atom_site_fract_z
Si Si1 0.811249 0.772810 0.546540
Si Si2 0.295390 0.657807 0.240013
Si Si3 0.500000 0.732411 0.000000
Si Si4 0.500000 0.979161 0.500000
Si Si5 0.000000 0.554778 0.000000
Si Si6 0.620677 0.402799 0.315036
O O1 0.811390 0.711175 0.689557
O O2 0.822764 0.834264 0.698499
O O3 0.000000 0.773396 0.500000
O O4 0.611674 0.771389 0.269437
O O5 0.500000 0.648784 0.500000
O O6 0.178097 0.598507 0.155099
O O7 0.342042 0.688011 0.007427
O O8 0.466592 0.017516 0.229488
O O9 0.314012 0.940150 0.444730
O O10 0.500000 0.406763 0.500000
O O11 0.500000 0.422902 0.000000
#
# Coordination Sequence:
#
# PCOD9126266 Si02
#       6
#     4   4   2   2   2   4
#     4  10  23  39  70 103 141 178 223 291 359 420
#     4  10  24  41  67 105 137 183 225 294 354 419
#     4  10  22  39  64 106 141 176 224 280 366 422
#     4  12  30  50  74 102 140 202 238 292 342 424
#     4  12  28  47  74  98 143 188 242 286 344 426
#     4  11  27  48  74 107 141 187 240 296 352 419
#
# _framework density 21.084516000000001
#
# number of rings (size 3 to 8) (size 9 to 14) (size 15 to 20)
#    0.000    1.333    0.000    2.667   20.222    3.556 
#    0.000    0.000    0.000    0.000    0.000    0.000 
#    0.000    0.000    0.000    0.000    0.000    0.000 
#
# Total GULP energy -50287.964126 kJ/mol
# GULP energy per Si atom -5587.551570 kJ/mol
# Density = 2.103653 g / cm^3
# Si number density = 21.084516 Si / 1000 Ang^3
#
#
#
# Elastic Constant Matrix: (Units=GPa)
#
#
# Indices 1 2 3 4 5 6 
#
# 1 108.7312 68.5574 37.6540 0.0000 4.5113 0.0000
# 2 68.5574 131.2306 50.0516 0.0000 9.4885 0.0000
# 3 37.6540 50.0516 94.7849 0.0000 -1.1575 0.0000
# 4 0.0000 0.0000 0.0000 109.8210 0.0000 -94.1030
# 5 4.5113 9.4885 -1.1575 0.0000 33.5012 0.0000
# 6 0.0000 0.0000 0.0000 -94.1030 0.0000 168.3907
#
#
#
# Elastic Compliance Matrix: (Units=1/GPa)
#
#
# Indices 1 2 3 4 5 6 
#
# 1 0.014052 -0.006515 -0.002144 0.000000 -0.000121 0.000000
# 2 -0.006515 0.012848 -0.004232 0.000000 -0.002908 0.000000
# 3 -0.002144 -0.004232 0.013660 0.000000 0.001959 0.000000
# 4 0.000000 0.000000 0.000000 0.017473 0.000000 0.009764
# 5 -0.000121 -0.002908 0.001959 0.000000 0.030757 0.000000
# 6 0.000000 0.000000 0.000000 0.009764 0.000000 0.011395
#
#
# Mechanical properties :
#
#
# Convention : Reuss Voigt Hill
#
# Bulk Modulus (GPa) = 67.65971 71.91919 69.78945
# Shear Modulus (GPa) = 38.19934 74.24150 56.22042
#
# Velocity S-wave (km/s) = 4.26105 5.94036 5.16935
# Velocity P-wave (km/s) = 7.50788 9.01301 8.29466
#
# Compressibility (1/GPa) = 0.01477984
#
# Stress axis : x y z
#
# Youngs Moduli (GPa) = 71.16403 77.83390 73.20454
#
# Poissons Ratio (x) = 0.50707 0.15692
# Poissons Ratio (y) = 0.46361 0.30979
# Poissons Ratio (z) = 0.15255 0.32938
#
# Static dielectric constant tensor:
#      x y z
#    x 1.699630 0.000000 -0.016800 
#    y 0.000000 1.714500 0.000000 
#    z -0.016800 0.000000 1.817970 
# 
# From -- ./inp_files/2330.got.cif
#   From: 2010.05.17/outbox.cif.g08.bks.cpg/sg5_2_cif.got.tgz:2330.got - 2010.06.03 18:56:24.
