data_PCOD9126955
_publ_section_title
;
Structure prediction by ZEFSAII (Michael W. Deem and Ramdas Pophale) SiO2 
 PCOD9126955
Probable space group: C 2
;
_chemical_formula_sum "Si O2"
_cell_formula_units_Z 28
_cell_length_a 11.348361
_cell_length_b 13.403070
_cell_length_c 9.226492
_cell_angle_alpha 90.000000
_cell_angle_beta 117.197433
_cell_angle_gamma 90.000000
_cell_volume 1248.214310
_symmetry_space_group_name_H-M "C 2"
_symmetry_group_IT_number 5
_symmetry_cell_setting 'monoclinic'
loop_
_space_group_symop_operation_xyz
x,y,z
-x,y,-z
1/2+x,1/2+y,z
1/2-x,1/2+y,-z
loop_
_atom_site_type_symbol
_atom_site_label
_atom_site_fract_x
_atom_site_fract_y
_atom_site_fract_z
Si Si1 0.000000 0.830860 0.500000
Si Si2 0.847948 0.291228 0.465099
Si Si3 0.146274 0.469214 0.132394
Si Si4 0.627279 0.333198 0.860852
Si Si5 0.730459 0.677502 0.854218
Si Si6 0.773379 0.971732 0.491779
Si Si7 0.083549 0.146259 0.269820
Si Si8 0.500000 0.500652 0.000000
O O1 0.043059 0.785361 0.679783
O O2 0.119496 0.902537 0.525225
O O3 0.771661 0.220430 0.310465
O O4 0.787463 0.401397 0.419362
O O5 0.849111 0.248051 0.631536
O O6 0.000000 0.291951 0.500000
O O7 0.241650 0.382007 0.133068
O O8 0.203780 0.570249 0.097722
O O9 0.158296 0.487815 0.310813
O O10 0.000000 0.447815 0.000000
O O11 0.681538 0.252312 0.002524
O O12 0.552150 0.424428 0.903796
O O13 0.574452 0.665768 0.807811
O O14 0.854576 0.068209 0.581767
O O15 0.100508 0.080887 0.132451
#
# Coordination Sequence:
#
# PCOD9126955 Si02
#       8
#     2   4   4   4   4   4   4   2
#     4  10  22  42  72  94 134 190 224 280 352 412
#     4  10  24  40  72 104 138 181 228 289 350 422
#     4  11  25  42  66  96 141 185 221 292 352 414
#     4  11  25  43  71 103 138 182 243 292 350 414
#     4  11  23  44  70 101 136 181 237 285 352 423
#     4  11  21  45  69  98 134 184 236 274 350 421
#     4  11  22  42  71 100 134 183 232 286 347 418
#     4  12  22  40  76 104 138 180 242 294 332 422
#
# _framework density 22.432046
#
# number of rings (size 3 to 8) (size 9 to 14) (size 15 to 20)
#    0.000    1.143    4.286    1.714    6.000    2.286 
#    0.000    0.000    1.571    0.000    0.000    0.000 
#    0.000    0.000    0.000    0.000    0.000    0.000 
#
# Total GULP energy -78066.081473 kJ/mol
# GULP energy per Si atom -5576.148677 kJ/mol
# Density = 2.238099 g / cm^3
# Si number density = 22.432046 Si / 1000 Ang^3
#
#
#
# Elastic Constant Matrix: (Units=GPa)
#
#
# Indices 1 2 3 4 5 6 
#
# 1 39.0747 2.2971 24.2954 0.0000 10.0004 0.0000
# 2 2.2971 73.1334 25.5160 0.0000 0.3854 0.0000
# 3 24.2954 25.5160 153.9371 0.0000 11.2484 0.0000
# 4 0.0000 0.0000 0.0000 69.8940 0.0000 -29.2619
# 5 10.0004 0.3854 11.2484 0.0000 28.4095 0.0000
# 6 0.0000 0.0000 0.0000 -29.2619 0.0000 67.9725
#
#
#
# Elastic Compliance Matrix: (Units=1/GPa)
#
#
# Indices 1 2 3 4 5 6 
#
# 1 0.030522 0.000572 -0.004249 0.000000 -0.009069 0.000000
# 2 0.000572 0.014540 -0.002545 0.000000 0.000609 0.000000
# 3 -0.004249 -0.002545 0.007700 0.000000 -0.001518 0.000000
# 4 0.000000 0.000000 0.000000 0.017453 0.000000 0.007513
# 5 -0.009069 0.000609 -0.001518 0.000000 0.038985 0.000000
# 6 0.000000 0.000000 0.000000 0.007513 0.000000 0.017946
#
#
# Mechanical properties :
#
#
# Convention : Reuss Voigt Hill
#
# Bulk Modulus (GPa) = 24.80368 41.15136 32.97752
# Shear Modulus (GPa) = 32.67348 47.52430 40.09889
#
# Velocity S-wave (km/s) = 3.82062 4.60781 4.23256
# Velocity P-wave (km/s) = 5.52667 6.83329 6.21442
#
# Compressibility (1/GPa) = 0.04031661
#
# Stress axis : x y z
#
# Youngs Moduli (GPa) = 32.76379 68.77399 129.87743
#
# Poissons Ratio (x) = -0.03931 0.55187
# Poissons Ratio (y) = -0.01873 0.33052
# Poissons Ratio (z) = 0.13922 0.17502
#
# Static dielectric constant tensor:
#      x y z
#    x 1.611450 0.000000 -0.010100 
#    y 0.000000 1.804440 0.000000 
#    z -0.010100 0.000000 1.924570 
# 
# From -- ./inp_files/20738.got.cif
#   From: 2010.05.17/outbox.cif.g08.bks.cpg/sg5_11_cif.got.tgz:20738.got - 2010.06.03 18:56:24.
