data_PCOD9126381
_publ_section_title
;
Structure prediction by ZEFSAII (Michael W. Deem and Ramdas Pophale) SiO2 
 PCOD9126381
Probable space group: C 2
;
_chemical_formula_sum "Si O2"
_cell_formula_units_Z 20
_cell_length_a 7.986708
_cell_length_b 19.397854
_cell_length_c 7.210641
_cell_angle_alpha 90.000000
_cell_angle_beta 46.083096
_cell_angle_gamma 90.000000
_cell_volume 804.705223
_symmetry_space_group_name_H-M "C 2"
_symmetry_group_IT_number 5
_symmetry_cell_setting 'monoclinic'
loop_
_space_group_symop_operation_xyz
x,y,z
-x,y,-z
1/2+x,1/2+y,z
1/2-x,1/2+y,-z
loop_
_atom_site_type_symbol
_atom_site_label
_atom_site_fract_x
_atom_site_fract_y
_atom_site_fract_z
Si Si1 0.830272 0.472320 0.953061
Si Si2 0.541004 0.116828 0.749319
Si Si3 0.716713 0.738736 0.962998
Si Si4 0.000000 0.374590 0.500000
Si Si5 0.500000 0.678880 0.500000
Si Si6 0.017878 0.865094 0.768834
O O1 0.881944 0.422417 0.743750
O O2 0.900611 0.546837 0.814575
O O3 0.570952 0.443361 0.206276
O O4 0.000000 0.463658 0.000000
O O5 0.817903 0.129874 0.527617
O O6 0.500000 0.120668 0.000000
O O7 0.408577 0.181640 0.770434
O O8 0.633170 0.725187 0.242211
O O9 0.500000 0.728189 0.000000
O O10 0.832862 0.812120 0.829752
O O11 0.787697 0.345635 0.536701
O O12 0.000000 0.849637 0.000000
#
# Coordination Sequence:
#
# PCOD9126381 Si02
#       6
#     4   4   4   2   2   4
#     4  10  22  40  63  93 125 161 206 256 305 366
#     4   9  21  40  63  92 127 162 206 258 303 365
#     4  11  24  41  64  93 124 162 210 259 306 368
#     4  10  24  41  64  88 124 169 204 254 316 365
#     4  10  22  43  66  88 126 169 202 250 318 365
#     4  10  22  42  63  90 125 163 207 257 309 365
#
# _framework density 24.853822999999998
#
# number of rings (size 3 to 8) (size 9 to 14) (size 15 to 20)
#    0.000    2.000    0.000    2.400    0.000   17.600 
#    0.000    6.000    0.000    0.000    0.000    0.000 
#    0.000    0.000    0.000    0.000    0.000    0.000 
#
# Total GULP energy -55702.749542 kJ/mol
# GULP energy per Si atom -5570.274954 kJ/mol
# Density = 2.479725 g / cm^3
# Si number density = 24.853823 Si / 1000 Ang^3
#
#
#
# Elastic Constant Matrix: (Units=GPa)
#
#
# Indices 1 2 3 4 5 6 
#
# 1 89.6376 26.2008 17.3836 0.0000 -26.9865 0.0000
# 2 26.2008 113.9618 28.1435 0.0000 -39.6370 0.0000
# 3 17.3836 28.1435 70.6055 0.0000 -17.6206 0.0000
# 4 0.0000 0.0000 0.0000 3.6328 0.0000 -11.6129
# 5 -26.9865 -39.6370 -17.6206 0.0000 61.0129 0.0000
# 6 0.0000 0.0000 0.0000 -11.6129 0.0000 44.8175
#
#
#
# Elastic Compliance Matrix: (Units=1/GPa)
#
#
# Indices 1 2 3 4 5 6 
#
# 1 0.013186 -0.000978 -0.001681 0.000000 0.004712 0.000000
# 2 -0.000978 0.011983 -0.002911 0.000000 0.006512 0.000000
# 3 -0.001681 -0.002911 0.016251 0.000000 0.002059 0.000000
# 4 0.000000 0.000000 0.000000 1.603333 0.000000 0.415446
# 5 0.004712 0.006512 0.002059 0.000000 0.023299 0.000000
# 6 0.000000 0.000000 0.000000 0.415446 0.000000 0.129961
#
#
# Mechanical properties :
#
#
# Convention : Reuss Voigt Hill
#
# Bulk Modulus (GPa) = 33.02287 46.40672 39.71480
# Shear Modulus (GPa) = 2.74839 35.39111 19.06975
#
# Velocity S-wave (km/s) = 1.05272 3.77765 2.77298
# Velocity P-wave (km/s) = 3.84621 6.14328 5.12510
#
# Compressibility (1/GPa) = 0.03028204
#
# Stress axis : x y z
#
# Youngs Moduli (GPa) = 75.83602 83.44886 61.53422
#
# Poissons Ratio (x) = 0.08159 0.10344
# Poissons Ratio (y) = 0.07415 0.17911
# Poissons Ratio (z) = 0.12748 0.24290
#
# Static dielectric constant tensor:
#      x y z
#    x 2.080040 0.000000 -0.121460 
#    y 0.000000 2.055400 0.000000 
#    z -0.121460 0.000000 2.302740 
# 
# From -- ./inp_files/16661.got.cif
#   From: 2010.05.17/outbox.cif.g08.bks.cpg/sg5_9_cif.got.tgz:16661.got - 2010.06.03 18:56:24.
