data_PCOD9126839
_publ_section_title
;
Structure prediction by ZEFSAII (Michael W. Deem and Ramdas Pophale) SiO2 
 PCOD9126839
Probable space group: C 2
;
_chemical_formula_sum "Si O2"
_cell_formula_units_Z 20
_cell_length_a 10.477418
_cell_length_b 10.048384
_cell_length_c 9.170393
_cell_angle_alpha 90.000000
_cell_angle_beta 98.670797
_cell_angle_gamma 90.000000
_cell_volume 954.434752
_symmetry_space_group_name_H-M "C 2"
_symmetry_group_IT_number 5
_symmetry_cell_setting 'monoclinic'
loop_
_space_group_symop_operation_xyz
x,y,z
-x,y,-z
1/2+x,1/2+y,z
1/2-x,1/2+y,-z
loop_
_atom_site_type_symbol
_atom_site_label
_atom_site_fract_x
_atom_site_fract_y
_atom_site_fract_z
Si Si1 0.444342 0.984890 0.149352
Si Si2 0.012160 0.788786 0.829527
Si Si3 0.287121 0.787027 0.278774
Si Si4 0.889843 0.023933 0.358644
Si Si5 0.880056 0.457151 0.559724
O O1 0.318478 0.901836 0.167627
O O2 0.553705 0.926463 0.275982
O O3 0.424081 0.142482 0.169356
O O4 0.500000 0.968334 0.000000
O O5 0.865905 0.768656 0.745669
O O6 0.082015 0.897962 0.740528
O O7 0.000000 0.823795 0.000000
O O8 0.367343 0.654732 0.257190
O O9 0.342577 0.839151 0.443148
O O10 0.755672 0.021301 0.425651
O O11 0.000000 0.033874 0.500000
O O12 0.000000 0.532735 0.500000
#
# Coordination Sequence:
#
# PCOD9126839 Si02
#       5
#     4   4   4   4   4
#     4  10  23  45  68  93 135 181 216 270 336 395
#     4  11  26  43  66 103 136 174 222 275 333 398
#     4  11  24  45  66  99 135 171 230 274 328 398
#     4  12  24  44  72 100 131 177 227 278 331 393
#     4  10  22  42  67  96 130 175 220 270 329 393
#
# _framework density 20.954810999999999
#
# number of rings (size 3 to 8) (size 9 to 14) (size 15 to 20)
#    0.000    1.200    4.000    1.800    2.800    6.400 
#    7.200    0.000    0.000    0.000    0.000    0.000 
#    0.000    0.000    0.000    0.000    0.000    0.000 
#
# Total GULP energy -55769.707468 kJ/mol
# GULP energy per Si atom -5576.970747 kJ/mol
# Density = 2.090712 g / cm^3
# Si number density = 20.954811 Si / 1000 Ang^3
#
#
#
# Elastic Constant Matrix: (Units=GPa)
#
#
# Indices 1 2 3 4 5 6 
#
# 1 119.9963 44.3371 22.9758 0.0000 -8.7655 0.0000
# 2 44.3371 129.4533 39.8827 0.0000 -30.4043 0.0000
# 3 22.9758 39.8827 102.6868 0.0000 -8.9340 0.0000
# 4 0.0000 0.0000 0.0000 19.1319 0.0000 -7.1661
# 5 -8.7655 -30.4043 -8.9340 0.0000 21.2944 0.0000
# 6 0.0000 0.0000 0.0000 -7.1661 0.0000 26.1075
#
#
#
# Elastic Compliance Matrix: (Units=1/GPa)
#
#
# Indices 1 2 3 4 5 6 
#
# 1 0.009646 -0.003256 -0.000989 0.000000 -0.001093 0.000000
# 2 -0.003256 0.013821 -0.003154 0.000000 0.017070 0.000000
# 3 -0.000989 -0.003154 0.011165 0.000000 -0.000227 0.000000
# 4 0.000000 0.000000 0.000000 0.058258 0.000000 0.015991
# 5 -0.001093 0.017070 -0.000227 0.000000 0.070789 0.000000
# 6 0.000000 0.000000 0.000000 0.015991 0.000000 0.042692
#
#
# Mechanical properties :
#
#
# Convention : Reuss Voigt Hill
#
# Bulk Modulus (GPa) = 50.41817 62.94753 56.68285
# Shear Modulus (GPa) = 21.95097 29.63614 25.79355
#
# Velocity S-wave (km/s) = 3.24008 3.76478 3.51224
# Velocity P-wave (km/s) = 6.17334 7.00021 6.59974
#
# Compressibility (1/GPa) = 0.01983412
#
# Stress axis : x y z
#
# Youngs Moduli (GPa) = 103.66935 72.35449 89.56564
#
# Poissons Ratio (x) = 0.23557 0.08857
# Poissons Ratio (y) = 0.33752 0.28252
# Poissons Ratio (z) = 0.10251 0.22823
#
# Static dielectric constant tensor:
#      x y z
#    x 1.790410 0.000000 -0.020030 
#    y 0.000000 1.801290 0.000000 
#    z -0.020030 0.000000 1.779440 
# 
# From -- ./inp_files/18358.got.cif
#   From: 2010.05.17/outbox.cif.g08.bks.cpg/sg5_10_cif.got.tgz:18358.got - 2010.06.03 18:56:24.
