data_PCOD9126860
_publ_section_title
;
Structure prediction by ZEFSAII (Michael W. Deem and Ramdas Pophale) SiO2 
 PCOD9126860
Probable space group: C 2
;
_chemical_formula_sum "Si O2"
_cell_formula_units_Z 28
_cell_length_a 28.509913
_cell_length_b 8.361393
_cell_length_c 5.184370
_cell_angle_alpha 90.000000
_cell_angle_beta 110.139843
_cell_angle_gamma 90.000000
_cell_volume 1160.296715
_symmetry_space_group_name_H-M "C 2"
_symmetry_group_IT_number 5
_symmetry_cell_setting 'monoclinic'
loop_
_space_group_symop_operation_xyz
x,y,z
-x,y,-z
1/2+x,1/2+y,z
1/2-x,1/2+y,-z
loop_
_atom_site_type_symbol
_atom_site_label
_atom_site_fract_x
_atom_site_fract_y
_atom_site_fract_z
Si Si1 0.579450 0.429560 0.878303
Si Si2 0.811249 0.449311 0.099774
Si Si3 0.860860 0.893867 0.488853
Si Si4 0.093784 0.292165 0.946055
Si Si5 0.000000 0.487170 0.000000
Si Si6 0.684803 0.696987 0.481643
Si Si7 0.500000 0.198271 0.500000
Si Si8 0.767203 0.718017 0.297495
O O1 0.616242 0.347102 0.739509
O O2 0.531688 0.323253 0.731899
O O3 0.598682 0.413235 0.207990
O O4 0.574763 0.619766 0.799067
O O5 0.802769 0.359887 0.354838
O O6 0.788950 0.624136 0.094105
O O7 0.869743 0.412938 0.147847
O O8 0.772685 0.353705 0.849839
O O9 0.817906 0.780425 0.518140
O O10 0.833087 0.059316 0.360620
O O11 0.135442 0.231702 0.225123
O O12 0.047249 0.383628 0.985440
O O13 0.017853 0.583227 0.294603
O O14 0.730363 0.621419 0.411254
#
# Coordination Sequence:
#
# PCOD9126860 Si02
#       8
#     4   4   4   4   2   4   2   4
#     4  11  26  50  79 104 148 195 252 310 384 466
#     4  11  23  44  69 105 153 198 252 305 373 453
#     4  11  24  44  72 108 142 193 249 303 368 451
#     4  10  26  48  76 109 149 205 257 311 389 462
#     4  12  30  50  82 116 156 196 260 336 392 456
#     4  10  22  42  68 105 147 195 251 298 364 462
#     4  12  30  52  76 116 152 190 262 328 402 450
#     4  11  25  38  69 104 153 196 244 302 375 444
#
# _framework density 24.131758999999999
#
# number of rings (size 3 to 8) (size 9 to 14) (size 15 to 20)
#    0.000    1.143    1.429    2.571   10.000    5.714 
#    0.000    0.000    0.000    0.000    0.000    0.000 
#    0.000    0.000    0.000    0.000    0.000    0.000 
#
# Total GULP energy -77990.284318 kJ/mol
# GULP energy per Si atom -5570.734594 kJ/mol
# Density = 2.407683 g / cm^3
# Si number density = 24.131759 Si / 1000 Ang^3
#
#
#
# Elastic Constant Matrix: (Units=GPa)
#
#
# Indices 1 2 3 4 5 6 
#
# 1 153.2545 70.1057 25.3723 0.0000 -7.3273 0.0000
# 2 70.1057 25.7533 80.3267 0.0000 30.5002 0.0000
# 3 25.3723 80.3267 5.3120 0.0000 -37.6984 0.0000
# 4 0.0000 0.0000 0.0000 32.0849 0.0000 -6.6066
# 5 -7.3273 30.5002 -37.6984 0.0000 16.0715 0.0000
# 6 0.0000 0.0000 0.0000 -6.6066 0.0000 31.6318
#
#
#
# Elastic Compliance Matrix: (Units=1/GPa)
#
#
# Indices 1 2 3 4 5 6 
#
# 1 0.009025 -0.003640 -0.005763 0.000000 -0.002494 0.000000
# 2 -0.003640 0.005544 0.009771 0.000000 0.010739 0.000000
# 3 -0.005763 0.009771 0.005255 0.000000 -0.008844 0.000000
# 4 0.000000 0.000000 0.000000 0.032568 0.000000 0.006802
# 5 -0.002494 0.010739 -0.008844 0.000000 0.019958 0.000000
# 6 0.000000 0.000000 0.000000 0.006802 0.000000 0.033034
#
#
# Mechanical properties :
#
#
# Convention : Reuss Voigt Hill
#
# Bulk Modulus (GPa) = 48.63742 59.54770 54.09256
# Shear Modulus (GPa) = 44.84268 16.52530 30.68399
#
# Velocity S-wave (km/s) = 4.31541 2.61970 3.56971
# Velocity P-wave (km/s) = 6.71037 5.82066 6.28129
#
# Compressibility (1/GPa) = 0.02056030
#
# Stress axis : x y z
#
# Youngs Moduli (GPa) = 110.80264 180.38439 190.29880
#
# Poissons Ratio (x) = 0.65663 1.09661
# Poissons Ratio (y) = 0.40334 -1.85942
# Poissons Ratio (z) = 0.63851 -1.76255
#
# Static dielectric constant tensor:
#      x y z
#    x 1.928950 0.000000 -0.012460 
#    y 0.000000 2.043410 0.000000 
#    z -0.012460 0.000000 1.995500 
# 
# From -- ./inp_files/11169.got.cif
#   From: 2010.05.17/outbox.cif.g08.bks.cpg/sg5_6_cif.got.tgz:11169.got - 2010.06.03 18:56:24.
