data_PCOD9126536
_publ_section_title
;
Structure prediction by ZEFSAII (Michael W. Deem and Ramdas Pophale) SiO2 
 PCOD9126536
Probable space group: C 2
;
_chemical_formula_sum "Si O2"
_cell_formula_units_Z 26
_cell_length_a 8.927774
_cell_length_b 16.127682
_cell_length_c 9.383430
_cell_angle_alpha 90.000000
_cell_angle_beta 126.641525
_cell_angle_gamma 90.000000
_cell_volume 1084.075779
_symmetry_space_group_name_H-M "C 2"
_symmetry_group_IT_number 5
_symmetry_cell_setting 'monoclinic'
loop_
_space_group_symop_operation_xyz
x,y,z
-x,y,-z
1/2+x,1/2+y,z
1/2-x,1/2+y,-z
loop_
_atom_site_type_symbol
_atom_site_label
_atom_site_fract_x
_atom_site_fract_y
_atom_site_fract_z
Si Si1 0.189185 0.149410 0.523330
Si Si2 0.327418 0.700780 0.803685
Si Si3 0.303615 0.369616 0.360486
Si Si4 0.000000 0.906697 0.000000
Si Si5 0.216732 0.345830 0.603356
Si Si6 0.549166 0.149138 0.879555
Si Si7 0.786543 0.481691 0.933062
O O1 0.182081 0.146692 0.346842
O O2 0.223639 0.247617 0.573671
O O3 0.368219 0.109099 0.700701
O O4 0.000000 0.126782 0.500000
O O5 0.339811 0.797611 0.766170
O O6 0.153074 0.696118 0.812247
O O7 0.500000 0.676393 0.000000
O O8 0.500000 0.323960 0.500000
O O9 0.256860 0.401745 0.488826
O O10 0.325206 0.442001 0.260783
O O11 0.130979 0.861735 0.190258
O O12 0.834662 0.950646 0.999793
O O13 0.000000 0.362838 0.500000
O O14 0.500000 0.195360 0.000000
O O15 0.684909 0.077752 0.016315
O O16 0.000000 0.456723 0.000000
#
# Coordination Sequence:
#
# PCOD9126536 Si02
#       7
#     4   4   4   2   4   4   4
#     4  10  22  44  71 108 145 181 237 307 376 436
#     4  11  23  41  74 105 139 183 236 302 369 439
#     4  11  21  44  69 102 143 183 230 303 370 432
#     4  12  24  44  78 106 148 198 238 312 372 436
#     4  10  22  40  73 116 142 181 245 307 378 446
#     4  11  25  44  67 100 143 189 240 295 359 444
#     4  11  26  46  68 102 146 191 248 294 360 446
#
# _framework density 23.983563
#
# number of rings (size 3 to 8) (size 9 to 14) (size 15 to 20)
#    0.000    1.231    1.538    4.615    2.154    2.462 
#    0.000   13.846    0.000    0.000    0.000    0.000 
#    0.000    0.000    0.000    0.000    0.000    0.000 
#
# Total GULP energy -72466.129530 kJ/mol
# GULP energy per Si atom -5574.317656 kJ/mol
# Density = 2.392898 g / cm^3
# Si number density = 23.983563 Si / 1000 Ang^3
#
#
#
# Elastic Constant Matrix: (Units=GPa)
#
#
# Indices 1 2 3 4 5 6 
#
# 1 163.4766 12.7590 61.2571 0.0000 -12.5596 0.0000
# 2 12.7590 36.8746 25.5284 0.0000 -19.7666 0.0000
# 3 61.2571 25.5284 155.7879 0.0000 -33.3035 0.0000
# 4 0.0000 0.0000 0.0000 16.1807 0.0000 25.2800
# 5 -12.5596 -19.7666 -33.3035 0.0000 49.1622 0.0000
# 6 0.0000 0.0000 0.0000 25.2800 0.0000 -77.2120
#
#
#
# Elastic Compliance Matrix: (Units=1/GPa)
#
#
# Indices 1 2 3 4 5 6 
#
# 1 0.007190 -0.000750 -0.002778 0.000000 -0.000347 0.000000
# 2 -0.000750 0.036022 -0.002985 0.000000 0.012270 0.000000
# 3 -0.002778 -0.002985 0.008878 0.000000 0.004104 0.000000
# 4 0.000000 0.000000 0.000000 0.040887 0.000000 0.013387
# 5 -0.000347 0.012270 0.004104 0.000000 0.027966 0.000000
# 6 0.000000 0.000000 0.000000 0.013387 0.000000 -0.008568
#
#
# Mechanical properties :
#
#
# Convention : Reuss Voigt Hill
#
# Bulk Modulus (GPa) = 25.59962 61.69200 43.64581
# Shear Modulus (GPa) = 36.12121 14.73248 25.42685
#
# Velocity S-wave (km/s) = 3.88504 2.48114 3.25957
# Velocity P-wave (km/s) = 5.55173 5.82980 5.69246
#
# Compressibility (1/GPa) = 0.03906308
#
# Stress axis : x y z
#
# Youngs Moduli (GPa) = 139.08001 27.76068 112.63841
#
# Poissons Ratio (x) = 0.02083 0.31296
# Poissons Ratio (y) = 0.10436 0.33621
# Poissons Ratio (z) = 0.38642 0.08286
#
# Static dielectric constant tensor:
#      x y z
#    x 2.307380 0.000000 0.236750 
#    y 0.000000 1.924420 0.000000 
#    z 0.236750 0.000000 2.089090 
# 
# From -- ./inp_files/17065.got.cif
#   From: 2010.05.17/outbox.cif.g08.bks.cpg/sg5_9_cif.got.tgz:17065.got - 2010.06.03 18:56:24.
