data_PCOD9126614
_publ_section_title
;
Structure prediction by ZEFSAII (Michael W. Deem and Ramdas Pophale) SiO2 
 PCOD9126614
Probable space group: C 2
;
_chemical_formula_sum "Si O2"
_cell_formula_units_Z 26
_cell_length_a 5.065821
_cell_length_b 14.324278
_cell_length_c 18.945156
_cell_angle_alpha 90.000000
_cell_angle_beta 113.752667
_cell_angle_gamma 90.000000
_cell_volume 1258.290101
_symmetry_space_group_name_H-M "C 2"
_symmetry_group_IT_number 5
_symmetry_cell_setting 'monoclinic'
loop_
_space_group_symop_operation_xyz
x,y,z
-x,y,-z
1/2+x,1/2+y,z
1/2-x,1/2+y,-z
loop_
_atom_site_type_symbol
_atom_site_label
_atom_site_fract_x
_atom_site_fract_y
_atom_site_fract_z
Si Si1 0.000000 0.752131 0.000000
Si Si2 0.866482 0.187910 0.407124
Si Si3 0.633385 0.302730 0.593070
Si Si4 0.906371 0.495411 0.672640
Si Si5 0.530182 0.692596 0.847980
Si Si6 0.982659 0.808222 0.149738
Si Si7 0.552463 0.498340 0.769785
O O1 0.735802 0.693251 0.939540
O O2 0.095374 0.811131 0.942061
O O3 0.616337 0.265829 0.382674
O O4 0.000000 0.182215 0.500000
O O5 0.118391 0.224257 0.383682
O O6 0.734645 0.088637 0.373854
O O7 0.500000 0.309627 0.500000
O O8 0.762893 0.401859 0.627372
O O9 0.823516 0.498335 0.746507
O O10 0.247447 0.494293 0.695775
O O11 0.219860 0.731320 0.835407
O O12 0.538057 0.592850 0.812991
O O13 0.691409 0.768776 0.815565
O O14 0.941862 0.906661 0.181539
#
# Coordination Sequence:
#
# PCOD9126614 Si02
#       7
#     2   4   4   4   4   4   4
#     4   8  22  44  66  88 116 160 202 264 306 336
#     4  10  22  41  65  92 122 165 213 255 298 352
#     4  10  22  41  65  92 122 165 213 255 298 352
#     4  12  25  40  61  94 128 167 202 249 310 364
#     4  10  22  43  62  90 121 155 205 255 303 365
#     4  10  22  43  62  90 121 155 205 255 303 365
#     4  12  26  40  62  94 126 167 200 243 320 372
#
# _framework density 20.662963000000001
#
# number of rings (size 3 to 8) (size 9 to 14) (size 15 to 20)
#    0.923    0.615    0.000    4.615    0.000    7.385 
#    5.538    6.154    0.000    0.000    0.000    0.000 
#    0.000    0.000    0.000    0.000    0.000    0.000 
#
# Total GULP energy -72636.337823 kJ/mol
# GULP energy per Si atom -5587.410602 kJ/mol
# Density = 2.061593 g / cm^3
# Si number density = 20.662963 Si / 1000 Ang^3
#
#
#
# Elastic Constant Matrix: (Units=GPa)
#
#
# Indices 1 2 3 4 5 6 
#
# 1 57.0933 -16.6166 -2.8934 0.0000 0.3229 0.0000
# 2 -16.6166 94.7692 14.9457 0.0000 -3.4449 0.0000
# 3 -2.8934 14.9457 28.8847 0.0000 0.8753 0.0000
# 4 0.0000 0.0000 0.0000 37.2562 0.0000 14.3846
# 5 0.3229 -3.4449 0.8753 0.0000 18.4901 0.0000
# 6 0.0000 0.0000 0.0000 14.3846 0.0000 15.3075
#
#
#
# Elastic Compliance Matrix: (Units=1/GPa)
#
#
# Indices 1 2 3 4 5 6 
#
# 1 0.018459 0.003219 0.000175 0.000000 0.000269 0.000000
# 2 0.003219 0.012160 -0.006045 0.000000 0.002496 0.000000
# 3 0.000175 -0.006045 0.037855 0.000000 -0.002921 0.000000
# 4 0.000000 0.000000 0.000000 0.042125 0.000000 -0.039585
# 5 0.000269 0.002496 -0.002921 0.000000 0.054682 0.000000
# 6 0.000000 0.000000 0.000000 -0.039585 0.000000 0.102525
#
#
# Mechanical properties :
#
#
# Convention : Reuss Voigt Hill
#
# Bulk Modulus (GPa) = 15.82979 19.06874 17.44927
# Shear Modulus (GPa) = 16.99722 26.56486 21.78104
#
# Velocity S-wave (km/s) = 2.87120 3.58945 3.25023
# Velocity P-wave (km/s) = 4.32080 5.14076 4.74851
#
# Compressibility (1/GPa) = 0.06317203
#
# Stress axis : x y z
#
# Youngs Moduli (GPa) = 54.17310 82.23401 26.41689
#
# Poissons Ratio (x) = -0.26469 -0.00464
# Poissons Ratio (y) = -0.17437 0.15970
# Poissons Ratio (z) = -0.00951 0.49713
#
# Static dielectric constant tensor:
#      x y z
#    x 1.731070 0.000000 0.002500 
#    y 0.000000 1.667440 0.000000 
#    z 0.002500 0.000000 1.756350 
# 
# From -- ./inp_files/63966.got.cif
#   From: 2010.05.17/outbox.cif.g08.bks.cpg/sg5_32_cif.got.tgz:63966.got - 2010.06.03 18:56:24.
