data_PCOD9126940
_publ_section_title
;
Structure prediction by ZEFSAII (Michael W. Deem and Ramdas Pophale) SiO2 
 PCOD9126940
Probable space group: C 2
;
_chemical_formula_sum "Si O2"
_cell_formula_units_Z 24
_cell_length_a 7.606091
_cell_length_b 17.268285
_cell_length_c 10.295380
_cell_angle_alpha 90.000000
_cell_angle_beta 44.977260
_cell_angle_gamma 90.000000
_cell_volume 955.797023
_symmetry_space_group_name_H-M "C 2"
_symmetry_group_IT_number 5
_symmetry_cell_setting 'monoclinic'
loop_
_space_group_symop_operation_xyz
x,y,z
-x,y,-z
1/2+x,1/2+y,z
1/2-x,1/2+y,-z
loop_
_atom_site_type_symbol
_atom_site_label
_atom_site_fract_x
_atom_site_fract_y
_atom_site_fract_z
Si Si1 0.935530 0.214180 0.215134
Si Si2 0.554669 0.279261 0.115488
Si Si3 0.792745 0.842547 0.496841
Si Si4 0.991045 0.631203 0.279910
Si Si5 0.660361 0.506114 0.546239
Si Si6 0.356718 0.549787 0.938067
O O1 0.500000 0.349009 0.500000
O O2 0.699046 0.180362 0.255236
O O3 0.854738 0.265900 0.380376
O O4 0.585353 0.197404 0.781150
O O5 0.436127 0.330223 0.288532
O O6 0.500000 0.306971 0.000000
O O7 0.853065 0.268003 0.963009
O O8 0.581786 0.060904 0.137954
O O9 0.673790 0.927923 0.550106
O O10 0.816221 0.585753 0.470189
O O11 0.411443 0.635277 0.851766
O O12 0.500000 0.514216 0.500000
O O13 0.471940 0.497853 0.766193
O O14 0.500000 0.538583 0.000000
#
# Coordination Sequence:
#
# PCOD9126940 Si02
#       6
#     4   4   4   4   4   4
#     4  10  22  43  74 100 127 187 242 280 341 426
#     4  11  24  41  69 105 137 172 234 303 343 399
#     4  11  24  43  67  97 144 190 227 276 360 430
#     4  10  22  42  71  97 132 182 239 283 340 415
#     4  11  26  41  63 104 146 183 224 292 356 412
#     4   9  21  39  66  95 124 174 234 286 333 405
#
# _framework density 25.109933000000002
#
# number of rings (size 3 to 8) (size 9 to 14) (size 15 to 20)
#    0.000    1.667    1.667    2.500    4.667    4.667 
#    0.000    8.333    0.000    0.000    0.000    0.000 
#    0.000    0.000    0.000    0.000    0.000    0.000 
#
# Total GULP energy -66853.420368 kJ/mol
# GULP energy per Si atom -5571.118364 kJ/mol
# Density = 2.505278 g / cm^3
# Si number density = 25.109933 Si / 1000 Ang^3
#
#
#
# Elastic Constant Matrix: (Units=GPa)
#
#
# Indices 1 2 3 4 5 6 
#
# 1 90.3662 22.2281 41.1058 0.0002 23.3077 0.0002
# 2 22.2281 100.9468 46.7963 -0.0002 12.1033 -0.0002
# 3 41.1058 46.7963 188.6554 0.0012 36.6734 0.0012
# 4 0.0002 -0.0002 0.0012********** -0.0008**********
# 5 23.3077 12.1033 36.6734 -0.0008 40.2587 -0.0008
# 6 0.0002 -0.0002 0.0012********** -0.0008**********
#
#
#
# Elastic Compliance Matrix: (Units=1/GPa)
#
#
# Indices 1 2 3 4 5 6 
#
# 1 0.013688 -0.001635 -0.001375 0.000000 -0.006180 0.000000
# 2 -0.001635 0.011423 -0.002423 0.000000 -0.000280 0.000000
# 3 -0.001375 -0.002423 0.007176 0.000000 -0.005012 0.000000
# 4 0.000000 0.000000 0.000000 0.024213 0.000000 -0.023653
# 5 -0.006180 -0.000280 -0.005012 0.000000 0.033067 0.000000
# 6 0.000000 0.000000 0.000000 -0.023653 0.000000 0.023065
#
#
# Mechanical properties :
#
#
# Convention : Reuss Voigt Hill
#
# Bulk Modulus (GPa) = 46.68620 66.69206 56.68913
# Shear Modulus (GPa) = 38.27363 -9618.26915 -4789.99776
#
# Velocity S-wave (km/s) = 3.90839 -61.95789 -43.72359
# Velocity P-wave (km/s) = 6.24503 71.35653 50.26308
#
# Compressibility (1/GPa) = 0.02141960
#
# Stress axis : x y z
#
# Youngs Moduli (GPa) = 73.05659 87.54244 139.36159
#
# Poissons Ratio (x) = 0.14317 0.19168
# Poissons Ratio (y) = 0.11948 0.33762
# Poissons Ratio (z) = 0.10048 0.21208
#
# Static dielectric constant tensor:
#      x y z
#    x 2.138760 0.000000 -0.140850 
#    y 0.000000 2.000510 0.000000 
#    z -0.140850 0.000000 2.163570 
# 
# From -- ./inp_files/36786.got.cif
#   From: 2010.05.17/outbox.cif.g08.bks.cpg/sg5_19_cif.got.tgz:36786.got - 2010.06.03 18:56:24.
