data_PCOD9126848
_publ_section_title
;
Structure prediction by ZEFSAII (Michael W. Deem and Ramdas Pophale) SiO2 
 PCOD9126848
Probable space group: C 2
;
_chemical_formula_sum "Si O2"
_cell_formula_units_Z 28
_cell_length_a 8.311367
_cell_length_b 11.881773
_cell_length_c 13.791341
_cell_angle_alpha 90.000000
_cell_angle_beta 123.311038
_cell_angle_gamma 90.000000
_cell_volume 1138.181256
_symmetry_space_group_name_H-M "C 2"
_symmetry_group_IT_number 5
_symmetry_cell_setting 'monoclinic'
loop_
_space_group_symop_operation_xyz
x,y,z
-x,y,-z
1/2+x,1/2+y,z
1/2-x,1/2+y,-z
loop_
_atom_site_type_symbol
_atom_site_label
_atom_site_fract_x
_atom_site_fract_y
_atom_site_fract_z
Si Si1 0.377069 0.585660 0.047779
Si Si2 0.991402 0.486634 0.888709
Si Si3 0.927309 0.472324 0.297495
Si Si4 0.446811 0.236546 0.330212
Si Si5 0.042311 0.864508 0.183057
Si Si6 0.176458 0.165074 0.769502
Si Si7 0.318444 0.780131 0.570675
O O1 0.427783 0.453097 0.079939
O O2 0.420832 0.654324 0.157987
O O3 0.500000 0.628268 0.000000
O O4 0.150694 0.585503 0.955060
O O5 0.059732 0.430245 0.810919
O O6 0.788086 0.546352 0.796774
O O7 0.000000 0.432347 0.000000
O O8 0.937665 0.605643 0.301156
O O9 0.097038 0.406066 0.406486
O O10 0.724367 0.439727 0.277429
O O11 0.414496 0.315011 0.226884
O O12 0.667477 0.256191 0.436612
O O13 0.305722 0.264693 0.371948
O O14 0.157758 0.759532 0.176302
O O15 0.007214 0.200244 0.640119
#
# Coordination Sequence:
#
# PCOD9126848 Si02
#       7
#     4   4   4   4   4   4   4
#     4  11  23  41  69  99 136 185 229 282 346 402
#     4  10  22  42  67  99 139 180 228 283 344 405
#     4  11  23  47  67 100 144 175 228 294 335 425
#     4  11  25  47  70 105 137 180 233 293 347 417
#     4  11  24  43  73  99 135 184 231 282 353 414
#     4  10  23  44  68 100 137 177 235 282 344 421
#     4  10  26  45  69 108 133 182 237 279 364 415
#
# _framework density 24.600650999999999
#
# number of rings (size 3 to 8) (size 9 to 14) (size 15 to 20)
#    0.000    1.429    2.857    0.857    4.000    7.429 
#    2.571    2.857    0.000    0.000    0.000    0.000 
#    0.000    0.000    0.000    0.000    0.000    0.000 
#
# Total GULP energy -78271.605857 kJ/mol
# GULP energy per Si atom -5590.828990 kJ/mol
# Density = 2.454466 g / cm^3
# Si number density = 24.600651 Si / 1000 Ang^3
#
#
#
# Elastic Constant Matrix: (Units=GPa)
#
#
# Indices 1 2 3 4 5 6 
#
# 1 88.4734 20.1142 9.0915 0.0000 1.7920 0.0000
# 2 20.1142 111.6772 22.7006 0.0000 8.3930 0.0000
# 3 9.0915 22.7006 41.0439 0.0000 16.6535 0.0000
# 4 0.0000 0.0000 0.0000 33.5977 0.0000 10.7898
# 5 1.7920 8.3930 16.6535 0.0000 48.9718 0.0000
# 6 0.0000 0.0000 0.0000 10.7898 0.0000 39.8135
#
#
#
# Elastic Compliance Matrix: (Units=1/GPa)
#
#
# Indices 1 2 3 4 5 6 
#
# 1 0.011892 -0.001806 -0.001838 0.000000 0.000499 0.000000
# 2 -0.001806 0.010364 -0.005381 0.000000 0.000120 0.000000
# 3 -0.001838 -0.005381 0.031723 0.000000 -0.009798 0.000000
# 4 0.000000 0.000000 0.000000 0.032601 0.000000 -0.008835
# 5 0.000499 0.000120 -0.009798 0.000000 0.023713 0.000000
# 6 0.000000 0.000000 0.000000 -0.008835 0.000000 0.027512
#
#
# Mechanical properties :
#
#
# Convention : Reuss Voigt Hill
#
# Bulk Modulus (GPa) = 27.83183 38.33413 33.08298
# Shear Modulus (GPa) = 29.79169 37.09580 33.44374
#
# Velocity S-wave (km/s) = 3.48374 3.88741 3.69109
# Velocity P-wave (km/s) = 5.24594 5.98044 5.62519
#
# Compressibility (1/GPa) = 0.03593008
#
# Stress axis : x y z
#
# Youngs Moduli (GPa) = 84.08913 96.48399 31.52279
#
# Poissons Ratio (x) = 0.17423 0.05794
# Poissons Ratio (y) = 0.15185 0.16962
# Poissons Ratio (z) = 0.15456 0.51917
#
# Static dielectric constant tensor:
#      x y z
#    x 2.004000 0.000000 -0.017210 
#    y 0.000000 1.938220 0.000000 
#    z -0.017210 0.000000 1.997190 
# 
# From -- ./inp_files/50549.got.cif
#   From: 2010.05.17/outbox.cif.g08.bks.cpg/sg5_26_cif.got.tgz:50549.got - 2010.06.03 18:56:24.
