data_PCOD9126406
_publ_section_title
;
Structure prediction by ZEFSAII (Michael W. Deem and Ramdas Pophale) SiO2 
 PCOD9126406
Probable space group: C 2
;
_chemical_formula_sum "Si O2"
_cell_formula_units_Z 20
_cell_length_a 23.316716
_cell_length_b 4.781347
_cell_length_c 7.141716
_cell_angle_alpha 90.000000
_cell_angle_beta 54.415230
_cell_angle_gamma 90.000000
_cell_volume 647.511095
_symmetry_space_group_name_H-M "C 2"
_symmetry_group_IT_number 5
_symmetry_cell_setting 'monoclinic'
loop_
_space_group_symop_operation_xyz
x,y,z
-x,y,-z
1/2+x,1/2+y,z
1/2-x,1/2+y,-z
loop_
_atom_site_type_symbol
_atom_site_label
_atom_site_fract_x
_atom_site_fract_y
_atom_site_fract_z
Si Si1 0.500000 0.668741 0.500000
Si Si2 0.354707 0.523343 0.631322
Si Si3 0.000000 0.119932 0.000000
Si Si4 0.299376 0.492549 0.356857
Si Si5 0.193703 0.395311 0.996107
Si Si6 0.439205 0.081675 0.927914
O O1 0.431215 0.485645 0.577724
O O2 0.481169 0.884292 0.703312
O O3 0.357573 0.439468 0.407952
O O4 0.278484 0.407775 0.846235
O O5 0.339737 0.840028 0.735764
O O6 0.027703 0.883113 0.094568
O O7 0.060693 0.367628 0.893339
O O8 0.248827 0.226409 0.445600
O O9 0.316808 0.639893 0.130188
O O10 0.139912 0.609653 0.999293
#
# Coordination Sequence:
#
# PCOD9126406 Si02
#       6
#     2   4   2   4   4   4
#     4  10  24  46  72 114 152 198 246 318 380 438
#     4  10  22  43  70 105 149 189 248 304 364 444
#     4  10  24  44  72 104 150 194 246 304 376 450
#     4  10  22  40  65 101 134 182 238 296 351 423
#     4  10  22  42  71 103 146 196 245 294 372 437
#     4  10  24  46  71 108 147 202 243 308 378 450
#
# _framework density 30.887502999999999
#
# number of rings (size 3 to 8) (size 9 to 14) (size 15 to 20)
#    0.000    2.000    0.000    1.200    5.600    7.200 
#    7.200    6.000    0.000    0.000    0.000    0.000 
#    0.000    0.000    0.000    0.000    0.000    0.000 
#
# Total GULP energy -55868.568410 kJ/mol
# GULP energy per Si atom -5586.856841 kJ/mol
# Density = 3.081720 g / cm^3
# Si number density = 30.887503 Si / 1000 Ang^3
#
#
#
# Elastic Constant Matrix: (Units=GPa)
#
#
# Indices 1 2 3 4 5 6 
#
# 1 314.0842 65.8587 39.5534 0.0000 -20.9221 0.0000
# 2 65.8587 202.7861 27.0797 0.0000 -30.0394 0.0000
# 3 39.5534 27.0797 127.7955 0.0000 -15.9393 0.0000
# 4 0.0000 0.0000 0.0000 53.1910 0.0000 -22.0373
# 5 -20.9221 -30.0394 -15.9393 0.0000 53.2945 0.0000
# 6 0.0000 0.0000 0.0000 -22.0373 0.0000 56.8814
#
#
#
# Elastic Compliance Matrix: (Units=1/GPa)
#
#
# Indices 1 2 3 4 5 6 
#
# 1 0.003525 -0.000946 -0.000815 0.000000 0.000607 0.000000
# 2 -0.000946 0.005713 -0.000584 0.000000 0.002674 0.000000
# 3 -0.000815 -0.000584 0.008435 0.000000 0.001873 0.000000
# 4 0.000000 0.000000 0.000000 0.022395 0.000000 0.008676
# 5 0.000607 0.002674 0.001873 0.000000 0.021069 0.000000
# 6 0.000000 0.000000 0.000000 0.008676 0.000000 0.020942
#
#
# Mechanical properties :
#
#
# Convention : Reuss Voigt Hill
#
# Bulk Modulus (GPa) = 77.02898 101.07217 89.05057
# Shear Modulus (GPa) = 54.88680 66.81830 60.85255
#
# Velocity S-wave (km/s) = 4.22001 4.65615 4.44344
# Velocity P-wave (km/s) = 6.98121 7.85494 7.43093
#
# Compressibility (1/GPa) = 0.01298213
#
# Stress axis : x y z
#
# Youngs Moduli (GPa) = 283.66278 175.04907 118.55824
#
# Poissons Ratio (x) = 0.16563 0.09661
# Poissons Ratio (y) = 0.26840 0.06926
# Poissons Ratio (z) = 0.23116 0.10226
#
# Static dielectric constant tensor:
#      x y z
#    x 2.620880 0.000000 0.146750 
#    y 0.000000 2.419810 0.000000 
#    z 0.146750 0.000000 2.653320 
# 
# From -- ./inp_files/25979.got.cif
#   From: 2010.05.17/outbox.cif.g08.bks.cpg/sg5_13_cif.got.tgz:25979.got - 2010.06.03 18:56:24.
