data_PCOD9126319
_publ_section_title
;
Structure prediction by ZEFSAII (Michael W. Deem and Ramdas Pophale) SiO2 
 PCOD9126319
Probable space group: C 2
;
_chemical_formula_sum "Si O2"
_cell_formula_units_Z 30
_cell_length_a 11.064497
_cell_length_b 8.485450
_cell_length_c 13.413928
_cell_angle_alpha 90.000000
_cell_angle_beta 82.103665
_cell_angle_gamma 90.000000
_cell_volume 1247.455345
_symmetry_space_group_name_H-M "C 2"
_symmetry_group_IT_number 5
_symmetry_cell_setting 'monoclinic'
loop_
_space_group_symop_operation_xyz
x,y,z
-x,y,-z
1/2+x,1/2+y,z
1/2-x,1/2+y,-z
loop_
_atom_site_type_symbol
_atom_site_label
_atom_site_fract_x
_atom_site_fract_y
_atom_site_fract_z
Si Si1 0.356783 0.619010 0.528540
Si Si2 0.923252 0.336059 0.686611
Si Si3 0.709070 0.828466 0.641095
Si Si4 0.000000 0.346270 0.000000
Si Si5 0.329441 0.140742 0.807278
Si Si6 0.228148 0.574393 0.966011
Si Si7 0.964548 0.089952 0.838782
Si Si8 0.059831 0.791741 0.882651
O O1 0.500000 0.574172 0.500000
O O2 0.362867 0.783800 0.590190
O O3 0.296179 0.677072 0.432284
O O4 0.285419 0.475049 0.588243
O O5 0.851472 0.472274 0.752089
O O6 0.066907 0.380432 0.665534
O O7 0.928723 0.165470 0.740168
O O8 0.117718 0.454053 0.980014
O O9 0.007495 0.237142 0.094711
O O10 0.266073 0.263100 0.738350
O O11 0.466659 0.193772 0.825046
O O12 0.260032 0.130145 0.921668
O O13 0.187301 0.710970 0.894172
O O14 0.350798 0.506925 0.906523
O O15 0.068633 0.960589 0.829682
O O16 0.000000 0.801076 0.000000
#
# Coordination Sequence:
#
# PCOD9126319 Si02
#       8
#     4   4   4   2   4   4   4   4
#     4  10  24  48  72 101 130 166 217 271 341 413
#     4  11  25  45  66 104 133 171 224 274 330 402
#     4  11  25  45  75  98 135 169 212 277 341 399
#     4  12  24  40  62  90 130 180 230 278 318 380
#     4  11  23  40  66  97 134 176 220 268 327 385
#     4  11  25  43  60  91 140 181 224 276 321 376
#     4  12  26  39  69  93 131 185 229 269 326 379
#     4  10  22  40  57  88 128 173 225 269 311 377
#
# _framework density 24.048959
#
# number of rings (size 3 to 8) (size 9 to 14) (size 15 to 20)
#    0.000    1.067    4.000    1.600    5.600    5.333 
#    0.000    0.000    0.000    0.000    0.000    0.000 
#    0.000    0.000    0.000    0.000    0.000    0.000 
#
# Total GULP energy -83994.303121 kJ/mol
# GULP energy per Si atom -5599.620208 kJ/mol
# Density = 2.399422 g / cm^3
# Si number density = 24.048959 Si / 1000 Ang^3
#
#
#
# Elastic Constant Matrix: (Units=GPa)
#
#
# Indices 1 2 3 4 5 6 
#
# 1 121.5836 45.4415 37.3538 0.0000 -0.4974 0.0000
# 2 45.4415 102.3043 25.6751 0.0000 -6.0992 0.0000
# 3 37.3538 25.6751 96.5615 0.0000 21.2962 0.0000
# 4 0.0000 0.0000 0.0000 49.3755 0.0000 2.8687
# 5 -0.4974 -6.0992 21.2962 0.0000 41.7615 0.0000
# 6 0.0000 0.0000 0.0000 2.8687 0.0000 34.7257
#
#
#
# Elastic Compliance Matrix: (Units=1/GPa)
#
#
# Indices 1 2 3 4 5 6 
#
# 1 0.010707 -0.003821 -0.003415 0.000000 0.001311 0.000000
# 2 -0.003821 0.012263 -0.002442 0.000000 0.002991 0.000000
# 3 -0.003415 -0.002442 0.013987 0.000000 -0.007530 0.000000
# 4 0.000000 0.000000 0.000000 0.020351 0.000000 -0.001681
# 5 0.001311 0.002991 -0.007530 0.000000 0.028238 0.000000
# 6 0.000000 0.000000 0.000000 -0.001681 0.000000 0.028936
#
#
# Mechanical properties :
#
#
# Convention : Reuss Voigt Hill
#
# Bulk Modulus (GPa) = 56.81417 59.71004 58.26210
# Shear Modulus (GPa) = 35.78937 39.30449 37.54693
#
# Velocity S-wave (km/s) = 3.86189 4.04710 3.95558
# Velocity P-wave (km/s) = 6.60009 6.83528 6.71872
#
# Compressibility (1/GPa) = 0.01760124
#
# Stress axis : x y z
#
# Youngs Moduli (GPa) = 93.39322 81.54544 71.49278
#
# Poissons Ratio (x) = 0.31156 0.24417
# Poissons Ratio (y) = 0.35683 0.17461
# Poissons Ratio (z) = 0.31897 0.19916
#
# Static dielectric constant tensor:
#      x y z
#    x 1.928630 0.000000 0.039730 
#    y 0.000000 1.942290 0.000000 
#    z 0.039730 0.000000 2.023220 
# 
# From -- ./inp_files/52291.got.cif
#   From: 2010.05.17/outbox.cif.g08.bks.cpg/sg5_27_cif.got.tgz:52291.got - 2010.06.03 18:56:24.
