data_PCOD9126823
_publ_section_title
;
Structure prediction by ZEFSAII (Michael W. Deem and Ramdas Pophale) SiO2 
 PCOD9126823
Probable space group: C 2
;
_chemical_formula_sum "Si O2"
_cell_formula_units_Z 30
_cell_length_a 10.312174
_cell_length_b 10.090515
_cell_length_c 26.958382
_cell_angle_alpha 90.000000
_cell_angle_beta 146.440604
_cell_angle_gamma 90.000000
_cell_volume 1550.694757
_symmetry_space_group_name_H-M "C 2"
_symmetry_group_IT_number 5
_symmetry_cell_setting 'monoclinic'
loop_
_space_group_symop_operation_xyz
x,y,z
-x,y,-z
1/2+x,1/2+y,z
1/2-x,1/2+y,-z
loop_
_atom_site_type_symbol
_atom_site_label
_atom_site_fract_x
_atom_site_fract_y
_atom_site_fract_z
Si Si1 0.744821 0.424210 0.161344
Si Si2 0.312775 0.927991 0.768325
Si Si3 0.500000 0.247665 0.000000
Si Si4 0.630736 0.262479 0.403910
Si Si5 0.891692 0.195549 0.280186
Si Si6 0.248480 0.583399 0.675682
Si Si7 0.885158 0.287765 0.388543
Si Si8 0.003089 0.155896 0.142411
O O1 0.588081 0.341658 0.072589
O O2 0.794202 0.327469 0.223489
O O3 0.619563 0.556804 0.140483
O O4 0.989943 0.448462 0.210870
O O5 0.403103 0.807179 0.831466
O O6 0.068892 0.874169 0.667202
O O7 0.264632 0.065507 0.780378
O O8 0.722590 0.162491 0.053197
O O9 0.503360 0.141474 0.390157
O O10 0.726788 0.220335 0.380446
O O11 0.856339 0.308187 0.506366
O O12 0.900110 0.212096 0.341700
O O13 0.140870 0.163065 0.334762
O O14 0.230334 0.430158 0.657770
O O15 0.411136 0.611307 0.775373
#
# Coordination Sequence:
#
# PCOD9126823 Si02
#       8
#     4   4   2   4   4   4   4   4
#     4  11  23  44  66 100 127 169 214 264 327 393
#     4  10  23  40  65  92 131 171 212 270 319 374
#     4  10  22  42  66  98 130 164 208 276 320 388
#     4  10  23  42  57  91 134 172 212 276 318 356
#     4  12  23  39  69  94 122 174 222 255 323 387
#     4  11  22  43  64  91 129 176 212 267 328 374
#     4  11  25  38  62  96 129 170 228 267 311 389
#     4  10  22  45  68  90 136 164 209 265 329 384
#
# _framework density 19.346167999999999
#
# number of rings (size 3 to 8) (size 9 to 14) (size 15 to 20)
#    0.000    1.333    6.667    0.000    5.600    2.667 
#    0.000    0.000    0.000    0.000    0.000    0.000 
#    0.000    0.000    0.000    0.000    0.000    0.000 
#
# Total GULP energy -83769.836609 kJ/mol
# GULP energy per Si atom -5584.655774 kJ/mol
# Density = 1.930213 g / cm^3
# Si number density = 19.346168 Si / 1000 Ang^3
#
#
#
# Elastic Constant Matrix: (Units=GPa)
#
#
# Indices 1 2 3 4 5 6 
#
# 1 144.6890 50.7281 43.4951 0.0000 10.5211 0.0000
# 2 50.7281 65.5406 -5.0197 0.0000 16.9251 0.0000
# 3 43.4951 -5.0197 65.3049 0.0000 18.8448 0.0000
# 4 0.0000 0.0000 0.0000 5.4370 0.0000 15.0378
# 5 10.5211 16.9251 18.8448 0.0000 32.0484 0.0000
# 6 0.0000 0.0000 0.0000 15.0378 0.0000 29.2182
#
#
#
# Elastic Compliance Matrix: (Units=1/GPa)
#
#
# Indices 1 2 3 4 5 6 
#
# 1 0.017570 -0.018576 -0.017218 0.000000 0.014167 0.000000
# 2 -0.018576 0.038699 0.023466 0.000000 -0.028137 0.000000
# 3 -0.017218 0.023466 0.036768 0.000000 -0.028360 0.000000
# 4 0.000000 0.000000 0.000000 -0.434310 0.000000 0.223527
# 5 0.014167 -0.028137 -0.028360 0.000000 0.058088 0.000000
# 6 0.000000 0.000000 0.000000 0.223527 0.000000 -0.080817
#
#
# Mechanical properties :
#
#
# Convention : Reuss Voigt Hill
#
# Bulk Modulus (GPa) = 14.62383 50.43793 32.53088
# Shear Modulus (GPa) = -15.79511 25.76281 4.98385
#
# Velocity S-wave (km/s) = -2.86045 3.65317 1.60678
# Velocity P-wave (km/s) = 1.82596 6.62737 4.50488
#
# Compressibility (1/GPa) = 0.06838153
#
# Stress axis : x y z
#
# Youngs Moduli (GPa) = 56.91536 25.84049 27.19755
#
# Poissons Ratio (x) = 0.48002 0.46829
# Poissons Ratio (y) = 1.05727 -0.63823
# Poissons Ratio (z) = 0.97997 -0.60638
#
# Static dielectric constant tensor:
#      x y z
#    x 1.699970 0.000000 0.005360 
#    y 0.000000 1.677090 0.000000 
#    z 0.005360 0.000000 1.665260 
# 
# From -- ./inp_files/59563.got.cif
#   From: 2010.05.17/outbox.cif.g08.bks.cpg/sg5_30_cif.got.tgz:59563.got - 2010.06.03 18:56:24.
