data_PCOD9126361
_publ_section_title
;
Structure prediction by ZEFSAII (Michael W. Deem and Ramdas Pophale) SiO2 
 PCOD9126361
Probable space group: C 2
;
_chemical_formula_sum "Si O2"
_cell_formula_units_Z 32
_cell_length_a 13.433271
_cell_length_b 18.655048
_cell_length_c 10.218552
_cell_angle_alpha 90.000000
_cell_angle_beta 33.894704
_cell_angle_gamma 90.000000
_cell_volume 1428.050389
_symmetry_space_group_name_H-M "C 2"
_symmetry_group_IT_number 5
_symmetry_cell_setting 'monoclinic'
loop_
_space_group_symop_operation_xyz
x,y,z
-x,y,-z
1/2+x,1/2+y,z
1/2-x,1/2+y,-z
loop_
_atom_site_type_symbol
_atom_site_label
_atom_site_fract_x
_atom_site_fract_y
_atom_site_fract_z
Si Si1 0.579518 0.017930 0.201372
Si Si2 0.446730 0.159661 0.918224
Si Si3 0.297916 0.924814 0.170474
Si Si4 0.706732 0.264507 0.263293
Si Si5 0.411021 0.686081 0.806547
Si Si6 0.249878 0.769313 0.518059
Si Si7 0.216855 0.937959 0.550534
Si Si8 0.569740 0.547979 0.058330
O O1 0.524910 0.097721 0.218717
O O2 0.400353 0.971803 0.405540
O O3 0.721748 0.026908 0.162338
O O4 0.689061 0.981307 0.960914
O O5 0.573574 0.226376 0.750318
O O6 0.500000 0.128689 0.000000
O O7 0.240013 0.181305 0.138615
O O8 0.219152 0.848724 0.211354
O O9 0.205242 0.949697 0.405511
O O10 0.500000 0.910345 0.000000
O O11 0.500000 0.243711 0.500000
O O12 0.783608 0.258462 0.325663
O O13 0.806776 0.218466 0.046215
O O14 0.579581 0.735715 0.596932
O O15 0.465495 0.605862 0.789136
O O16 0.223613 0.853376 0.567109
O O17 0.049258 0.977822 0.793490
O O18 0.500000 0.581783 0.000000
#
# Coordination Sequence:
#
# PCOD9126361 Si02
#       8
#     4   4   4   4   4   4   4   4
#     4  10  22  40  65  88 122 158 198 255 309 354
#     4  11  24  42  62  91 123 164 208 250 299 368
#     4   9  19  36  61  93 121 151 198 252 307 357
#     4  11  20  35  63  95 122 154 200 256 310 355
#     4  11  23  42  64  91 122 162 203 255 310 363
#     4  11  23  40  65  91 127 161 204 255 304 364
#     4  10  22  40  62  92 120 160 200 253 303 355
#     4  11  25  41  60  88 122 163 207 245 294 369
#
# _framework density 22.408173000000001
#
# number of rings (size 3 to 8) (size 9 to 14) (size 15 to 20)
#    0.000    1.500    1.250    5.250    3.500    2.500 
#    0.000    3.750    0.000    0.000    0.000    0.000 
#    0.000    0.000    0.000    0.000    0.000    0.000 
#
# Total GULP energy -89525.594359 kJ/mol
# GULP energy per Si atom -5595.349647 kJ/mol
# Density = 2.235717 g / cm^3
# Si number density = 22.408173 Si / 1000 Ang^3
#
#
#
# Elastic Constant Matrix: (Units=GPa)
#
#
# Indices 1 2 3 4 5 6 
#
# 1 98.5290 31.7384 38.5092 0.0046 -33.3829 -0.0043
# 2 31.7384 99.6600 42.2458 -0.0464 -23.4982 0.0004
# 3 38.5092 42.2458 44.5183 -0.0304 -18.1699 0.0090
# 4 0.0046 -0.0464 -0.0304 17.9218 0.0132 -7.2675
# 5 -33.3829 -23.4982 -18.1699 0.0132 33.8222 -0.0009
# 6 -0.0043 0.0004 0.0090 -7.2675 -0.0009 18.3027
#
#
#
# Elastic Compliance Matrix: (Units=1/GPa)
#
#
# Indices 1 2 3 4 5 6 
#
# 1 0.019228 0.002976 -0.013919 -0.000031 0.013568 0.000000
# 2 0.002976 0.017676 -0.016826 0.000019 0.006178 0.000016
# 3 -0.013919 -0.016826 0.051351 0.000041 0.002159 -0.000012
# 4 -0.000031 0.000019 0.000041 0.066507 -0.000021 0.026408
# 5 0.013568 0.006178 0.002159 -0.000021 0.048410 -0.000004
# 6 0.000000 0.000016 -0.000012 0.026408 -0.000004 0.065123
#
#
# Mechanical properties :
#
#
# Convention : Reuss Voigt Hill
#
# Bulk Modulus (GPa) = 30.56540 51.96602 41.26571
# Shear Modulus (GPa) = 14.93711 22.69027 18.81369
#
# Velocity S-wave (km/s) = 2.58465 3.18557 2.90071
# Velocity P-wave (km/s) = 4.75154 6.06395 5.44741
#
# Compressibility (1/GPa) = 0.03271673
#
# Stress axis : x y z
#
# Youngs Moduli (GPa) = 52.00827 56.57498 19.47399
#
# Poissons Ratio (x) = -0.16836 0.27105
# Poissons Ratio (y) = -0.15477 0.32767
# Poissons Ratio (z) = 0.72388 0.95192
#
# Static dielectric constant tensor:
#      x y z
#    x 1.860990 0.000010 0.001440 
#    y 0.000010 1.784900 0.000010 
#    z 0.001440 0.000010 1.821700 
# 
# From -- ./inp_files/43356.got.cif
#   From: 2010.05.17/outbox.cif.g08.bks.cpg/sg5_22_cif.got.tgz:43356.got - 2010.06.03 18:56:24.
