data_PCOD9126385
_publ_section_title
;
Structure prediction by ZEFSAII (Michael W. Deem and Ramdas Pophale) SiO2 
 PCOD9126385
Probable space group: C 2
;
_chemical_formula_sum "Si O2"
_cell_formula_units_Z 26
_cell_length_a 18.098762
_cell_length_b 4.922626
_cell_length_c 13.764828
_cell_angle_alpha 90.000000
_cell_angle_beta 112.918681
_cell_angle_gamma 90.000000
_cell_volume 1129.545440
_symmetry_space_group_name_H-M "C 2"
_symmetry_group_IT_number 5
_symmetry_cell_setting 'monoclinic'
loop_
_space_group_symop_operation_xyz
x,y,z
-x,y,-z
1/2+x,1/2+y,z
1/2-x,1/2+y,-z
loop_
_atom_site_type_symbol
_atom_site_label
_atom_site_fract_x
_atom_site_fract_y
_atom_site_fract_z
Si Si1 0.500000 0.904270 0.500000
Si Si2 0.328287 0.895506 0.433024
Si Si3 0.891290 0.176834 0.194804
Si Si4 0.666574 0.058154 0.338938
Si Si5 0.269095 0.289192 0.245612
Si Si6 0.008259 0.688730 0.708011
Si Si7 0.212778 0.016748 0.022347
O O1 0.414018 0.752814 0.454277
O O2 0.494236 0.094521 0.591029
O O3 0.243101 0.756162 0.371041
O O4 0.328137 0.947932 0.548194
O O5 0.324654 0.149755 0.356882
O O6 0.819131 0.039786 0.222479
O O7 0.965869 0.997282 0.267131
O O8 0.919637 0.487594 0.220145
O O9 0.868495 0.112965 0.071338
O O10 0.689129 0.858637 0.264125
O O11 0.576236 0.156991 0.281260
O O12 0.237759 0.096479 0.143081
O O13 0.275930 0.199833 0.992214
#
# Coordination Sequence:
#
# PCOD9126385 Si02
#       7
#     2   4   4   4   4   4   4
#     4  10  22  40  64 102 130 180 232 272 336 400
#     4  11  22  42  62 100 136 182 228 275 343 415
#     4  11  23  45  69  98 132 178 235 286 331 394
#     4  11  25  40  66  98 144 183 221 275 351 423
#     4  11  23  41  70  94 136 178 229 284 341 403
#     4  11  25  42  67  98 141 177 222 285 337 404
#     4  10  23  41  71 102 129 174 235 289 336 390
#
# _framework density 23.018108999999999
#
# number of rings (size 3 to 8) (size 9 to 14) (size 15 to 20)
#    0.000    1.231    3.077    2.769    6.462    0.615 
#    0.000    0.769    0.000    0.000    0.000    0.000 
#    0.000    0.000    0.000    0.000    0.000    0.000 
#
# Total GULP energy -72544.148135 kJ/mol
# GULP energy per Si atom -5580.319087 kJ/mol
# Density = 2.296572 g / cm^3
# Si number density = 23.018109 Si / 1000 Ang^3
#
#
#
# Elastic Constant Matrix: (Units=GPa)
#
#
# Indices 1 2 3 4 5 6 
#
# 1 163.6678 23.5929 37.3160 0.0000 -1.6324 0.0000
# 2 23.5929 49.9108 10.3428 0.0000 -4.5662 0.0000
# 3 37.3160 10.3428 101.5277 0.0000 -6.7043 0.0000
# 4 0.0000 0.0000 0.0000 35.1017 0.0000 8.2199
# 5 -1.6324 -4.5662 -6.7043 0.0000 24.8576 0.0000
# 6 0.0000 0.0000 0.0000 8.2199 0.0000 33.9761
#
#
#
# Elastic Compliance Matrix: (Units=1/GPa)
#
#
# Indices 1 2 3 4 5 6 
#
# 1 0.007057 -0.002915 -0.002343 0.000000 -0.000704 0.000000
# 2 -0.002915 0.021934 -0.000926 0.000000 0.003588 0.000000
# 3 -0.002343 -0.000926 0.010979 0.000000 0.002637 0.000000
# 4 0.000000 0.000000 0.000000 0.030200 0.000000 -0.007306
# 5 -0.000704 0.003588 0.002637 0.000000 0.041553 0.000000
# 6 0.000000 0.000000 0.000000 -0.007306 0.000000 0.031200
#
#
# Mechanical properties :
#
#
# Convention : Reuss Voigt Hill
#
# Bulk Modulus (GPa) = 36.22980 50.84551 43.53766
# Shear Modulus (GPa) = 30.39645 35.04405 32.72025
#
# Velocity S-wave (km/s) = 3.63787 3.90610 3.77437
# Velocity P-wave (km/s) = 5.78095 6.51773 6.16036
#
# Compressibility (1/GPa) = 0.02760158
#
# Stress axis : x y z
#
# Youngs Moduli (GPa) = 141.69528 45.59184 91.08003
#
# Poissons Ratio (x) = 0.13289 0.21344
# Poissons Ratio (y) = 0.41302 0.08436
# Poissons Ratio (z) = 0.33206 0.04223
#
# Static dielectric constant tensor:
#      x y z
#    x 1.865500 0.000000 0.014620 
#    y 0.000000 1.957290 0.000000 
#    z 0.014620 0.000000 1.894460 
# 
# From -- ./inp_files/55235.got.cif
#   From: 2010.05.17/outbox.cif.g08.bks.cpg/sg5_28_cif.got.tgz:55235.got - 2010.06.03 18:56:24.
