data_PCOD9126865
_publ_section_title
;
Structure prediction by ZEFSAII (Michael W. Deem and Ramdas Pophale) SiO2 
 PCOD9126865
Probable space group: C 2
;
_chemical_formula_sum "Si O2"
_cell_formula_units_Z 26
_cell_length_a 13.712290
_cell_length_b 8.837980
_cell_length_c 13.016987
_cell_angle_alpha 90.000000
_cell_angle_beta 137.692316
_cell_angle_gamma 90.000000
_cell_volume 1061.843749
_symmetry_space_group_name_H-M "C 2"
_symmetry_group_IT_number 5
_symmetry_cell_setting 'monoclinic'
loop_
_space_group_symop_operation_xyz
x,y,z
-x,y,-z
1/2+x,1/2+y,z
1/2-x,1/2+y,-z
loop_
_atom_site_type_symbol
_atom_site_label
_atom_site_fract_x
_atom_site_fract_y
_atom_site_fract_z
Si Si1 0.676086 0.713160 0.252761
Si Si2 0.684197 0.206192 0.080918
Si Si3 0.000000 0.448993 0.000000
Si Si4 0.710807 0.648688 0.608130
Si Si5 0.011662 0.318014 0.702237
Si Si6 0.559050 0.148365 0.397766
Si Si7 0.500000 0.381915 0.500000
Si Si8 0.000000 0.963397 0.000000
O O1 0.631499 0.841311 0.135665
O O2 0.593810 0.786446 0.285577
O O3 0.827907 0.654171 0.417829
O O4 0.602369 0.565727 0.148517
O O5 0.724313 0.200313 0.233613
O O6 0.590648 0.355912 0.995058
O O7 0.840903 0.230218 0.155071
O O8 0.580021 0.062697 0.981939
O O9 0.577885 0.747046 0.461801
O O10 0.836774 0.657477 0.620481
O O11 0.635292 0.486357 0.570827
O O12 0.029428 0.494337 0.687606
O O13 0.466139 0.290925 0.366310
#
# Coordination Sequence:
#
# PCOD9126865 Si02
#       8
#     4   4   2   4   4   4   2   2
#     4  10  23  44  65  94 133 174 227 278 340 412
#     4  11  22  41  66  95 133 178 226 272 344 410
#     4  10  22  42  68  86 132 188 220 278 328 412
#     4  11  22  44  66 102 138 175 226 292 355 407
#     4  11  23  40  67  95 135 171 220 290 345 409
#     4  11  25  41  68 104 134 175 223 294 357 408
#     4  12  24  38  68 104 134 180 218 272 362 412
#     4  10  24  40  66  92 128 188 220 274 334 414
#
# _framework density 24.485710999999998
#
# number of rings (size 3 to 8) (size 9 to 14) (size 15 to 20)
#    0.000    1.231    1.538    4.615    4.308    2.462 
#    0.000    0.000    0.000    0.000    0.000    0.000 
#    0.000    0.000    0.000    0.000    0.000    0.000 
#
# Total GULP energy -72563.112876 kJ/mol
# GULP energy per Si atom -5581.777914 kJ/mol
# Density = 2.442998 g / cm^3
# Si number density = 24.485711 Si / 1000 Ang^3
#
#
#
# Elastic Constant Matrix: (Units=GPa)
#
#
# Indices 1 2 3 4 5 6 
#
# 1 95.1695 13.3470 -18.8533 0.0000 10.1127 0.0000
# 2 13.3470 116.8026 2.2238 0.0000 1.5838 0.0000
# 3 -18.8533 2.2238 73.3767 0.0000 17.4666 0.0000
# 4 0.0000 0.0000 0.0000 8.2397 0.0000 9.7130
# 5 10.1127 1.5838 17.4666 0.0000 33.9919 0.0000
# 6 0.0000 0.0000 0.0000 9.7130 0.0000 25.1750
#
#
#
# Elastic Compliance Matrix: (Units=1/GPa)
#
#
# Indices 1 2 3 4 5 6 
#
# 1 0.012249 -0.001407 0.004605 0.000000 -0.005945 0.000000
# 2 -0.001407 0.008731 -0.000716 0.000000 0.000380 0.000000
# 3 0.004605 -0.000716 0.017263 0.000000 -0.010207 0.000000
# 4 0.000000 0.000000 0.000000 0.222604 0.000000 -0.085885
# 5 -0.005945 0.000380 -0.010207 0.000000 0.036415 0.000000
# 6 0.000000 0.000000 0.000000 -0.085885 0.000000 0.072858
#
#
# Mechanical properties :
#
#
# Convention : Reuss Voigt Hill
#
# Bulk Modulus (GPa) = 23.14504 30.97597 27.06050
# Shear Modulus (GPa) = 13.17322 32.72341 22.94832
#
# Velocity S-wave (km/s) = 2.32199 3.65969 3.06471
# Velocity P-wave (km/s) = 4.08189 5.52592 4.85786
#
# Compressibility (1/GPa) = 0.04320580
#
# Stress axis : x y z
#
# Youngs Moduli (GPa) = 81.64080 114.53852 57.92773
#
# Poissons Ratio (x) = 0.16112 -0.26675
# Poissons Ratio (y) = 0.11485 0.04150
# Poissons Ratio (z) = -0.37595 0.08206
#
# Static dielectric constant tensor:
#      x y z
#    x 2.043600 0.000000 0.062490 
#    y 0.000000 2.036350 0.000000 
#    z 0.062490 0.000000 1.994490 
# 
# From -- ./inp_files/41857.got.cif
#   From: 2010.05.17/outbox.cif.g08.bks.cpg/sg5_21_cif.got.tgz:41857.got - 2010.06.03 18:56:24.
