data_PCOD9126365
_publ_section_title
;
Structure prediction by ZEFSAII (Michael W. Deem and Ramdas Pophale) SiO2 
 PCOD9126365
Probable space group: C 2
;
_chemical_formula_sum "Si O2"
_cell_formula_units_Z 22
_cell_length_a 32.060727
_cell_length_b 5.022521
_cell_length_c 13.254069
_cell_angle_alpha 90.000000
_cell_angle_beta 26.494296
_cell_angle_gamma 90.000000
_cell_volume 952.105478
_symmetry_space_group_name_H-M "C 2"
_symmetry_group_IT_number 5
_symmetry_cell_setting 'monoclinic'
loop_
_space_group_symop_operation_xyz
x,y,z
-x,y,-z
1/2+x,1/2+y,z
1/2-x,1/2+y,-z
loop_
_atom_site_type_symbol
_atom_site_label
_atom_site_fract_x
_atom_site_fract_y
_atom_site_fract_z
Si Si1 0.084112 0.531920 0.085284
Si Si2 0.000000 0.316777 0.000000
Si Si3 0.023025 0.032170 0.741305
Si Si4 0.357032 0.697906 0.696617
Si Si5 0.366408 0.198807 0.799139
Si Si6 0.307596 0.078034 0.341308
O O1 0.057580 0.222263 0.132635
O O2 0.096387 0.617072 0.173163
O O3 0.004344 0.725134 0.211197
O O4 0.172968 0.583068 0.820723
O O5 0.092436 0.487455 0.827961
O O6 0.026626 0.130991 0.847683
O O7 0.111199 0.108440 0.482360
O O8 0.394089 0.484505 0.697163
O O9 0.390653 0.984710 0.660569
O O10 0.245553 0.697194 0.945651
O O11 0.230239 0.859049 0.538053
#
# Coordination Sequence:
#
# PCOD9126365 Si02
#       6
#     4   2   4   4   4   4
#     4  11  24  42  63  98 128 163 225 272 317 410
#     4  10  26  48  66 104 144 168 236 286 314 426
#     4  11  24  42  66  93 131 172 213 269 342 374
#     4  10  22  40  62  93 123 177 206 262 340 380
#     4  10  22  41  61  92 132 157 224 267 309 412
#     4  11  25  45  69 100 134 184 228 274 347 392
#
# _framework density 23.106680999999998
#
# number of rings (size 3 to 8) (size 9 to 14) (size 15 to 20)
#    0.000    1.455    0.000    4.364    2.545   10.909 
#    6.545    0.000    0.000    0.000    0.000    0.000 
#    0.000    0.000    0.000    0.000    0.000    0.000 
#
# Total GULP energy -61588.873505 kJ/mol
# GULP energy per Si atom -5598.988500 kJ/mol
# Density = 2.305409 g / cm^3
# Si number density = 23.106681 Si / 1000 Ang^3
#
#
#
# Elastic Constant Matrix: (Units=GPa)
#
#
# Indices 1 2 3 4 5 6 
#
# 1 96.0135 -10.6636 18.5045 -0.0001 5.8718 0.0001
# 2 -10.6636 59.9593 10.1478 -0.0002 -2.7454 0.0005
# 3 18.5045 10.1478 113.0789 0.0000 14.2005 0.0001
# 4 -0.0001 -0.0002 0.0000 39.9895 0.0000 6.0320
# 5 5.8718 -2.7454 14.2005 0.0000 30.3474 0.0000
# 6 0.0001 0.0005 0.0001 6.0320 0.0000 23.7431
#
#
#
# Elastic Compliance Matrix: (Units=1/GPa)
#
#
# Indices 1 2 3 4 5 6 
#
# 1 0.011092 0.002243 -0.001883 0.000000 -0.001062 0.000000
# 2 0.002243 0.017552 -0.002217 0.000000 0.002192 0.000000
# 3 -0.001883 -0.002217 0.009912 0.000000 -0.004475 0.000000
# 4 0.000000 0.000000 0.000000 0.026003 0.000000 -0.006606
# 5 -0.001062 0.002192 -0.004475 0.000000 0.035449 0.000000
# 6 0.000000 0.000000 0.000000 -0.006606 0.000000 0.043796
#
#
# Mechanical properties :
#
#
# Convention : Reuss Voigt Hill
#
# Bulk Modulus (GPa) = 28.70118 33.89211 31.29665
# Shear Modulus (GPa) = 31.41997 35.55354 33.48676
#
# Velocity S-wave (km/s) = 3.69152 3.92684 3.81100
# Velocity P-wave (km/s) = 5.53334 5.93798 5.73923
#
# Compressibility (1/GPa) = 0.03484177
#
# Stress axis : x y z
#
# Youngs Moduli (GPa) = 90.15376 56.97203 100.88335
#
# Poissons Ratio (x) = -0.12778 0.18997
# Poissons Ratio (y) = -0.20219 0.22370
# Poissons Ratio (z) = 0.16976 0.12633
#
# Static dielectric constant tensor:
#      x y z
#    x 1.851770 0.000000 -0.020190 
#    y 0.000000 1.812330 0.000000 
#    z -0.020190 0.000000 1.869860 
# 
# From -- ./inp_files/48204.got.cif
#   From: 2010.05.17/outbox.cif.g08.bks.cpg/sg5_25_cif.got.tgz:48204.got - 2010.06.03 18:56:24.
