data_PCOD9126209
_publ_section_title
;
Structure prediction by ZEFSAII (Michael W. Deem and Ramdas Pophale) SiO2 
 PCOD9126209
Probable space group: C 2
;
_chemical_formula_sum "Si O2"
_cell_formula_units_Z 22
_cell_length_a 11.716814
_cell_length_b 17.077816
_cell_length_c 5.256930
_cell_angle_alpha 90.000000
_cell_angle_beta 99.143109
_cell_angle_gamma 90.000000
_cell_volume 1038.534171
_symmetry_space_group_name_H-M "C 2"
_symmetry_group_IT_number 5
_symmetry_cell_setting 'monoclinic'
loop_
_space_group_symop_operation_xyz
x,y,z
-x,y,-z
1/2+x,1/2+y,z
1/2-x,1/2+y,-z
loop_
_atom_site_type_symbol
_atom_site_label
_atom_site_fract_x
_atom_site_fract_y
_atom_site_fract_z
Si Si1 0.500000 0.573740 0.500000
Si Si2 0.883819 0.194350 0.842279
Si Si3 0.137210 0.903988 0.081036
Si Si4 0.789569 0.054726 0.111048
Si Si5 0.745867 0.841502 0.386365
Si Si6 0.574713 0.983616 0.281800
O O1 0.436690 0.628918 0.677858
O O2 0.398846 0.528825 0.322988
O O3 0.807021 0.255544 0.664244
O O4 0.813444 0.142357 0.022400
O O5 0.000000 0.233708 0.000000
O O6 0.189861 0.861469 0.853533
O O7 0.200846 0.989405 0.107296
O O8 0.172293 0.856512 0.344620
O O9 0.000000 0.911719 0.000000
O O10 0.674035 0.044447 0.230566
O O11 0.640704 0.903281 0.372197
O O12 0.500000 0.008101 0.500000
O O13 0.500000 0.971488 0.000000
#
# Coordination Sequence:
#
# PCOD9126209 Si02
#       6
#     2   4   4   4   4   4
#     4  10  22  38  74  94 136 170 234 296 342 390
#     4  10  23  41  68 103 133 175 229 292 346 396
#     4  11  24  42  69  99 133 177 230 284 343 405
#     4  10  24  41  70 103 134 177 233 290 342 400
#     4  11  25  41  69  97 138 180 226 284 340 412
#     4  11  24  41  67  99 143 184 225 272 341 417
#
# _framework density 21.183705
#
# number of rings (size 3 to 8) (size 9 to 14) (size 15 to 20)
#    0.000    1.455    0.000    4.909   19.091    0.000 
#    0.000    0.909    4.000    0.000    0.000    0.000 
#    0.000    0.000    0.000    0.000    0.000    0.000 
#
# Total GULP energy -61492.501554 kJ/mol
# GULP energy per Si atom -5590.227414 kJ/mol
# Density = 2.113549 g / cm^3
# Si number density = 21.183705 Si / 1000 Ang^3
#
#
#
# Elastic Constant Matrix: (Units=GPa)
#
#
# Indices 1 2 3 4 5 6 
#
# 1 143.8940 49.2840 52.0238 0.0000 -9.5236 0.0000
# 2 49.2840 43.1155 28.2855 0.0000 -2.4646 0.0000
# 3 52.0238 28.2855 128.9803 0.0000 3.7788 0.0000
# 4 0.0000 0.0000 0.0000 22.5761 0.0000 11.0804
# 5 -9.5236 -2.4646 3.7788 0.0000 33.4721 0.0000
# 6 0.0000 0.0000 0.0000 11.0804 0.0000 18.3230
#
#
#
# Elastic Compliance Matrix: (Units=1/GPa)
#
#
# Indices 1 2 3 4 5 6 
#
# 1 0.012155 -0.012221 -0.002305 0.000000 0.002819 0.000000
# 2 -0.012221 0.039618 -0.003755 0.000000 -0.000136 0.000000
# 3 -0.002305 -0.003755 0.009565 0.000000 -0.002012 0.000000
# 4 0.000000 0.000000 0.000000 0.062990 0.000000 -0.038091
# 5 0.002819 -0.000136 -0.002012 0.000000 0.030895 0.000000
# 6 0.000000 0.000000 0.000000 -0.038091 0.000000 0.077611
#
#
# Mechanical properties :
#
#
# Convention : Reuss Voigt Hill
#
# Bulk Modulus (GPa) = 40.36072 63.90850 52.13461
# Shear Modulus (GPa) = 18.00789 27.30067 22.65428
#
# Velocity S-wave (km/s) = 2.91878 3.59382 3.27375
# Velocity P-wave (km/s) = 5.51843 6.88876 6.24132
#
# Compressibility (1/GPa) = 0.02477656
#
# Stress axis : x y z
#
# Youngs Moduli (GPa) = 82.26919 25.24082 104.54290
#
# Poissons Ratio (x) = 0.30846 0.24101
# Poissons Ratio (y) = 1.00539 0.39258
# Poissons Ratio (z) = 0.18966 0.09478
#
# Static dielectric constant tensor:
#      x y z
#    x 1.762350 0.000000 0.005410 
#    y 0.000000 1.752460 0.000000 
#    z 0.005410 0.000000 1.847610 
# 
# From -- ./inp_files/5210.got.cif
#   From: 2010.05.17/outbox.cif.g08.bks.cpg/sg5_3_cif.got.tgz:5210.got - 2010.06.03 18:56:24.
