data_PCOD9126016
_publ_section_title
;
Structure prediction by ZEFSAII (Michael W. Deem and Ramdas Pophale) SiO2 
 PCOD9126016
Probable space group: C 2
;
_chemical_formula_sum "Si O2"
_cell_formula_units_Z 24
_cell_length_a 9.374969
_cell_length_b 10.993473
_cell_length_c 21.788246
_cell_angle_alpha 90.000000
_cell_angle_beta 149.007986
_cell_angle_gamma 90.000000
_cell_volume 1156.286889
_symmetry_space_group_name_H-M "C 2"
_symmetry_group_IT_number 5
_symmetry_cell_setting 'monoclinic'
loop_
_space_group_symop_operation_xyz
x,y,z
-x,y,-z
1/2+x,1/2+y,z
1/2-x,1/2+y,-z
loop_
_atom_site_type_symbol
_atom_site_label
_atom_site_fract_x
_atom_site_fract_y
_atom_site_fract_z
Si Si1 0.683139 0.849670 0.216357
Si Si2 0.230934 0.946433 0.360439
Si Si3 0.918499 0.876296 0.036126
Si Si4 0.224758 0.224993 0.360908
Si Si5 0.786780 0.125740 0.865945
Si Si6 0.322454 0.240751 0.761133
O O1 0.673997 0.812603 0.284359
O O2 0.694879 0.724590 0.181035
O O3 0.954319 0.925453 0.298584
O O4 0.401295 0.912820 0.089079
O O5 0.500000 0.916403 0.500000
O O6 0.209991 0.854406 0.296451
O O7 0.258724 0.086158 0.350305
O O8 0.970929 0.781481 0.108632
O O9 0.113888 0.993026 0.118372
O O10 0.000000 0.822108 0.000000
O O11 0.500000 0.259673 0.500000
O O12 0.968236 0.219333 0.313208
O O13 0.476538 0.135931 0.779247
O O14 0.000000 0.155775 0.000000
#
# Coordination Sequence:
#
# PCOD9126016 Si02
#       6
#     4   4   4   4   4   4
#     4  11  22  41  64  89 124 160 198 250 301 358
#     4  10  24  42  62  89 121 160 206 250 295 350
#     4  11  22  37  60  93 121 154 197 242 302 363
#     4  11  24  41  63  89 118 161 209 248 294 353
#     4  10  22  37  60  90 123 155 194 238 302 363
#     4  11  22  41  62  87 124 159 194 250 302 355
#
# _framework density 20.756095999999999
#
# number of rings (size 3 to 8) (size 9 to 14) (size 15 to 20)
#    0.000    1.333    3.333    2.000    4.667    0.000 
#    0.000    0.000    0.000    7.000    0.000    0.000 
#    0.000    0.000    0.000    0.000    0.000    0.000 
#
# Total GULP energy -67055.409049 kJ/mol
# GULP energy per Si atom -5587.950754 kJ/mol
# Density = 2.070885 g / cm^3
# Si number density = 20.756096 Si / 1000 Ang^3
#
#
#
# Elastic Constant Matrix: (Units=GPa)
#
#
# Indices 1 2 3 4 5 6 
#
# 1 66.4045 14.0851 17.7515 0.0001 9.9801 -0.0001
# 2 14.0851 49.0252 5.0042 0.0003 -6.4755 -0.0001
# 3 17.7515 5.0042 108.4896 0.0011 21.5509 0.0000
# 4 0.0001 0.0003 0.0011 -14.1823 0.0003 2.8338
# 5 9.9801 -6.4755 21.5509 0.0003 26.4867 0.0000
# 6 -0.0001 -0.0001 0.0000 2.8338 0.0000 27.9344
#
#
#
# Elastic Compliance Matrix: (Units=1/GPa)
#
#
# Indices 1 2 3 4 5 6 
#
# 1 0.017707 -0.005906 -0.001208 0.000000 -0.007133 0.000000
# 2 -0.005906 0.023577 -0.002038 0.000000 0.009647 0.000000
# 3 -0.001208 -0.002038 0.011353 0.000001 -0.009280 0.000000
# 4 0.000000 0.000000 0.000001 -0.069110 0.000000 0.007011
# 5 -0.007133 0.009647 -0.009280 0.000000 0.050352 0.000000
# 6 0.000000 0.000000 0.000000 0.007011 0.000000 0.035087
#
#
# Mechanical properties :
#
#
# Convention : Reuss Voigt Hill
#
# Bulk Modulus (GPa) = 29.12640 33.06676 31.09658
# Shear Modulus (GPa) = 50.65202 20.51965 35.58584
#
# Velocity S-wave (km/s) = 4.94534 3.14763 4.14512
# Velocity P-wave (km/s) = 6.83167 5.40146 6.15823
#
# Compressibility (1/GPa) = 0.03433311
#
# Stress axis : x y z
#
# Youngs Moduli (GPa) = 56.47512 42.41462 88.08612
#
# Poissons Ratio (x) = 0.25051 0.10640
# Poissons Ratio (y) = 0.33355 0.17948
# Poissons Ratio (z) = 0.06822 0.08642
#
# Static dielectric constant tensor:
#      x y z
#    x 1.795360 0.000000 0.006980 
#    y 0.000000 1.737810 0.000000 
#    z 0.006980 0.000000 1.746900 
# 
# From -- ./inp_files/35403.got.cif
#   From: 2010.05.17/outbox.cif.g08.bks.cpg/sg5_18_cif.got.tgz:35403.got - 2010.06.03 18:56:24.
