data_PCOD9126213
_publ_section_title
;
Structure prediction by ZEFSAII (Michael W. Deem and Ramdas Pophale) SiO2 
 PCOD9126213
Probable space group: C 2
;
_chemical_formula_sum "Si O2"
_cell_formula_units_Z 26
_cell_length_a 9.941976
_cell_length_b 10.272983
_cell_length_c 10.999990
_cell_angle_alpha 90.000000
_cell_angle_beta 91.799225
_cell_angle_gamma 90.000000
_cell_volume 1122.916346
_symmetry_space_group_name_H-M "C 2"
_symmetry_group_IT_number 5
_symmetry_cell_setting 'monoclinic'
loop_
_space_group_symop_operation_xyz
x,y,z
-x,y,-z
1/2+x,1/2+y,z
1/2-x,1/2+y,-z
loop_
_atom_site_type_symbol
_atom_site_label
_atom_site_fract_x
_atom_site_fract_y
_atom_site_fract_z
Si Si1 0.461284 0.227750 0.371728
Si Si2 0.558147 0.659107 0.626358
Si Si3 0.780655 0.630936 0.151004
Si Si4 0.000000 0.546927 0.000000
Si Si5 0.062532 0.346557 0.213306
Si Si6 0.740304 0.947778 0.433897
Si Si7 0.335907 0.437695 0.691376
O O1 0.500000 0.158805 0.500000
O O2 0.382196 0.152233 0.266685
O O3 0.357913 0.340730 0.412760
O O4 0.586305 0.301926 0.313122
O O5 0.500000 0.718878 0.500000
O O6 0.557906 0.757901 0.737849
O O7 0.695702 0.586472 0.600479
O O8 0.446712 0.547920 0.655003
O O9 0.868430 0.628717 0.032298
O O10 0.671362 0.745671 0.158982
O O11 0.714327 0.491560 0.181451
O O12 0.026957 0.453371 0.114536
O O13 0.126847 0.412396 0.334709
O O14 0.726846 0.940990 0.578859
#
# Coordination Sequence:
#
# PCOD9126213 Si02
#       7
#     4   4   4   2   4   4   4
#     4   8  15  31  57  86 110 132 164 210 268 329
#     4   8  15  31  57  86 110 132 164 210 268 329
#     4  10  22  39  55  75 107 142 177 220 262 302
#     4  12  28  40  50  76 104 140 200 230 236 296
#     4  10  22  39  55  75 107 142 177 220 262 302
#     4   8  15  31  57  86 110 132 164 210 268 329
#     4   8  15  31  57  86 110 132 164 210 268 329
#
# _framework density 23.153995999999999
#
# number of rings (size 3 to 8) (size 9 to 14) (size 15 to 20)
#    0.000    3.077    0.000    1.846    0.000    4.923 
#    0.000    3.077    0.000    0.000    0.000    0.000 
#    0.000    0.000    0.000    0.000    0.000    0.000 
#
# Total GULP energy -72646.413936 kJ/mol
# GULP energy per Si atom -5588.185687 kJ/mol
# Density = 2.310130 g / cm^3
# Si number density = 23.153996 Si / 1000 Ang^3
#
#
#
# Elastic Constant Matrix: (Units=GPa)
#
#
# Indices 1 2 3 4 5 6 
#
# 1 45.8249 20.9073 3.7917 0.0000 -16.4057 0.0000
# 2 20.9073 53.9043 13.2067 0.0000 -11.6592 0.0000
# 3 3.7917 13.2067 26.2698 0.0000 -23.4448 0.0000
# 4 0.0000 0.0000 0.0000 28.7413 0.0000 -5.3936
# 5 -16.4057 -11.6592 -23.4448 0.0000 39.9716 0.0000
# 6 0.0000 0.0000 0.0000 -5.3936 0.0000 34.2655
#
#
#
# Elastic Compliance Matrix: (Units=1/GPa)
#
#
# Indices 1 2 3 4 5 6 
#
# 1 0.034884 -0.014088 0.023415 0.000000 0.023942 0.000000
# 2 -0.014088 0.026847 -0.020219 0.000000 -0.009811 0.000000
# 3 0.023415 -0.020219 0.101074 0.000000 0.062996 0.000000
# 4 0.000000 0.000000 0.000000 0.035852 0.000000 0.005643
# 5 0.023942 -0.009811 0.062996 0.000000 0.068932 0.000000
# 6 0.000000 0.000000 0.000000 0.005643 0.000000 0.030072
#
#
# Mechanical properties :
#
#
# Convention : Reuss Voigt Hill
#
# Bulk Modulus (GPa) = 7.09118 22.42335 14.75727
# Shear Modulus (GPa) = 13.64428 26.46855 20.05641
#
# Velocity S-wave (km/s) = 2.43015 3.38472 2.94635
# Velocity P-wave (km/s) = 3.30809 4.99806 4.23816
#
# Compressibility (1/GPa) = 0.14102022
#
# Stress axis : x y z
#
# Youngs Moduli (GPa) = 28.66651 37.24745 9.89375
#
# Poissons Ratio (x) = 0.52475 -0.23166
# Poissons Ratio (y) = 0.40386 0.20005
# Poissons Ratio (z) = -0.67123 0.75312
#
# Static dielectric constant tensor:
#      x y z
#    x 1.936390 0.000000 -0.041410 
#    y 0.000000 1.909180 0.000000 
#    z -0.041410 0.000000 1.829290 
# 
# From -- ./inp_files/19392.got.cif
#   From: 2010.05.17/outbox.cif.g08.bks.cpg/sg5_10_cif.got.tgz:19392.got - 2010.06.03 18:56:24.
