data_PCOD9126194
_publ_section_title
;
Structure prediction by ZEFSAII (Michael W. Deem and Ramdas Pophale) SiO2 
 PCOD9126194
Probable space group: C 2
;
_chemical_formula_sum "Si O2"
_cell_formula_units_Z 22
_cell_length_a 14.342040
_cell_length_b 5.349173
_cell_length_c 21.833124
_cell_angle_alpha 90.000000
_cell_angle_beta 30.525954
_cell_angle_gamma 90.000000
_cell_volume 850.777771
_symmetry_space_group_name_H-M "C 2"
_symmetry_group_IT_number 5
_symmetry_cell_setting 'monoclinic'
loop_
_space_group_symop_operation_xyz
x,y,z
-x,y,-z
1/2+x,1/2+y,z
1/2-x,1/2+y,-z
loop_
_atom_site_type_symbol
_atom_site_label
_atom_site_fract_x
_atom_site_fract_y
_atom_site_fract_z
Si Si1 0.500000 0.144961 0.500000
Si Si2 0.348496 0.483958 0.791175
Si Si3 0.209785 0.368873 0.751303
Si Si4 0.816817 0.747184 0.329767
Si Si5 0.663009 0.512937 0.525059
Si Si6 0.174716 0.211526 0.073383
O O1 0.404656 0.275462 0.613288
O O2 0.666994 0.961720 0.425225
O O3 0.203669 0.352159 0.828318
O O4 0.484348 0.310091 0.755080
O O5 0.476447 0.598359 0.664875
O O6 0.281151 0.678553 0.879651
O O7 0.177573 0.647725 0.742560
O O8 0.044393 0.215504 0.814144
O O9 0.720942 0.518321 0.421055
O O10 0.708131 0.241853 0.525525
O O11 0.245471 0.471582 0.006444
#
# Coordination Sequence:
#
# PCOD9126194 Si02
#       6
#     2   4   4   4   4   4
#     4  12  24  44  78 122 168 204 256 322 406 502
#     4  11  25  49  80 112 156 214 263 335 404 472
#     4  12  27  51  80 121 160 214 264 329 411 492
#     4  11  24  45  70 121 172 204 250 326 397 499
#     4  10  22  38  69 110 157 207 247 297 396 486
#     4  12  29  59  84 111 160 215 282 351 394 461
#
# _framework density 25.858691
#
# number of rings (size 3 to 8) (size 9 to 14) (size 15 to 20)
#    0.000    0.727    1.818    4.909   12.727    2.182 
#    6.545    5.455    0.000    0.000    0.000    0.000 
#    0.000    0.000    0.000    0.000    0.000    0.000 
#
# Total GULP energy -61475.607991 kJ/mol
# GULP energy per Si atom -5588.691636 kJ/mol
# Density = 2.579984 g / cm^3
# Si number density = 25.858691 Si / 1000 Ang^3
#
#
#
# Elastic Constant Matrix: (Units=GPa)
#
#
# Indices 1 2 3 4 5 6 
#
# 1 173.8215 32.3493 24.5051 -0.0014 29.4085 0.0021
# 2 32.3493 96.8677 34.2451 -0.0043 10.4670 0.0059
# 3 24.5051 34.2451 85.6341 -0.0017 10.8453 0.0017
# 4 -0.0014 -0.0043 -0.0017 46.4950 0.0018 -0.4823
# 5 29.4085 10.4670 10.8453 0.0018 32.9000 -0.0017
# 6 0.0021 0.0059 0.0017 -0.4823 -0.0017 28.9875
#
#
#
# Elastic Compliance Matrix: (Units=1/GPa)
#
#
# Indices 1 2 3 4 5 6 
#
# 1 0.007085 -0.001507 -0.000713 0.000000 -0.005618 0.000000
# 2 -0.001507 0.012518 -0.004426 0.000001 -0.001177 -0.000002
# 3 -0.000713 -0.004426 0.013976 0.000000 -0.002561 0.000000
# 4 0.000000 0.000001 0.000000 0.021511 -0.000002 0.000358
# 5 -0.005618 -0.001177 -0.002561 -0.000002 0.036636 0.000003
# 6 0.000000 -0.000002 0.000000 0.000358 0.000003 0.034504
#
#
# Mechanical properties :
#
#
# Convention : Reuss Voigt Hill
#
# Bulk Modulus (GPa) = 49.29204 59.83581 54.56393
# Shear Modulus (GPa) = 34.18013 39.35809 36.76911
#
# Velocity S-wave (km/s) = 3.63961 3.90557 3.77493
# Velocity P-wave (km/s) = 6.06348 6.59756 6.33615
#
# Compressibility (1/GPa) = 0.02028725
#
# Stress axis : x y z
#
# Youngs Moduli (GPa) = 141.15296 79.88268 71.55108
#
# Poissons Ratio (x) = 0.12036 0.05103
# Poissons Ratio (y) = 0.21267 0.31668
# Poissons Ratio (z) = 0.10068 0.35355
#
# Static dielectric constant tensor:
#      x y z
#    x 2.266580 0.000000 -0.079870 
#    y 0.000000 2.085710 0.000000 
#    z -0.079870 0.000000 2.088860 
# 
# From -- ./inp_files/68545.got.cif
#   From: 2010.05.17/outbox.cif.g08.bks.cpg/sg5_35_cif.got.tgz:68545.got - 2010.06.03 18:56:24.
