data_PCOD9126269
_publ_section_title
;
Structure prediction by ZEFSAII (Michael W. Deem and Ramdas Pophale) SiO2 
 PCOD9126269
Probable space group: C 2
;
_chemical_formula_sum "Si O2"
_cell_formula_units_Z 26
_cell_length_a 16.308211
_cell_length_b 13.923946
_cell_length_c 9.815368
_cell_angle_alpha 90.000000
_cell_angle_beta 38.324307
_cell_angle_gamma 90.000000
_cell_volume 1382.118594
_symmetry_space_group_name_H-M "C 2"
_symmetry_group_IT_number 5
_symmetry_cell_setting 'monoclinic'
loop_
_space_group_symop_operation_xyz
x,y,z
-x,y,-z
1/2+x,1/2+y,z
1/2-x,1/2+y,-z
loop_
_atom_site_type_symbol
_atom_site_label
_atom_site_fract_x
_atom_site_fract_y
_atom_site_fract_z
Si Si1 0.500000 0.773790 0.000000
Si Si2 0.291039 0.651959 0.441205
Si Si3 0.760813 0.352451 0.146318
Si Si4 0.653224 0.142263 0.335179
Si Si5 0.297049 0.451622 0.046950
Si Si6 0.107504 0.950477 0.581653
Si Si7 0.652179 0.310912 0.770719
O O1 0.416060 0.705431 0.209606
O O2 0.396845 0.837491 0.050400
O O3 0.184993 0.644997 0.455784
O O4 0.330851 0.548967 0.445197
O O5 0.236462 0.716586 0.634665
O O6 0.698462 0.245605 0.217431
O O7 0.662312 0.417542 0.364947
O O8 0.779735 0.401239 0.976227
O O9 0.500000 0.127980 0.500000
O O10 0.738587 0.054797 0.162801
O O11 0.297255 0.381912 0.177832
O O12 0.449566 0.458963 0.800016
O O13 0.152587 0.868241 0.628174
O O14 0.500000 0.286648 0.000000
#
# Coordination Sequence:
#
# PCOD9126269 Si02
#       7
#     2   4   4   4   4   4   4
#     4  10  22  42  66  94 126 172 206 266 320 372
#     4  11  22  41  65  94 125 170 211 260 314 382
#     4  11  24  41  65  92 130 165 213 262 318 378
#     4  11  23  39  62  91 128 167 211 264 315 367
#     4  11  24  40  65  95 124 170 210 263 316 378
#     4  11  20  41  66  89 125 170 211 250 318 383
#     4  10  22  39  64  92 123 163 209 253 312 375
#
# _framework density 18.811699999999998
#
# number of rings (size 3 to 8) (size 9 to 14) (size 15 to 20)
#    0.000    1.231    4.615    3.231    3.231    3.692 
#    1.385    1.538    0.000    0.000    0.000    0.000 
#    0.000    0.000    0.000    0.000    0.000    0.000 
#
# Total GULP energy -72648.855143 kJ/mol
# GULP energy per Si atom -5588.373473 kJ/mol
# Density = 1.876888 g / cm^3
# Si number density = 18.811700 Si / 1000 Ang^3
#
#
#
# Elastic Constant Matrix: (Units=GPa)
#
#
# Indices 1 2 3 4 5 6 
#
# 1 76.4850 31.1477 32.6547 0.0000 -6.7417 0.0000
# 2 31.1477 90.4866 19.8881 0.0000 -3.4265 0.0000
# 3 32.6547 19.8881 47.9633 0.0000 3.3644 0.0000
# 4 0.0000 0.0000 0.0000 15.9961 0.0000 1.5101
# 5 -6.7417 -3.4265 3.3644 0.0000 31.9036 0.0000
# 6 0.0000 0.0000 0.0000 1.5101 0.0000 22.2926
#
#
#
# Elastic Compliance Matrix: (Units=1/GPa)
#
#
# Indices 1 2 3 4 5 6 
#
# 1 0.020642 -0.004111 -0.012718 0.000000 0.005262 0.000000
# 2 -0.004111 0.013088 -0.002686 0.000000 0.000820 0.000000
# 3 -0.012718 -0.002686 0.031060 0.000000 -0.006252 0.000000
# 4 0.000000 0.000000 0.000000 0.062918 0.000000 -0.004262
# 5 0.005262 0.000820 -0.006252 0.000000 0.033204 0.000000
# 6 0.000000 0.000000 0.000000 -0.004262 0.000000 0.045147
#
#
# Mechanical properties :
#
#
# Convention : Reuss Voigt Hill
#
# Bulk Modulus (GPa) = 38.81871 42.47954 40.64913
# Shear Modulus (GPa) = 19.71022 22.78807 21.24915
#
# Velocity S-wave (km/s) = 3.24043 3.48426 3.36455
# Velocity P-wave (km/s) = 5.88903 6.23035 6.06209
#
# Compressibility (1/GPa) = 0.02576077
#
# Stress axis : x y z
#
# Youngs Moduli (GPa) = 48.44383 76.40713 32.19529
#
# Poissons Ratio (x) = 0.31411 0.40947
# Poissons Ratio (y) = 0.19915 0.08646
# Poissons Ratio (z) = 0.61613 0.20519
#
# Static dielectric constant tensor:
#      x y z
#    x 1.652490 0.000000 -0.007620 
#    y 0.000000 1.616110 0.000000 
#    z -0.007620 0.000000 1.637130 
# 
# From -- ./inp_files/20260.got.cif
#   From: 2010.05.17/outbox.cif.g08.bks.cpg/sg5_11_cif.got.tgz:20260.got - 2010.06.03 18:56:24.
