data_PCOD9126831
_publ_section_title
;
Structure prediction by ZEFSAII (Michael W. Deem and Ramdas Pophale) SiO2 
 PCOD9126831
Probable space group: C 2
;
_chemical_formula_sum "Si O2"
_cell_formula_units_Z 32
_cell_length_a 23.485014
_cell_length_b 7.831716
_cell_length_c 7.099703
_cell_angle_alpha 90.000000
_cell_angle_beta 92.299119
_cell_angle_gamma 90.000000
_cell_volume 1304.782708
_symmetry_space_group_name_H-M "C 2"
_symmetry_group_IT_number 5
_symmetry_cell_setting 'monoclinic'
loop_
_space_group_symop_operation_xyz
x,y,z
-x,y,-z
1/2+x,1/2+y,z
1/2-x,1/2+y,-z
loop_
_atom_site_type_symbol
_atom_site_label
_atom_site_fract_x
_atom_site_fract_y
_atom_site_fract_z
Si Si1 0.005182 0.354290 0.778896
Si Si2 0.481056 0.471212 0.278912
Si Si3 0.886108 0.421691 0.823671
Si Si4 0.168181 0.376536 0.812112
Si Si5 0.205597 0.301263 0.438710
Si Si6 0.712955 0.444251 0.262300
Si Si7 0.413017 0.155395 0.343540
Si Si8 0.092054 0.785071 0.222786
O O1 0.038346 0.509738 0.686154
O O2 0.938210 0.339784 0.715359
O O3 0.032239 0.168219 0.758703
O O4 0.000000 0.388055 0.000000
O O5 0.500000 0.463322 0.500000
O O6 0.431968 0.330711 0.244878
O O7 0.538014 0.404877 0.181397
O O8 0.830729 0.436771 0.684791
O O9 0.906756 0.608391 0.888835
O O10 0.867644 0.326264 0.011357
O O11 0.169287 0.260545 0.624707
O O12 0.235010 0.398838 0.869511
O O13 0.143594 0.557894 0.732660
O O14 0.264434 0.364357 0.536002
O O15 0.211412 0.142857 0.304605
O O16 0.651409 0.379283 0.201290
O O17 0.410317 0.212551 0.561572
#
# Coordination Sequence:
#
# PCOD9126831 Si02
#       8
#     4   4   4   4   4   4   4   4
#     4  12  26  42  67 100 142 182 229 293 356 423
#     4  10  25  40  70 105 128 181 235 282 354 422
#     4  12  23  41  70  97 138 184 229 286 358 417
#     4  10  24  40  69  99 133 186 228 275 356 410
#     4  10  22  42  67  92 136 177 229 288 340 417
#     4  10  22  45  67  99 138 177 233 291 349 406
#     4  11  22  46  66  99 139 180 229 289 353 411
#     4  11  22  42  72 100 133 182 231 291 351 416
#
# _framework density 24.525155999999999
#
# number of rings (size 3 to 8) (size 9 to 14) (size 15 to 20)
#    0.750    0.500    3.750    2.250    1.750    4.500 
#    0.000    0.000    2.750    0.000    0.000    0.000 
#    0.000    0.000    0.000    0.000    0.000    0.000 
#
# Total GULP energy -89404.926286 kJ/mol
# GULP energy per Si atom -5587.807893 kJ/mol
# Density = 2.446934 g / cm^3
# Si number density = 24.525156 Si / 1000 Ang^3
#
#
#
# Elastic Constant Matrix: (Units=GPa)
#
#
# Indices 1 2 3 4 5 6 
#
# 1 109.5599 19.5919 5.8188 0.0000 -5.0249 0.0000
# 2 19.5919 91.9320 -13.0536 0.0000 -2.1692 0.0000
# 3 5.8188 -13.0536 55.9388 0.0000 -7.4563 0.0000
# 4 0.0000 0.0000 0.0000 24.0659 0.0000 2.1292
# 5 -5.0249 -2.1692 -7.4563 0.0000 36.0174 0.0000
# 6 0.0000 0.0000 0.0000 2.1292 0.0000 42.7759
#
#
#
# Elastic Compliance Matrix: (Units=1/GPa)
#
#
# Indices 1 2 3 4 5 6 
#
# 1 0.009643 -0.002232 -0.001401 0.000000 0.000921 0.000000
# 2 -0.002232 0.011823 0.003131 0.000000 0.001049 0.000000
# 3 -0.001401 0.003131 0.019284 0.000000 0.003985 0.000000
# 4 0.000000 0.000000 0.000000 0.041736 0.000000 -0.002077
# 5 0.000921 0.001049 0.003985 0.000000 0.028781 0.000000
# 6 0.000000 0.000000 0.000000 -0.002077 0.000000 0.023481
#
#
# Mechanical properties :
#
#
# Convention : Reuss Voigt Hill
#
# Bulk Modulus (GPa) = 25.16063 31.34944 28.25503
# Shear Modulus (GPa) = 33.55648 36.91006 35.23327
#
# Velocity S-wave (km/s) = 3.70300 3.88363 3.79439
# Velocity P-wave (km/s) = 5.34456 5.73763 5.54458
#
# Compressibility (1/GPa) = 0.03974464
#
# Stress axis : x y z
#
# Youngs Moduli (GPa) = 103.69908 84.58337 51.85579
#
# Poissons Ratio (x) = 0.18882 0.07267
# Poissons Ratio (y) = 0.23149 -0.16235
# Poissons Ratio (z) = 0.14531 -0.26482
#
# Static dielectric constant tensor:
#      x y z
#    x 2.032840 0.000000 0.006610 
#    y 0.000000 1.923160 0.000000 
#    z 0.006610 0.000000 2.025070 
# 
# From -- ./inp_files/30572.got.cif
#   From: 2010.05.17/outbox.cif.g08.bks.cpg/sg5_16_cif.got.tgz:30572.got - 2010.06.03 18:56:24.
