data_PCOD9126340
_publ_section_title
;
Structure prediction by ZEFSAII (Michael W. Deem and Ramdas Pophale) SiO2 
 PCOD9126340
Probable space group: C 2
;
_chemical_formula_sum "Si O2"
_cell_formula_units_Z 28
_cell_length_a 8.489251
_cell_length_b 11.518731
_cell_length_c 15.113924
_cell_angle_alpha 90.000000
_cell_angle_beta 59.381150
_cell_angle_gamma 90.000000
_cell_volume 1271.861210
_symmetry_space_group_name_H-M "C 2"
_symmetry_group_IT_number 5
_symmetry_cell_setting 'monoclinic'
loop_
_space_group_symop_operation_xyz
x,y,z
-x,y,-z
1/2+x,1/2+y,z
1/2-x,1/2+y,-z
loop_
_atom_site_type_symbol
_atom_site_label
_atom_site_fract_x
_atom_site_fract_y
_atom_site_fract_z
Si Si1 0.500000 0.238250 0.500000
Si Si2 0.277584 0.797711 0.080344
Si Si3 0.805693 0.048947 0.164188
Si Si4 0.745231 0.379619 0.561309
Si Si5 0.071512 0.005752 0.237277
Si Si6 0.509492 0.050160 0.623848
Si Si7 0.500000 0.356979 0.000000
Si Si8 0.853649 0.154470 0.616174
O O1 0.651613 0.308941 0.508161
O O2 0.410968 0.152544 0.596974
O O3 0.258061 0.671864 0.133371
O O4 0.500000 0.810054 0.000000
O O5 0.212169 0.906969 0.161027
O O6 0.129729 0.796636 0.039198
O O7 0.981179 0.063959 0.177458
O O8 0.642445 0.999235 0.270575
O O9 0.857216 0.945698 0.084792
O O10 0.583459 0.437736 0.662699
O O11 0.872769 0.470665 0.474717
O O12 0.844938 0.291511 0.600091
O O13 0.123952 0.105914 0.292200
O O14 0.657848 0.109929 0.642490
O O15 0.000000 0.109710 0.500000
#
# Coordination Sequence:
#
# PCOD9126340 Si02
#       8
#     2   4   4   4   4   4   2   4
#     4  10  22  40  60  98 144 182 232 300 326 434
#     4  11  25  53  82 107 143 198 237 312 392 423
#     4  11  25  50  72 105 145 180 248 308 363 441
#     4  11  23  42  66  96 145 189 236 284 360 419
#     4  11  25  48  67 105 148 181 239 304 345 441
#     4  11  23  41  68  97 139 194 233 289 364 422
#     4  10  26  54  76 108 148 176 252 318 360 462
#     4  11  24  42  64 104 145 187 241 288 340 434
#
# _framework density 22.014980000000001
#
# number of rings (size 3 to 8) (size 9 to 14) (size 15 to 20)
#    0.000    1.143    2.143    3.429    7.000    0.000 
#    9.000    0.000    0.000    0.000    0.000    0.000 
#    0.000    0.000    0.000    0.000    0.000    0.000 
#
# Total GULP energy -78085.375990 kJ/mol
# GULP energy per Si atom -5577.526856 kJ/mol
# Density = 2.196487 g / cm^3
# Si number density = 22.014980 Si / 1000 Ang^3
#
#
#
# Elastic Constant Matrix: (Units=GPa)
#
#
# Indices 1 2 3 4 5 6 
#
# 1 99.8451 67.8517 46.2322 0.0000 19.4084 0.0000
# 2 67.8517 103.0642 39.1917 0.0000 18.3034 0.0000
# 3 46.2322 39.1917 94.1205 0.0000 -8.8623 0.0000
# 4 0.0000 0.0000 0.0000 39.7799 0.0000 21.5907
# 5 19.4084 18.3034 -8.8623 0.0000 53.2027 0.0000
# 6 0.0000 0.0000 0.0000 21.5907 0.0000 63.7729
#
#
#
# Elastic Compliance Matrix: (Units=1/GPa)
#
#
# Indices 1 2 3 4 5 6 
#
# 1 0.021227 -0.010577 -0.006511 0.000000 -0.005189 0.000000
# 2 -0.010577 0.018172 -0.002638 0.000000 -0.002833 0.000000
# 3 -0.006511 -0.002638 0.015473 0.000000 0.005860 0.000000
# 4 0.000000 0.000000 0.000000 0.030797 0.000000 -0.010427
# 5 -0.005189 -0.002833 0.005860 0.000000 0.022640 0.000000
# 6 0.000000 0.000000 0.000000 -0.010427 0.000000 0.019211
#
#
# Mechanical properties :
#
#
# Convention : Reuss Voigt Hill
#
# Bulk Modulus (GPa) = 64.85135 67.06455 65.95795
# Shear Modulus (GPa) = 29.05058 40.93471 34.99265
#
# Velocity S-wave (km/s) = 3.63655 4.31676 3.99117
# Velocity P-wave (km/s) = 6.86691 7.44145 7.15994
#
# Compressibility (1/GPa) = 0.01541988
#
# Stress axis : x y z
#
# Youngs Moduli (GPa) = 47.10961 55.02851 64.62760
#
# Poissons Ratio (x) = 0.58205 0.42080
# Poissons Ratio (y) = 0.49829 0.17050
# Poissons Ratio (z) = 0.30673 0.14517
#
# Static dielectric constant tensor:
#      x y z
#    x 1.866960 0.000000 0.029010 
#    y 0.000000 1.831680 0.000000 
#    z 0.029010 0.000000 1.745360 
# 
# From -- ./inp_files/50235.got.cif
#   From: 2010.05.17/outbox.cif.g08.bks.cpg/sg5_26_cif.got.tgz:50235.got - 2010.06.03 18:56:24.
