data_PCOD9126075
_publ_section_title
;
Structure prediction by ZEFSAII (Michael W. Deem and Ramdas Pophale) SiO2 
 PCOD9126075
Probable space group: C 2
;
_chemical_formula_sum "Si O2"
_cell_formula_units_Z 30
_cell_length_a 9.735691
_cell_length_b 10.985233
_cell_length_c 25.862572
_cell_angle_alpha 90.000000
_cell_angle_beta 30.930675
_cell_angle_gamma 90.000000
_cell_volume 1421.711141
_symmetry_space_group_name_H-M "C 2"
_symmetry_group_IT_number 5
_symmetry_cell_setting 'monoclinic'
loop_
_space_group_symop_operation_xyz
x,y,z
-x,y,-z
1/2+x,1/2+y,z
1/2-x,1/2+y,-z
loop_
_atom_site_type_symbol
_atom_site_label
_atom_site_fract_x
_atom_site_fract_y
_atom_site_fract_z
Si Si1 0.670285 0.357580 0.716854
Si Si2 0.854247 0.187937 0.440666
Si Si3 0.717336 0.229545 0.222084
Si Si4 0.251735 0.756613 0.882682
Si Si5 0.253655 0.538585 0.117101
Si Si6 0.576257 0.049093 0.615599
Si Si7 0.500000 0.366175 0.500000
Si Si8 0.738423 0.158578 0.774921
O O1 0.411166 0.345567 0.765289
O O2 0.630300 0.286096 0.784076
O O3 0.906000 0.273081 0.615892
O O4 0.804740 0.485703 0.684324
O O5 0.766832 0.082068 0.506464
O O6 0.605125 0.276523 0.510449
O O7 0.979578 0.141371 0.345961
O O8 0.758879 0.127595 0.164380
O O9 0.498606 0.170006 0.330372
O O10 0.983934 0.249549 0.167916
O O11 0.263327 0.675071 0.827635
O O12 0.222903 0.897732 0.875308
O O13 0.000000 0.724249 0.000000
O O14 0.977794 0.562145 0.175338
O O15 0.500000 0.568292 0.000000
O O16 0.744411 0.950830 0.594563
#
# Coordination Sequence:
#
# PCOD9126075 Si02
#       8
#     4   4   4   4   4   4   2   4
#     4   8  20  40  57  91 123 161 203 246 301 360
#     4   9  21  37  61  89 121 168 202 241 308 361
#     4  11  23  39  65  92 122 162 204 256 304 367
#     4  11  24  41  66  95 120 158 211 261 311 371
#     4  10  22  42  66  90 121 163 203 258 323 367
#     4  11  21  37  63  87 125 165 206 246 303 363
#     4  10  22  38  60  86 128 164 204 254 304 354
#     4   9  20  41  63  88 127 159 203 253 308 370
#
# _framework density 21.101330999999998
#
# number of rings (size 3 to 8) (size 9 to 14) (size 15 to 20)
#    0.800    1.333    0.000    2.400    1.867    1.067 
#    2.400    0.000    0.000    5.600    0.000    0.000 
#    0.000    0.000    0.000    0.000    0.000    0.000 
#
# Total GULP energy -83691.601876 kJ/mol
# GULP energy per Si atom -5579.440125 kJ/mol
# Density = 2.105330 g / cm^3
# Si number density = 21.101331 Si / 1000 Ang^3
#
#
#
# Elastic Constant Matrix: (Units=GPa)
#
#
# Indices 1 2 3 4 5 6 
#
# 1 93.9305 12.8760 36.7302 0.0010 -1.3828 0.0001
# 2 12.8760 23.4059 15.6389 0.0014 3.9125 -0.0002
# 3 36.7302 15.6389 81.9154 0.0028 10.7025 -0.0026
# 4 0.0010 0.0014 0.0028 20.0235 -0.0013 -9.2262
# 5 -1.3828 3.9125 10.7025 -0.0013 26.0455 0.0003
# 6 0.0001 -0.0002 -0.0026 -9.2262 0.0003 21.7688
#
#
#
# Elastic Compliance Matrix: (Units=1/GPa)
#
#
# Indices 1 2 3 4 5 6 
#
# 1 0.013526 -0.004224 -0.005744 0.000000 0.003713 -0.000001
# 2 -0.004224 0.050633 -0.007133 -0.000003 -0.004899 -0.000002
# 3 -0.005744 -0.007133 0.016955 -0.000001 -0.006200 0.000002
# 4 0.000000 -0.000003 -0.000001 0.062061 0.000004 0.026303
# 5 0.003713 -0.004899 -0.006200 0.000004 0.041875 0.000000
# 6 -0.000001 -0.000002 0.000002 0.026303 0.000000 0.057085
#
#
# Mechanical properties :
#
#
# Convention : Reuss Voigt Hill
#
# Bulk Modulus (GPa) = 21.31581 36.63800 28.97690
# Shear Modulus (GPa) = 17.12493 22.50134 19.81313
#
# Velocity S-wave (km/s) = 2.85187 3.26904 3.06756
# Velocity P-wave (km/s) = 4.57906 5.62578 5.12919
#
# Compressibility (1/GPa) = 0.04691354
#
# Stress axis : x y z
#
# Youngs Moduli (GPa) = 73.93312 19.75014 58.98008
#
# Poissons Ratio (x) = 0.08342 0.33875
# Poissons Ratio (y) = 0.31228 0.42068
# Poissons Ratio (z) = 0.42464 0.14087
#
# Static dielectric constant tensor:
#      x y z
#    x 1.783300 0.000000 0.006740 
#    y 0.000000 1.756610 0.000000 
#    z 0.006740 0.000000 1.775410 
# 
# From -- ./inp_files/67953.got.cif
#   From: 2010.05.17/outbox.cif.g08.bks.cpg/sg5_34_cif.got.tgz:67953.got - 2010.06.03 18:56:24.
