data_PCOD9126005
_publ_section_title
;
Structure prediction by ZEFSAII (Michael W. Deem and Ramdas Pophale) SiO2 
 PCOD9126005
Probable space group: C 2
;
_chemical_formula_sum "Si O2"
_cell_formula_units_Z 32
_cell_length_a 14.168153
_cell_length_b 18.818867
_cell_length_c 12.991474
_cell_angle_alpha 90.000000
_cell_angle_beta 150.098587
_cell_angle_gamma 90.000000
_cell_volume 1726.784916
_symmetry_space_group_name_H-M "C 2"
_symmetry_group_IT_number 5
_symmetry_cell_setting 'monoclinic'
loop_
_space_group_symop_operation_xyz
x,y,z
-x,y,-z
1/2+x,1/2+y,z
1/2-x,1/2+y,-z
loop_
_atom_site_type_symbol
_atom_site_label
_atom_site_fract_x
_atom_site_fract_y
_atom_site_fract_z
Si Si1 0.774321 0.113790 0.775189
Si Si2 0.502235 0.343447 0.624215
Si Si3 0.180290 0.255563 0.431809
Si Si4 0.345876 0.015588 0.168307
Si Si5 0.861809 0.255828 0.964003
Si Si6 0.067261 0.975825 0.299201
Si Si7 0.822195 0.608158 0.556904
Si Si8 0.897663 0.395216 0.513361
O O1 0.675969 0.048609 0.738565
O O2 0.748394 0.187141 0.813716
O O3 0.708782 0.120439 0.595978
O O4 0.000000 0.102419 0.000000
O O5 0.500000 0.348912 0.500000
O O6 0.341718 0.289322 0.511352
O O7 0.708964 0.314319 0.849139
O O8 0.458386 0.417260 0.637542
O O9 0.265504 0.182063 0.554807
O O10 0.131626 0.316751 0.467900
O O11 0.997555 0.238880 0.188229
O O12 0.469849 0.075808 0.227866
O O13 0.465538 0.943365 0.285896
O O14 0.137187 0.000751 0.931491
O O15 0.000000 0.277570 0.000000
O O16 0.197332 0.937807 0.333840
O O17 0.178802 0.044351 0.444705
O O18 0.000000 0.392215 0.500000
#
# Coordination Sequence:
#
# PCOD9126005 Si02
#       8
#     4   4   4   4   4   4   4   4
#     4  11  18  30  53  81 112 138 171 227 289 333
#     4  11  21  35  56  82 113 147 184 228 282 339
#     4  11  21  37  56  83 115 149 186 231 279 339
#     4  11  20  34  55  79 113 146 183 230 290 337
#     4  11  19  33  54  86 117 145 175 223 290 340
#     4  10  22  37  54  83 112 144 189 235 282 333
#     4  11  20  34  53  81 110 144 185 229 281 338
#     4  10  23  37  55  81 111 152 197 231 273 328
#
# _framework density 18.531548999999998
#
# number of rings (size 3 to 8) (size 9 to 14) (size 15 to 20)
#    0.000    1.250    5.000    3.375    0.000    0.000 
#    0.000    0.625    0.000    0.000    0.000    0.000 
#    0.000    0.000    0.000    0.000    0.000    0.000 
#
# Total GULP energy -89313.241811 kJ/mol
# GULP energy per Si atom -5582.077613 kJ/mol
# Density = 1.848937 g / cm^3
# Si number density = 18.531549 Si / 1000 Ang^3
#
#
#
# Elastic Constant Matrix: (Units=GPa)
#
#
# Indices 1 2 3 4 5 6 
#
# 1 67.2250 47.1306 22.3860 0.0000 21.5110 0.0000
# 2 47.1306 141.1325 20.3260 0.0000 21.1339 0.0000
# 3 22.3860 20.3260 79.3436 0.0000 24.5898 0.0000
# 4 0.0000 0.0000 0.0000 22.5720 0.0000 3.2011
# 5 21.5110 21.1339 24.5898 0.0000 17.7201 0.0000
# 6 0.0000 0.0000 0.0000 3.2011 0.0000 26.9361
#
#
#
# Elastic Compliance Matrix: (Units=1/GPa)
#
#
# Indices 1 2 3 4 5 6 
#
# 1 0.027488 -0.004814 0.003579 0.000000 -0.032594 0.000000
# 2 -0.004814 0.009605 0.001117 0.000000 -0.007161 0.000000
# 3 0.003579 0.001117 0.022927 0.000000 -0.037492 0.000000
# 4 0.000000 0.000000 0.000000 0.045062 0.000000 -0.005355
# 5 -0.032594 -0.007161 -0.037492 0.000000 0.156566 0.000000
# 6 0.000000 0.000000 0.000000 -0.005355 0.000000 0.037761
#
#
# Mechanical properties :
#
#
# Convention : Reuss Voigt Hill
#
# Bulk Modulus (GPa) = 16.72705 51.93182 34.32944
# Shear Modulus (GPa) = 15.64584 26.63623 21.14103
#
# Velocity S-wave (km/s) = 2.90880 3.79535 3.38126
# Velocity P-wave (km/s) = 4.50859 6.87681 5.81455
#
# Compressibility (1/GPa) = 0.05978340
#
# Stress axis : x y z
#
# Youngs Moduli (GPa) = 36.37902 104.11572 43.61723
#
# Poissons Ratio (x) = 0.50125 -0.15611
# Poissons Ratio (y) = 0.17514 -0.04872
# Poissons Ratio (z) = -0.13020 -0.11631
#
# Static dielectric constant tensor:
#      x y z
#    x 1.640230 0.000000 0.032240 
#    y 0.000000 1.674260 0.000000 
#    z 0.032240 0.000000 1.654840 
# 
# From -- ./inp_files/54928.got.cif
#   From: 2010.05.17/outbox.cif.g08.bks.cpg/sg5_28_cif.got.tgz:54928.got - 2010.06.03 18:56:24.
