data_PCOD9126124
_publ_section_title
;
Structure prediction by ZEFSAII (Michael W. Deem and Ramdas Pophale) SiO2 
 PCOD9126124
Probable space group: C 2
;
_chemical_formula_sum "Si O2"
_cell_formula_units_Z 18
_cell_length_a 14.594244
_cell_length_b 13.313557
_cell_length_c 7.164702
_cell_angle_alpha 90.000000
_cell_angle_beta 139.611863
_cell_angle_gamma 90.000000
_cell_volume 902.035263
_symmetry_space_group_name_H-M "C 2"
_symmetry_group_IT_number 5
_symmetry_cell_setting 'monoclinic'
loop_
_space_group_symop_operation_xyz
x,y,z
-x,y,-z
1/2+x,1/2+y,z
1/2-x,1/2+y,-z
loop_
_atom_site_type_symbol
_atom_site_label
_atom_site_fract_x
_atom_site_fract_y
_atom_site_fract_z
Si Si1 0.341114 0.625000 0.302920
Si Si2 0.500000 0.303229 0.500000
Si Si3 0.844846 0.008743 0.678202
Si Si4 0.849510 0.606714 0.337731
Si Si5 0.630472 0.302201 0.088890
O O1 0.500000 0.655686 0.500000
O O2 0.344342 0.537479 0.461658
O O3 0.248916 0.719763 0.231288
O O4 0.263790 0.586875 0.998285
O O5 0.618644 0.225734 0.605533
O O6 0.570899 0.347107 0.797698
O O7 0.823585 0.894115 0.709199
O O8 0.717088 0.068162 0.576884
O O9 0.000000 0.038291 0.000000
O O10 0.000000 0.563454 0.500000
O O11 0.500000 0.253446 0.000000
#
# Coordination Sequence:
#
# PCOD9126124 Si02
#       5
#     4   2   4   4   4
#     4  11  22  40  67  93 128 167 206 266 319 365
#     4   8  18  38  62  82 120 164 212 246 308 370
#     4  11  22  37  62  94 133 159 211 262 316 372
#     4   9  20  38  63  91 120 167 206 257 316 376
#     4  10  22  38  63  95 124 167 214 257 311 383
#
# _framework density 19.954875000000001
#
# number of rings (size 3 to 8) (size 9 to 14) (size 15 to 20)
#    0.667    1.333    2.222    1.333    0.000    4.444 
#    0.000    0.000    4.889    0.000    0.000    0.000 
#    0.000    0.000    0.000    0.000    0.000    0.000 
#
# Total GULP energy -50155.809802 kJ/mol
# GULP energy per Si atom -5572.867756 kJ/mol
# Density = 1.990946 g / cm^3
# Si number density = 19.954875 Si / 1000 Ang^3
#
#
#
# Elastic Constant Matrix: (Units=GPa)
#
#
# Indices 1 2 3 4 5 6 
#
# 1 125.7943 25.0639 18.9299 0.0000 18.4620 0.0000
# 2 25.0639 61.7698 17.0190 0.0000 -6.5565 0.0000
# 3 18.9299 17.0190 97.1199 0.0000 -4.1299 0.0000
# 4 0.0000 0.0000 0.0000 27.4038 0.0000 -5.5170
# 5 18.4620 -6.5565 -4.1299 0.0000 37.7512 0.0000
# 6 0.0000 0.0000 0.0000 -5.5170 0.0000 12.5937
#
#
#
# Elastic Compliance Matrix: (Units=1/GPa)
#
#
# Indices 1 2 3 4 5 6 
#
# 1 0.009837 -0.004204 -0.001423 0.000000 -0.005697 0.000000
# 2 -0.004204 0.019073 -0.002305 0.000000 0.005116 0.000000
# 3 -0.001423 -0.002305 0.011042 0.000000 0.001503 0.000000
# 4 0.000000 0.000000 0.000000 0.040021 0.000000 0.017532
# 5 -0.005697 0.005116 0.001503 0.000000 0.030328 0.000000
# 6 0.000000 0.000000 0.000000 0.017532 0.000000 0.087085
#
#
# Mechanical properties :
#
#
# Convention : Reuss Voigt Hill
#
# Bulk Modulus (GPa) = 41.51535 45.18995 43.35265
# Shear Modulus (GPa) = 22.59573 30.46116 26.52845
#
# Velocity S-wave (km/s) = 3.36868 3.91129 3.65008
# Velocity P-wave (km/s) = 5.99837 6.56451 6.28781
#
# Compressibility (1/GPa) = 0.02408747
#
# Stress axis : x y z
#
# Youngs Moduli (GPa) = 101.65324 52.42931 90.56488
#
# Poissons Ratio (x) = 0.22043 0.12887
# Poissons Ratio (y) = 0.42738 0.20878
# Poissons Ratio (z) = 0.14465 0.12087
#
# Static dielectric constant tensor:
#      x y z
#    x 1.534440 0.000000 0.062110 
#    y 0.000000 1.723300 0.000000 
#    z 0.062110 0.000000 1.690470 
# 
# From -- ./inp_files/5234.got.cif
#   From: 2010.05.17/outbox.cif.g08.bks.cpg/sg5_3_cif.got.tgz:5234.got - 2010.06.03 18:56:24.
