data_PCOD9126496
_publ_section_title
;
Structure prediction by ZEFSAII (Michael W. Deem and Ramdas Pophale) SiO2 
 PCOD9126496
Probable space group: C 2
;
_chemical_formula_sum "Si O2"
_cell_formula_units_Z 32
_cell_length_a 14.825458
_cell_length_b 22.627998
_cell_length_c 8.809726
_cell_angle_alpha 90.000000
_cell_angle_beta 149.996908
_cell_angle_gamma 90.000000
_cell_volume 1477.839422
_symmetry_space_group_name_H-M "C 2"
_symmetry_group_IT_number 5
_symmetry_cell_setting 'monoclinic'
loop_
_space_group_symop_operation_xyz
x,y,z
-x,y,-z
1/2+x,1/2+y,z
1/2-x,1/2+y,-z
loop_
_atom_site_type_symbol
_atom_site_label
_atom_site_fract_x
_atom_site_fract_y
_atom_site_fract_z
Si Si1 0.488034 0.628600 0.301813
Si Si2 0.165124 0.648997 0.625293
Si Si3 0.501794 0.502107 0.818550
Si Si4 0.998805 0.420528 0.820363
Si Si5 0.293192 0.904186 0.141202
Si Si6 0.193679 0.704354 0.360461
Si Si7 0.211056 0.830470 0.274492
Si Si8 0.380758 0.043697 0.685806
O O1 0.500000 0.635719 0.500000
O O2 0.441243 0.561286 0.187286
O O3 0.675048 0.652305 0.505128
O O4 0.334747 0.660782 0.981177
O O5 0.161728 0.699675 0.493186
O O6 0.167623 0.590695 0.516849
O O7 0.000000 0.643968 0.500000
O O8 0.286180 0.507866 0.480337
O O9 0.500000 0.505528 0.000000
O O10 0.636052 0.450056 0.961580
O O11 0.825421 0.383541 0.513147
O O12 0.987457 0.489943 0.764537
O O13 0.176708 0.398577 0.993573
O O14 0.000000 0.413698 0.000000
O O15 0.500000 0.919893 0.500000
O O16 0.245191 0.841672 0.146966
O O17 0.273020 0.767286 0.425199
O O18 0.000000 0.700115 0.000000
O O19 0.000000 0.837028 0.000000
O O20 0.500000 0.067643 0.000000
#
# Coordination Sequence:
#
# PCOD9126496 Si02
#       8
#     4   4   4   4   4   4   4   4
#     4  12  27  41  65 104 140 186 249 288 363 435
#     4  12  26  43  71 100 142 194 237 303 367 437
#     4  12  22  40  67  98 140 188 233 292 358 436
#     4  10  23  41  64 104 142 189 235 295 364 420
#     4  10  22  40  69 105 140 186 245 289 363 431
#     4  11  24  49  70 100 144 190 246 308 357 428
#     4  10  22  43  74  98 134 187 244 303 355 424
#     4  11  24  41  67  98 149 191 238 295 364 430
#
# _framework density 21.653233
#
# number of rings (size 3 to 8) (size 9 to 14) (size 15 to 20)
#    0.000    1.000    2.500    4.125    3.500    3.500 
#    0.000    5.625    0.000    0.000    0.000    0.000 
#    0.000    0.000    0.000    0.000    0.000    0.000 
#
# Total GULP energy -89210.108055 kJ/mol
# GULP energy per Si atom -5575.631753 kJ/mol
# Density = 2.160395 g / cm^3
# Si number density = 21.653233 Si / 1000 Ang^3
#
#
#
# Elastic Constant Matrix: (Units=GPa)
#
#
# Indices 1 2 3 4 5 6 
#
# 1 180.6588 44.2899 50.5766 0.0000 -12.6934 0.0000
# 2 44.2899 96.1149 13.7553 0.0000 -8.5808 0.0000
# 3 50.5766 13.7553 118.4644 0.0000 -7.1284 0.0000
# 4 0.0000 0.0000 0.0000 12.4180 0.0000 1.3909
# 5 -12.6934 -8.5808 -7.1284 0.0000 38.5757 0.0000
# 6 0.0000 0.0000 0.0000 1.3909 0.0000 19.8463
#
#
#
# Elastic Compliance Matrix: (Units=1/GPa)
#
#
# Indices 1 2 3 4 5 6 
#
# 1 0.007026 -0.002756 -0.002606 0.000000 0.001217 0.000000
# 2 -0.002756 0.011840 -0.000095 0.000000 0.001709 0.000000
# 3 -0.002606 -0.000095 0.009619 0.000000 0.000899 0.000000
# 4 0.000000 0.000000 0.000000 0.081165 0.000000 -0.005688
# 5 0.001217 0.001709 0.000899 0.000000 0.026870 0.000000
# 6 0.000000 0.000000 0.000000 -0.005688 0.000000 0.050786
#
#
# Mechanical properties :
#
#
# Convention : Reuss Voigt Hill
#
# Bulk Modulus (GPa) = 56.91425 68.05351 62.48388
# Shear Modulus (GPa) = 24.50026 33.27575 28.88801
#
# Velocity S-wave (km/s) = 3.36740 3.92440 3.65652
# Velocity P-wave (km/s) = 6.43900 7.21329 6.83711
#
# Compressibility (1/GPa) = 0.01757029
#
# Stress axis : x y z
#
# Youngs Moduli (GPa) = 142.32509 84.45652 103.95775
#
# Poissons Ratio (x) = 0.23276 0.27096
# Poissons Ratio (y) = 0.39224 0.00991
# Poissons Ratio (z) = 0.37096 0.00805
#
# Static dielectric constant tensor:
#      x y z
#    x 1.843750 0.000000 0.000060 
#    y 0.000000 1.852010 0.000000 
#    z 0.000060 0.000000 1.878680 
# 
# From -- ./inp_files/25653.got.cif
#   From: 2010.05.17/outbox.cif.g08.bks.cpg/sg5_13_cif.got.tgz:25653.got - 2010.06.03 18:56:24.
