data_PCOD9126851
_publ_section_title
;
Structure prediction by ZEFSAII (Michael W. Deem and Ramdas Pophale) SiO2 
 PCOD9126851
Probable space group: C 2
;
_chemical_formula_sum "Si O2"
_cell_formula_units_Z 28
_cell_length_a 5.388868
_cell_length_b 34.161363
_cell_length_c 9.554995
_cell_angle_alpha 90.000000
_cell_angle_beta 52.929497
_cell_angle_gamma 90.000000
_cell_volume 1403.487661
_symmetry_space_group_name_H-M "C 2"
_symmetry_group_IT_number 5
_symmetry_cell_setting 'monoclinic'
loop_
_space_group_symop_operation_xyz
x,y,z
-x,y,-z
1/2+x,1/2+y,z
1/2-x,1/2+y,-z
loop_
_atom_site_type_symbol
_atom_site_label
_atom_site_fract_x
_atom_site_fract_y
_atom_site_fract_z
Si Si1 0.655208 0.453880 0.167911
Si Si2 0.000000 0.909075 0.500000
Si Si3 0.875861 0.198904 0.383305
Si Si4 0.000000 0.886673 0.000000
Si Si5 0.125474 0.039380 0.113784
Si Si6 0.622016 0.769297 0.117699
Si Si7 0.371349 0.609249 0.386986
Si Si8 0.987696 0.339833 0.345693
O O1 0.604240 0.436749 0.338509
O O2 0.585224 0.417330 0.091950
O O3 0.496752 0.496216 0.203881
O O4 0.000000 0.462863 0.000000
O O5 0.728662 0.878015 0.561983
O O6 0.500000 0.203478 0.500000
O O7 0.954917 0.153890 0.317729
O O8 0.000000 0.205387 0.500000
O O9 0.039686 0.229046 0.223502
O O10 0.771730 0.858532 0.162678
O O11 0.005384 0.074847 0.247595
O O12 0.500000 0.040742 0.000000
O O13 0.000000 0.044714 0.000000
O O14 0.423692 0.802878 0.267626
O O15 0.500000 0.769328 0.000000
O O16 0.000000 0.775341 0.000000
O O17 0.500000 0.603759 0.500000
O O18 0.000000 0.606863 0.500000
O O19 0.000000 0.324114 0.500000
#
# Coordination Sequence:
#
# PCOD9126851 Si02
#       8
#     4   2   4   2   4   4   4   4
#     4  11  24  42  63  93 132 170 225 281 327 389
#     4  12  26  40  68  94 120 186 224 272 340 394
#     4  10  22  44  71  97 133 174 218 268 331 399
#     4  12  22  46  62  88 134 168 226 280 324 394
#     4  11  24  42  65  96 133 176 215 271 336 391
#     4  12  28  44  67 100 136 173 219 279 333 394
#     4  10  22  42  68 100 133 171 216 272 326 393
#     4  12  27  42  67  94 130 178 225 273 340 397
#
# _framework density 19.950301
#
# number of rings (size 3 to 8) (size 9 to 14) (size 15 to 20)
#    0.000    0.857    4.286    2.143    6.000    1.143 
#    2.571    0.000    0.000    0.000    0.000    0.000 
#    0.000    0.000    0.000    0.000    0.000    0.000 
#
# Total GULP energy -78015.684023 kJ/mol
# GULP energy per Si atom -5572.548859 kJ/mol
# Density = 1.990489 g / cm^3
# Si number density = 19.950301 Si / 1000 Ang^3
#
#
#
# Elastic Constant Matrix: (Units=GPa)
#
#
# Indices 1 2 3 4 5 6 
#
# 1 100.4357 38.9521 41.9182 0.0000 22.5704 0.0000
# 2 38.9521 168.1744 81.0298 0.0000 22.1252 0.0000
# 3 41.9182 81.0298 125.0863 0.0000 31.3404 0.0000
# 4 0.0000 0.0000 0.0000 65.9951 0.0000 -2.7844
# 5 22.5704 22.1252 31.3404 0.0000 36.3023 0.0000
# 6 0.0000 0.0000 0.0000 -2.7844 0.0000 31.9301
#
#
#
# Elastic Compliance Matrix: (Units=1/GPa)
#
#
# Indices 1 2 3 4 5 6 
#
# 1 0.012466 -0.001189 -0.002101 0.000000 -0.005212 0.000000
# 2 -0.001189 0.008766 -0.005266 0.000000 -0.000057 0.000000
# 3 -0.002101 -0.005266 0.014009 0.000000 -0.007578 0.000000
# 4 0.000000 0.000000 0.000000 0.015209 0.000000 0.001326
# 5 -0.005212 -0.000057 -0.007578 0.000000 0.037364 0.000000
# 6 0.000000 0.000000 0.000000 0.001326 0.000000 0.031434
#
#
# Mechanical properties :
#
#
# Convention : Reuss Voigt Hill
#
# Bulk Modulus (GPa) = 55.16353 79.72185 67.44269
# Shear Modulus (GPa) = 35.11155 42.29858 38.70507
#
# Velocity S-wave (km/s) = 4.19973 4.60956 4.40941
# Velocity P-wave (km/s) = 7.15734 8.26908 7.73321
#
# Compressibility (1/GPa) = 0.01812792
#
# Stress axis : x y z
#
# Youngs Moduli (GPa) = 80.21777 114.07161 71.38487
#
# Poissons Ratio (x) = 0.13565 0.15001
# Poissons Ratio (y) = 0.09539 0.37591
# Poissons Ratio (z) = 0.16857 0.60069
#
# Static dielectric constant tensor:
#      x y z
#    x 1.728650 0.000000 -0.022410 
#    y 0.000000 1.874610 0.000000 
#    z -0.022410 0.000000 1.621700 
# 
# From -- ./inp_files/13325.got.cif
#   From: 2010.05.17/outbox.cif.g08.bks.cpg/sg5_7_cif.got.tgz:13325.got - 2010.06.03 18:56:24.
