data_PCOD9126025
_publ_section_title
;
Structure prediction by ZEFSAII (Michael W. Deem and Ramdas Pophale) SiO2 
 PCOD9126025
Probable space group: C 2
;
_chemical_formula_sum "Si O2"
_cell_formula_units_Z 30
_cell_length_a 12.119808
_cell_length_b 23.250856
_cell_length_c 5.279947
_cell_angle_alpha 90.000000
_cell_angle_beta 85.011508
_cell_angle_gamma 90.000000
_cell_volume 1482.231704
_symmetry_space_group_name_H-M "C 2"
_symmetry_group_IT_number 5
_symmetry_cell_setting 'monoclinic'
loop_
_space_group_symop_operation_xyz
x,y,z
-x,y,-z
1/2+x,1/2+y,z
1/2-x,1/2+y,-z
loop_
_atom_site_type_symbol
_atom_site_label
_atom_site_fract_x
_atom_site_fract_y
_atom_site_fract_z
Si Si1 0.207883 0.904550 0.685244
Si Si2 0.376117 0.502781 0.629139
Si Si3 0.000000 0.946779 0.000000
Si Si4 0.629806 0.950629 0.928631
Si Si5 0.753661 0.110744 0.418117
Si Si6 0.575029 0.710206 0.738002
Si Si7 0.369836 0.080923 0.080345
Si Si8 0.877918 0.335685 0.398081
O O1 0.271595 0.845549 0.602570
O O2 0.188112 0.946077 0.449122
O O3 0.297901 0.937457 0.839083
O O4 0.085350 0.904280 0.834016
O O5 0.500000 0.494693 0.500000
O O6 0.333337 0.560988 0.515205
O O7 0.406647 0.491861 0.914233
O O8 0.631305 0.891522 0.773857
O O9 0.659755 0.015087 0.829932
O O10 0.500000 0.958526 0.000000
O O11 0.827806 0.164787 0.324930
O O12 0.671178 0.119410 0.674719
O O13 0.691510 0.091486 0.174337
O O14 0.500000 0.708113 0.500000
O O15 0.622916 0.775000 0.743970
O O16 0.500000 0.697962 0.000000
O O17 0.500000 0.087100 0.000000
O O18 0.000000 0.339027 0.500000
#
# Coordination Sequence:
#
# PCOD9126025 Si02
#       8
#     4   4   2   4   4   4   4   4
#     4  11  20  38  59  94 133 173 220 271 344 409
#     4  10  22  37  61  92 132 177 224 275 336 411
#     4  10  22  38  60  90 140 182 226 274 340 416
#     4  11  21  36  63 100 135 173 213 277 346 416
#     4  12  23  44  67  96 135 184 225 282 341 402
#     4  11  26  47  69 101 134 175 235 285 337 400
#     4  11  25  40  68 100 140 173 227 278 345 409
#     4  11  23  38  66  96 136 174 225 281 345 403
#
# _framework density 20.239750000000001
#
# number of rings (size 3 to 8) (size 9 to 14) (size 15 to 20)
#    0.000    1.067    2.667    4.400    3.733    0.000 
#    2.400    0.000    1.467    4.800    0.000    0.000 
#    0.000    0.000    0.000    0.000    0.000    0.000 
#
# Total GULP energy -83546.202921 kJ/mol
# GULP energy per Si atom -5569.746861 kJ/mol
# Density = 2.019368 g / cm^3
# Si number density = 20.239750 Si / 1000 Ang^3
#
#
#
# Elastic Constant Matrix: (Units=GPa)
#
#
# Indices 1 2 3 4 5 6 
#
# 1 127.0058 64.3844 54.5907 0.0000 -1.7099 0.0000
# 2 64.3844 111.7610 45.5248 0.0000 -9.0178 0.0000
# 3 54.5907 45.5248 96.8691 0.0000 -5.9485 0.0000
# 4 0.0000 0.0000 0.0000 22.6151 0.0000 -10.9370
# 5 -1.7099 -9.0178 -5.9485 0.0000 38.6272 0.0000
# 6 0.0000 0.0000 0.0000 -10.9370 0.0000 24.9065
#
#
#
# Elastic Compliance Matrix: (Units=1/GPa)
#
#
# Indices 1 2 3 4 5 6 
#
# 1 0.012634 -0.005514 -0.004617 0.000000 -0.001439 0.000000
# 2 -0.005514 0.013598 -0.003133 0.000000 0.002448 0.000000
# 3 -0.004617 -0.003133 0.014477 0.000000 0.001294 0.000000
# 4 0.000000 0.000000 0.000000 0.056141 0.000000 0.024653
# 5 -0.001439 0.002448 0.001294 0.000000 0.026596 0.000000
# 6 0.000000 0.000000 0.000000 0.024653 0.000000 0.050976
#
#
# Mechanical properties :
#
#
# Convention : Reuss Voigt Hill
#
# Bulk Modulus (GPa) = 70.51462 73.84840 72.18151
# Shear Modulus (GPa) = 24.31026 28.63881 26.47454
#
# Velocity S-wave (km/s) = 3.46947 3.76570 3.62062
# Velocity P-wave (km/s) = 7.13897 7.44804 7.29515
#
# Compressibility (1/GPa) = 0.01418146
#
# Stress axis : x y z
#
# Youngs Moduli (GPa) = 79.15199 73.54193 69.07562
#
# Poissons Ratio (x) = 0.40549 0.31892
# Poissons Ratio (y) = 0.43642 0.21640
# Poissons Ratio (z) = 0.36545 0.23039
#
# Static dielectric constant tensor:
#      x y z
#    x 1.760310 0.000000 -0.025180 
#    y 0.000000 1.687650 0.000000 
#    z -0.025180 0.000000 1.995130 
# 
# From -- ./inp_files/5652.got.cif
#   From: 2010.05.17/outbox.cif.g08.bks.cpg/sg5_3_cif.got.tgz:5652.got - 2010.06.03 18:56:24.
