data_PCOD9126116
_publ_section_title
;
Structure prediction by ZEFSAII (Michael W. Deem and Ramdas Pophale) SiO2 
 PCOD9126116
Probable space group: C 2
;
_chemical_formula_sum "Si O2"
_cell_formula_units_Z 26
_cell_length_a 11.044340
_cell_length_b 10.916737
_cell_length_c 12.349729
_cell_angle_alpha 90.000000
_cell_angle_beta 115.784846
_cell_angle_gamma 90.000000
_cell_volume 1340.731638
_symmetry_space_group_name_H-M "C 2"
_symmetry_group_IT_number 5
_symmetry_cell_setting 'monoclinic'
loop_
_space_group_symop_operation_xyz
x,y,z
-x,y,-z
1/2+x,1/2+y,z
1/2-x,1/2+y,-z
loop_
_atom_site_type_symbol
_atom_site_label
_atom_site_fract_x
_atom_site_fract_y
_atom_site_fract_z
Si Si1 0.310180 0.967640 0.116255
Si Si2 0.947673 0.323641 0.693529
Si Si3 0.000000 0.169276 0.500000
Si Si4 0.749773 0.024193 0.308648
Si Si5 0.488358 0.178413 0.872285
Si Si6 0.120851 0.911026 0.849549
Si Si7 0.076008 0.119665 0.138404
O O1 0.404732 0.874667 0.217611
O O2 0.409665 0.065121 0.099138
O O3 0.207030 0.044545 0.150624
O O4 0.227268 0.901628 0.989172
O O5 0.957990 0.252944 0.585105
O O6 0.845863 0.438457 0.655552
O O7 0.902128 0.229655 0.770072
O O8 0.873583 0.085467 0.418039
O O9 0.806517 0.942428 0.232971
O O10 0.656672 0.128363 0.217482
O O11 0.536308 0.287115 0.813968
O O12 0.500000 0.224130 0.000000
O O13 0.023602 0.023043 0.843307
O O14 0.000000 0.164496 0.000000
#
# Coordination Sequence:
#
# PCOD9126116 Si02
#       7
#     4   4   2   4   4   4   4
#     4  10  23  38  63 103 139 171 218 278 346 400
#     4  11  26  44  70  95 134 184 225 281 325 404
#     4  12  28  48  68  92 140 194 230 268 328 408
#     4  11  26  46  66 102 130 184 231 275 334 399
#     4  11  22  38  65 101 141 173 217 284 343 403
#     4  11  22  37  67 101 140 173 215 280 344 405
#     4  10  22  38  63 104 137 171 216 274 345 403
#
# _framework density 19.392396999999999
#
# number of rings (size 3 to 8) (size 9 to 14) (size 15 to 20)
#    0.000    1.231    3.077    2.308   10.769    2.462 
#    0.000    0.000    0.000    0.000    0.000    0.000 
#    0.000    0.000    0.000    0.000    0.000    0.000 
#
# Total GULP energy -72703.036515 kJ/mol
# GULP energy per Si atom -5592.541270 kJ/mol
# Density = 1.934826 g / cm^3
# Si number density = 19.392397 Si / 1000 Ang^3
#
#
#
# Elastic Constant Matrix: (Units=GPa)
#
#
# Indices 1 2 3 4 5 6 
#
# 1 93.7559 25.7318 58.9066 0.0000 10.3395 0.0000
# 2 25.7318 74.5414 53.7319 0.0000 5.7926 0.0000
# 3 58.9066 53.7319 103.1775 0.0000 5.5809 0.0000
# 4 0.0000 0.0000 0.0000 18.8490 0.0000 -7.8027
# 5 10.3395 5.7926 5.5809 0.0000 33.0969 0.0000
# 6 0.0000 0.0000 0.0000 -7.8027 0.0000 36.9876
#
#
#
# Elastic Compliance Matrix: (Units=1/GPa)
#
#
# Indices 1 2 3 4 5 6 
#
# 1 0.017273 0.002079 -0.010731 0.000000 -0.003951 0.000000
# 2 0.002079 0.021846 -0.012436 0.000000 -0.002376 0.000000
# 3 -0.010731 -0.012436 0.022198 0.000000 0.001786 0.000000
# 4 0.000000 0.000000 0.000000 0.058129 0.000000 0.012263
# 5 -0.003951 -0.002376 0.001786 0.000000 0.031563 0.000000
# 6 0.000000 0.000000 0.000000 0.012263 0.000000 0.029623
#
#
# Mechanical properties :
#
#
# Convention : Reuss Voigt Hill
#
# Bulk Modulus (GPa) = 52.23734 60.91284 56.57509
# Shear Modulus (GPa) = 21.81616 26.66034 24.23825
#
# Velocity S-wave (km/s) = 3.35772 3.71183 3.53921
# Velocity P-wave (km/s) = 6.48289 7.06039 6.77779
#
# Compressibility (1/GPa) = 0.01914339
#
# Stress axis : x y z
#
# Youngs Moduli (GPa) = 57.89335 45.77473 45.04900
#
# Poissons Ratio (x) = -0.09519 0.48342
# Poissons Ratio (y) = -0.12039 0.56021
# Poissons Ratio (z) = 0.62125 0.56923
#
# Static dielectric constant tensor:
#      x y z
#    x 1.695520 0.000000 0.007450 
#    y 0.000000 1.677060 0.000000 
#    z 0.007450 0.000000 1.640350 
# 
# From -- ./inp_files/38743.got.cif
#   From: 2010.05.17/outbox.cif.g08.bks.cpg/sg5_20_cif.got.tgz:38743.got - 2010.06.03 18:56:24.
