data_PCOD9126542
_publ_section_title
;
Structure prediction by ZEFSAII (Michael W. Deem and Ramdas Pophale) SiO2 
 PCOD9126542
Probable space group: C 2
;
_chemical_formula_sum "Si O2"
_cell_formula_units_Z 30
_cell_length_a 17.123287
_cell_length_b 7.997138
_cell_length_c 9.958144
_cell_angle_alpha 90.000000
_cell_angle_beta 97.019778
_cell_angle_gamma 90.000000
_cell_volume 1353.419423
_symmetry_space_group_name_H-M "C 2"
_symmetry_group_IT_number 5
_symmetry_cell_setting 'monoclinic'
loop_
_space_group_symop_operation_xyz
x,y,z
-x,y,-z
1/2+x,1/2+y,z
1/2-x,1/2+y,-z
loop_
_atom_site_type_symbol
_atom_site_label
_atom_site_fract_x
_atom_site_fract_y
_atom_site_fract_z
Si Si1 0.518098 0.008730 0.644589
Si Si2 0.198373 0.521759 0.608003
Si Si3 0.462044 0.806947 0.119712
Si Si4 0.000000 0.839987 0.500000
Si Si5 0.118737 0.023013 0.715262
Si Si6 0.785830 0.678084 0.668674
Si Si7 0.659205 0.035842 0.056494
Si Si8 0.723237 0.255497 0.838953
O O1 0.500000 0.919318 0.500000
O O2 0.613957 0.000935 0.665775
O O3 0.488427 0.199533 0.616155
O O4 0.484681 0.907583 0.762166
O O5 0.180909 0.584002 0.454606
O O6 0.257056 0.365400 0.628458
O O7 0.237466 0.670405 0.699369
O O8 0.418635 0.668507 0.201455
O O9 0.500000 0.717610 0.000000
O O10 0.414454 0.959011 0.038100
O O11 0.066692 0.957228 0.579083
O O12 0.202378 0.089458 0.681758
O O13 0.143377 0.864044 0.810606
O O14 0.839640 0.656473 0.812649
O O15 0.704703 0.872362 0.113655
O O16 0.712219 0.124457 0.954895
#
# Coordination Sequence:
#
# PCOD9126542 Si02
#       8
#     4   4   4   2   4   4   4   4
#     4  10  23  45  71  93 133 181 224 279 339 405
#     4  12  22  44  66 104 130 176 225 287 334 411
#     4  12  26  45  66  98 138 181 231 280 342 417
#     4  10  22  40  74  94 128 182 226 278 352 392
#     4  11  22  44  65  99 133 174 225 287 333 401
#     4  11  25  38  69  96 137 169 226 284 342 403
#     4  11  22  40  65  97 129 179 217 275 345 403
#     4  11  20  41  69  90 135 171 220 279 346 397
#
# _framework density 22.166077000000001
#
# number of rings (size 3 to 8) (size 9 to 14) (size 15 to 20)
#    0.400    0.533    4.000    4.000    2.800    0.000 
#    2.400    4.000    0.000    0.000    0.000    0.000 
#    0.000    0.000    0.000    0.000    0.000    0.000 
#
# Total GULP energy -83642.423543 kJ/mol
# GULP energy per Si atom -5576.161570 kJ/mol
# Density = 2.211563 g / cm^3
# Si number density = 22.166077 Si / 1000 Ang^3
#
#
#
# Elastic Constant Matrix: (Units=GPa)
#
#
# Indices 1 2 3 4 5 6 
#
# 1 39.9552 12.6708 16.4245 0.0000 0.3057 0.0000
# 2 12.6708 83.9799 28.7640 0.0000 0.4670 0.0000
# 3 16.4245 28.7640 133.9977 0.0000 5.4502 0.0000
# 4 0.0000 0.0000 0.0000 43.5817 0.0000 7.6531
# 5 0.3057 0.4670 5.4502 0.0000 37.2995 0.0000
# 6 0.0000 0.0000 0.0000 7.6531 0.0000 14.4506
#
#
#
# Elastic Compliance Matrix: (Units=1/GPa)
#
#
# Indices 1 2 3 4 5 6 
#
# 1 0.027126 -0.003187 -0.002649 0.000000 0.000205 0.000000
# 2 -0.003187 0.013229 -0.002458 0.000000 0.000220 0.000000
# 3 -0.002649 -0.002458 0.008363 0.000000 -0.001169 0.000000
# 4 0.000000 0.000000 0.000000 0.025298 0.000000 -0.013398
# 5 0.000205 0.000220 -0.001169 0.000000 0.026976 0.000000
# 6 0.000000 0.000000 0.000000 -0.013398 0.000000 0.076297
#
#
# Mechanical properties :
#
#
# Convention : Reuss Voigt Hill
#
# Bulk Modulus (GPa) = 31.12339 41.51684 36.32012
# Shear Modulus (GPa) = 24.43951 32.40460 28.42205
#
# Velocity S-wave (km/s) = 3.32409 3.82763 3.58471
# Velocity P-wave (km/s) = 5.36696 6.18909 5.79263
#
# Compressibility (1/GPa) = 0.03213018
#
# Stress axis : x y z
#
# Youngs Moduli (GPa) = 36.86498 75.59097 119.57762
#
# Poissons Ratio (x) = 0.24087 0.31679
# Poissons Ratio (y) = 0.11747 0.29394
# Poissons Ratio (z) = 0.09766 0.18581
#
# Static dielectric constant tensor:
#      x y z
#    x 1.866830 0.000000 0.016010 
#    y 0.000000 1.860170 0.000000 
#    z 0.016010 0.000000 1.865780 
# 
# From -- ./inp_files/28983.got.cif
#   From: 2010.05.17/outbox.cif.g08.bks.cpg/sg5_15_cif.got.tgz:28983.got - 2010.06.03 18:56:24.
