data_PCOD9126238
_publ_section_title
;
Structure prediction by ZEFSAII (Michael W. Deem and Ramdas Pophale) SiO2 
 PCOD9126238
Probable space group: C 2
;
_chemical_formula_sum "Si O2"
_cell_formula_units_Z 32
_cell_length_a 13.003053
_cell_length_b 5.053100
_cell_length_c 21.618679
_cell_angle_alpha 90.000000
_cell_angle_beta 75.207202
_cell_angle_gamma 90.000000
_cell_volume 1373.390207
_symmetry_space_group_name_H-M "C 2"
_symmetry_group_IT_number 5
_symmetry_cell_setting 'monoclinic'
loop_
_space_group_symop_operation_xyz
x,y,z
-x,y,-z
1/2+x,1/2+y,z
1/2-x,1/2+y,-z
loop_
_atom_site_type_symbol
_atom_site_label
_atom_site_fract_x
_atom_site_fract_y
_atom_site_fract_z
Si Si1 0.529958 0.408450 0.904559
Si Si2 0.825141 0.373724 0.493473
Si Si3 0.455825 0.777766 0.599739
Si Si4 0.199867 0.071279 0.035927
Si Si5 0.853444 0.447917 0.266732
Si Si6 0.485574 0.442834 0.240623
Si Si7 0.624928 0.278335 0.324627
Si Si8 0.162240 0.414318 0.878257
O O1 0.422613 0.498084 0.953799
O O2 0.507241 0.415107 0.834154
O O3 0.624641 0.618916 0.899268
O O4 0.569851 0.116657 0.913927
O O5 0.764963 0.652504 0.502543
O O6 0.887607 0.322430 0.547977
O O7 0.920976 0.352395 0.429239
O O8 0.444066 0.474157 0.621785
O O9 0.402051 0.977053 0.656672
O O10 0.234520 0.004586 0.100658
O O11 0.272906 0.871258 0.984997
O O12 0.893575 0.739095 0.276589
O O13 0.747271 0.352095 0.316140
O O14 0.830091 0.442509 0.196553
O O15 0.947540 0.237243 0.261893
O O16 0.589773 0.354590 0.260831
#
# Coordination Sequence:
#
# PCOD9126238 Si02
#       8
#     4   4   4   4   4   4   4   4
#     4  10  22  41  61  83 117 156 195 239 289 353
#     4  11  24  45  66  84 120 165 202 243 288 342
#     4  11  26  40  61  96 119 155 204 239 294 347
#     4  12  25  38  59  88 114 150 198 245 300 349
#     4  10  22  39  61  88 118 158 196 231 293 358
#     4  10  22  39  61  88 118 158 196 231 293 358
#     4  12  23  39  62  92 129 149 188 255 290 341
#     4  10  22  41  61  83 117 156 195 239 289 353
#
# _framework density 23.300006
#
# number of rings (size 3 to 8) (size 9 to 14) (size 15 to 20)
#    0.000    1.250    0.000    5.250    0.000   11.000 
#    0.000   10.000    0.000    0.000    0.000    0.000 
#    0.000    0.000    0.000    0.000    0.000    0.000 
#
# Total GULP energy -89615.203937 kJ/mol
# GULP energy per Si atom -5600.950246 kJ/mol
# Density = 2.324697 g / cm^3
# Si number density = 23.300006 Si / 1000 Ang^3
#
#
#
# Elastic Constant Matrix: (Units=GPa)
#
#
# Indices 1 2 3 4 5 6 
#
# 1 77.5496 -4.9167 4.6854 -0.0001 -5.3613 -0.0003
# 2 -4.9167 67.8657 1.9491 -0.0007 7.4470 -0.0007
# 3 4.6854 1.9491 27.8491 -0.0001 -3.2696 -0.0002
# 4 -0.0001 -0.0007 -0.0001 27.8375 -0.0001 3.6780
# 5 -5.3613 7.4470 -3.2696 -0.0001 38.6048 -0.0001
# 6 -0.0003 -0.0007 -0.0002 3.6780 -0.0001 32.4352
#
#
#
# Elastic Compliance Matrix: (Units=1/GPa)
#
#
# Indices 1 2 3 4 5 6 
#
# 1 0.013179 0.000852 -0.002102 0.000000 0.001488 0.000000
# 2 0.000852 0.015164 -0.001550 0.000000 -0.002938 0.000000
# 3 -0.002102 -0.001550 0.036736 0.000000 0.003118 0.000000
# 4 0.000000 0.000000 0.000000 0.036469 0.000000 -0.004135
# 5 0.001488 -0.002938 0.003118 0.000000 0.026941 0.000000
# 6 0.000000 0.000000 0.000000 -0.004135 0.000000 0.031300
#
#
# Mechanical properties :
#
#
# Convention : Reuss Voigt Hill
#
# Bulk Modulus (GPa) = 16.81271 19.63333 18.22302
# Shear Modulus (GPa) = 26.99575 31.21193 29.10384
#
# Velocity S-wave (km/s) = 3.40754 3.66398 3.53808
# Velocity P-wave (km/s) = 4.76583 5.13267 4.95265
#
# Compressibility (1/GPa) = 0.05947883
#
# Stress axis : x y z
#
# Youngs Moduli (GPa) = 75.87908 65.94741 27.22121
#
# Poissons Ratio (x) = -0.05618 0.05722
# Poissons Ratio (y) = -0.06464 0.04218
# Poissons Ratio (z) = 0.15951 0.10219
#
# Static dielectric constant tensor:
#      x y z
#    x 1.852360 0.000000 0.032510 
#    y 0.000000 1.777730 0.000000 
#    z 0.032510 0.000000 1.908360 
# 
# From -- ./inp_files/68187.got.cif
#   From: 2010.05.17/outbox.cif.g08.bks.cpg/sg5_35_cif.got.tgz:68187.got - 2010.06.03 18:56:24.
