data_PCOD9126976
_publ_section_title
;
Structure prediction by ZEFSAII (Michael W. Deem and Ramdas Pophale) SiO2 
 PCOD9126976
Probable space group: C 2
;
_chemical_formula_sum "Si O2"
_cell_formula_units_Z 18
_cell_length_a 9.124272
_cell_length_b 17.321613
_cell_length_c 4.890410
_cell_angle_alpha 90.000000
_cell_angle_beta 97.625850
_cell_angle_gamma 90.000000
_cell_volume 766.079320
_symmetry_space_group_name_H-M "C 2"
_symmetry_group_IT_number 5
_symmetry_cell_setting 'monoclinic'
loop_
_space_group_symop_operation_xyz
x,y,z
-x,y,-z
1/2+x,1/2+y,z
1/2-x,1/2+y,-z
loop_
_atom_site_type_symbol
_atom_site_label
_atom_site_fract_x
_atom_site_fract_y
_atom_site_fract_z
Si Si1 0.340354 0.314200 0.563301
Si Si2 0.265736 0.901032 0.003854
Si Si3 0.104149 0.560311 0.783964
Si Si4 0.500000 0.792266 0.000000
Si Si5 0.158394 0.174636 0.420350
O O1 0.500000 0.287834 0.500000
O O2 0.357500 0.372634 0.818457
O O3 0.254460 0.234904 0.624721
O O4 0.268245 0.367748 0.304599
O O5 0.405930 0.851909 0.154230
O O6 0.313013 0.988776 0.048343
O O7 0.231875 0.613433 0.685406
O O8 0.000000 0.537449 0.500000
O O9 0.000000 0.594940 0.000000
O O10 0.606128 0.734982 0.180782
O O11 0.000000 0.145113 0.500000
#
# Coordination Sequence:
#
# PCOD9126976 Si02
#       5
#     4   4   4   2   4
#     4  11  24  44  73 104 137 182 240 292 345 420
#     4  11  23  44  73 101 136 187 238 281 351 419
#     4  12  28  46  73 104 147 188 235 294 357 420
#     4  10  22  42  74  94 136 186 240 278 344 422
#     4  11  25  44  72 103 145 186 238 289 356 418
#
# _framework density 23.496265000000001
#
# number of rings (size 3 to 8) (size 9 to 14) (size 15 to 20)
#    0.000    0.889    3.333    2.667    6.222    4.444 
#    4.000    0.000    0.000    0.000    0.000    0.000 
#    0.000    0.000    0.000    0.000    0.000    0.000 
#
# Total GULP energy -50190.379731 kJ/mol
# GULP energy per Si atom -5576.708859 kJ/mol
# Density = 2.344279 g / cm^3
# Si number density = 23.496265 Si / 1000 Ang^3
#
#
#
# Elastic Constant Matrix: (Units=GPa)
#
#
# Indices 1 2 3 4 5 6 
#
# 1 140.5412 58.4208 31.8032 0.0000 -24.8556 0.0000
# 2 58.4208 113.2227 19.7147 0.0000 -12.5770 0.0000
# 3 31.8032 19.7147 103.5545 0.0000 -13.4025 0.0000
# 4 0.0000 0.0000 0.0000 20.3652 0.0000 -4.8655
# 5 -24.8556 -12.5770 -13.4025 0.0000 45.2051 0.0000
# 6 0.0000 0.0000 0.0000 -4.8655 0.0000 30.4891
#
#
#
# Elastic Compliance Matrix: (Units=1/GPa)
#
#
# Indices 1 2 3 4 5 6 
#
# 1 0.010025 -0.004452 -0.001745 0.000000 0.003756 0.000000
# 2 -0.004452 0.011309 -0.000723 0.000000 0.000484 0.000000
# 3 -0.001745 -0.000723 0.010586 0.000000 0.001978 0.000000
# 4 0.000000 0.000000 0.000000 0.051050 0.000000 0.008147
# 5 0.003756 0.000484 0.001978 0.000000 0.024908 0.000000
# 6 0.000000 0.000000 0.000000 0.008147 0.000000 0.034099
#
#
# Mechanical properties :
#
#
# Convention : Reuss Voigt Hill
#
# Bulk Modulus (GPa) = 55.30868 64.13289 59.72078
# Shear Modulus (GPa) = 30.89407 35.70383 33.29895
#
# Velocity S-wave (km/s) = 3.63002 3.90237 3.76866
# Velocity P-wave (km/s) = 6.41559 6.90354 6.66404
#
# Compressibility (1/GPa) = 0.01808034
#
# Stress axis : x y z
#
# Youngs Moduli (GPa) = 99.75006 88.42659 94.46093
#
# Poissons Ratio (x) = 0.39364 0.16485
# Poissons Ratio (y) = 0.44405 0.06831
# Poissons Ratio (z) = 0.17408 0.06394
#
# Static dielectric constant tensor:
#      x y z
#    x 2.159840 0.000000 0.009460 
#    y 0.000000 1.828410 0.000000 
#    z 0.009460 0.000000 1.995940 
# 
# From -- ./inp_files/2167.got.cif
#   From: 2010.05.17/outbox.cif.g08.bks.cpg/sg5_2_cif.got.tgz:2167.got - 2010.06.03 18:56:24.
