data_PCOD9126418
_publ_section_title
;
Structure prediction by ZEFSAII (Michael W. Deem and Ramdas Pophale) SiO2 
 PCOD9126418
Probable space group: C 2
;
_chemical_formula_sum "Si O2"
_cell_formula_units_Z 24
_cell_length_a 13.002925
_cell_length_b 6.069677
_cell_length_c 18.336837
_cell_angle_alpha 90.000000
_cell_angle_beta 135.201645
_cell_angle_gamma 90.000000
_cell_volume 1019.723036
_symmetry_space_group_name_H-M "C 2"
_symmetry_group_IT_number 5
_symmetry_cell_setting 'monoclinic'
loop_
_space_group_symop_operation_xyz
x,y,z
-x,y,-z
1/2+x,1/2+y,z
1/2-x,1/2+y,-z
loop_
_atom_site_type_symbol
_atom_site_label
_atom_site_fract_x
_atom_site_fract_y
_atom_site_fract_z
Si Si1 0.393612 0.139690 0.159901
Si Si2 0.768383 0.716214 0.543396
Si Si3 0.500000 0.174161 0.000000
Si Si4 0.391997 0.509791 0.066885
Si Si5 0.622806 0.903833 0.184718
Si Si6 0.405262 0.150345 0.319638
Si Si7 0.500000 0.839399 0.500000
O O1 0.396699 0.402122 0.149236
O O2 0.343556 0.049573 0.212973
O O3 0.548929 0.048263 0.211042
O O4 0.268919 0.074547 0.039008
O O5 0.763317 0.462338 0.508576
O O6 0.943411 0.742262 0.636795
O O7 0.640658 0.710664 0.539863
O O8 0.438094 0.329829 0.030925
O O9 0.612454 0.022938 0.101407
O O10 0.510935 0.700329 0.123007
O O11 0.785308 0.826657 0.283283
O O12 0.438077 0.990153 0.402891
#
# Coordination Sequence:
#
# PCOD9126418 Si02
#       7
#     4   4   2   4   4   4   2
#     4  11  24  41  70 105 145 200 242 298 363 439
#     4  10  25  52  81 110 149 195 247 317 389 454
#     4  10  22  40  66 100 142 200 238 302 358 440
#     4  11  22  43  65 100 152 191 245 299 362 431
#     4  11  24  42  70 104 149 191 248 300 365 437
#     4  11  26  46  75 110 140 194 250 311 376 451
#     4  10  26  52  78 106 148 188 248 316 388 452
#
# _framework density 23.535800999999999
#
# number of rings (size 3 to 8) (size 9 to 14) (size 15 to 20)
#    0.000    1.333    1.667    2.500    4.667    9.333 
#   15.000    0.000    0.000    0.000    0.000    0.000 
#    0.000    0.000    0.000    0.000    0.000    0.000 
#
# Total GULP energy -66892.712001 kJ/mol
# GULP energy per Si atom -5574.392667 kJ/mol
# Density = 2.348223 g / cm^3
# Si number density = 23.535801 Si / 1000 Ang^3
#
#
#
# Elastic Constant Matrix: (Units=GPa)
#
#
# Indices 1 2 3 4 5 6 
#
# 1 148.4218 32.4359 23.0491 0.0000 18.6709 0.0000
# 2 32.4359 81.1858 16.1235 0.0000 -3.9518 0.0000
# 3 23.0491 16.1235 45.9774 0.0000 6.6404 0.0000
# 4 0.0000 0.0000 0.0000 -3.4386 0.0000 -1.0420
# 5 18.6709 -3.9518 6.6404 0.0000 60.5589 0.0000
# 6 0.0000 0.0000 0.0000 -1.0420 0.0000 30.0371
#
#
#
# Elastic Compliance Matrix: (Units=1/GPa)
#
#
# Indices 1 2 3 4 5 6 
#
# 1 0.008070 -0.002799 -0.002721 0.000000 -0.002372 0.000000
# 2 -0.002799 0.014328 -0.003943 0.000000 0.002230 0.000000
# 3 -0.002721 -0.003943 0.024806 0.000000 -0.002138 0.000000
# 4 0.000000 0.000000 0.000000 -0.287795 0.000000 -0.009984
# 5 -0.002372 0.002230 -0.002138 0.000000 0.017624 0.000000
# 6 0.000000 0.000000 0.000000 -0.009984 0.000000 0.032946
#
#
# Mechanical properties :
#
#
# Convention : Reuss Voigt Hill
#
# Bulk Modulus (GPa) = 35.36614 46.53356 40.94985
# Shear Modulus (GPa) = -30.92765 31.02991 0.05113
#
# Velocity S-wave (km/s) = -3.62894 3.63494 0.14755
# Velocity P-wave (km/s) = 1.58107 6.11811 4.17921
#
# Compressibility (1/GPa) = 0.02827563
#
# Stress axis : x y z
#
# Youngs Moduli (GPa) = 123.90968 69.79569 40.31325
#
# Poissons Ratio (x) = 0.19538 0.10971
# Poissons Ratio (y) = 0.34687 0.15896
# Poissons Ratio (z) = 0.33722 0.27522
#
# Static dielectric constant tensor:
#      x y z
#    x 1.892160 0.000000 -0.027940 
#    y 0.000000 1.986290 0.000000 
#    z -0.027940 0.000000 2.079350 
# 
# From -- ./inp_files/65630.got.cif
#   From: 2010.05.17/outbox.cif.g08.bks.cpg/sg5_33_cif.got.tgz:65630.got - 2010.06.03 18:56:24.
