data_PCOD9126240
_publ_section_title
;
Structure prediction by ZEFSAII (Michael W. Deem and Ramdas Pophale) SiO2 
 PCOD9126240
Probable space group: C 2
;
_chemical_formula_sum "Si O2"
_cell_formula_units_Z 18
_cell_length_a 18.169521
_cell_length_b 4.693264
_cell_length_c 13.470134
_cell_angle_alpha 90.000000
_cell_angle_beta 142.700784
_cell_angle_gamma 90.000000
_cell_volume 696.060339
_symmetry_space_group_name_H-M "C 2"
_symmetry_group_IT_number 5
_symmetry_cell_setting 'monoclinic'
loop_
_space_group_symop_operation_xyz
x,y,z
-x,y,-z
1/2+x,1/2+y,z
1/2-x,1/2+y,-z
loop_
_atom_site_type_symbol
_atom_site_label
_atom_site_fract_x
_atom_site_fract_y
_atom_site_fract_z
Si Si1 0.310063 0.606110 0.937931
Si Si2 0.936278 0.767453 0.241042
Si Si3 0.237449 0.639675 0.244037
Si Si4 0.500000 0.638865 0.500000
Si Si5 0.295594 0.240579 0.493730
O O1 0.178573 0.570935 0.853649
O O2 0.336662 0.416159 0.868330
O O3 0.300225 0.927173 0.887162
O O4 0.402177 0.490627 0.118722
O O5 0.065984 0.627615 0.358146
O O6 0.966459 0.942277 0.372122
O O7 0.373154 0.783828 0.387477
O O8 0.249728 0.429184 0.351053
O O9 0.286171 0.467742 0.573200
#
# Coordination Sequence:
#
# PCOD9126240 Si02
#       5
#     4   4   4   2   4
#     4  11  22  39  64  96 126 157 208 279 329 365
#     4  10  22  40  65  96 128 165 212 266 328 376
#     4  10  22  39  61  91 125 164 214 261 319 373
#     4   8  18  34  58  86 118 156 200 260 308 362
#     4  11  25  45  66  92 132 180 219 254 310 399
#
# _framework density 25.859828
#
# number of rings (size 3 to 8) (size 9 to 14) (size 15 to 20)
#    0.000    1.778    0.000    4.000    0.000   14.222 
#    0.000    6.667    0.000    0.000    0.000    0.000 
#    0.000    0.000    0.000    0.000    0.000    0.000 
#
# Total GULP energy -50202.453262 kJ/mol
# GULP energy per Si atom -5578.050362 kJ/mol
# Density = 2.580097 g / cm^3
# Si number density = 25.859828 Si / 1000 Ang^3
#
#
#
# Elastic Constant Matrix: (Units=GPa)
#
#
# Indices 1 2 3 4 5 6 
#
# 1 36.7951 10.8394 26.0825 -0.0001 -1.7136 -0.0001
# 2 10.8394 101.5208 23.5265 0.0019 -6.3500 0.0013
# 3 26.0825 23.5265 126.2916 0.0001 -32.6915 0.0002
# 4 -0.0001 0.0019 0.0001 43.9342 0.0002 -18.1006
# 5 -1.7136 -6.3500 -32.6915 0.0002 32.7305 0.0000
# 6 -0.0001 0.0013 0.0002 -18.1006 0.0000 45.8389
#
#
#
# Elastic Compliance Matrix: (Units=1/GPa)
#
#
# Indices 1 2 3 4 5 6 
#
# 1 0.033347 -0.002072 -0.008299 0.000000 -0.006945 0.000000
# 2 -0.002072 0.010424 -0.001374 -0.000001 0.000542 -0.000001
# 3 -0.008299 -0.001374 0.013091 0.000000 0.012375 0.000000
# 4 0.000000 -0.000001 0.000000 0.027184 0.000000 0.010734
# 5 -0.006945 0.000542 0.012375 0.000000 0.042654 0.000000
# 6 0.000000 -0.000001 0.000000 0.010734 0.000000 0.026054
#
#
# Mechanical properties :
#
#
# Convention : Reuss Voigt Hill
#
# Bulk Modulus (GPa) = 29.96392 42.83384 36.39888
# Shear Modulus (GPa) = 26.68562 38.11134 32.39848
#
# Velocity S-wave (km/s) = 3.21586 3.84313 3.54340
# Velocity P-wave (km/s) = 5.03996 6.02434 5.55400
#
# Compressibility (1/GPa) = 0.03337347
#
# Stress axis : x y z
#
# Youngs Moduli (GPa) = 29.98760 95.93600 76.38661
#
# Poissons Ratio (x) = 0.19875 0.63392
# Poissons Ratio (y) = 0.06213 0.10493
# Poissons Ratio (z) = 0.24886 0.13179
#
# Static dielectric constant tensor:
#      x y z
#    x 2.233280 0.000000 0.020760 
#    y 0.000000 1.948920 0.000000 
#    z 0.020760 0.000000 2.069340 
# 
# From -- ./inp_files/43579.got.cif
#   From: 2010.05.17/outbox.cif.g08.bks.cpg/sg5_22_cif.got.tgz:43579.got - 2010.06.03 18:56:24.
