data_PCOD9126310
_publ_section_title
;
Structure prediction by ZEFSAII (Michael W. Deem and Ramdas Pophale) SiO2 
 PCOD9126310
Probable space group: C 2
;
_chemical_formula_sum "Si O2"
_cell_formula_units_Z 20
_cell_length_a 11.731583
_cell_length_b 7.514096
_cell_length_c 22.040874
_cell_angle_alpha 90.000000
_cell_angle_beta 155.518305
_cell_angle_gamma 90.000000
_cell_volume 805.164355
_symmetry_space_group_name_H-M "C 2"
_symmetry_group_IT_number 5
_symmetry_cell_setting 'monoclinic'
loop_
_space_group_symop_operation_xyz
x,y,z
-x,y,-z
1/2+x,1/2+y,z
1/2-x,1/2+y,-z
loop_
_atom_site_type_symbol
_atom_site_label
_atom_site_fract_x
_atom_site_fract_y
_atom_site_fract_z
Si Si1 0.627624 0.060340 0.869597
Si Si2 0.799384 0.066311 0.655098
Si Si3 0.099708 0.056853 0.689192
Si Si4 0.056214 0.894391 0.156806
Si Si5 0.765701 0.472848 0.593459
O O1 0.364238 0.982078 0.780971
O O2 0.640847 0.260081 0.900959
O O3 0.533382 0.054789 0.754506
O O4 0.894245 0.955766 0.019466
O O5 0.500000 0.979944 0.500000
O O6 0.771641 0.266354 0.615999
O O7 0.037460 0.991059 0.726580
O O8 0.870645 0.047295 0.759968
O O9 0.184404 0.266591 0.730847
O O10 0.822317 0.015562 0.517390
O O11 0.500000 0.553413 0.500000
#
# Coordination Sequence:
#
# PCOD9126310 Si02
#       5
#     4   4   4   4   4
#     4   9  20  40  66  89 140 171 219 271 338 389
#     4  11  24  38  70  99 133 175 234 268 342 398
#     4   9  23  39  70  96 140 170 223 281 335 386
#     4  10  22  39  69  95 138 175 219 281 331 405
#     4   9  19  40  62  94 131 173 215 284 319 396
#
# _framework density 24.839649999999999
#
# number of rings (size 3 to 8) (size 9 to 14) (size 15 to 20)
#    1.200    1.200    0.000    1.200    5.600    0.800 
#    0.000    0.000    8.800    0.000    0.000    0.000 
#    0.000    0.000    0.000    0.000    0.000    0.000 
#
# Total GULP energy -55768.875802 kJ/mol
# GULP energy per Si atom -5576.887580 kJ/mol
# Density = 2.478311 g / cm^3
# Si number density = 24.839650 Si / 1000 Ang^3
#
#
#
# Elastic Constant Matrix: (Units=GPa)
#
#
# Indices 1 2 3 4 5 6 
#
# 1 93.8790 6.7671 33.9048 0.0032 6.1184 0.0016
# 2 6.7671 96.6052 49.9726 0.0033 -0.1903 0.0003
# 3 33.9048 49.9726 182.9238 0.0190 -18.2988 0.0054
# 4 0.0032 0.0033 0.0190 39.4525 0.0056 -8.6973
# 5 6.1184 -0.1903 -18.2988 0.0056 31.2043 0.0025
# 6 0.0016 0.0003 0.0054 -8.6973 0.0025 13.3951
#
#
#
# Elastic Compliance Matrix: (Units=1/GPa)
#
#
# Indices 1 2 3 4 5 6 
#
# 1 0.011860 0.000585 -0.002752 0.000001 -0.003936 0.000001
# 2 0.000585 0.012199 -0.003660 0.000002 -0.002186 0.000003
# 3 -0.002752 -0.003660 0.007466 -0.000005 0.004896 -0.000007
# 4 0.000001 0.000002 -0.000005 0.029581 -0.000010 0.019207
# 5 -0.003936 -0.002186 0.004896 -0.000010 0.035676 -0.000015
# 6 0.000001 0.000003 -0.000007 0.019207 -0.000015 0.087125
#
#
# Mechanical properties :
#
#
# Convention : Reuss Voigt Hill
#
# Bulk Modulus (GPa) = 50.32098 61.63301 55.97699
# Shear Modulus (GPa) = 24.72976 35.66126 30.19551
#
# Velocity S-wave (km/s) = 3.15870 3.79312 3.49035
# Velocity P-wave (km/s) = 5.79702 6.63701 6.23119
#
# Compressibility (1/GPa) = 0.01987243
#
# Stress axis : x y z
#
# Youngs Moduli (GPa) = 84.31593 81.97178 133.93407
#
# Poissons Ratio (x) = -0.04795 0.36855
# Poissons Ratio (y) = -0.04932 0.49018
# Poissons Ratio (z) = 0.23202 0.30000
#
# Static dielectric constant tensor:
#      x y z
#    x 2.014660 0.000000 0.067090 
#    y 0.000000 2.016690 0.000000 
#    z 0.067090 0.000000 1.985420 
# 
# From -- ./inp_files/41240.got.cif
#   From: 2010.05.17/outbox.cif.g08.bks.cpg/sg5_21_cif.got.tgz:41240.got - 2010.06.03 18:56:24.
