data_PCOD9126064
_publ_section_title
;
Structure prediction by ZEFSAII (Michael W. Deem and Ramdas Pophale) SiO2 
 PCOD9126064
Probable space group: C 2
;
_chemical_formula_sum "Si O2"
_cell_formula_units_Z 30
_cell_length_a 14.279029
_cell_length_b 7.113811
_cell_length_c 12.080287
_cell_angle_alpha 90.000000
_cell_angle_beta 103.163083
_cell_angle_gamma 90.000000
_cell_volume 1194.854277
_symmetry_space_group_name_H-M "C 2"
_symmetry_group_IT_number 5
_symmetry_cell_setting 'monoclinic'
loop_
_space_group_symop_operation_xyz
x,y,z
-x,y,-z
1/2+x,1/2+y,z
1/2-x,1/2+y,-z
loop_
_atom_site_type_symbol
_atom_site_label
_atom_site_fract_x
_atom_site_fract_y
_atom_site_fract_z
Si Si1 0.440371 0.329330 0.087916
Si Si2 0.234132 0.306496 0.755080
Si Si3 0.917339 0.399540 0.110420
Si Si4 0.891019 0.306701 0.731366
Si Si5 0.500000 0.372935 0.500000
Si Si6 0.765269 0.400334 0.881989
Si Si7 0.896935 0.227980 0.480998
Si Si8 0.424336 0.253773 0.702471
O O1 0.327892 0.366444 0.067214
O O2 0.483568 0.357762 0.220787
O O3 0.454739 0.104599 0.089336
O O4 0.500000 0.408183 0.000000
O O5 0.159855 0.419221 0.811250
O O6 0.184566 0.300360 0.620707
O O7 0.341442 0.359641 0.749434
O O8 0.248961 0.111531 0.829480
O O9 0.006300 0.273230 0.177728
O O10 0.855100 0.351122 0.986167
O O11 0.796568 0.283460 0.781766
O O12 0.878551 0.216676 0.606985
O O13 0.901985 0.533214 0.714451
O O14 0.421325 0.523582 0.436053
O O15 0.442758 0.265962 0.577894
O O16 0.000000 0.333282 0.500000
#
# Coordination Sequence:
#
# PCOD9126064 Si02
#       8
#     4   4   4   4   2   4   4   4
#     4  11  23  41  60  87 126 160 200 255 306 370
#     4  11  23  41  65  93 123 165 207 257 306 373
#     4  11  20  40  66  91 124 159 207 260 310 367
#     4  10  22  40  65  89 123 165 211 257 305 370
#     4  10  22  38  58  84 124 160 198 256 306 352
#     4  11  23  40  65  94 124 161 209 255 316 370
#     4  10  22  41  61  88 129 161 206 254 307 366
#     4  10  23  38  61  88 121 161 209 248 308 361
#
# _framework density 25.107662999999999
#
# number of rings (size 3 to 8) (size 9 to 14) (size 15 to 20)
#    0.400    1.067    1.333    5.200    0.933    4.267 
#    0.000    4.667    0.000    0.000    0.000    0.000 
#    0.000    0.000    0.000    0.000    0.000    0.000 
#
# Total GULP energy -83602.018169 kJ/mol
# GULP energy per Si atom -5573.467878 kJ/mol
# Density = 2.505052 g / cm^3
# Si number density = 25.107663 Si / 1000 Ang^3
#
#
#
# Elastic Constant Matrix: (Units=GPa)
#
#
# Indices 1 2 3 4 5 6 
#
# 1 87.3143 7.2127 46.6174 0.0000 -36.5077 0.0000
# 2 7.2127 54.6657 3.9238 0.0000 -12.0074 0.0000
# 3 46.6174 3.9238 120.3845 0.0000 -19.6168 0.0000
# 4 0.0000 0.0000 0.0000 20.0916 0.0000 -19.0944
# 5 -36.5077 -12.0074 -19.6168 0.0000 52.6828 0.0000
# 6 0.0000 0.0000 0.0000 -19.0944 0.0000 19.0281
#
#
#
# Elastic Compliance Matrix: (Units=1/GPa)
#
#
# Indices 1 2 3 4 5 6 
#
# 1 0.019101 0.000349 -0.005576 0.000000 0.011239 0.000000
# 2 0.000349 0.019264 -0.000009 0.000000 0.004629 0.000000
# 3 -0.005576 -0.000009 0.010472 0.000000 0.000033 0.000000
# 4 0.000000 0.000000 0.000000 1.074569 0.000000 1.078312
# 5 0.011239 0.004629 0.000033 0.000000 0.027837 0.000000
# 6 0.000000 0.000000 0.000000 1.078312 0.000000 1.134623
#
#
# Mechanical properties :
#
#
# Convention : Reuss Voigt Hill
#
# Bulk Modulus (GPa) = 26.06582 41.98578 34.02580
# Shear Modulus (GPa) = 2.16532 32.00122 17.08327
#
# Velocity S-wave (km/s) = 0.92967 3.57397 2.61128
# Velocity P-wave (km/s) = 3.39949 5.81288 4.76163
#
# Compressibility (1/GPa) = 0.03836442
#
# Stress axis : x y z
#
# Youngs Moduli (GPa) = 52.35408 51.90921 95.49490
#
# Poissons Ratio (x) = -0.01811 0.53252
# Poissons Ratio (y) = -0.01826 0.00082
# Poissons Ratio (z) = 0.29195 0.00045
#
# Static dielectric constant tensor:
#      x y z
#    x 2.016590 0.000000 0.073490 
#    y 0.000000 2.078660 0.000000 
#    z 0.073490 0.000000 2.156920 
# 
# From -- ./inp_files/42006.got.cif
#   From: 2010.05.17/outbox.cif.g08.bks.cpg/sg5_22_cif.got.tgz:42006.got - 2010.06.03 18:56:24.
