data_PCOD9126379
_publ_section_title
;
Structure prediction by ZEFSAII (Michael W. Deem and Ramdas Pophale) SiO2 
 PCOD9126379
Probable space group: C 2
;
_chemical_formula_sum "Si O2"
_cell_formula_units_Z 28
_cell_length_a 17.088127
_cell_length_b 5.307039
_cell_length_c 15.202043
_cell_angle_alpha 90.000000
_cell_angle_beta 116.864843
_cell_angle_gamma 90.000000
_cell_volume 1229.844085
_symmetry_space_group_name_H-M "C 2"
_symmetry_group_IT_number 5
_symmetry_cell_setting 'monoclinic'
loop_
_space_group_symop_operation_xyz
x,y,z
-x,y,-z
1/2+x,1/2+y,z
1/2-x,1/2+y,-z
loop_
_atom_site_type_symbol
_atom_site_label
_atom_site_fract_x
_atom_site_fract_y
_atom_site_fract_z
Si Si1 0.126670 0.770840 0.746158
Si Si2 0.971985 0.616627 0.783169
Si Si3 0.659579 0.913832 0.405775
Si Si4 0.993824 0.116259 0.100937
Si Si5 0.325121 0.184023 0.415349
Si Si6 0.794165 0.028468 0.057134
Si Si7 0.469709 0.547342 0.571679
O O1 0.162422 0.619486 0.680219
O O2 0.197586 0.924059 0.838759
O O3 0.067389 0.613447 0.784149
O O4 0.055370 0.959355 0.666988
O O5 0.899186 0.624452 0.670449
O O6 0.963488 0.361502 0.833688
O O7 0.965437 0.860159 0.840489
O O8 0.740771 0.859905 0.384495
O O9 0.590823 0.693103 0.390807
O O10 0.693044 0.972782 0.520995
O O11 0.891980 0.100000 0.076677
O O12 0.000000 0.129497 0.000000
O O13 0.411231 0.328070 0.496512
O O14 0.761432 0.783201 0.985523
O O15 0.500000 0.705682 0.500000
#
# Coordination Sequence:
#
# PCOD9126379 Si02
#       7
#     4   4   4   4   4   4   4
#     4  10  23  45  67  95 132 178 233 269 346 406
#     4  11  24  42  73 100 136 180 231 276 336 417
#     4  12  23  39  63  95 142 174 228 279 340 393
#     4  11  25  47  72 102 133 177 230 286 345 407
#     4  11  24  41  60  98 136 177 223 283 336 400
#     4  11  24  45  70 100 135 172 225 290 342 405
#     4  10  22  40  63  91 130 182 225 272 329 411
#
# _framework density 22.767112999999998
#
# number of rings (size 3 to 8) (size 9 to 14) (size 15 to 20)
#    0.000    1.143    2.857    3.857    2.000    2.286 
#    2.571    0.000    0.000    0.000    0.000    0.000 
#    0.000    0.000    0.000    0.000    0.000    0.000 
#
# Total GULP energy -78264.840299 kJ/mol
# GULP energy per Si atom -5590.345736 kJ/mol
# Density = 2.271529 g / cm^3
# Si number density = 22.767113 Si / 1000 Ang^3
#
#
#
# Elastic Constant Matrix: (Units=GPa)
#
#
# Indices 1 2 3 4 5 6 
#
# 1 40.7606 5.7484 21.5873 0.0000 -12.1894 0.0000
# 2 5.7484 96.9355 42.6003 0.0000 -5.5507 0.0000
# 3 21.5873 42.6003 116.4376 0.0000 -22.0205 0.0000
# 4 0.0000 0.0000 0.0000 33.2926 0.0000 4.0351
# 5 -12.1894 -5.5507 -22.0205 0.0000 49.0026 0.0000
# 6 0.0000 0.0000 0.0000 4.0351 0.0000 14.4026
#
#
#
# Elastic Compliance Matrix: (Units=1/GPa)
#
#
# Indices 1 2 3 4 5 6 
#
# 1 0.028363 0.000593 -0.004512 0.000000 0.005095 0.000000
# 2 0.000593 0.012326 -0.004730 0.000000 -0.000582 0.000000
# 3 -0.004512 -0.004730 0.011849 0.000000 0.003666 0.000000
# 4 0.000000 0.000000 0.000000 0.031092 0.000000 -0.008711
# 5 0.005095 -0.000582 0.003666 0.000000 0.023256 0.000000
# 6 0.000000 0.000000 0.000000 -0.008711 0.000000 0.071872
#
#
# Mechanical properties :
#
#
# Convention : Reuss Voigt Hill
#
# Bulk Modulus (GPa) = 28.37659 43.77838 36.07748
# Shear Modulus (GPa) = 24.06127 31.61941 27.84034
#
# Velocity S-wave (km/s) = 3.25444 3.73073 3.50069
# Velocity P-wave (km/s) = 5.15875 6.15047 5.67631
#
# Compressibility (1/GPa) = 0.03524032
#
# Stress axis : x y z
#
# Youngs Moduli (GPa) = 35.25715 81.12799 84.39875
#
# Poissons Ratio (x) = -0.04807 0.38078
# Poissons Ratio (y) = -0.02089 0.39917
# Poissons Ratio (z) = 0.15907 0.38370
#
# Static dielectric constant tensor:
#      x y z
#    x 1.889420 0.000000 -0.003970 
#    y 0.000000 1.901210 0.000000 
#    z -0.003970 0.000000 1.861110 
# 
# From -- ./inp_files/55504.got.cif
#   From: 2010.05.17/outbox.cif.g08.bks.cpg/sg5_28_cif.got.tgz:55504.got - 2010.06.03 18:56:24.
