data_PCOD9126368
_publ_section_title
;
Structure prediction by ZEFSAII (Michael W. Deem and Ramdas Pophale) SiO2 
 PCOD9126368
Probable space group: C 2
;
_chemical_formula_sum "Si O2"
_cell_formula_units_Z 28
_cell_length_a 10.211116
_cell_length_b 11.186321
_cell_length_c 11.423494
_cell_angle_alpha 90.000000
_cell_angle_beta 97.357219
_cell_angle_gamma 90.000000
_cell_volume 1294.103830
_symmetry_space_group_name_H-M "C 2"
_symmetry_group_IT_number 5
_symmetry_cell_setting 'monoclinic'
loop_
_space_group_symop_operation_xyz
x,y,z
-x,y,-z
1/2+x,1/2+y,z
1/2-x,1/2+y,-z
loop_
_atom_site_type_symbol
_atom_site_label
_atom_site_fract_x
_atom_site_fract_y
_atom_site_fract_z
Si Si1 0.162734 0.720170 0.339417
Si Si2 0.271265 0.902836 0.171048
Si Si3 0.219294 0.831947 0.590466
Si Si4 0.363447 0.878685 0.930338
Si Si5 0.647736 0.649672 0.224659
Si Si6 0.425238 0.560179 0.369062
Si Si7 0.558217 0.978008 0.291161
O O1 0.183618 0.809347 0.233701
O O2 0.163675 0.795125 0.458806
O O3 0.294638 0.639600 0.359193
O O4 0.049429 0.618838 0.316612
O O5 0.216387 0.034792 0.180751
O O6 0.420257 0.912497 0.244302
O O7 0.271022 0.875204 0.032585
O O8 0.259233 0.717109 0.670637
O O9 0.116207 0.921120 0.640426
O O10 0.357785 0.907672 0.600378
O O11 0.379315 0.747472 0.877693
O O12 0.348951 0.961826 0.814695
O O13 0.500000 0.922791 0.000000
O O14 0.517126 0.605739 0.275785
O O15 0.500000 0.577549 0.500000
#
# Coordination Sequence:
#
# PCOD9126368 Si02
#       7
#     4   4   4   4   4   4   4
#     4  11  22  38  66  92 127 167 215 262 326 378
#     4  11  24  38  66  92 124 170 216 264 324 384
#     4  10  22  40  62  94 126 168 213 264 319 391
#     4   9  20  43  65  85 119 167 221 265 314 382
#     4  11  23  41  63  95 129 169 211 265 334 377
#     4  11  21  38  64  92 131 165 213 262 318 392
#     4   9  22  41  63  88 124 166 214 261 321 380
#
# _framework density 21.636593999999999
#
# number of rings (size 3 to 8) (size 9 to 14) (size 15 to 20)
#    0.000    1.714    1.429    3.429    4.000    2.286 
#    2.571    0.000    0.000    0.000    0.000    0.000 
#    0.000    0.000    0.000    0.000    0.000    0.000 
#
# Total GULP energy -78184.323724 kJ/mol
# GULP energy per Si atom -5584.594552 kJ/mol
# Density = 2.158735 g / cm^3
# Si number density = 21.636594 Si / 1000 Ang^3
#
#
#
# Elastic Constant Matrix: (Units=GPa)
#
#
# Indices 1 2 3 4 5 6 
#
# 1 53.1566 21.4822 8.0327 0.0000 -7.4263 0.0000
# 2 21.4822 108.5097 28.7084 0.0000 -16.5944 0.0000
# 3 8.0327 28.7084 70.1343 0.0000 -13.3974 0.0000
# 4 0.0000 0.0000 0.0000 29.5828 0.0000 -3.1625
# 5 -7.4263 -16.5944 -13.3974 0.0000 26.7284 0.0000
# 6 0.0000 0.0000 0.0000 -3.1625 0.0000 29.4956
#
#
#
# Elastic Compliance Matrix: (Units=1/GPa)
#
#
# Indices 1 2 3 4 5 6 
#
# 1 0.020754 -0.003507 -0.000283 0.000000 0.003447 0.000000
# 2 -0.003507 0.011503 -0.003460 0.000000 0.004433 0.000000
# 3 -0.000283 -0.003460 0.016900 0.000000 0.006244 0.000000
# 4 0.000000 0.000000 0.000000 0.034195 0.000000 0.003666
# 5 0.003447 0.004433 0.006244 0.000000 0.044253 0.000000
# 6 0.000000 0.000000 0.000000 0.003666 0.000000 0.034296
#
#
# Mechanical properties :
#
#
# Convention : Reuss Voigt Hill
#
# Bulk Modulus (GPa) = 28.85400 38.69415 33.77407
# Shear Modulus (GPa) = 26.60213 28.73318 27.66766
#
# Velocity S-wave (km/s) = 3.51022 3.64811 3.57983
# Velocity P-wave (km/s) = 5.45835 5.97222 5.72106
#
# Compressibility (1/GPa) = 0.03465724
#
# Stress axis : x y z
#
# Youngs Moduli (GPa) = 48.18377 86.93041 59.17175
#
# Poissons Ratio (x) = 0.30483 0.01675
# Poissons Ratio (y) = 0.16896 0.20475
# Poissons Ratio (z) = 0.01364 0.30080
#
# Static dielectric constant tensor:
#      x y z
#    x 1.843780 0.000000 0.011770 
#    y 0.000000 1.791180 0.000000 
#    z 0.011770 0.000000 1.802020 
# 
# From -- ./inp_files/38864.got.cif
#   From: 2010.05.17/outbox.cif.g08.bks.cpg/sg5_20_cif.got.tgz:38864.got - 2010.06.03 18:56:24.
