data_PCOD9126493
_publ_section_title
;
Structure prediction by ZEFSAII (Michael W. Deem and Ramdas Pophale) SiO2 
 PCOD9126493
Probable space group: C 2
;
_chemical_formula_sum "Si O2"
_cell_formula_units_Z 24
_cell_length_a 11.693835
_cell_length_b 10.312969
_cell_length_c 7.453041
_cell_angle_alpha 90.000000
_cell_angle_beta 76.387567
_cell_angle_gamma 90.000000
_cell_volume 873.575034
_symmetry_space_group_name_H-M "C 2"
_symmetry_group_IT_number 5
_symmetry_cell_setting 'monoclinic'
loop_
_space_group_symop_operation_xyz
x,y,z
-x,y,-z
1/2+x,1/2+y,z
1/2-x,1/2+y,-z
loop_
_atom_site_type_symbol
_atom_site_label
_atom_site_fract_x
_atom_site_fract_y
_atom_site_fract_z
Si Si1 0.083345 0.979110 0.734186
Si Si2 0.919933 0.330349 0.855792
Si Si3 0.137177 0.886281 0.304100
Si Si4 0.154491 0.254141 0.655338
Si Si5 0.798067 0.727385 0.229671
Si Si6 0.025813 0.600435 0.283597
O O1 0.113060 0.936701 0.516321
O O2 0.132685 0.861114 0.828058
O O3 0.941527 0.980837 0.787695
O O4 0.146114 0.112875 0.745964
O O5 0.807208 0.239246 0.872997
O O6 0.021169 0.294227 0.674732
O O7 0.899630 0.483941 0.829760
O O8 0.000000 0.310162 0.000000
O O9 0.275718 0.861241 0.253483
O O10 0.086275 0.742104 0.280839
O O11 0.228602 0.235158 0.445409
O O12 0.903290 0.624856 0.220567
O O13 0.000000 0.565746 0.500000
#
# Coordination Sequence:
#
# PCOD9126493 Si02
#       6
#     4   4   4   4   4   4
#     4   9  18  34  63  98 129 146 205 291 339 384
#     4  12  29  44  57  98 150 190 221 258 335 428
#     4   9  18  35  62 102 125 147 211 283 348 378
#     4  11  21  36  68  95 130 171 215 287 333 385
#     4  10  22  40  69 103 123 168 232 287 341 385
#     4  11  19  44  75  99 128 165 226 301 337 389
#
# _framework density 27.473312
#
# number of rings (size 3 to 8) (size 9 to 14) (size 15 to 20)
#    0.000    1.667    5.000    2.500    9.333    0.000 
#    6.000    0.000    0.000    0.000    0.000    0.000 
#    0.000    0.000    0.000    0.000    0.000    0.000 
#
# Total GULP energy -67087.035360 kJ/mol
# GULP energy per Si atom -5590.586280 kJ/mol
# Density = 2.741078 g / cm^3
# Si number density = 27.473312 Si / 1000 Ang^3
#
#
#
# Elastic Constant Matrix: (Units=GPa)
#
#
# Indices 1 2 3 4 5 6 
#
# 1 153.4644 44.7948 39.4749 0.0000 38.8064 0.0000
# 2 44.7948 134.1715 19.7945 0.0000 8.1329 0.0000
# 3 39.4749 19.7945 87.1459 0.0000 8.1143 0.0000
# 4 0.0000 0.0000 0.0000 18.2808 0.0000 -2.6338
# 5 38.8064 8.1329 8.1143 0.0000 32.5680 0.0000
# 6 0.0000 0.0000 0.0000 -2.6338 0.0000 13.2051
#
#
#
# Elastic Compliance Matrix: (Units=1/GPa)
#
#
# Indices 1 2 3 4 5 6 
#
# 1 0.011075 -0.002491 -0.003358 0.000000 -0.011738 0.000000
# 2 -0.002491 0.008346 -0.000870 0.000000 0.001100 0.000000
# 3 -0.003358 -0.000870 0.013105 0.000000 0.000954 0.000000
# 4 0.000000 0.000000 0.000000 0.056321 0.000000 0.011233
# 5 -0.011738 0.001100 0.000954 0.000000 0.044179 0.000000
# 6 0.000000 0.000000 0.000000 0.011233 0.000000 0.077969
#
#
# Mechanical properties :
#
#
# Convention : Reuss Voigt Hill
#
# Bulk Modulus (GPa) = 52.38651 64.76778 58.57714
# Shear Modulus (GPa) = 21.66425 30.85863 26.26144
#
# Velocity S-wave (km/s) = 2.81117 3.35509 3.09510
# Velocity P-wave (km/s) = 5.44486 6.21569 5.84300
#
# Compressibility (1/GPa) = 0.01908888
#
# Stress axis : x y z
#
# Youngs Moduli (GPa) = 90.29284 119.81294 76.30686
#
# Poissons Ratio (x) = 0.29841 0.25624
# Poissons Ratio (y) = 0.22489 0.06639
# Poissons Ratio (z) = 0.30321 0.10424
#
# Static dielectric constant tensor:
#      x y z
#    x 2.244690 0.000000 -0.265970 
#    y 0.000000 2.097810 0.000000 
#    z -0.265970 0.000000 2.720810 
# 
# From -- ./inp_files/19343.got.cif
#   From: 2010.05.17/outbox.cif.g08.bks.cpg/sg5_10_cif.got.tgz:19343.got - 2010.06.03 18:56:24.
