data_PCOD9126457
_publ_section_title
;
Structure prediction by ZEFSAII (Michael W. Deem and Ramdas Pophale) SiO2 
 PCOD9126457
Probable space group: C 2
;
_chemical_formula_sum "Si O2"
_cell_formula_units_Z 32
_cell_length_a 14.629992
_cell_length_b 7.369928
_cell_length_c 28.802012
_cell_angle_alpha 90.000000
_cell_angle_beta 152.121700
_cell_angle_gamma 90.000000
_cell_volume 1452.111889
_symmetry_space_group_name_H-M "C 2"
_symmetry_group_IT_number 5
_symmetry_cell_setting 'monoclinic'
loop_
_space_group_symop_operation_xyz
x,y,z
-x,y,-z
1/2+x,1/2+y,z
1/2-x,1/2+y,-z
loop_
_atom_site_type_symbol
_atom_site_label
_atom_site_fract_x
_atom_site_fract_y
_atom_site_fract_z
Si Si1 0.596366 0.966380 0.392205
Si Si2 0.297082 0.466126 0.260267
Si Si3 0.967972 0.568655 0.040942
Si Si4 0.761712 0.070415 0.559687
Si Si5 0.719468 0.746343 0.590520
Si Si6 0.709700 0.687193 0.007115
Si Si7 0.168786 0.051146 0.204814
Si Si8 0.924147 0.717161 0.774253
O O1 0.707964 0.784363 0.427441
O O2 0.369101 0.963451 0.275848
O O3 0.608764 0.998698 0.452867
O O4 0.706861 0.138276 0.420968
O O5 0.525707 0.486403 0.356151
O O6 0.244356 0.598299 0.278354
O O7 0.174286 0.542591 0.160786
O O8 0.227936 0.261252 0.240602
O O9 0.825471 0.695446 0.009207
O O10 0.864052 0.375354 0.004088
O O11 0.000000 0.604229 0.000000
O O12 0.709706 0.964104 0.582623
O O13 0.500000 0.680327 0.500000
O O14 0.884018 0.708899 0.702492
O O15 0.876573 0.626850 0.117850
O O16 0.515747 0.569750 0.912259
O O17 0.097146 0.920447 0.214347
#
# Coordination Sequence:
#
# PCOD9126457 Si02
#       8
#     4   4   4   4   4   4   4   4
#     4  12  24  43  72 100 138 183 239 293 362 448
#     4  10  22  40  69  98 133 182 233 287 363 430
#     4  10  22  40  67  97 136 192 241 295 367 431
#     4  12  23  43  70 100 133 183 234 287 362 431
#     4  12  27  43  68 106 140 179 238 300 364 435
#     4  10  22  41  67  99 144 188 241 304 362 432
#     4  11  21  42  71  96 137 188 233 292 364 420
#     4  11  23  42  69 100 144 181 229 305 361 423
#
# _framework density 22.036871000000001
#
# number of rings (size 3 to 8) (size 9 to 14) (size 15 to 20)
#    0.000    1.000    5.000    1.500    1.750    1.500 
#    0.000    3.125    0.000    0.000    0.000    0.000 
#    0.000    0.000    0.000    0.000    0.000    0.000 
#
# Total GULP energy -89240.082888 kJ/mol
# GULP energy per Si atom -5577.505180 kJ/mol
# Density = 2.198671 g / cm^3
# Si number density = 22.036871 Si / 1000 Ang^3
#
#
#
# Elastic Constant Matrix: (Units=GPa)
#
#
# Indices 1 2 3 4 5 6 
#
# 1 34.6810 -6.0118 27.6615 0.0000 -2.2437 0.0000
# 2 -6.0118 80.4612 7.7462 0.0001 1.6309 -0.0001
# 3 27.6615 7.7462 91.1201 0.0000 16.1598 -0.0001
# 4 0.0000 0.0001 0.0000 28.7294 0.0000 0.1894
# 5 -2.2437 1.6309 16.1598 0.0000 42.3943 0.0000
# 6 0.0000 -0.0001 -0.0001 0.1894 0.0000 20.9942
#
#
#
# Elastic Compliance Matrix: (Units=1/GPa)
#
#
# Indices 1 2 3 4 5 6 
#
# 1 0.041453 0.004320 -0.014276 0.000000 0.007469 0.000000
# 2 0.004320 0.012981 -0.002539 0.000000 0.000697 0.000000
# 3 -0.014276 -0.002539 0.016775 0.000000 -0.007052 0.000000
# 4 0.000000 0.000000 0.000000 0.034810 0.000000 -0.000314
# 5 0.007469 0.000697 -0.007052 0.000000 0.026645 0.000000
# 6 0.000000 0.000000 0.000000 -0.000314 0.000000 0.047635
#
#
# Mechanical properties :
#
#
# Convention : Reuss Voigt Hill
#
# Bulk Modulus (GPa) = 21.63547 29.45044 25.54296
# Shear Modulus (GPa) = 22.65586 30.21466 26.43526
#
# Velocity S-wave (km/s) = 3.20986 3.70685 3.46727
# Velocity P-wave (km/s) = 4.85559 5.63153 5.25789
#
# Compressibility (1/GPa) = 0.04622039
#
# Stress axis : x y z
#
# Youngs Moduli (GPa) = 24.12388 77.03316 59.61357
#
# Poissons Ratio (x) = -0.33280 0.85103
# Poissons Ratio (y) = -0.10422 0.15134
# Poissons Ratio (z) = 0.34439 0.19556
#
# Static dielectric constant tensor:
#      x y z
#    x 1.837660 0.000000 -0.005850 
#    y 0.000000 1.835510 0.000000 
#    z -0.005850 0.000000 1.832020 
# 
# From -- ./inp_files/70618.got.cif
#   From: 2010.05.17/outbox.cif.g08.bks.cpg/sg5_36_cif.got.tgz:70618.got - 2010.06.03 18:56:24.
