data_PCOD9126198
_publ_section_title
;
Structure prediction by ZEFSAII (Michael W. Deem and Ramdas Pophale) SiO2 
 PCOD9126198
Probable space group: C 2
;
_chemical_formula_sum "Si O2"
_cell_formula_units_Z 20
_cell_length_a 15.283732
_cell_length_b 10.812376
_cell_length_c 4.766124
_cell_angle_alpha 90.000000
_cell_angle_beta 92.579999
_cell_angle_gamma 90.000000
_cell_volume 786.820094
_symmetry_space_group_name_H-M "C 2"
_symmetry_group_IT_number 5
_symmetry_cell_setting 'monoclinic'
loop_
_space_group_symop_operation_xyz
x,y,z
-x,y,-z
1/2+x,1/2+y,z
1/2-x,1/2+y,-z
loop_
_atom_site_type_symbol
_atom_site_label
_atom_site_fract_x
_atom_site_fract_y
_atom_site_fract_z
Si Si1 0.195848 0.936640 0.854840
Si Si2 0.000000 0.651583 0.500000
Si Si3 0.196929 0.206993 0.890340
Si Si4 0.500000 0.987880 0.000000
Si Si5 0.087359 0.270944 0.342061
Si Si6 0.916888 0.892991 0.661432
O O1 0.167734 0.930522 0.528478
O O2 0.239233 0.071328 0.894958
O O3 0.249962 0.817921 0.960360
O O4 0.106138 0.922721 0.024220
O O5 0.069099 0.745232 0.369762
O O6 0.039502 0.570776 0.757096
O O7 0.162625 0.253881 0.585245
O O8 0.113276 0.188019 0.083159
O O9 0.432925 0.901442 0.816349
O O10 0.000000 0.241668 0.500000
O O11 0.000000 0.945812 0.500000
#
# Coordination Sequence:
#
# PCOD9126198 Si02
#       6
#     4   2   4   2   4   4
#     4  12  26  49  70 107 149 198 239 300 366 440
#     4  10  22  38  70 108 146 184 230 302 368 428
#     4  12  28  45  74 103 151 198 240 297 372 433
#     4  12  20  42  68 108 148 182 234 302 370 424
#     4  12  24  47  70 110 138 184 253 306 357 428
#     4  10  24  45  73 107 142 181 254 301 359 424
#
# _framework density 25.418769000000001
#
# number of rings (size 3 to 8) (size 9 to 14) (size 15 to 20)
#    0.600    0.000    3.000    4.200    0.000    9.600 
#    0.000    0.000    0.000    0.000    0.000    0.000 
#    0.000    0.000    0.000    0.000    0.000    0.000 
#
# Total GULP energy -55879.397885 kJ/mol
# GULP energy per Si atom -5587.939788 kJ/mol
# Density = 2.536091 g / cm^3
# Si number density = 25.418769 Si / 1000 Ang^3
#
#
#
# Elastic Constant Matrix: (Units=GPa)
#
#
# Indices 1 2 3 4 5 6 
#
# 1 55.6029 28.3009 7.4341 0.0000 -9.0358 0.0000
# 2 28.3009 163.9326 27.6426 0.0000 23.0878 0.0000
# 3 7.4341 27.6426 155.7899 0.0000 -0.5355 0.0000
# 4 0.0000 0.0000 0.0000 23.7969 0.0000 -2.7305
# 5 -9.0358 23.0878 -0.5355 0.0000 40.5112 0.0000
# 6 0.0000 0.0000 0.0000 -2.7305 0.0000 21.3161
#
#
#
# Elastic Compliance Matrix: (Units=1/GPa)
#
#
# Indices 1 2 3 4 5 6 
#
# 1 0.021665 -0.004777 -0.000160 0.000000 0.007552 0.000000
# 2 -0.004777 0.007914 -0.001195 0.000000 -0.005591 0.000000
# 3 -0.000160 -0.001195 0.006641 0.000000 0.000733 0.000000
# 4 0.000000 0.000000 0.000000 0.042649 0.000000 0.005463
# 5 0.007552 -0.005591 0.000733 0.000000 0.029565 0.000000
# 6 0.000000 0.000000 0.000000 0.005463 0.000000 0.047613
#
#
# Mechanical properties :
#
#
# Convention : Reuss Voigt Hill
#
# Bulk Modulus (GPa) = 41.74557 55.78673 48.76615
# Shear Modulus (GPa) = 28.36128 37.92137 33.14133
#
# Velocity S-wave (km/s) = 3.34393 3.86666 3.61475
# Velocity P-wave (km/s) = 5.60071 6.47529 6.05381
#
# Compressibility (1/GPa) = 0.02395464
#
# Stress axis : x y z
#
# Youngs Moduli (GPa) = 46.15801 126.36189 150.57550
#
# Poissons Ratio (x) = 0.60360 0.02413
# Poissons Ratio (y) = 0.22049 0.18001
# Poissons Ratio (z) = 0.00740 0.15106
#
# Static dielectric constant tensor:
#      x y z
#    x 2.117320 0.000000 -0.016710 
#    y 0.000000 2.094240 0.000000 
#    z -0.016710 0.000000 1.892480 
# 
# From -- ./inp_files/6549.got.cif
#   From: 2010.05.17/outbox.cif.g08.bks.cpg/sg5_4_cif.got.tgz:6549.got - 2010.06.03 18:56:24.
