data_PCOD9126669
_publ_section_title
;
Structure prediction by ZEFSAII (Michael W. Deem and Ramdas Pophale) SiO2 
 PCOD9126669
Probable space group: C 2
;
_chemical_formula_sum "Si O2"
_cell_formula_units_Z 28
_cell_length_a 12.920893
_cell_length_b 16.912408
_cell_length_c 6.728211
_cell_angle_alpha 90.000000
_cell_angle_beta 53.009428
_cell_angle_gamma 90.000000
_cell_volume 1174.356723
_symmetry_space_group_name_H-M "C 2"
_symmetry_group_IT_number 5
_symmetry_cell_setting 'monoclinic'
loop_
_space_group_symop_operation_xyz
x,y,z
-x,y,-z
1/2+x,1/2+y,z
1/2-x,1/2+y,-z
loop_
_atom_site_type_symbol
_atom_site_label
_atom_site_fract_x
_atom_site_fract_y
_atom_site_fract_z
Si Si1 0.819313 0.266370 0.677451
Si Si2 0.643305 0.069875 0.751917
Si Si3 0.083278 0.964991 0.100746
Si Si4 0.748334 0.696587 0.644662
Si Si5 0.647779 0.618090 0.148206
Si Si6 0.857664 0.452450 0.592489
Si Si7 0.385701 0.296788 0.766673
O O1 0.830109 0.226936 0.451249
O O2 0.890868 0.205602 0.738661
O O3 0.857866 0.357100 0.606714
O O4 0.673517 0.267840 0.952380
O O5 0.645244 0.143571 0.595388
O O6 0.744789 0.089002 0.812908
O O7 0.672927 0.991687 0.586017
O O8 0.500000 0.060844 0.000000
O O9 0.075536 0.886274 0.238159
O O10 0.044921 0.047998 0.242927
O O11 0.235901 0.973730 0.872533
O O12 0.000000 0.952378 0.000000
O O13 0.774266 0.776766 0.738822
O O14 0.695710 0.636607 0.869377
O O15 0.000000 0.480514 0.500000
O O16 0.500000 0.258186 0.500000
#
# Coordination Sequence:
#
# PCOD9126669 Si02
#       7
#     4   4   4   4   4   4   4
#     4   9  23  44  68 100 140 186 236 284 358 420
#     4  11  24  38  72 107 137 185 239 288 360 413
#     4  11  25  46  73 104 143 185 238 289 355 422
#     4  10  22  41  68  98 149 177 234 293 350 420
#     4  10  22  46  66 101 139 185 236 291 350 422
#     4  11  24  48  72 101 146 184 236 295 348 428
#     4  10  24  37  67 102 141 183 232 285 353 413
#
# _framework density 23.842841
#
# number of rings (size 3 to 8) (size 9 to 14) (size 15 to 20)
#    0.000    1.714    1.429    0.857   12.000    0.000 
#    5.143    0.000    0.000    0.000    0.000    0.000 
#    0.000    0.000    0.000    0.000    0.000    0.000 
#
# Total GULP energy -77974.398706 kJ/mol
# GULP energy per Si atom -5569.599908 kJ/mol
# Density = 2.378857 g / cm^3
# Si number density = 23.842841 Si / 1000 Ang^3
#
#
#
# Elastic Constant Matrix: (Units=GPa)
#
#
# Indices 1 2 3 4 5 6 
#
# 1 71.3365 30.3582 55.5878 0.0000 9.0778 0.0000
# 2 30.3582 159.9357 25.0874 0.0000 36.9020 0.0000
# 3 55.5878 25.0874 146.8459 0.0000 22.6991 0.0000
# 4 0.0000 0.0000 0.0000 4.3922 0.0000 26.4153
# 5 9.0778 36.9020 22.6991 0.0000 34.9352 0.0000
# 6 0.0000 0.0000 0.0000 26.4153 0.0000 17.3235
#
#
#
# Elastic Compliance Matrix: (Units=1/GPa)
#
#
# Indices 1 2 3 4 5 6 
#
# 1 0.021339 -0.003591 -0.007997 0.000000 0.003444 0.000000
# 2 -0.003591 0.008872 0.001276 0.000000 -0.009268 0.000000
# 3 -0.007997 0.001276 0.010568 0.000000 -0.006136 0.000000
# 4 0.000000 0.000000 0.000000 -0.027866 0.000000 0.042490
# 5 0.003444 -0.009268 -0.006136 0.000000 0.041506 0.000000
# 6 0.000000 0.000000 0.000000 0.042490 0.000000 -0.007065
#
#
# Mechanical properties :
#
#
# Convention : Reuss Voigt Hill
#
# Bulk Modulus (GPa) = 49.61236 66.68723 58.14979
# Shear Modulus (GPa) = 66.93792 29.13585 48.03689
#
# Velocity S-wave (km/s) = 5.30430 3.49950 4.49344
# Velocity P-wave (km/s) = 7.63985 6.66025 7.16681
#
# Compressibility (1/GPa) = 0.02015627
#
# Stress axis : x y z
#
# Youngs Moduli (GPa) = 46.86194 112.71039 94.62967
#
# Poissons Ratio (x) = 0.40471 0.75673
# Poissons Ratio (y) = 0.16827 -0.12076
# Poissons Ratio (z) = 0.37474 -0.14383
#
# Static dielectric constant tensor:
#      x y z
#    x 1.998040 0.000000 -0.103410 
#    y 0.000000 1.955780 0.000000 
#    z -0.103410 0.000000 1.982610 
# 
# From -- ./inp_files/7253.got.cif
#   From: 2010.05.17/outbox.cif.g08.bks.cpg/sg5_4_cif.got.tgz:7253.got - 2010.06.03 18:56:24.
