data_PCOD9126473
_publ_section_title
;
Structure prediction by ZEFSAII (Michael W. Deem and Ramdas Pophale) SiO2 
 PCOD9126473
Probable space group: C 2
;
_chemical_formula_sum "Si O2"
_cell_formula_units_Z 30
_cell_length_a 29.736349
_cell_length_b 8.036733
_cell_length_c 17.190300
_cell_angle_alpha 90.000000
_cell_angle_beta 160.564589
_cell_angle_gamma 90.000000
_cell_volume 1366.976019
_symmetry_space_group_name_H-M "C 2"
_symmetry_group_IT_number 5
_symmetry_cell_setting 'monoclinic'
loop_
_space_group_symop_operation_xyz
x,y,z
-x,y,-z
1/2+x,1/2+y,z
1/2-x,1/2+y,-z
loop_
_atom_site_type_symbol
_atom_site_label
_atom_site_fract_x
_atom_site_fract_y
_atom_site_fract_z
Si Si1 0.420895 0.683490 0.691963
Si Si2 0.645147 0.180854 0.201022
Si Si3 0.274293 0.224733 0.176464
Si Si4 0.423234 0.985760 0.060772
Si Si5 0.000000 0.959538 0.500000
Si Si6 0.116112 0.067766 0.128391
Si Si7 0.985804 0.062270 0.307680
Si Si8 0.393600 0.200017 0.529218
O O1 0.269418 0.625567 0.457898
O O2 0.463691 0.863887 0.792158
O O3 0.438454 0.688092 0.627098
O O4 0.533934 0.564833 0.913007
O O5 0.659830 0.380520 0.218644
O O6 0.500000 0.146490 0.000000
O O7 0.644752 0.095568 0.116385
O O8 0.373041 0.334033 0.284179
O O9 0.361204 0.142328 0.387895
O O10 0.184553 0.362460 0.075930
O O11 0.172021 0.101090 0.966538
O O12 0.498334 0.092885 0.247953
O O13 0.013870 0.067708 0.444964
O O14 0.248425 0.182360 0.336222
O O15 0.000000 0.121442 0.000000
O O16 0.043811 0.883563 0.375946
#
# Coordination Sequence:
#
# PCOD9126473 Si02
#       8
#     4   4   4   4   2   4   4   4
#     4  11  23  43  61  93 132 168 218 271 320 388
#     4  11  25  39  59  94 130 174 225 271 320 375
#     4  10  23  45  63 100 127 167 216 267 323 395
#     4  11  23  39  65  92 126 171 221 261 326 388
#     4  10  22  40  68  94 130 160 216 270 326 396
#     4  11  24  42  62  95 134 172 224 273 320 377
#     4  10  22  42  69  91 130 171 209 267 329 385
#     4  11  21  41  64  91 126 177 209 270 324 379
#
# _framework density 21.946252999999999
#
# number of rings (size 3 to 8) (size 9 to 14) (size 15 to 20)
#    0.000    1.333    4.000    2.400    1.867    2.667 
#    0.000    4.000    0.000    1.600    0.000    0.000 
#    0.000    0.000    0.000    0.000    0.000    0.000 
#
# Total GULP energy -83741.635712 kJ/mol
# GULP energy per Si atom -5582.775714 kJ/mol
# Density = 2.189630 g / cm^3
# Si number density = 21.946253 Si / 1000 Ang^3
#
#
#
# Elastic Constant Matrix: (Units=GPa)
#
#
# Indices 1 2 3 4 5 6 
#
# 1 64.6178 16.2679 6.9593 0.0000 1.6621 0.0000
# 2 16.2679 46.4728 21.0868 0.0000 -5.5931 0.0000
# 3 6.9593 21.0868 123.6734 0.0000 -5.0389 0.0000
# 4 0.0000 0.0000 0.0000 39.5291 0.0000 -0.2849
# 5 1.6621 -5.5931 -5.0389 0.0000 30.9021 0.0000
# 6 0.0000 0.0000 0.0000 -0.2849 0.0000 26.7562
#
#
#
# Elastic Compliance Matrix: (Units=1/GPa)
#
#
# Indices 1 2 3 4 5 6 
#
# 1 0.017097 -0.006239 0.000018 0.000000 -0.002046 0.000000
# 2 -0.006239 0.026003 -0.003903 0.000000 0.004406 0.000000
# 3 0.000018 -0.003903 0.008780 0.000000 0.000724 0.000000
# 4 0.000000 0.000000 0.000000 0.025300 0.000000 0.000269
# 5 -0.002046 0.004406 0.000724 0.000000 0.033386 0.000000
# 6 0.000000 0.000000 0.000000 0.000269 0.000000 0.037377
#
#
# Mechanical properties :
#
#
# Convention : Reuss Voigt Hill
#
# Bulk Modulus (GPa) = 31.61360 35.93246 33.77303
# Shear Modulus (GPa) = 27.97435 32.13416 30.05426
#
# Velocity S-wave (km/s) = 3.57413 3.83067 3.70462
# Velocity P-wave (km/s) = 5.60971 5.99782 5.80701
#
# Compressibility (1/GPa) = 0.03163195
#
# Stress axis : x y z
#
# Youngs Moduli (GPa) = 58.48959 38.45664 113.89818
#
# Poissons Ratio (x) = 0.23995 -0.00210
# Poissons Ratio (y) = 0.36494 0.44455
# Poissons Ratio (z) = -0.00108 0.15010
#
# Static dielectric constant tensor:
#      x y z
#    x 1.856120 0.000000 0.018650 
#    y 0.000000 1.795170 0.000000 
#    z 0.018650 0.000000 1.848080 
# 
# From -- ./inp_files/63814.got.cif
#   From: 2010.05.17/outbox.cif.g08.bks.cpg/sg5_32_cif.got.tgz:63814.got - 2010.06.03 18:56:24.
