data_PCOD9126112
_publ_section_title
;
Structure prediction by ZEFSAII (Michael W. Deem and Ramdas Pophale) SiO2 
 PCOD9126112
Probable space group: C 2
;
_chemical_formula_sum "Si O2"
_cell_formula_units_Z 32
_cell_length_a 14.359087
_cell_length_b 16.531769
_cell_length_c 10.928998
_cell_angle_alpha 90.000000
_cell_angle_beta 37.463921
_cell_angle_gamma 90.000000
_cell_volume 1578.036334
_symmetry_space_group_name_H-M "C 2"
_symmetry_group_IT_number 5
_symmetry_cell_setting 'monoclinic'
loop_
_space_group_symop_operation_xyz
x,y,z
-x,y,-z
1/2+x,1/2+y,z
1/2-x,1/2+y,-z
loop_
_atom_site_type_symbol
_atom_site_label
_atom_site_fract_x
_atom_site_fract_y
_atom_site_fract_z
Si Si1 0.672876 0.820340 0.343184
Si Si2 0.832848 0.130517 0.647447
Si Si3 0.098406 0.937464 0.773373
Si Si4 0.636106 0.334994 0.103087
Si Si5 0.903497 0.545028 0.986805
Si Si6 0.827472 0.361415 0.143284
Si Si7 0.104655 0.742887 0.510952
Si Si8 0.691259 0.078002 0.540164
O O1 0.500000 0.852014 0.500000
O O2 0.661406 0.725816 0.383628
O O3 0.775792 0.866809 0.334865
O O4 0.768505 0.826658 0.118799
O O5 0.735742 0.107167 0.869458
O O6 0.767657 0.092317 0.592226
O O7 0.000000 0.098590 0.500000
O O8 0.973727 0.913523 0.800032
O O9 0.201128 0.014301 0.638518
O O10 0.000000 0.946741 0.000000
O O11 0.754143 0.333807 0.091773
O O12 0.511753 0.266115 0.259271
O O13 0.842300 0.458360 0.101380
O O14 0.000000 0.579416 0.000000
O O15 0.019344 0.544169 0.751771
O O16 0.715531 0.318832 0.359827
O O17 0.000000 0.336591 0.000000
O O18 0.184483 0.660782 0.470467
O O19 0.000000 0.728870 0.500000
#
# Coordination Sequence:
#
# PCOD9126112 Si02
#       8
#     4   4   4   4   4   4   4   4
#     4  10  22  41  63  92 123 162 217 258 307 379
#     4  10  22  38  62  96 123 157 207 262 307 375
#     4  10  24  42  62  91 124 167 214 259 312 383
#     4  10  22  39  66  90 126 170 205 259 319 373
#     4   9  21  38  60  92 124 159 207 255 309 376
#     4  10  23  39  63  99 126 165 213 259 313 388
#     4  10  23  42  63  94 128 168 208 262 320 383
#     4  11  23  41  64  88 128 170 204 258 327 365
#
# _framework density 20.278366999999999
#
# number of rings (size 3 to 8) (size 9 to 14) (size 15 to 20)
#    0.000    2.000    0.000    1.500    8.750    7.000 
#    2.250    2.500    0.000    0.000    0.000    0.000 
#    0.000    0.000    0.000    0.000    0.000    0.000 
#
# Total GULP energy -89128.086105 kJ/mol
# GULP energy per Si atom -5570.505382 kJ/mol
# Density = 2.023221 g / cm^3
# Si number density = 20.278367 Si / 1000 Ang^3
#
#
#
# Elastic Constant Matrix: (Units=GPa)
#
#
# Indices 1 2 3 4 5 6 
#
# 1 76.9562 18.1225 31.6708 -0.0001 -18.0165 -0.0001
# 2 18.1225 64.4421 32.4732 -0.0001 -7.2201 -0.0001
# 3 31.6708 32.4732 87.9328 -0.0002 -11.0759 -0.0002
# 4 -0.0001 -0.0001 -0.0002 55.1546 0.0001 26.8009
# 5 -18.0165 -7.2201 -11.0759 0.0001 23.6047 0.0001
# 6 -0.0001 -0.0001 -0.0002 26.8009 0.0001 58.8948
#
#
#
# Elastic Compliance Matrix: (Units=1/GPa)
#
#
# Indices 1 2 3 4 5 6 
#
# 1 0.017759 -0.001519 -0.004449 0.000000 0.011002 0.000000
# 2 -0.001519 0.019357 -0.006379 0.000000 0.001768 0.000000
# 3 -0.004449 -0.006379 0.015578 0.000000 0.001962 0.000000
# 4 0.000000 0.000000 0.000000 0.023278 0.000000 -0.010593
# 5 0.011002 0.001768 0.001962 0.000000 0.052224 0.000000
# 6 0.000000 0.000000 0.000000 -0.010593 0.000000 0.021800
#
#
# Mechanical properties :
#
#
# Convention : Reuss Voigt Hill
#
# Bulk Modulus (GPa) = 35.71512 43.76266 39.73889
# Shear Modulus (GPa) = 27.17032 37.33512 32.25272
#
# Velocity S-wave (km/s) = 3.66439 4.29549 3.99243
# Velocity P-wave (km/s) = 5.96275 6.79923 6.39468
#
# Compressibility (1/GPa) = 0.02799935
#
# Stress axis : x y z
#
# Youngs Moduli (GPa) = 56.30909 51.65958 64.19465
#
# Poissons Ratio (x) = 0.07850 0.28562
# Poissons Ratio (y) = 0.08556 0.40947
# Poissons Ratio (z) = 0.25054 0.32952
#
# Static dielectric constant tensor:
#      x y z
#    x 1.621480 0.000000 0.113840 
#    y 0.000000 1.742790 0.000000 
#    z 0.113840 0.000000 1.589140 
# 
# From -- ./inp_files/43355.got.cif
#   From: 2010.05.17/outbox.cif.g08.bks.cpg/sg5_22_cif.got.tgz:43355.got - 2010.06.03 18:56:24.
