data_PCOD9127430
_publ_section_title
;
Structure prediction by ZEFSAII (Michael W. Deem and Ramdas Pophale) SiO2 
 PCOD9127430
Probable space group: C 2
;
_chemical_formula_sum "Si O2"
_cell_formula_units_Z 26
_cell_length_a 21.400971
_cell_length_b 8.551797
_cell_length_c 15.424748
_cell_angle_alpha 90.000000
_cell_angle_beta 157.648751
_cell_angle_gamma 90.000000
_cell_volume 1073.535737
_symmetry_space_group_name_H-M "C 2"
_symmetry_group_IT_number 5
_symmetry_cell_setting 'monoclinic'
loop_
_space_group_symop_operation_xyz
x,y,z
-x,y,-z
1/2+x,1/2+y,z
1/2-x,1/2+y,-z
loop_
_atom_site_type_symbol
_atom_site_label
_atom_site_fract_x
_atom_site_fract_y
_atom_site_fract_z
Si Si1 0.036843 0.970870 0.234556
Si Si2 0.000000 0.826685 0.000000
Si Si3 0.500000 0.389304 0.500000
Si Si4 0.500000 0.813242 0.000000
Si Si5 0.574420 0.979403 0.841876
Si Si6 0.264438 0.067258 0.767980
Si Si7 0.815691 0.271864 0.595010
Si Si8 0.733836 0.171769 0.904116
O O1 0.133080 0.815115 0.390255
O O2 0.159643 0.110037 0.422883
O O3 0.031866 0.925612 0.126526
O O4 0.858923 0.034171 0.035327
O O5 0.842279 0.719753 0.823621
O O6 0.575265 0.512771 0.527370
O O7 0.640107 0.268744 0.709447
O O8 0.351538 0.924504 0.833186
O O9 0.438588 0.738509 0.832893
O O10 0.398284 0.915806 0.648554
O O11 0.600679 0.097957 0.797381
O O12 0.667840 0.055639 0.045254
O O13 0.659324 0.815377 0.921103
#
# Coordination Sequence:
#
# PCOD9127430 Si02
#       8
#     4   2   2   2   4   4   4   4
#     4  11  26  43  67 104 141 185 237 292 351 416
#     4  11  25  46  68 100 152 180 242 300 340 422
#     4  10  22  46  72 102 136 190 236 284 372 414
#     4   9  19  40  68  94 138 178 228 290 344 426
#     4   9  21  41  64  99 135 180 227 285 350 421
#     4   9  21  40  67  99 136 181 227 287 353 408
#     4  10  23  41  67  99 138 184 235 287 357 412
#     4  10  23  43  70 100 141 182 234 291 352 423
#
# _framework density 24.219037
#
# number of rings (size 3 to 8) (size 9 to 14) (size 15 to 20)
#    0.000    2.154    0.000    1.385    8.615    4.923 
#    5.538    0.769    0.000    0.000    0.000    0.000 
#    0.000    0.000    0.000    0.000    0.000    0.000 
#
# Total GULP energy -72449.797356 kJ/mol
# GULP energy per Si atom -5573.061335 kJ/mol
# Density = 2.416391 g / cm^3
# Si number density = 24.219037 Si / 1000 Ang^3
#
#
#
# Elastic Constant Matrix: (Units=GPa)
#
#
# Indices 1 2 3 4 5 6 
#
# 1 99.3037 53.1265 24.4360 0.0000 21.2023 0.0000
# 2 53.1265 93.6203 34.6172 0.0000 23.8606 0.0000
# 3 24.4360 34.6172 84.7252 0.0000 22.5722 0.0000
# 4 0.0000 0.0000 0.0000 33.3533 0.0000 14.8727
# 5 21.2023 23.8606 22.5722 0.0000 44.9380 0.0000
# 6 0.0000 0.0000 0.0000 14.8727 0.0000 58.6759
#
#
#
# Elastic Compliance Matrix: (Units=1/GPa)
#
#
# Indices 1 2 3 4 5 6 
#
# 1 0.014797 -0.007525 -0.000459 0.000000 -0.002755 0.000000
# 2 -0.007525 0.017345 -0.003936 0.000000 -0.003683 0.000000
# 3 -0.000459 -0.003936 0.014926 0.000000 -0.005191 0.000000
# 4 0.000000 0.000000 0.000000 0.033803 0.000000 -0.008568
# 5 -0.002755 -0.003683 -0.005191 0.000000 0.028116 0.000000
# 6 0.000000 0.000000 0.000000 -0.008568 0.000000 0.019215
#
#
# Mechanical properties :
#
#
# Convention : Reuss Voigt Hill
#
# Bulk Modulus (GPa) = 43.04843 55.77871 49.41357
# Shear Modulus (GPa) = 31.29220 38.42474 34.85847
#
# Velocity S-wave (km/s) = 3.59841 3.98747 3.79793
# Velocity P-wave (km/s) = 5.92266 6.65439 6.29916
#
# Compressibility (1/GPa) = 0.02322965
#
# Stress axis : x y z
#
# Youngs Moduli (GPa) = 67.58068 57.65217 66.99580
#
# Poissons Ratio (x) = 0.43383 0.03076
# Poissons Ratio (y) = 0.50854 0.26367
# Poissons Ratio (z) = 0.03103 0.22690
#
# Static dielectric constant tensor:
#      x y z
#    x 1.986370 0.000000 -0.080950 
#    y 0.000000 1.928490 0.000000 
#    z -0.080950 0.000000 2.007930 
# 
# From -- ./inp_files/31637.got.cif
#   From: 2010.05.17/outbox.cif.g08.bks.cpg/sg5_16_cif.got.tgz:31637.got - 2010.06.03 18:56:24.
