data_PCOD9127792
_publ_section_title
;
Structure prediction by ZEFSAII (Michael W. Deem and Ramdas Pophale) SiO2 
 PCOD9127792
Probable space group: C 2
;
_chemical_formula_sum "Si O2"
_cell_formula_units_Z 24
_cell_length_a 9.014686
_cell_length_b 11.455152
_cell_length_c 9.834785
_cell_angle_alpha 90.000000
_cell_angle_beta 87.207110
_cell_angle_gamma 90.000000
_cell_volume 1014.378802
_symmetry_space_group_name_H-M "C 2"
_symmetry_group_IT_number 5
_symmetry_cell_setting 'monoclinic'
loop_
_space_group_symop_operation_xyz
x,y,z
-x,y,-z
1/2+x,1/2+y,z
1/2-x,1/2+y,-z
loop_
_atom_site_type_symbol
_atom_site_label
_atom_site_fract_x
_atom_site_fract_y
_atom_site_fract_z
Si Si1 0.783573 0.691510 0.089745
Si Si2 0.500000 0.115584 0.500000
Si Si3 0.612678 0.311426 0.651590
Si Si4 0.210023 0.777962 0.208938
Si Si5 0.724332 0.508063 0.769958
Si Si6 0.546336 0.980113 0.781517
Si Si7 0.500000 0.564307 0.000000
O O1 0.796516 0.767427 0.223018
O O2 0.882928 0.579750 0.126856
O O3 0.619028 0.644352 0.070936
O O4 0.826561 0.757560 0.949350
O O5 0.625360 0.213148 0.536034
O O6 0.514390 0.033514 0.631444
O O7 0.440893 0.314308 0.707789
O O8 0.678038 0.440766 0.634013
O O9 0.256858 0.646983 0.251124
O O10 0.342188 0.870957 0.222372
O O11 0.876232 0.462075 0.831848
O O12 0.591752 0.494479 0.884009
#
# Coordination Sequence:
#
# PCOD9127792 Si02
#       7
#     4   2   4   4   4   4   2
#     4  10  23  42  68 106 148 189 230 300 366 440
#     4  10  24  52  74 104 142 206 242 306 356 436
#     4  11  24  44  73 102 148 189 244 302 364 425
#     4  11  24  45  72 106 144 193 236 310 369 438
#     4  11  25  44  68 112 142 193 242 297 366 446
#     4  11  25  49  75 103 153 195 249 301 369 427
#     4  10  24  40  66 108 154 180 240 282 374 448
#
# _framework density 23.659801000000002
#
# number of rings (size 3 to 8) (size 9 to 14) (size 15 to 20)
#    0.000    1.333    3.333    1.500   14.000    1.333 
#    0.000    0.833    0.000    0.000    0.000    0.000 
#    0.000    0.000    0.000    0.000    0.000    0.000 
#
# Total GULP energy -66990.329014 kJ/mol
# GULP energy per Si atom -5582.527418 kJ/mol
# Density = 2.360595 g / cm^3
# Si number density = 23.659801 Si / 1000 Ang^3
#
#
#
# Elastic Constant Matrix: (Units=GPa)
#
#
# Indices 1 2 3 4 5 6 
#
# 1 142.7008 45.2437 36.5348 0.0000 5.8220 0.0000
# 2 45.2437 136.0840 33.5386 0.0000 21.9952 0.0000
# 3 36.5348 33.5386 123.1345 0.0000 28.6643 0.0000
# 4 0.0000 0.0000 0.0000 35.3630 0.0000 32.3520
# 5 5.8220 21.9952 28.6643 0.0000 22.8867 0.0000
# 6 0.0000 0.0000 0.0000 32.3520 0.0000 53.6692
#
#
#
# Elastic Compliance Matrix: (Units=1/GPa)
#
#
# Indices 1 2 3 4 5 6 
#
# 1 0.008400 -0.002761 -0.002626 0.000000 0.003806 0.000000
# 2 -0.002761 0.009638 0.000263 0.000000 -0.008891 0.000000
# 3 -0.002626 0.000263 0.012326 0.000000 -0.015022 0.000000
# 4 0.000000 0.000000 0.000000 0.063047 0.000000 -0.038005
# 5 0.003806 -0.008891 -0.015022 0.000000 0.070085 0.000000
# 6 0.000000 0.000000 0.000000 -0.038005 0.000000 0.041542
#
#
# Mechanical properties :
#
#
# Convention : Reuss Voigt Hill
#
# Bulk Modulus (GPa) = 49.70865 70.28372 59.99619
# Shear Modulus (GPa) = 22.52345 41.49059 32.00702
#
# Velocity S-wave (km/s) = 3.08875 4.19218 3.68204
# Velocity P-wave (km/s) = 5.81170 7.29404 6.59465
#
# Compressibility (1/GPa) = 0.02011722
#
# Stress axis : x y z
#
# Youngs Moduli (GPa) = 119.04685 103.75338 81.13115
#
# Poissons Ratio (x) = 0.28642 0.21308
# Poissons Ratio (y) = 0.32864 -0.02138
# Poissons Ratio (z) = 0.31266 -0.02734
#
# Static dielectric constant tensor:
#      x y z
#    x 1.917260 0.000000 -0.060320 
#    y 0.000000 1.988430 0.000000 
#    z -0.060320 0.000000 1.985480 
# 
# From -- ./inp_files/35461.got.cif
#   From: 2010.05.17/outbox.cif.g08.bks.cpg/sg5_18_cif.got.tgz:35461.got - 2010.06.03 18:56:24.
