data_PCOD9127671
_publ_section_title
;
Structure prediction by ZEFSAII (Michael W. Deem and Ramdas Pophale) SiO2 
 PCOD9127671
Probable space group: C 2
;
_chemical_formula_sum "Si O2"
_cell_formula_units_Z 18
_cell_length_a 5.354914
_cell_length_b 12.862328
_cell_length_c 12.282879
_cell_angle_alpha 90.000000
_cell_angle_beta 67.285798
_cell_angle_gamma 90.000000
_cell_volume 780.389674
_symmetry_space_group_name_H-M "C 2"
_symmetry_group_IT_number 5
_symmetry_cell_setting 'monoclinic'
loop_
_space_group_symop_operation_xyz
x,y,z
-x,y,-z
1/2+x,1/2+y,z
1/2-x,1/2+y,-z
loop_
_atom_site_type_symbol
_atom_site_label
_atom_site_fract_x
_atom_site_fract_y
_atom_site_fract_z
Si Si1 0.500000 0.728791 0.000000
Si Si2 0.714640 0.086163 0.228148
Si Si3 0.910191 0.360063 0.827738
Si Si4 0.816057 0.993209 0.431164
Si Si5 0.034470 0.790508 0.694420
O O1 0.634853 0.652868 0.889401
O O2 0.325880 0.809370 0.956785
O O3 0.887320 0.045395 0.302616
O O4 0.497231 0.167436 0.313610
O O5 0.609813 0.983078 0.186369
O O6 0.721965 0.309716 0.767498
O O7 0.225939 0.331529 0.759480
O O8 0.500000 0.013806 0.500000
O O9 0.000000 0.027842 0.500000
O O10 0.844511 0.867896 0.415350
#
# Coordination Sequence:
#
# PCOD9127671 Si02
#       5
#     2   4   4   4   4
#     4  10  24  42  70 106 140 180 224 276 338 410
#     4  10  24  45  72 101 137 183 225 276 347 406
#     4  10  23  41  64  97 136 173 224 277 326 397
#     4  11  24  45  70 100 139 179 228 285 333 398
#     4  10  23  44  65  94 132 176 227 279 331 392
#
# _framework density 23.065401999999999
#
# number of rings (size 3 to 8) (size 9 to 14) (size 15 to 20)
#    0.000    1.778    0.000    2.667    0.000   24.000 
#    0.000    8.889    0.000    0.000    0.000    0.000 
#    0.000    0.000    0.000    0.000    0.000    0.000 
#
# Total GULP energy -50235.190242 kJ/mol
# GULP energy per Si atom -5581.687805 kJ/mol
# Density = 2.301290 g / cm^3
# Si number density = 23.065402 Si / 1000 Ang^3
#
#
#
# Elastic Constant Matrix: (Units=GPa)
#
#
# Indices 1 2 3 4 5 6 
#
# 1 152.4974 44.7275 68.2434 0.0000 29.8403 0.0000
# 2 44.7275 186.3078 57.1093 0.0000 15.3604 0.0000
# 3 68.2434 57.1093 115.1560 0.0000 28.8408 0.0000
# 4 0.0000 0.0000 0.0000 45.6234 0.0000 6.3922
# 5 29.8403 15.3604 28.8408 0.0000 40.6675 0.0000
# 6 0.0000 0.0000 0.0000 6.3922 0.0000 7.0518
#
#
#
# Elastic Compliance Matrix: (Units=1/GPa)
#
#
# Indices 1 2 3 4 5 6 
#
# 1 0.009390 -0.000623 -0.004364 0.000000 -0.003560 0.000000
# 2 -0.000623 0.006372 -0.002800 0.000000 0.000036 0.000000
# 3 -0.004364 -0.002800 0.014095 0.000000 -0.005736 0.000000
# 4 0.000000 0.000000 0.000000 0.025107 0.000000 -0.022759
# 5 -0.003560 0.000036 -0.005736 0.000000 0.031256 0.000000
# 6 0.000000 0.000000 0.000000 -0.022759 0.000000 0.162437
#
#
# Mechanical properties :
#
#
# Convention : Reuss Voigt Hill
#
# Bulk Modulus (GPa) = 70.01206 88.23574 79.12390
# Shear Modulus (GPa) = 18.58781 37.59396 28.09088
#
# Velocity S-wave (km/s) = 2.84187 4.04156 3.49360
# Velocity P-wave (km/s) = 6.41778 7.75349 7.11704
#
# Compressibility (1/GPa) = 0.01428325
#
# Stress axis : x y z
#
# Youngs Moduli (GPa) = 106.50007 156.92750 70.94520
#
# Poissons Ratio (x) = 0.09777 0.30960
# Poissons Ratio (y) = 0.06635 0.19865
# Poissons Ratio (z) = 0.46477 0.43941
#
# Static dielectric constant tensor:
#      x y z
#    x 1.875900 0.000000 -0.082890 
#    y 0.000000 1.884430 0.000000 
#    z -0.082890 0.000000 1.967100 
# 
# From -- ./inp_files/32946.got.cif
#   From: 2010.05.17/outbox.cif.g08.bks.cpg/sg5_17_cif.got.tgz:32946.got - 2010.06.03 18:56:24.
