data_PCOD9127663
_publ_section_title
;
Structure prediction by ZEFSAII (Michael W. Deem and Ramdas Pophale) SiO2 
 PCOD9127663
Probable space group: C 2
;
_chemical_formula_sum "Si O2"
_cell_formula_units_Z 20
_cell_length_a 13.588381
_cell_length_b 9.128969
_cell_length_c 20.377651
_cell_angle_alpha 90.000000
_cell_angle_beta 18.599466
_cell_angle_gamma 90.000000
_cell_volume 806.244606
_symmetry_space_group_name_H-M "C 2"
_symmetry_group_IT_number 5
_symmetry_cell_setting 'monoclinic'
loop_
_space_group_symop_operation_xyz
x,y,z
-x,y,-z
1/2+x,1/2+y,z
1/2-x,1/2+y,-z
loop_
_atom_site_type_symbol
_atom_site_label
_atom_site_fract_x
_atom_site_fract_y
_atom_site_fract_z
Si Si1 0.684642 0.117690 0.461610
Si Si2 0.000000 0.862705 0.500000
Si Si3 0.444684 0.366656 0.807110
Si Si4 0.192621 0.798907 0.959432
Si Si5 0.000000 0.564429 0.000000
Si Si6 0.545873 0.048022 0.695353
O O1 0.427275 0.237186 0.602037
O O2 0.633122 0.041453 0.563933
O O3 0.996471 0.217640 0.262883
O O4 0.784201 0.983533 0.352186
O O5 0.773172 0.970867 0.604472
O O6 0.545034 0.218551 0.710050
O O7 0.304785 0.318331 0.964752
O O8 0.217695 0.453528 0.901864
O O9 0.226270 0.962011 0.910161
O O10 0.925396 0.687649 0.103959
#
# Coordination Sequence:
#
# PCOD9127663 Si02
#       6
#     4   2   4   4   2   4
#     4  10  23  41  63  95 129 167 216 260 316 387
#     4  10  24  44  66  90 134 172 204 270 330 364
#     4  11  23  41  67  98 128 167 221 264 312 389
#     4  10  23  41  63  95 129 167 216 260 316 387
#     4  10  24  44  66  90 134 172 204 270 330 364
#     4  11  23  41  67  98 128 167 221 264 312 389
#
# _framework density 24.806367999999999
#
# number of rings (size 3 to 8) (size 9 to 14) (size 15 to 20)
#    0.000    1.600    0.000    4.800    0.000   17.600 
#    0.000    0.000    0.000    0.000    0.000    0.000 
#    0.000    0.000    0.000    0.000    0.000    0.000 
#
# Total GULP energy -55686.321165 kJ/mol
# GULP energy per Si atom -5568.632116 kJ/mol
# Density = 2.474991 g / cm^3
# Si number density = 24.806368 Si / 1000 Ang^3
#
#
#
# Elastic Constant Matrix: (Units=GPa)
#
#
# Indices 1 2 3 4 5 6 
#
# 1 166.9335 54.4181 44.8857 -0.0191 -27.5087 0.1378
# 2 54.4181 180.0116 1.9330 -0.0142 -26.0512 0.1417
# 3 44.8857 1.9330 35.0556 -0.0185 9.4840 0.3709
# 4 -0.0191 -0.0142 -0.0185 39.3856 0.0150 -29.4901
# 5 -27.5087 -26.0512 9.4840 0.0150 31.1544 -0.0122
# 6 0.1378 0.1417 0.3709 -29.4901 -0.0122 121.0543
#
#
#
# Elastic Compliance Matrix: (Units=1/GPa)
#
#
# Indices 1 2 3 4 5 6 
#
# 1 0.018869 -0.001834 -0.030680 0.000052 0.024467 0.000090
# 2 -0.001834 0.006621 0.001006 -0.000007 0.003611 -0.000010
# 3 -0.030680 0.001006 0.081575 -0.000150 -0.051081 -0.000258
# 4 0.000052 -0.000007 -0.000150 0.031055 0.000074 0.007566
# 5 0.024467 0.003611 -0.051081 0.000074 0.072272 0.000150
# 6 0.000090 -0.000010 -0.000258 0.007566 0.000150 0.010105
#
#
# Mechanical properties :
#
#
# Convention : Reuss Voigt Hill
#
# Bulk Modulus (GPa) = 22.70071 64.94157 43.82114
# Shear Modulus (GPa) = 16.76752 57.03646 36.90199
#
# Velocity S-wave (km/s) = 2.60270 4.80027 3.86113
# Velocity P-wave (km/s) = 4.26651 7.54716 6.13037
#
# Compressibility (1/GPa) = 0.04405148
#
# Stress axis : x y z
#
# Youngs Moduli (GPa) = 52.99597 151.02505 12.25860
#
# Poissons Ratio (x) = 0.27698 0.37609
# Poissons Ratio (y) = 0.09720 -0.01234
# Poissons Ratio (z) = 1.62590 -0.15199
#
# Static dielectric constant tensor:
#      x y z
#    x 2.073980 -0.000060 -0.189140 
#    y -0.000060 1.916820 -0.000040 
#    z -0.189140 -0.000040 2.136030 
# 
# From -- ./inp_files/26390.got.cif
#   From: 2010.05.17/outbox.cif.g08.bks.cpg/sg5_14_cif.got.tgz:26390.got - 2010.06.03 18:56:24.
