data_PCOD9127842
_publ_section_title
;
Structure prediction by ZEFSAII (Michael W. Deem and Ramdas Pophale) SiO2 
 PCOD9127842
Probable space group: C 2
;
_chemical_formula_sum "Si O2"
_cell_formula_units_Z 24
_cell_length_a 20.172007
_cell_length_b 5.413888
_cell_length_c 19.330135
_cell_angle_alpha 90.000000
_cell_angle_beta 151.481901
_cell_angle_gamma 90.000000
_cell_volume 1007.879797
_symmetry_space_group_name_H-M "C 2"
_symmetry_group_IT_number 5
_symmetry_cell_setting 'monoclinic'
loop_
_space_group_symop_operation_xyz
x,y,z
-x,y,-z
1/2+x,1/2+y,z
1/2-x,1/2+y,-z
loop_
_atom_site_type_symbol
_atom_site_label
_atom_site_fract_x
_atom_site_fract_y
_atom_site_fract_z
Si Si1 0.863555 0.791260 0.422519
Si Si2 0.621032 0.592162 0.829554
Si Si3 0.587206 0.255236 0.286576
Si Si4 0.073414 0.061025 0.129337
Si Si5 0.379686 0.797001 0.525223
Si Si6 0.891969 0.372845 0.047768
O O1 0.719589 0.703284 0.253908
O O2 0.879922 0.567188 0.491983
O O3 0.000000 0.787756 0.500000
O O4 0.858658 0.065228 0.452475
O O5 0.516685 0.368893 0.752705
O O6 0.523988 0.767943 0.696352
O O7 0.664439 0.686658 0.945311
O O8 0.761455 0.546581 0.916833
O O9 0.583868 0.408934 0.210885
O O10 0.747155 0.265529 0.454071
O O11 0.524225 0.995596 0.206365
O O12 0.951948 0.255569 0.034718
O O13 0.000000 0.910381 0.000000
#
# Coordination Sequence:
#
# PCOD9127842 Si02
#       6
#     4   4   4   4   4   4
#     4  11  25  47  67 101 138 174 238 280 332 413
#     4  11  25  38  71  99 137 178 222 281 348 406
#     4  10  23  43  63  96 139 168 230 277 336 412
#     4  10  24  43  67  95 131 186 220 282 342 398
#     4  11  26  44  70 100 134 185 222 284 346 400
#     4  11  22  43  62 101 134 170 226 281 332 413
#
# _framework density 23.812365
#
# number of rings (size 3 to 8) (size 9 to 14) (size 15 to 20)
#    0.000    1.333    3.333    0.500    7.000    2.000 
#    0.000    0.000    0.000    0.000    0.000    0.000 
#    0.000    0.000    0.000    0.000    0.000    0.000 
#
# Total GULP energy -67016.633523 kJ/mol
# GULP energy per Si atom -5584.719460 kJ/mol
# Density = 2.375817 g / cm^3
# Si number density = 23.812365 Si / 1000 Ang^3
#
#
#
# Elastic Constant Matrix: (Units=GPa)
#
#
# Indices 1 2 3 4 5 6 
#
# 1 59.2008 11.1706 31.6573 0.0000 30.7034 0.0000
# 2 11.1706 67.6891 -3.5585 0.0008 -0.9695 0.0007
# 3 31.6573 -3.5585 130.9617 0.0000 16.1575 0.0001
# 4 0.0000 0.0008 0.0000 28.7956 0.0000 4.4124
# 5 30.7034 -0.9695 16.1575 0.0000 44.5249 0.0000
# 6 0.0000 0.0007 0.0001 4.4124 0.0000 33.3558
#
#
#
# Elastic Compliance Matrix: (Units=1/GPa)
#
#
# Indices 1 2 3 4 5 6 
#
# 1 0.030863 -0.005646 -0.005206 0.000000 -0.019516 0.000000
# 2 -0.005646 0.015829 0.001332 0.000000 0.003755 0.000000
# 3 -0.005206 0.001332 0.008882 0.000000 0.000396 0.000000
# 4 0.000000 0.000000 0.000000 0.035446 0.000000 -0.004689
# 5 -0.019516 0.003755 0.000396 0.000000 0.035855 0.000000
# 6 0.000000 0.000000 0.000000 -0.004689 0.000000 0.030600
#
#
# Mechanical properties :
#
#
# Convention : Reuss Voigt Hill
#
# Bulk Modulus (GPa) = 27.37343 37.37674 32.37508
# Shear Modulus (GPa) = 26.49807 35.90741 31.20274
#
# Velocity S-wave (km/s) = 3.33946 3.88742 3.62381
# Velocity P-wave (km/s) = 5.13710 5.98998 5.57986
#
# Compressibility (1/GPa) = 0.03653177
#
# Stress axis : x y z
#
# Youngs Moduli (GPa) = 32.40176 63.17499 112.59229
#
# Poissons Ratio (x) = 0.35671 0.58616
# Poissons Ratio (y) = 0.18295 -0.14994
# Poissons Ratio (z) = 0.16868 -0.08413
#
# Static dielectric constant tensor:
#      x y z
#    x 1.956730 0.000000 -0.055300 
#    y 0.000000 1.996330 0.000000 
#    z -0.055300 0.000000 1.950790 
# 
# From -- ./inp_files/66906.got.cif
#   From: 2010.05.17/outbox.cif.g08.bks.cpg/sg5_34_cif.got.tgz:66906.got - 2010.06.03 18:56:24.
