data_PCOD9127214
_publ_section_title
;
Structure prediction by ZEFSAII (Michael W. Deem and Ramdas Pophale) SiO2 
 PCOD9127214
Probable space group: C 2
;
_chemical_formula_sum "Si O2"
_cell_formula_units_Z 32
_cell_length_a 31.438038
_cell_length_b 8.785973
_cell_length_c 5.299723
_cell_angle_alpha 90.000000
_cell_angle_beta 97.123863
_cell_angle_gamma 90.000000
_cell_volume 1452.555955
_symmetry_space_group_name_H-M "C 2"
_symmetry_group_IT_number 5
_symmetry_cell_setting 'monoclinic'
loop_
_space_group_symop_operation_xyz
x,y,z
-x,y,-z
1/2+x,1/2+y,z
1/2-x,1/2+y,-z
loop_
_atom_site_type_symbol
_atom_site_label
_atom_site_fract_x
_atom_site_fract_y
_atom_site_fract_z
Si Si1 0.028165 0.280100 0.771903
Si Si2 0.254408 0.964806 0.823929
Si Si3 0.671892 0.478226 0.476862
Si Si4 0.620119 0.922152 0.723045
Si Si5 0.472463 0.420122 0.224845
Si Si6 0.700580 0.269449 0.134647
Si Si7 0.616803 0.282026 0.748815
Si Si8 0.666201 0.792622 0.257962
O O1 0.071897 0.371585 0.759253
O O2 0.000000 0.299903 0.500000
O O3 0.038946 0.099863 0.800990
O O4 0.000000 0.320943 0.000000
O O5 0.284918 0.852828 0.686129
O O6 0.210912 0.037488 0.677300
O O7 0.285518 0.101666 0.909912
O O8 0.237102 0.876100 0.050871
O O9 0.693232 0.316325 0.414842
O O10 0.627938 0.418459 0.561261
O O11 0.665305 0.608816 0.266231
O O12 0.638749 0.846296 0.481123
O O13 0.620550 0.104562 0.677542
O O14 0.647338 0.861690 0.984578
O O15 0.500000 0.397885 0.500000
O O16 0.430361 0.317675 0.192557
O O17 0.500000 0.382818 0.000000
O O18 0.654739 0.302533 0.978116
#
# Coordination Sequence:
#
# PCOD9127214 Si02
#       8
#     4   4   4   4   4   4   4   4
#     4  10  22  44  70 100 136 179 230 286 351 429
#     4  11  24  42  67  97 141 188 242 290 363 412
#     4  11  26  41  71  97 139 190 243 296 349 432
#     4  12  27  45  70 104 142 184 228 297 355 429
#     4  10  24  43  72 102 138 183 232 287 348 429
#     4  11  24  43  67 100 140 185 239 297 350 426
#     4  11  26  44  69 105 142 185 236 298 359 422
#     4  12  27  44  70 101 140 186 238 289 355 421
#
# _framework density 22.030132999999999
#
# number of rings (size 3 to 8) (size 9 to 14) (size 15 to 20)
#    0.000    1.000    1.250    3.750   10.500    4.000 
#    0.000    0.000    0.000    0.000    0.000    0.000 
#    0.000    0.000    0.000    0.000    0.000    0.000 
#
# Total GULP energy -89345.298821 kJ/mol
# GULP energy per Si atom -5584.081176 kJ/mol
# Density = 2.197999 g / cm^3
# Si number density = 22.030133 Si / 1000 Ang^3
#
#
#
# Elastic Constant Matrix: (Units=GPa)
#
#
# Indices 1 2 3 4 5 6 
#
# 1 106.1225 44.9236 21.8193 0.0000 -19.3957 0.0000
# 2 44.9236 98.3914 16.6619 0.0000 3.0465 0.0000
# 3 21.8193 16.6619 75.0477 0.0000 -14.5927 0.0000
# 4 0.0000 0.0000 0.0000 22.6624 0.0000 -8.1436
# 5 -19.3957 3.0465 -14.5927 0.0000 26.2374 0.0000
# 6 0.0000 0.0000 0.0000 -8.1436 0.0000 45.2305
#
#
#
# Elastic Compliance Matrix: (Units=1/GPa)
#
#
# Indices 1 2 3 4 5 6 
#
# 1 0.014491 -0.006879 -0.000502 0.000000 0.011232 0.000000
# 2 -0.006879 0.014018 -0.002711 0.000000 -0.008221 0.000000
# 3 -0.000502 -0.002711 0.015767 0.000000 0.008713 0.000000
# 4 0.000000 0.000000 0.000000 0.047178 0.000000 0.008494
# 5 0.011232 -0.008221 0.008713 0.000000 0.052217 0.000000
# 6 0.000000 0.000000 0.000000 0.008494 0.000000 0.023638
#
#
# Mechanical properties :
#
#
# Convention : Reuss Voigt Hill
#
# Bulk Modulus (GPa) = 41.50655 49.59680 45.55168
# Shear Modulus (GPa) = 25.57229 31.90317 28.73773
#
# Velocity S-wave (km/s) = 3.41073 3.80960 3.61567
# Velocity P-wave (km/s) = 5.86451 6.47401 6.17678
#
# Compressibility (1/GPa) = 0.02409258
#
# Stress axis : x y z
#
# Youngs Moduli (GPa) = 69.00734 71.33692 63.42453
#
# Poissons Ratio (x) = 0.49074 0.03183
# Poissons Ratio (y) = 0.47472 0.17192
# Poissons Ratio (z) = 0.03463 0.19337
#
# Static dielectric constant tensor:
#      x y z
#    x 1.829050 0.000000 0.021280 
#    y 0.000000 1.838390 0.000000 
#    z 0.021280 0.000000 1.864010 
# 
# From -- ./inp_files/11234.got.cif
#   From: 2010.05.17/outbox.cif.g08.bks.cpg/sg5_6_cif.got.tgz:11234.got - 2010.06.03 18:56:24.
