data_PCOD9127268
_publ_section_title
;
Structure prediction by ZEFSAII (Michael W. Deem and Ramdas Pophale) SiO2 
 PCOD9127268
Probable space group: C 2
;
_chemical_formula_sum "Si O2"
_cell_formula_units_Z 22
_cell_length_a 21.992749
_cell_length_b 9.865123
_cell_length_c 13.311901
_cell_angle_alpha 90.000000
_cell_angle_beta 21.145260
_cell_angle_gamma 90.000000
_cell_volume 1041.858599
_symmetry_space_group_name_H-M "C 2"
_symmetry_group_IT_number 5
_symmetry_cell_setting 'monoclinic'
loop_
_space_group_symop_operation_xyz
x,y,z
-x,y,-z
1/2+x,1/2+y,z
1/2-x,1/2+y,-z
loop_
_atom_site_type_symbol
_atom_site_label
_atom_site_fract_x
_atom_site_fract_y
_atom_site_fract_z
Si Si1 0.000000 0.931810 0.500000
Si Si2 0.193426 0.855347 0.735029
Si Si3 0.141546 0.690320 0.172720
Si Si4 0.754505 0.607409 0.202594
Si Si5 0.006953 0.361205 0.109572
Si Si6 0.752680 0.611994 0.786524
O O1 0.862418 0.835354 0.765239
O O2 0.915000 0.021646 0.546069
O O3 0.242281 0.718455 0.717201
O O4 0.322246 0.865043 0.443651
O O5 0.213001 0.980226 0.782251
O O6 0.000000 0.849385 0.000000
O O7 0.226435 0.593335 0.125375
O O8 0.943141 0.657777 0.463863
O O9 0.224962 0.679404 0.936904
O O10 0.899263 0.496742 0.997719
O O11 0.116190 0.229568 0.974570
O O12 0.000000 0.360796 0.000000
#
# Coordination Sequence:
#
# PCOD9127268 Si02
#       6
#     2   4   4   4   4   4
#     4  10  24  42  68 110 140 184 216 292 364 416
#     4  12  30  46  68 108 144 190 244 300 341 422
#     4  10  22  44  73 107 139 176 226 298 352 429
#     4  12  26  43  75 107 142 179 244 290 355 426
#     4  12  27  48  73  98 142 199 245 287 354 423
#     4  10  23  46  74  99 143 186 229 286 369 413
#
# _framework density 21.116108000000001
#
# number of rings (size 3 to 8) (size 9 to 14) (size 15 to 20)
#    0.000    1.091    5.455    1.091    7.636    5.818 
#    0.000    0.000    0.000    0.000    0.000    0.000 
#    0.000    0.000    0.000    0.000    0.000    0.000 
#
# Total GULP energy -61489.837116 kJ/mol
# GULP energy per Si atom -5589.985192 kJ/mol
# Density = 2.106805 g / cm^3
# Si number density = 21.116108 Si / 1000 Ang^3
#
#
#
# Elastic Constant Matrix: (Units=GPa)
#
#
# Indices 1 2 3 4 5 6 
#
# 1 130.7184 50.3013 66.6167 0.0000 -5.1907 0.0000
# 2 50.3013 119.9789 36.8027 0.0000 -1.3794 0.0000
# 3 66.6167 36.8027 101.3398 0.0000 17.7990 0.0000
# 4 0.0000 0.0000 0.0000 11.9706 0.0000 7.8815
# 5 -5.1907 -1.3794 17.7990 0.0000 26.5341 0.0000
# 6 0.0000 0.0000 0.0000 7.8815 0.0000 4.9870
#
#
#
# Elastic Compliance Matrix: (Units=1/GPa)
#
#
# Indices 1 2 3 4 5 6 
#
# 1 0.014141 -0.002781 -0.009914 0.000000 0.009272 0.000000
# 2 -0.002781 0.010164 -0.002109 0.000000 0.001399 0.000000
# 3 -0.009914 -0.002109 0.019849 -0.000001 -0.015364 0.000001
# 4 0.000000 0.000000 -0.000001 -2.059780 0.000002 3.255317
# 5 0.009272 0.001399 -0.015364 0.000002 0.049880 -0.000003
# 6 0.000000 0.000000 0.000001 3.255317 -0.000003 -4.944245
#
#
# Mechanical properties :
#
#
# Convention : Reuss Voigt Hill
#
# Bulk Modulus (GPa) = 68.74686 73.27539 71.01112
# Shear Modulus (GPa) = -0.72722 21.91944 10.59611
#
# Velocity S-wave (km/s) = -0.58748 3.22536 2.24252
# Velocity P-wave (km/s) = 5.67160 6.97475 6.35666
#
# Compressibility (1/GPa) = 0.01454612
#
# Stress axis : x y z
#
# Youngs Moduli (GPa) = 70.71743 98.39053 50.37962
#
# Poissons Ratio (x) = 0.27361 0.49948
# Poissons Ratio (y) = 0.19665 0.10624
# Poissons Ratio (z) = 0.70111 0.20748
#
# Static dielectric constant tensor:
#      x y z
#    x 1.736670 0.000000 0.001600 
#    y 0.000000 1.779700 0.000000 
#    z 0.001600 0.000000 1.756490 
# 
# From -- ./inp_files/57495.got.cif
#   From: 2010.05.17/outbox.cif.g08.bks.cpg/sg5_29_cif.got.tgz:57495.got - 2010.06.03 18:56:24.
