data_PCOD9127273
_publ_section_title
;
Structure prediction by ZEFSAII (Michael W. Deem and Ramdas Pophale) SiO2 
 PCOD9127273
Probable space group: C 2
;
_chemical_formula_sum "Si O2"
_cell_formula_units_Z 14
_cell_length_a 7.142170
_cell_length_b 9.839681
_cell_length_c 9.109281
_cell_angle_alpha 90.000000
_cell_angle_beta 113.599784
_cell_angle_gamma 90.000000
_cell_volume 586.628872
_symmetry_space_group_name_H-M "C 2"
_symmetry_group_IT_number 5
_symmetry_cell_setting 'monoclinic'
loop_
_space_group_symop_operation_xyz
x,y,z
-x,y,-z
1/2+x,1/2+y,z
1/2-x,1/2+y,-z
loop_
_atom_site_type_symbol
_atom_site_label
_atom_site_fract_x
_atom_site_fract_y
_atom_site_fract_z
Si Si1 0.740547 0.641270 0.548044
Si Si2 0.555446 0.281170 0.855294
Si Si3 0.500000 0.756882 0.000000
Si Si4 0.210789 0.368043 0.315514
O O1 0.500000 0.653724 0.500000
O O2 0.799014 0.483428 0.567021
O O3 0.775136 0.728539 0.413437
O O4 0.871280 0.701203 0.723464
O O5 0.771489 0.195586 0.929721
O O6 0.620174 0.397459 0.758093
O O7 0.500000 0.326577 0.000000
O O8 0.488294 0.845202 0.846445
#
# Coordination Sequence:
#
# PCOD9127273 Si02
#       4
#     4   4   2   4
#     4  12  24  43  76 110 148 194 243 306 366 439
#     4  10  22  44  74 107 149 186 244 306 363 430
#     4   8  22  46  74 106 142 192 242 296 362 434
#     4  10  25  48  72 111 149 190 252 296 372 437
#
# _framework density 23.865176000000002
#
# number of rings (size 3 to 8) (size 9 to 14) (size 15 to 20)
#    1.714    0.000    0.000    4.286    2.000    2.286 
#    0.000   11.429    6.286    0.000    0.000    2.000 
#    0.000    0.000    0.000    0.000    0.000    0.000 
#
# Total GULP energy -38979.963242 kJ/mol
# GULP energy per Si atom -5568.566177 kJ/mol
# Density = 2.381086 g / cm^3
# Si number density = 23.865176 Si / 1000 Ang^3
#
#
#
# Elastic Constant Matrix: (Units=GPa)
#
#
# Indices 1 2 3 4 5 6 
#
# 1 99.8050 5.0704 57.0374 0.0000 22.3186 0.0000
# 2 5.0704 73.7663 64.4821 0.0000 -6.9479 0.0000
# 3 57.0374 64.4821 181.9547 0.0000 14.8898 0.0000
# 4 0.0000 0.0000 0.0000 11.0575 0.0000 7.3044
# 5 22.3186 -6.9479 14.8898 0.0000 70.2103 0.0000
# 6 0.0000 0.0000 0.0000 7.3044 0.0000 12.0209
#
#
#
# Elastic Compliance Matrix: (Units=1/GPa)
#
#
# Indices 1 2 3 4 5 6 
#
# 1 0.013432 0.003311 -0.005151 0.000000 -0.002850 0.000000
# 2 0.003311 0.021329 -0.008837 0.000000 0.002932 0.000000
# 3 -0.005151 -0.008837 0.010359 0.000000 -0.001434 0.000000
# 4 0.000000 0.000000 0.000000 0.151081 0.000000 -0.091804
# 5 -0.002850 0.002932 -0.001434 0.000000 0.015743 0.000000
# 6 0.000000 0.000000 0.000000 -0.091804 0.000000 0.138972
#
#
# Mechanical properties :
#
#
# Convention : Reuss Voigt Hill
#
# Bulk Modulus (GPa) = 42.07368 67.63397 54.85382
# Shear Modulus (GPa) = 13.15121 33.92014 23.53568
#
# Velocity S-wave (km/s) = 2.35002 3.77413 3.14378
# Velocity P-wave (km/s) = 5.00315 6.88431 6.01769
#
# Compressibility (1/GPa) = 0.02376783
#
# Stress axis : x y z
#
# Youngs Moduli (GPa) = 74.44814 46.88374 96.53122
#
# Poissons Ratio (x) = -0.15522 0.49720
# Poissons Ratio (y) = -0.24647 0.85300
# Poissons Ratio (z) = 0.38345 0.41429
#
# Static dielectric constant tensor:
#      x y z
#    x 1.993260 0.000000 -0.005040 
#    y 0.000000 1.954900 0.000000 
#    z -0.005040 0.000000 1.894760 
# 
# From -- ./inp_files/13845.got.cif
#   From: 2010.05.17/outbox.cif.g08.bks.cpg/sg5_7_cif.got.tgz:13845.got - 2010.06.03 18:56:24.
