data_PCOD9127523
_publ_section_title
;
Structure prediction by ZEFSAII (Michael W. Deem and Ramdas Pophale) SiO2 
 PCOD9127523
Probable space group: C 2
;
_chemical_formula_sum "Si O2"
_cell_formula_units_Z 28
_cell_length_a 12.338391
_cell_length_b 7.260463
_cell_length_c 14.988485
_cell_angle_alpha 90.000000
_cell_angle_beta 117.098039
_cell_angle_gamma 90.000000
_cell_volume 1195.314054
_symmetry_space_group_name_H-M "C 2"
_symmetry_group_IT_number 5
_symmetry_cell_setting 'monoclinic'
loop_
_space_group_symop_operation_xyz
x,y,z
-x,y,-z
1/2+x,1/2+y,z
1/2-x,1/2+y,-z
loop_
_atom_site_type_symbol
_atom_site_label
_atom_site_fract_x
_atom_site_fract_y
_atom_site_fract_z
Si Si1 0.209398 0.277240 0.834449
Si Si2 0.027745 0.461051 0.323648
Si Si3 0.000000 0.639639 0.500000
Si Si4 0.186302 0.563358 0.974303
Si Si5 0.000000 0.285627 0.000000
Si Si6 0.381482 0.505638 0.812870
Si Si7 0.272489 0.307789 0.324022
Si Si8 0.908728 0.832861 0.200336
O O1 0.222493 0.117534 0.912471
O O2 0.331296 0.303320 0.821850
O O3 0.081988 0.316413 0.738323
O O4 0.230928 0.459726 0.903743
O O5 0.037894 0.508927 0.431740
O O6 0.155225 0.401880 0.325655
O O7 0.978658 0.652193 0.264352
O O8 0.112510 0.771404 0.569802
O O9 0.087413 0.424846 0.978955
O O10 0.141018 0.754415 0.913081
O O11 0.067761 0.149664 0.094337
O O12 0.270565 0.606104 0.723359
O O13 0.487885 0.476861 0.782979
O O14 0.319055 0.394095 0.247473
#
# Coordination Sequence:
#
# PCOD9127523 Si02
#       8
#     4   4   2   4   2   4   4   4
#     4  11  22  41  68 101 142 193 239 296 358 421
#     4  10  23  48  73 106 142 185 239 301 363 436
#     4  10  22  48  76 102 146 178 236 310 372 414
#     4  11  22  41  62  99 147 193 245 290 342 427
#     4  12  26  40  66 102 146 202 246 292 348 420
#     4  12  22  44  69 100 143 190 236 297 356 419
#     4  11  24  47  72 103 140 185 240 302 360 434
#     4  10  23  45  68 102 142 189 239 295 353 422
#
# _framework density 23.424806
#
# number of rings (size 3 to 8) (size 9 to 14) (size 15 to 20)
#    0.000    1.143    4.286    4.286    0.000    3.429 
#    5.143    0.000    0.000    0.000    0.000    0.000 
#    0.000    0.000    0.000    0.000    0.000    0.000 
#
# Total GULP energy -78220.551158 kJ/mol
# GULP energy per Si atom -5587.182226 kJ/mol
# Density = 2.337149 g / cm^3
# Si number density = 23.424806 Si / 1000 Ang^3
#
#
#
# Elastic Constant Matrix: (Units=GPa)
#
#
# Indices 1 2 3 4 5 6 
#
# 1 186.3640 30.2565 58.9493 0.0000 -5.8880 0.0000
# 2 30.2565 53.3677 18.4978 0.0000 -3.7540 0.0000
# 3 58.9493 18.4978 147.7428 0.0000 8.5125 0.0000
# 4 0.0000 0.0000 0.0000 28.0548 0.0000 -0.9020
# 5 -5.8880 -3.7540 8.5125 0.0000 36.1593 0.0000
# 6 0.0000 0.0000 0.0000 -0.9020 0.0000 64.0112
#
#
#
# Elastic Compliance Matrix: (Units=1/GPa)
#
#
# Indices 1 2 3 4 5 6 
#
# 1 0.006616 -0.002838 -0.002362 0.000000 0.001339 0.000000
# 2 -0.002838 0.021059 -0.001626 0.000000 0.002107 0.000000
# 3 -0.002362 -0.001626 0.008055 0.000000 -0.002450 0.000000
# 4 0.000000 0.000000 0.000000 0.035661 0.000000 0.000503
# 5 0.001339 0.002107 -0.002450 0.000000 0.028669 0.000000
# 6 0.000000 0.000000 0.000000 0.000503 0.000000 0.015629
#
#
# Mechanical properties :
#
#
# Convention : Reuss Voigt Hill
#
# Bulk Modulus (GPa) = 45.29090 66.98686 56.13888
# Shear Modulus (GPa) = 36.57667 44.29644 40.43656
#
# Velocity S-wave (km/s) = 3.95581 4.35329 4.15930
# Velocity P-wave (km/s) = 6.34359 7.34349 6.86177
#
# Compressibility (1/GPa) = 0.02207949
#
# Stress axis : x y z
#
# Youngs Moduli (GPa) = 151.15119 47.48646 124.13980
#
# Poissons Ratio (x) = 0.13477 0.29316
# Poissons Ratio (y) = 0.42899 0.20180
# Poissons Ratio (z) = 0.35695 0.07719
#
# Static dielectric constant tensor:
#      x y z
#    x 1.950890 0.000000 -0.006710 
#    y 0.000000 1.977520 0.000000 
#    z -0.006710 0.000000 1.910230 
# 
# From -- ./inp_files/52353.got.cif
#   From: 2010.05.17/outbox.cif.g08.bks.cpg/sg5_27_cif.got.tgz:52353.got - 2010.06.03 18:56:24.
