data_PCOD9127300
_publ_section_title
;
Structure prediction by ZEFSAII (Michael W. Deem and Ramdas Pophale) SiO2 
 PCOD9127300
Probable space group: C 2
;
_chemical_formula_sum "Si O2"
_cell_formula_units_Z 24
_cell_length_a 28.889357
_cell_length_b 5.483917
_cell_length_c 14.703369
_cell_angle_alpha 90.000000
_cell_angle_beta 153.471850
_cell_angle_gamma 90.000000
_cell_volume 1040.400950
_symmetry_space_group_name_H-M "C 2"
_symmetry_group_IT_number 5
_symmetry_cell_setting 'monoclinic'
loop_
_space_group_symop_operation_xyz
x,y,z
-x,y,-z
1/2+x,1/2+y,z
1/2-x,1/2+y,-z
loop_
_atom_site_type_symbol
_atom_site_label
_atom_site_fract_x
_atom_site_fract_y
_atom_site_fract_z
Si Si1 0.788672 0.040090 0.022527
Si Si2 0.427544 0.973572 0.638179
Si Si3 0.513726 0.665577 0.426219
Si Si4 0.761238 0.088258 0.396662
Si Si5 0.416679 0.258440 0.786715
Si Si6 0.691808 0.326419 0.691522
O O1 0.746512 0.125824 0.849747
O O2 0.762399 0.290981 0.031583
O O3 0.911980 0.998361 0.240959
O O4 0.488314 0.808117 0.673155
O O5 0.319392 0.838120 0.472639
O O6 0.469355 0.073644 0.807051
O O7 0.397487 0.201219 0.524167
O O8 0.500000 0.802074 0.500000
O O9 0.624311 0.529201 0.625227
O O10 0.847857 0.942659 0.606757
O O11 0.736924 0.953111 0.259017
O O12 0.663653 0.120744 0.289241
O O13 0.500000 0.378138 0.000000
#
# Coordination Sequence:
#
# PCOD9127300 Si02
#       6
#     4   4   4   4   4   4
#     4  12  27  46  74 109 144 197 248 298 369 435
#     4  10  23  44  69  97 140 183 236 291 363 421
#     4  11  23  44  70 102 146 189 232 296 351 433
#     4  10  22  45  64  99 139 179 233 304 353 434
#     4  11  23  42  69  97 135 181 231 291 364 427
#     4  10  24  44  66 102 138 190 238 298 362 432
#
# _framework density 23.068031000000001
#
# number of rings (size 3 to 8) (size 9 to 14) (size 15 to 20)
#    0.000    1.333    3.333    1.000    7.000    1.333 
#    9.000    0.000    0.000    0.000    0.000    0.000 
#    0.000    0.000    0.000    0.000    0.000    0.000 
#
# Total GULP energy -66947.620705 kJ/mol
# GULP energy per Si atom -5578.968392 kJ/mol
# Density = 2.301553 g / cm^3
# Si number density = 23.068031 Si / 1000 Ang^3
#
#
#
# Elastic Constant Matrix: (Units=GPa)
#
#
# Indices 1 2 3 4 5 6 
#
# 1 152.4636 33.9201 31.3758 0.0000 -12.5160 0.0000
# 2 33.9201 66.7034 2.7516 0.0000 -4.2620 0.0000
# 3 31.3758 2.7516 74.4521 0.0000 -9.9672 0.0000
# 4 0.0000 0.0000 0.0000 17.7218 0.0000 -10.4508
# 5 -12.5160 -4.2620 -9.9672 0.0000 24.5934 0.0000
# 6 0.0000 0.0000 0.0000 -10.4508 0.0000 35.6265
#
#
#
# Elastic Compliance Matrix: (Units=1/GPa)
#
#
# Indices 1 2 3 4 5 6 
#
# 1 0.008241 -0.003920 -0.003021 0.000000 0.002290 0.000000
# 2 -0.003920 0.017027 0.001217 0.000000 0.001449 0.000000
# 3 -0.003021 0.001217 0.015313 0.000000 0.004879 0.000000
# 4 0.000000 0.000000 0.000000 0.068231 0.000000 0.020015
# 5 0.002290 0.001449 0.004879 0.000000 0.044055 0.000000
# 6 0.000000 0.000000 0.000000 0.020015 0.000000 0.033940
#
#
# Mechanical properties :
#
#
# Convention : Reuss Voigt Hill
#
# Bulk Modulus (GPa) = 34.32644 47.74602 41.03623
# Shear Modulus (GPa) = 24.04223 30.62646 27.33434
#
# Velocity S-wave (km/s) = 3.23186 3.64766 3.44604
# Velocity P-wave (km/s) = 5.37023 6.20350 5.80184
#
# Compressibility (1/GPa) = 0.02913206
#
# Stress axis : x y z
#
# Youngs Moduli (GPa) = 121.34801 58.72901 65.30411
#
# Poissons Ratio (x) = 0.23020 0.19731
# Poissons Ratio (y) = 0.47564 -0.07944
# Poissons Ratio (z) = 0.36664 -0.07145
#
# Static dielectric constant tensor:
#      x y z
#    x 1.977280 0.000000 -0.043960 
#    y 0.000000 1.897150 0.000000 
#    z -0.043960 0.000000 1.837120 
# 
# From -- ./inp_files/58009.got.cif
#   From: 2010.05.17/outbox.cif.g08.bks.cpg/sg5_30_cif.got.tgz:58009.got - 2010.06.03 18:56:24.
