data_PCOD9127708
_publ_section_title
;
Structure prediction by ZEFSAII (Michael W. Deem and Ramdas Pophale) SiO2 
 PCOD9127708
Probable space group: C 2
;
_chemical_formula_sum "Si O2"
_cell_formula_units_Z 30
_cell_length_a 14.312692
_cell_length_b 7.184253
_cell_length_c 11.905818
_cell_angle_alpha 90.000000
_cell_angle_beta 106.121097
_cell_angle_gamma 90.000000
_cell_volume 1176.087317
_symmetry_space_group_name_H-M "C 2"
_symmetry_group_IT_number 5
_symmetry_cell_setting 'monoclinic'
loop_
_space_group_symop_operation_xyz
x,y,z
-x,y,-z
1/2+x,1/2+y,z
1/2-x,1/2+y,-z
loop_
_atom_site_type_symbol
_atom_site_label
_atom_site_fract_x
_atom_site_fract_y
_atom_site_fract_z
Si Si1 0.500000 0.190580 0.000000
Si Si2 0.570896 0.792114 0.429337
Si Si3 0.742424 0.838756 0.648372
Si Si4 0.828193 0.719273 0.082189
Si Si5 0.947572 0.378246 0.809180
Si Si6 0.273991 0.274943 0.299734
Si Si7 0.590809 0.371111 0.456522
Si Si8 0.846063 0.282031 0.139773
O O1 0.587129 0.295843 0.969231
O O2 0.452851 0.049686 0.894284
O O3 0.500000 0.855537 0.500000
O O4 0.546272 0.925413 0.319594
O O5 0.553288 0.573389 0.402273
O O6 0.675427 0.795494 0.519447
O O7 0.726445 0.058658 0.664538
O O8 0.850605 0.797606 0.634965
O O9 0.700444 0.749369 0.750868
O O10 0.827069 0.820459 0.200609
O O11 0.849045 0.505950 0.122148
O O12 0.728659 0.713524 0.979253
O O13 0.838617 0.301474 0.771924
O O14 0.040678 0.240071 0.851770
O O15 0.326162 0.384259 0.417865
O O16 0.500000 0.289390 0.500000
#
# Coordination Sequence:
#
# PCOD9127708 Si02
#       8
#     2   4   4   4   4   4   4   4
#     4  10  24  42  66  92 130 166 222 256 330 374
#     4  11  22  40  66  92 128 165 215 254 319 387
#     4  11  21  40  61  93 125 168 211 262 312 382
#     4  10  23  45  62  96 121 170 214 269 312 387
#     4  11  20  42  66  93 122 175 206 264 312 394
#     4  11  23  41  66  90 133 163 217 262 318 375
#     4  11  24  41  58  93 132 168 206 262 320 378
#     4  10  23  41  69  91 129 163 221 262 323 376
#
# _framework density 25.508310000000002
#
# number of rings (size 3 to 8) (size 9 to 14) (size 15 to 20)
#    0.000    1.333    4.000    1.600    0.000    3.733 
#    2.400    2.667    0.000    0.000    0.000    0.000 
#    0.000    0.000    0.000    0.000    0.000    0.000 
#
# Total GULP energy -83716.347629 kJ/mol
# GULP energy per Si atom -5581.089842 kJ/mol
# Density = 2.545025 g / cm^3
# Si number density = 25.508310 Si / 1000 Ang^3
#
#
#
# Elastic Constant Matrix: (Units=GPa)
#
#
# Indices 1 2 3 4 5 6 
#
# 1 162.3778 15.6032 30.1289 0.0000 -27.5621 0.0000
# 2 15.6032 41.4023 13.1059 0.0000 19.2098 0.0000
# 3 30.1289 13.1059 109.2955 0.0000 -11.9543 0.0000
# 4 0.0000 0.0000 0.0000 4.3778 0.0000 -7.0293
# 5 -27.5621 19.2098 -11.9543 0.0000 46.6939 0.0000
# 6 0.0000 0.0000 0.0000 -7.0293 0.0000 18.0865
#
#
#
# Elastic Compliance Matrix: (Units=1/GPa)
#
#
# Indices 1 2 3 4 5 6 
#
# 1 0.008086 -0.006116 -0.000718 0.000000 0.007105 0.000000
# 2 -0.006116 0.037477 -0.005030 0.000000 -0.020316 0.000000
# 3 -0.000718 -0.005030 0.010422 0.000000 0.004314 0.000000
# 4 0.000000 0.000000 0.000000 0.607579 0.000000 0.236136
# 5 0.007105 -0.020316 0.004314 0.000000 0.035072 0.000000
# 6 0.000000 0.000000 0.000000 0.236136 0.000000 0.147064
#
#
# Mechanical properties :
#
#
# Convention : Reuss Voigt Hill
#
# Bulk Modulus (GPa) = 31.00254 47.86129 39.43191
# Shear Modulus (GPa) = 5.68065 30.78082 18.23073
#
# Velocity S-wave (km/s) = 1.49393 3.47752 2.67628
# Velocity P-wave (km/s) = 3.89308 5.90999 5.00420
#
# Compressibility (1/GPa) = 0.03225542
#
# Stress axis : x y z
#
# Youngs Moduli (GPa) = 123.67815 26.68324 95.94630
#
# Poissons Ratio (x) = 0.16320 0.06892
# Poissons Ratio (y) = 0.75646 0.48261
# Poissons Ratio (z) = 0.08884 0.13422
#
# Static dielectric constant tensor:
#      x y z
#    x 2.233680 0.000000 -0.037040 
#    y 0.000000 1.997020 0.000000 
#    z -0.037040 0.000000 1.952930 
# 
# From -- ./inp_files/42009.got.cif
#   From: 2010.05.17/outbox.cif.g08.bks.cpg/sg5_22_cif.got.tgz:42009.got - 2010.06.03 18:56:24.
