data_PCOD9127186
_publ_section_title
;
Structure prediction by ZEFSAII (Michael W. Deem and Ramdas Pophale) SiO2 
 PCOD9127186
Probable space group: C 2
;
_chemical_formula_sum "Si O2"
_cell_formula_units_Z 22
_cell_length_a 11.826227
_cell_length_b 7.115886
_cell_length_c 13.224537
_cell_angle_alpha 90.000000
_cell_angle_beta 133.790554
_cell_angle_gamma 90.000000
_cell_volume 803.373063
_symmetry_space_group_name_H-M "C 2"
_symmetry_group_IT_number 5
_symmetry_cell_setting 'monoclinic'
loop_
_space_group_symop_operation_xyz
x,y,z
-x,y,-z
1/2+x,1/2+y,z
1/2-x,1/2+y,-z
loop_
_atom_site_type_symbol
_atom_site_label
_atom_site_fract_x
_atom_site_fract_y
_atom_site_fract_z
Si Si1 0.099395 0.122910 0.265101
Si Si2 0.215765 0.085647 0.708181
Si Si3 0.183232 0.343799 0.866509
Si Si4 0.801723 0.750225 0.555197
Si Si5 0.000000 0.701240 0.000000
Si Si6 0.370694 0.172309 0.280876
O O1 0.179498 0.275537 0.389485
O O2 0.217733 0.098253 0.245605
O O3 0.930007 0.212783 0.136143
O O4 0.118903 0.927144 0.338484
O O5 0.143517 0.252401 0.731170
O O6 0.213419 0.140658 0.590545
O O7 0.394725 0.082339 0.858663
O O8 0.145281 0.892076 0.702795
O O9 0.370744 0.314705 0.984967
O O10 0.146514 0.563454 0.836621
O O11 0.944117 0.641490 0.586409
#
# Coordination Sequence:
#
# PCOD9127186 Si02
#       6
#     4   4   4   4   2   4
#     4  12  24  42  66  99 135 171 217 270 324 396
#     4  10  22  44  68  92 131 169 220 266 323 384
#     4  10  22  44  68  92 131 169 220 266 323 384
#     4  12  24  42  66  99 135 171 217 270 324 396
#     4   8  20  46  66  94 130 168 220 276 314 384
#     4  12  23  43  66  98 132 177 211 266 336 386
#
# _framework density 27.384536000000001
#
# number of rings (size 3 to 8) (size 9 to 14) (size 15 to 20)
#    1.091    0.000    3.636    3.818    0.000    1.455 
#    0.000   10.909    0.000    0.000    0.000    0.000 
#    0.000    0.000    0.000    0.000    0.000    0.000 
#
# Total GULP energy -61367.816024 kJ/mol
# GULP energy per Si atom -5578.892366 kJ/mol
# Density = 2.732221 g / cm^3
# Si number density = 27.384536 Si / 1000 Ang^3
#
#
#
# Elastic Constant Matrix: (Units=GPa)
#
#
# Indices 1 2 3 4 5 6 
#
# 1 162.8193 44.1074 12.9438 0.0000 28.6788 0.0000
# 2 44.1074 118.1262 -6.9231 0.0000 -6.2633 0.0000
# 3 12.9438 -6.9231 72.2736 0.0000 23.8453 0.0000
# 4 0.0000 0.0000 0.0000 19.5974 0.0000 -1.7059
# 5 28.6788 -6.2633 23.8453 0.0000 51.3136 0.0000
# 6 0.0000 0.0000 0.0000 -1.7059 0.0000 41.3084
#
#
#
# Elastic Compliance Matrix: (Units=1/GPa)
#
#
# Indices 1 2 3 4 5 6 
#
# 1 0.007846 -0.003188 -0.000160 0.000000 -0.004700 0.000000
# 2 -0.003188 0.009835 0.000625 0.000000 0.002692 0.000000
# 3 -0.000160 0.000625 0.016382 0.000000 -0.007447 0.000000
# 4 0.000000 0.000000 0.000000 0.051211 0.000000 0.002115
# 5 -0.004700 0.002692 -0.007447 0.000000 0.025904 0.000000
# 6 0.000000 0.000000 0.000000 0.002115 0.000000 0.024296
#
#
# Mechanical properties :
#
#
# Convention : Reuss Voigt Hill
#
# Bulk Modulus (GPa) = 34.94452 50.38615 42.66533
# Shear Modulus (GPa) = 33.23164 42.64994 37.94079
#
# Velocity S-wave (km/s) = 3.48734 3.95073 3.72624
# Velocity P-wave (km/s) = 5.38551 6.26502 5.84184
#
# Compressibility (1/GPa) = 0.02861679
#
# Stress axis : x y z
#
# Youngs Moduli (GPa) = 127.45333 101.67419 61.04335
#
# Poissons Ratio (x) = 0.32416 0.00976
# Poissons Ratio (y) = 0.40635 -0.03815
# Poissons Ratio (z) = 0.02038 -0.06354
#
# Static dielectric constant tensor:
#      x y z
#    x 2.159180 0.000000 0.022860 
#    y 0.000000 2.262950 0.000000 
#    z 0.022860 0.000000 2.060790 
# 
# From -- ./inp_files/52174.got.cif
#   From: 2010.05.17/outbox.cif.g08.bks.cpg/sg5_27_cif.got.tgz:52174.got - 2010.06.03 18:56:24.
