data_PCOD9127613
_publ_section_title
;
Structure prediction by ZEFSAII (Michael W. Deem and Ramdas Pophale) SiO2 
 PCOD9127613
Probable space group: C 2
;
_chemical_formula_sum "Si O2"
_cell_formula_units_Z 32
_cell_length_a 20.483043
_cell_length_b 9.263361
_cell_length_c 13.964071
_cell_angle_alpha 90.000000
_cell_angle_beta 147.902253
_cell_angle_gamma 90.000000
_cell_volume 1407.888555
_symmetry_space_group_name_H-M "C 2"
_symmetry_group_IT_number 5
_symmetry_cell_setting 'monoclinic'
loop_
_space_group_symop_operation_xyz
x,y,z
-x,y,-z
1/2+x,1/2+y,z
1/2-x,1/2+y,-z
loop_
_atom_site_type_symbol
_atom_site_label
_atom_site_fract_x
_atom_site_fract_y
_atom_site_fract_z
Si Si1 0.768642 0.876510 0.546556
Si Si2 0.646051 0.100954 0.059913
Si Si3 0.360095 0.095573 0.721952
Si Si4 0.645169 0.548640 0.161170
Si Si5 0.924991 0.582351 0.312780
Si Si6 0.276703 0.316902 0.244195
Si Si7 0.030606 0.846162 0.360408
Si Si8 0.790561 0.887439 0.958762
O O1 0.764781 0.706041 0.556576
O O2 0.790519 0.957946 0.673876
O O3 0.886694 0.894013 0.625314
O O4 0.658368 0.941810 0.349371
O O5 0.669747 0.106152 0.203451
O O6 0.711634 0.219635 0.075534
O O7 0.690618 0.939430 0.093528
O O8 0.500961 0.136033 0.878290
O O9 0.700390 0.709428 0.218765
O O10 0.671642 0.467951 0.093419
O O11 0.500000 0.551533 0.000000
O O12 0.836485 0.710125 0.241312
O O13 0.839209 0.454249 0.171246
O O14 0.000000 0.533835 0.500000
O O15 0.012347 0.671195 0.349794
O O16 0.390833 0.382886 0.447037
O O17 0.897326 0.909285 0.169634
#
# Coordination Sequence:
#
# PCOD9127613 Si02
#       8
#     4   4   4   4   4   4   4   4
#     4  12  22  39  64  98 135 177 210 266 329 402
#     4  11  22  40  60  96 132 168 212 266 330 386
#     4  11  24  38  61  94 137 172 211 260 328 403
#     4  11  21  36  62  97 133 177 211 255 331 411
#     4   9  23  46  67  86 123 172 227 274 328 382
#     4  10  23  40  64  93 130 172 214 272 326 393
#     4  11  21  41  64  94 123 166 219 274 324 375
#     4  11  22  42  68  90 128 175 221 272 335 389
#
# _framework density 22.729073
#
# number of rings (size 3 to 8) (size 9 to 14) (size 15 to 20)
#    0.000    1.250    5.000    0.750    1.750    1.000 
#    0.000    3.125    0.000    0.000    0.000    0.000 
#    0.000    0.000    0.000    0.000    0.000    0.000 
#
# Total GULP energy -89379.914715 kJ/mol
# GULP energy per Si atom -5586.244670 kJ/mol
# Density = 2.267734 g / cm^3
# Si number density = 22.729073 Si / 1000 Ang^3
#
#
#
# Elastic Constant Matrix: (Units=GPa)
#
#
# Indices 1 2 3 4 5 6 
#
# 1 51.7537 11.0521 3.9128 0.0000 -7.2305 0.0000
# 2 11.0521 92.7108 23.6561 0.0000 2.6174 0.0000
# 3 3.9128 23.6561 49.9941 0.0000 -6.7934 0.0000
# 4 0.0000 0.0000 0.0000 37.7362 0.0000 9.0800
# 5 -7.2305 2.6174 -6.7934 0.0000 27.7302 0.0000
# 6 0.0000 0.0000 0.0000 9.0800 0.0000 40.1386
#
#
#
# Elastic Compliance Matrix: (Units=1/GPa)
#
#
# Indices 1 2 3 4 5 6 
#
# 1 0.020679 -0.002746 0.000464 0.000000 0.005765 0.000000
# 2 -0.002746 0.012826 -0.006326 0.000000 -0.003477 0.000000
# 3 0.000464 -0.006326 0.023851 0.000000 0.006561 0.000000
# 4 0.000000 0.000000 0.000000 0.028025 0.000000 -0.006340
# 5 0.005765 -0.003477 0.006561 0.000000 0.039501 0.000000
# 6 0.000000 0.000000 0.000000 -0.006340 0.000000 0.026348
#
#
# Mechanical properties :
#
#
# Convention : Reuss Voigt Hill
#
# Bulk Modulus (GPa) = 24.91315 30.18895 27.55105
# Shear Modulus (GPa) = 27.49873 31.51018 29.50445
#
# Velocity S-wave (km/s) = 3.48206 3.72740 3.60681
# Velocity P-wave (km/s) = 5.21067 5.64230 5.43077
#
# Compressibility (1/GPa) = 0.04013944
#
# Stress axis : x y z
#
# Youngs Moduli (GPa) = 48.35794 77.96630 41.92669
#
# Poissons Ratio (x) = 0.21413 -0.01947
# Poissons Ratio (y) = 0.13281 0.26525
# Poissons Ratio (z) = -0.02246 0.49325
#
# Static dielectric constant tensor:
#      x y z
#    x 1.881430 0.000000 -0.023600 
#    y 0.000000 1.861720 0.000000 
#    z -0.023600 0.000000 1.866550 
# 
# From -- ./inp_files/57726.got.cif
#   From: 2010.05.17/outbox.cif.g08.bks.cpg/sg5_29_cif.got.tgz:57726.got - 2010.06.03 18:56:24.
