data_PCOD9127515
_publ_section_title
;
Structure prediction by ZEFSAII (Michael W. Deem and Ramdas Pophale) SiO2 
 PCOD9127515
Probable space group: C 2
;
_chemical_formula_sum "Si O2"
_cell_formula_units_Z 14
_cell_length_a 15.712557
_cell_length_b 6.734603
_cell_length_c 7.329397
_cell_angle_alpha 90.000000
_cell_angle_beta 133.267390
_cell_angle_gamma 90.000000
_cell_volume 564.749304
_symmetry_space_group_name_H-M "C 2"
_symmetry_group_IT_number 5
_symmetry_cell_setting 'monoclinic'
loop_
_space_group_symop_operation_xyz
x,y,z
-x,y,-z
1/2+x,1/2+y,z
1/2-x,1/2+y,-z
loop_
_atom_site_type_symbol
_atom_site_label
_atom_site_fract_x
_atom_site_fract_y
_atom_site_fract_z
Si Si1 0.077787 0.308340 0.258180
Si Si2 0.875295 0.768376 0.249371
Si Si3 0.000000 0.138963 0.500000
Si Si4 0.204056 0.984741 0.211907
O O1 0.195882 0.399206 0.509962
O O2 0.996522 0.260964 0.311594
O O3 0.000000 0.430189 0.000000
O O4 0.882964 0.110883 0.792191
O O5 0.773280 0.637917 0.181653
O O6 0.000000 0.679084 0.500000
O O7 0.109702 0.989398 0.641734
O O8 0.855555 0.820987 0.007707
#
# Coordination Sequence:
#
# PCOD9127515 Si02
#       4
#     4   4   2   4
#     4  12  26  46  71 108 142 185 235 296 341 429
#     4  10  24  44  71 104 141 182 233 292 341 421
#     4  10  22  48  72  98 152 172 234 300 344 396
#     4  12  26  44  76 102 144 188 237 279 371 404
#
# _framework density 24.789757999999999
#
# number of rings (size 3 to 8) (size 9 to 14) (size 15 to 20)
#    0.857    0.000    2.857    3.429    2.000    2.286 
#    0.000    0.000    0.000    0.000    0.000    0.000 
#    0.000    0.000    0.000    0.000    0.000    0.000 
#
# Total GULP energy -39122.320875 kJ/mol
# GULP energy per Si atom -5588.902982 kJ/mol
# Density = 2.473334 g / cm^3
# Si number density = 24.789758 Si / 1000 Ang^3
#
#
#
# Elastic Constant Matrix: (Units=GPa)
#
#
# Indices 1 2 3 4 5 6 
#
# 1 124.9159 48.3417 50.3077 0.0000 -11.7232 0.0000
# 2 48.3417 69.0930 55.0297 0.0000 -6.4267 0.0000
# 3 50.3077 55.0297 225.6983 0.0000 -15.0059 0.0000
# 4 0.0000 0.0000 0.0000 27.4088 0.0000 -1.0878
# 5 -11.7232 -6.4267 -15.0059 0.0000 44.5084 0.0000
# 6 0.0000 0.0000 0.0000 -1.0878 0.0000 48.9108
#
#
#
# Elastic Compliance Matrix: (Units=1/GPa)
#
#
# Indices 1 2 3 4 5 6 
#
# 1 0.011195 -0.007169 -0.000634 0.000000 0.001700 0.000000
# 2 -0.007169 0.022609 -0.003911 0.000000 0.000058 0.000000
# 3 -0.000634 -0.003911 0.005603 0.000000 0.001157 0.000000
# 4 0.000000 0.000000 0.000000 0.036517 0.000000 0.000812
# 5 0.001700 0.000058 0.001157 0.000000 0.023314 0.000000
# 6 0.000000 0.000000 0.000000 0.000812 0.000000 0.020463
#
#
# Mechanical properties :
#
#
# Convention : Reuss Voigt Hill
#
# Bulk Modulus (GPa) = 62.58570 80.78505 71.68537
# Shear Modulus (GPa) = 33.68008 41.90081 37.79044
#
# Velocity S-wave (km/s) = 3.68996 4.11572 3.90864
# Velocity P-wave (km/s) = 6.59210 7.43266 7.02496
#
# Compressibility (1/GPa) = 0.01597809
#
# Stress axis : x y z
#
# Youngs Moduli (GPa) = 89.32705 44.22923 178.49083
#
# Poissons Ratio (x) = 0.31709 0.11321
# Poissons Ratio (y) = 0.64041 0.69804
# Poissons Ratio (z) = 0.05666 0.17297
#
# Static dielectric constant tensor:
#      x y z
#    x 1.906300 0.000000 0.018390 
#    y 0.000000 1.990560 0.000000 
#    z 0.018390 0.000000 2.051840 
# 
# From -- ./inp_files/26146.got.cif
#   From: 2010.05.17/outbox.cif.g08.bks.cpg/sg5_14_cif.got.tgz:26146.got - 2010.06.03 18:56:24.
