data_PCOD9127875
_publ_section_title
;
Structure prediction by ZEFSAII (Michael W. Deem and Ramdas Pophale) SiO2 
 PCOD9127875
Probable space group: C 2
;
_chemical_formula_sum "Si O2"
_cell_formula_units_Z 28
_cell_length_a 7.789965
_cell_length_b 15.335983
_cell_length_c 12.289946
_cell_angle_alpha 90.000000
_cell_angle_beta 58.003886
_cell_angle_gamma 90.000000
_cell_volume 1245.191041
_symmetry_space_group_name_H-M "C 2"
_symmetry_group_IT_number 5
_symmetry_cell_setting 'monoclinic'
loop_
_space_group_symop_operation_xyz
x,y,z
-x,y,-z
1/2+x,1/2+y,z
1/2-x,1/2+y,-z
loop_
_atom_site_type_symbol
_atom_site_label
_atom_site_fract_x
_atom_site_fract_y
_atom_site_fract_z
Si Si1 0.056531 0.918940 0.664408
Si Si2 0.279543 0.855097 0.397394
Si Si3 0.123847 0.163925 0.052993
Si Si4 0.399758 0.949625 0.840027
Si Si5 0.718638 0.584021 0.727755
Si Si6 0.379593 0.327394 0.934243
Si Si7 0.500000 0.050113 0.000000
Si Si8 0.500000 0.194016 0.500000
O O1 0.253753 0.898596 0.524316
O O2 0.876579 0.898007 0.638816
O O3 0.007366 0.857467 0.786351
O O4 0.096072 0.016658 0.692109
O O5 0.189937 0.759060 0.451199
O O6 0.493893 0.875568 0.269305
O O7 0.309173 0.108477 0.033339
O O8 0.941948 0.162936 0.199574
O O9 0.214210 0.251939 0.970917
O O10 0.000000 0.115885 0.000000
O O11 0.299886 0.020412 0.795548
O O12 0.550743 0.994118 0.875775
O O13 0.235534 0.909880 0.977198
O O14 0.923434 0.630175 0.619140
O O15 0.500000 0.294025 0.000000
#
# Coordination Sequence:
#
# PCOD9127875 Si02
#       8
#     4   4   4   4   4   4   2   2
#     4  10  23  43  69  94 141 180 244 285 349 436
#     4  10  24  45  67  97 138 196 237 291 360 437
#     4  12  27  44  69 106 151 187 236 305 373 425
#     4  12  24  42  72 103 141 187 244 293 357 435
#     4  12  23  43  72 103 143 185 239 306 363 422
#     4  12  25  44  67 105 144 191 237 299 355 441
#     4  12  26  44  70 116 142 190 240 308 366 428
#     4  10  24  42  68 102 134 188 240 292 368 426
#
# _framework density 22.486508000000001
#
# number of rings (size 3 to 8) (size 9 to 14) (size 15 to 20)
#    0.000    0.857    3.571    4.286    7.000    0.000 
#    0.000    0.000    0.000    0.000    0.000    0.000 
#    0.000    0.000    0.000    0.000    0.000    0.000 
#
# Total GULP energy -78010.395308 kJ/mol
# GULP energy per Si atom -5572.171093 kJ/mol
# Density = 2.243533 g / cm^3
# Si number density = 22.486508 Si / 1000 Ang^3
#
#
#
# Elastic Constant Matrix: (Units=GPa)
#
#
# Indices 1 2 3 4 5 6 
#
# 1 91.4291 24.6564 34.0845 0.0000 2.2478 0.0000
# 2 24.6564 104.6957 47.1274 0.0000 0.7814 0.0000
# 3 34.0845 47.1274 144.8169 0.0000 -0.6784 0.0000
# 4 0.0000 0.0000 0.0000 22.6046 0.0000 -8.7105
# 5 2.2478 0.7814 -0.6784 0.0000 19.7777 0.0000
# 6 0.0000 0.0000 0.0000 -8.7105 0.0000 19.8898
#
#
#
# Elastic Compliance Matrix: (Units=1/GPa)
#
#
# Indices 1 2 3 4 5 6 
#
# 1 0.012332 -0.001856 -0.002305 0.000000 -0.001407 0.000000
# 2 -0.001856 0.011477 -0.003300 0.000000 -0.000356 0.000000
# 3 -0.002305 -0.003300 0.008525 0.000000 0.000685 0.000000
# 4 0.000000 0.000000 0.000000 0.053220 0.000000 0.023307
# 5 -0.001407 -0.000356 0.000685 0.000000 0.050759 0.000000
# 6 0.000000 0.000000 0.000000 0.023307 0.000000 0.060484
#
#
# Mechanical properties :
#
#
# Convention : Reuss Voigt Hill
#
# Bulk Modulus (GPa) = 57.43261 61.40870 59.42066
# Shear Modulus (GPa) = 22.98618 28.12598 25.55608
#
# Velocity S-wave (km/s) = 3.20069 3.54049 3.37487
# Velocity P-wave (km/s) = 6.26543 6.63942 6.45513
#
# Compressibility (1/GPa) = 0.01741171
#
# Stress axis : x y z
#
# Youngs Moduli (GPa) = 81.09047 87.13419 117.30520
#
# Poissons Ratio (x) = 0.16173 0.27039
# Poissons Ratio (y) = 0.15052 0.38706
# Poissons Ratio (z) = 0.18692 0.28751
#
# Static dielectric constant tensor:
#      x y z
#    x 1.926060 0.000000 -0.007870 
#    y 0.000000 1.870430 0.000000 
#    z -0.007870 0.000000 2.062720 
# 
# From -- ./inp_files/36324.got.cif
#   From: 2010.05.17/outbox.cif.g08.bks.cpg/sg5_19_cif.got.tgz:36324.got - 2010.06.03 18:56:24.
