data_PCOD9127484
_publ_section_title
;
Structure prediction by ZEFSAII (Michael W. Deem and Ramdas Pophale) SiO2 
 PCOD9127484
Probable space group: C 2
;
_chemical_formula_sum "Si O2"
_cell_formula_units_Z 20
_cell_length_a 11.887620
_cell_length_b 8.416008
_cell_length_c 10.358035
_cell_angle_alpha 90.000000
_cell_angle_beta 127.598876
_cell_angle_gamma 90.000000
_cell_volume 821.048794
_symmetry_space_group_name_H-M "C 2"
_symmetry_group_IT_number 5
_symmetry_cell_setting 'monoclinic'
loop_
_space_group_symop_operation_xyz
x,y,z
-x,y,-z
1/2+x,1/2+y,z
1/2-x,1/2+y,-z
loop_
_atom_site_type_symbol
_atom_site_label
_atom_site_fract_x
_atom_site_fract_y
_atom_site_fract_z
Si Si1 0.640534 0.638660 0.444139
Si Si2 0.666941 0.945867 0.610854
Si Si3 0.649761 0.467565 0.771589
Si Si4 0.575153 0.900340 0.185519
Si Si5 0.675598 0.106902 0.881315
O O1 0.680778 0.759072 0.588470
O O2 0.762900 0.542695 0.456557
O O3 0.507626 0.522588 0.372524
O O4 0.586142 0.763356 0.297543
O O5 0.500000 0.981226 0.500000
O O6 0.723385 0.007459 0.787924
O O7 0.767124 0.458230 0.740616
O O8 0.651508 0.288514 0.827481
O O9 0.711714 0.581962 0.926016
O O10 0.470602 0.034064 0.166927
O O11 0.500000 0.843867 0.000000
#
# Coordination Sequence:
#
# PCOD9127484 Si02
#       5
#     4   4   4   4   4
#     4  12  28  47  77 104 154 202 246 306 383 426
#     4  12  29  50  71 108 155 196 253 306 372 453
#     4  11  25  48  80 109 150 197 249 313 366 444
#     4  10  22  47  73 108 147 189 250 308 358 446
#     4  11  24  50  77 112 151 192 253 308 369 446
#
# _framework density 24.359086000000001
#
# number of rings (size 3 to 8) (size 9 to 14) (size 15 to 20)
#    0.000    0.800    4.000    2.400    2.800    3.200 
#   10.800    0.000    0.000    0.000    0.000    0.000 
#    0.000    0.000    0.000    0.000    0.000    0.000 
#
# Total GULP energy -56083.490829 kJ/mol
# GULP energy per Si atom -5608.349083 kJ/mol
# Density = 2.430364 g / cm^3
# Si number density = 24.359086 Si / 1000 Ang^3
#
#
#
# Elastic Constant Matrix: (Units=GPa)
#
#
# Indices 1 2 3 4 5 6 
#
# 1 158.4247 50.5307 42.6596 0.0000 11.7267 0.0000
# 2 50.5307 157.5442 32.1665 0.0000 6.7447 0.0000
# 3 42.6596 32.1665 60.6096 0.0000 -5.3189 0.0000
# 4 0.0000 0.0000 0.0000 42.4917 0.0000 5.5974
# 5 11.7267 6.7447 -5.3189 0.0000 53.0666 0.0000
# 6 0.0000 0.0000 0.0000 5.5974 0.0000 42.4444
#
#
#
# Elastic Compliance Matrix: (Units=1/GPa)
#
#
# Indices 1 2 3 4 5 6 
#
# 1 0.008381 -0.001515 -0.005287 0.000000 -0.002189 0.000000
# 2 -0.001515 0.007482 -0.002985 0.000000 -0.000915 0.000000
# 3 -0.005287 -0.002985 0.022135 0.000000 0.003766 0.000000
# 4 0.000000 0.000000 0.000000 0.023950 0.000000 -0.003158
# 5 -0.002189 -0.000915 0.003766 0.000000 0.019822 0.000000
# 6 0.000000 0.000000 0.000000 -0.003158 0.000000 0.023977
#
#
# Mechanical properties :
#
#
# Convention : Reuss Voigt Hill
#
# Bulk Modulus (GPa) = 54.27639 69.69912 61.98775
# Shear Modulus (GPa) = 38.03386 44.34866 41.19126
#
# Velocity S-wave (km/s) = 3.95572 4.27150 4.11664
# Velocity P-wave (km/s) = 6.57220 7.28031 6.93530
#
# Compressibility (1/GPa) = 0.01842422
#
# Stress axis : x y z
#
# Youngs Moduli (GPa) = 119.31638 133.65527 45.17748
#
# Poissons Ratio (x) = 0.20248 0.23886
# Poissons Ratio (y) = 0.18075 0.13485
# Poissons Ratio (z) = 0.63084 0.39894
#
# Static dielectric constant tensor:
#      x y z
#    x 1.918820 0.000000 -0.044690 
#    y 0.000000 1.913170 0.000000 
#    z -0.044690 0.000000 2.001960 
# 
# From -- ./inp_files/38491.got.cif
#   From: 2010.05.17/outbox.cif.g08.bks.cpg/sg5_20_cif.got.tgz:38491.got - 2010.06.03 18:56:24.
