data_PCOD9127501
_publ_section_title
;
Structure prediction by ZEFSAII (Michael W. Deem and Ramdas Pophale) SiO2 
 PCOD9127501
Probable space group: C 2
;
_chemical_formula_sum "Si O2"
_cell_formula_units_Z 28
_cell_length_a 19.662114
_cell_length_b 10.911408
_cell_length_c 6.114030
_cell_angle_alpha 90.000000
_cell_angle_beta 100.778593
_cell_angle_gamma 90.000000
_cell_volume 1288.569951
_symmetry_space_group_name_H-M "C 2"
_symmetry_group_IT_number 5
_symmetry_cell_setting 'monoclinic'
loop_
_space_group_symop_operation_xyz
x,y,z
-x,y,-z
1/2+x,1/2+y,z
1/2-x,1/2+y,-z
loop_
_atom_site_type_symbol
_atom_site_label
_atom_site_fract_x
_atom_site_fract_y
_atom_site_fract_z
Si Si1 0.163887 0.700190 0.935077
Si Si2 0.000000 0.297908 0.000000
Si Si3 0.614847 0.391928 0.241605
Si Si4 0.692969 0.716597 0.733127
Si Si5 0.859891 0.430360 0.985173
Si Si6 0.074108 0.075489 0.859470
Si Si7 0.741993 0.340085 0.606652
Si Si8 0.000000 0.889432 0.500000
O O1 0.191203 0.761914 0.730570
O O2 0.118798 0.796137 0.044738
O O3 0.233773 0.688162 0.116759
O O4 0.131288 0.565761 0.910982
O O5 0.972080 0.198675 0.159677
O O6 0.068429 0.380370 0.078539
O O7 0.690657 0.403695 0.400088
O O8 0.561800 0.335973 0.389111
O O9 0.592306 0.519299 0.109641
O O10 0.642646 0.607826 0.767083
O O11 0.707243 0.747703 0.492034
O O12 0.662339 0.836621 0.836278
O O13 0.794891 0.422720 0.778052
O O14 0.036620 0.973383 0.700215
#
# Coordination Sequence:
#
# PCOD9127501 Si02
#       8
#     4   2   4   4   4   4   4   2
#     4  10  23  43  64  99 137 177 230 288 344 406
#     4  10  22  48  66  98 136 180 220 290 340 406
#     4  11  24  44  64 105 136 180 235 285 347 410
#     4   9  23  38  68 100 132 174 226 288 340 416
#     4  10  23  45  67  99 138 181 231 288 344 414
#     4  11  23  42  68 103 137 174 231 292 345 405
#     4  10  23  44  70 100 135 185 234 281 357 406
#     4  12  24  38  72  98 136 184 222 290 346 416
#
# _framework density 21.729514000000002
#
# number of rings (size 3 to 8) (size 9 to 14) (size 15 to 20)
#    0.000    1.714    1.429    0.857   10.000    3.429 
#   10.286    0.000    0.000    0.000    0.000    0.000 
#    0.000    0.000    0.000    0.000    0.000    0.000 
#
# Total GULP energy -78091.883324 kJ/mol
# GULP energy per Si atom -5577.991666 kJ/mol
# Density = 2.168006 g / cm^3
# Si number density = 21.729514 Si / 1000 Ang^3
#
#
#
# Elastic Constant Matrix: (Units=GPa)
#
#
# Indices 1 2 3 4 5 6 
#
# 1 110.0354 47.5658 36.3903 0.0000 -22.2217 0.0000
# 2 47.5658 85.6092 21.9808 0.0000 5.8700 0.0000
# 3 36.3903 21.9808 85.6716 0.0000 -11.5930 0.0000
# 4 0.0000 0.0000 0.0000 4.6178 0.0000 -11.6045
# 5 -22.2217 5.8700 -11.5930 0.0000 42.9743 0.0000
# 6 0.0000 0.0000 0.0000 -11.6045 0.0000 34.0951
#
#
#
# Elastic Compliance Matrix: (Units=1/GPa)
#
#
# Indices 1 2 3 4 5 6 
#
# 1 0.015422 -0.008281 -0.003315 0.000000 0.008212 0.000000
# 2 -0.008281 0.017253 -0.001876 0.000000 -0.007145 0.000000
# 3 -0.003315 -0.001876 0.013871 0.000000 0.002284 0.000000
# 4 0.000000 0.000000 0.000000 1.496700 0.000000 0.509413
# 5 0.008212 -0.007145 0.002284 0.000000 0.029108 0.000000
# 6 0.000000 0.000000 0.000000 0.509413 0.000000 0.202712
#
#
# Mechanical properties :
#
#
# Convention : Reuss Voigt Hill
#
# Bulk Modulus (GPa) = 51.01304 54.79889 52.90596
# Shear Modulus (GPa) = 2.76465 28.02941 15.39703
#
# Velocity S-wave (km/s) = 1.12919 3.59545 2.66480
# Velocity P-wave (km/s) = 5.02269 6.51995 5.81967
#
# Compressibility (1/GPa) = 0.01960283
#
# Stress axis : x y z
#
# Youngs Moduli (GPa) = 64.84161 57.95928 72.09262
#
# Poissons Ratio (x) = 0.47994 0.23899
# Poissons Ratio (y) = 0.53693 0.13526
# Poissons Ratio (z) = 0.21495 0.10874
#
# Static dielectric constant tensor:
#      x y z
#    x 1.830990 0.000000 -0.023340 
#    y 0.000000 1.817840 0.000000 
#    z -0.023340 0.000000 1.817550 
# 
# From -- ./inp_files/9475.got.cif
#   From: 2010.05.17/outbox.cif.g08.bks.cpg/sg5_5_cif.got.tgz:9475.got - 2010.06.03 18:56:24.
