data_PCOD9127779
_publ_section_title
;
Structure prediction by ZEFSAII (Michael W. Deem and Ramdas Pophale) SiO2 
 PCOD9127779
Probable space group: C 2
;
_chemical_formula_sum "Si O2"
_cell_formula_units_Z 20
_cell_length_a 13.207658
_cell_length_b 18.830002
_cell_length_c 10.645329
_cell_angle_alpha 90.000000
_cell_angle_beta 22.082707
_cell_angle_gamma 90.000000
_cell_volume 995.311728
_symmetry_space_group_name_H-M "C 2"
_symmetry_group_IT_number 5
_symmetry_cell_setting 'monoclinic'
loop_
_space_group_symop_operation_xyz
x,y,z
-x,y,-z
1/2+x,1/2+y,z
1/2-x,1/2+y,-z
loop_
_atom_site_type_symbol
_atom_site_label
_atom_site_fract_x
_atom_site_fract_y
_atom_site_fract_z
Si Si1 0.299817 0.215550 0.618518
Si Si2 0.282200 0.267041 0.364245
Si Si3 0.523958 0.622807 0.618268
Si Si4 0.306919 0.923183 0.602490
Si Si5 0.065731 0.574002 0.652354
O O1 0.500000 0.234003 0.500000
O O2 0.385452 0.247371 0.384848
O O3 0.299260 0.130227 0.598216
O O4 0.000000 0.238603 0.000000
O O5 0.179408 0.347431 0.482040
O O6 0.056197 0.207619 0.597237
O O7 0.500000 0.260313 0.000000
O O8 0.500000 0.605712 0.500000
O O9 0.786726 0.591495 0.385285
O O10 0.248612 0.593671 0.992523
O O11 0.500000 0.918484 0.500000
O O12 0.389032 0.992506 0.431391
O O13 0.000000 0.932430 0.000000
#
# Coordination Sequence:
#
# PCOD9127779 Si02
#       5
#     4   4   4   4   4
#     4  11  22  38  61  91 125 161 206 258 311 368
#     4  10  23  42  67  95 127 166 213 260 312 374
#     4  11  21  38  62  89 120 162 214 259 304 369
#     4  11  23  40  63  91 123 160 208 263 312 366
#     4  11  22  38  61  88 124 163 206 258 313 369
#
# _framework density 20.094207000000001
#
# number of rings (size 3 to 8) (size 9 to 14) (size 15 to 20)
#    0.000    1.200    0.000    8.400    0.000    6.400 
#    0.000    3.000    0.000    0.000    0.000    0.000 
#    0.000    0.000    0.000    0.000    0.000    0.000 
#
# Total GULP energy -55885.389530 kJ/mol
# GULP energy per Si atom -5588.538953 kJ/mol
# Density = 2.004847 g / cm^3
# Si number density = 20.094207 Si / 1000 Ang^3
#
#
#
# Elastic Constant Matrix: (Units=GPa)
#
#
# Indices 1 2 3 4 5 6 
#
# 1 159.2394 39.3990 38.4343 -0.0570 -6.1047 0.0293
# 2 39.3990 180.0275 42.3794 -0.0885 2.4581 0.0530
# 3 38.4343 42.3794 86.9343 -0.0680 -9.0794 -0.0457
# 4 -0.0570 -0.0885 -0.0680 34.5586 0.0405 2.8631
# 5 -6.1047 2.4581 -9.0794 0.0405 33.6779 -0.0188
# 6 0.0293 0.0530 -0.0457 2.8631 -0.0188 14.6506
#
#
#
# Elastic Compliance Matrix: (Units=1/GPa)
#
#
# Indices 1 2 3 4 5 6 
#
# 1 0.007179 -0.000959 -0.002637 0.000005 0.000660 -0.000019
# 2 -0.000959 0.006461 -0.002874 0.000014 -0.001420 -0.000035
# 3 -0.002637 -0.002874 0.014449 0.000007 0.003627 0.000064
# 4 0.000005 0.000014 0.000007 0.029413 -0.000037 -0.005748
# 5 0.000660 -0.001420 0.003627 -0.000037 0.030894 0.000062
# 6 -0.000019 -0.000035 0.000064 -0.005748 0.000062 0.069380
#
#
# Mechanical properties :
#
#
# Convention : Reuss Voigt Hill
#
# Bulk Modulus (GPa) = 66.01665 74.06963 70.04314
# Shear Modulus (GPa) = 28.44701 36.97666 32.71183
#
# Velocity S-wave (km/s) = 3.76664 4.29437 4.03913
# Velocity P-wave (km/s) = 7.20011 7.84411 7.52900
#
# Compressibility (1/GPa) = 0.01514769
#
# Stress axis : x y z
#
# Youngs Moduli (GPa) = 139.29382 154.78608 69.21073
#
# Poissons Ratio (x) = 0.14849 0.18253
# Poissons Ratio (y) = 0.13363 0.19889
# Poissons Ratio (z) = 0.36736 0.44480
#
# Static dielectric constant tensor:
#      x y z
#    x 1.721260 0.000000 0.009210 
#    y 0.000000 1.699900 0.000020 
#    z 0.009210 0.000020 1.747440 
# 
# From -- ./inp_files/43221.got.cif
#   From: 2010.05.17/outbox.cif.g08.bks.cpg/sg5_22_cif.got.tgz:43221.got - 2010.06.03 18:56:24.
