data_PCOD9127916
_publ_section_title
;
Structure prediction by ZEFSAII (Michael W. Deem and Ramdas Pophale) SiO2 
 PCOD9127916
Probable space group: C 2
;
_chemical_formula_sum "Si O2"
_cell_formula_units_Z 32
_cell_length_a 18.194791
_cell_length_b 4.951426
_cell_length_c 16.244071
_cell_angle_alpha 90.000000
_cell_angle_beta 113.646689
_cell_angle_gamma 90.000000
_cell_volume 1340.555735
_symmetry_space_group_name_H-M "C 2"
_symmetry_group_IT_number 5
_symmetry_cell_setting 'monoclinic'
loop_
_space_group_symop_operation_xyz
x,y,z
-x,y,-z
1/2+x,1/2+y,z
1/2-x,1/2+y,-z
loop_
_atom_site_type_symbol
_atom_site_label
_atom_site_fract_x
_atom_site_fract_y
_atom_site_fract_z
Si Si1 0.419408 0.517830 0.828714
Si Si2 0.922050 0.748219 0.415847
Si Si3 0.739672 0.326328 0.551643
Si Si4 0.814321 0.946609 0.935617
Si Si5 0.949822 0.620110 0.048071
Si Si6 0.049872 0.268559 0.678670
Si Si7 0.861083 0.269218 0.122720
Si Si8 0.098130 0.507017 0.291056
O O1 0.350933 0.542194 0.866673
O O2 0.497586 0.386341 0.907788
O O3 0.405159 0.310897 0.746006
O O4 0.423351 0.813435 0.794392
O O5 0.901336 0.515353 0.340494
O O6 0.000000 0.641587 0.500000
O O7 0.844776 0.803644 0.438359
O O8 0.952727 0.022058 0.385970
O O9 0.765046 0.038210 0.525638
O O10 0.812220 0.436955 0.639987
O O11 0.720629 0.910903 0.887846
O O12 0.837480 0.096525 0.031339
O O13 0.862980 0.668819 0.968716
O O14 0.924879 0.486684 0.120913
O O15 0.000000 0.468747 0.000000
O O16 0.095852 0.144155 0.778930
O O17 0.965946 0.409857 0.668567
#
# Coordination Sequence:
#
# PCOD9127916 Si02
#       8
#     4   4   4   4   4   4   4   4
#     4  11  26  44  70 101 141 193 244 301 342 422
#     4  12  27  50  77 110 145 184 232 291 375 440
#     4  12  26  48  78 107 144 184 232 290 364 443
#     4  11  26  41  68  97 145 193 247 297 356 410
#     4  10  23  44  64  96 131 192 243 290 347 410
#     4  12  27  45  76 107 148 186 237 300 357 436
#     4  12  25  42  69 101 145 190 247 294 362 406
#     4  12  25  46  72 105 143 183 242 293 360 415
#
# _framework density 23.870698999999998
#
# number of rings (size 3 to 8) (size 9 to 14) (size 15 to 20)
#    0.000    0.500    2.500    4.875    8.750    0.500 
#    0.000    0.000    0.000    0.000    0.000    0.000 
#    0.000    0.000    0.000    0.000    0.000    0.000 
#
# Total GULP energy -89482.356916 kJ/mol
# GULP energy per Si atom -5592.647307 kJ/mol
# Density = 2.381637 g / cm^3
# Si number density = 23.870699 Si / 1000 Ang^3
#
#
#
# Elastic Constant Matrix: (Units=GPa)
#
#
# Indices 1 2 3 4 5 6 
#
# 1 155.4465 5.1256 52.2249 0.0000 0.1540 -0.0001
# 2 5.1256 57.6101 -2.9019 0.0001 -10.0236 -0.0002
# 3 52.2249 -2.9019 63.2238 0.0000 -0.5666 0.0000
# 4 0.0000 0.0001 0.0000 55.2864 0.0000 -15.8587
# 5 0.1540 -10.0236 -0.5666 0.0000 45.7072 0.0000
# 6 -0.0001 -0.0002 0.0000 -15.8587 0.0000 33.7719
#
#
#
# Elastic Compliance Matrix: (Units=1/GPa)
#
#
# Indices 1 2 3 4 5 6 
#
# 1 0.008990 -0.001246 -0.007487 0.000000 -0.000396 0.000000
# 2 -0.001246 0.018267 0.001904 0.000000 0.004034 0.000000
# 3 -0.007487 0.001904 0.022095 0.000000 0.000717 0.000000
# 4 0.000000 0.000000 0.000000 0.020903 0.000000 0.009816
# 5 -0.000396 0.004034 0.000717 0.000000 0.022773 0.000000
# 6 0.000000 0.000000 0.000000 0.009816 0.000000 0.034220
#
#
# Mechanical properties :
#
#
# Convention : Reuss Voigt Hill
#
# Bulk Modulus (GPa) = 28.01617 42.79749 35.40683
# Shear Modulus (GPa) = 32.72190 41.74190 37.23190
#
# Velocity S-wave (km/s) = 3.70645 4.18624 3.95363
# Velocity P-wave (km/s) = 5.48444 6.42915 5.97549
#
# Compressibility (1/GPa) = 0.03569368
#
# Stress axis : x y z
#
# Youngs Moduli (GPa) = 111.23708 54.74462 45.25954
#
# Poissons Ratio (x) = 0.06821 0.33884
# Poissons Ratio (y) = 0.13859 -0.08616
# Poissons Ratio (z) = 0.83279 -0.10422
#
# Static dielectric constant tensor:
#      x y z
#    x 1.785610 0.000000 -0.044780 
#    y 0.000000 1.944250 0.000000 
#    z -0.044780 0.000000 1.954720 
# 
# From -- ./inp_files/55476.got.cif
#   From: 2010.05.17/outbox.cif.g08.bks.cpg/sg5_28_cif.got.tgz:55476.got - 2010.06.03 18:56:24.
