data_PCOD9127510
_publ_section_title
;
Structure prediction by ZEFSAII (Michael W. Deem and Ramdas Pophale) SiO2 
 PCOD9127510
Probable space group: C 2
;
_chemical_formula_sum "Si O2"
_cell_formula_units_Z 18
_cell_length_a 10.031594
_cell_length_b 11.032258
_cell_length_c 7.749131
_cell_angle_alpha 90.000000
_cell_angle_beta 102.684898
_cell_angle_gamma 90.000000
_cell_volume 836.673075
_symmetry_space_group_name_H-M "C 2"
_symmetry_group_IT_number 5
_symmetry_cell_setting 'monoclinic'
loop_
_space_group_symop_operation_xyz
x,y,z
-x,y,-z
1/2+x,1/2+y,z
1/2-x,1/2+y,-z
loop_
_atom_site_type_symbol
_atom_site_label
_atom_site_fract_x
_atom_site_fract_y
_atom_site_fract_z
Si Si1 0.912875 0.001810 0.134332
Si Si2 0.649861 0.870712 0.475128
Si Si3 0.500000 0.638983 0.500000
Si Si4 0.129863 0.539036 0.149467
Si Si5 0.565407 0.289894 0.326904
O O1 0.947681 0.063013 0.326354
O O2 0.757625 0.036995 0.057787
O O3 0.955419 0.862643 0.180507
O O4 0.000000 0.048399 0.000000
O O5 0.500000 0.918870 0.500000
O O6 0.617269 0.727686 0.460680
O O7 0.795151 0.872149 0.616523
O O8 0.666143 0.936865 0.299796
O O9 0.104118 0.664530 0.243994
O O10 0.000000 0.507040 0.000000
O O11 0.500000 0.272192 0.500000
#
# Coordination Sequence:
#
# PCOD9127510 Si02
#       5
#     4   4   2   4   4
#     4  12  26  46  74 105 147 195 246 306 369 435
#     4  10  23  44  73 101 145 193 244 292 368 439
#     4  10  22  48  70 102 142 198 248 286 368 442
#     4  12  26  47  69 114 148 186 251 310 364 438
#     4  12  24  47  79 103 145 199 249 298 369 441
#
# _framework density 21.513780000000001
#
# number of rings (size 3 to 8) (size 9 to 14) (size 15 to 20)
#    0.667    0.000    5.556    1.333    3.111    2.667 
#    8.000    0.000    0.000    0.000    0.000    0.000 
#    0.000    0.000    0.000    0.000    0.000    0.000 
#
# Total GULP energy -50205.030617 kJ/mol
# GULP energy per Si atom -5578.336735 kJ/mol
# Density = 2.146481 g / cm^3
# Si number density = 21.513780 Si / 1000 Ang^3
#
#
#
# Elastic Constant Matrix: (Units=GPa)
#
#
# Indices 1 2 3 4 5 6 
#
# 1 154.8000 17.7640 23.8077 0.0000 -11.7275 0.0000
# 2 17.7640 83.0725 24.9156 0.0000 -6.1782 0.0000
# 3 23.8077 24.9156 61.0709 0.0000 -5.1325 0.0000
# 4 0.0000 0.0000 0.0000 12.1155 0.0000 6.3791
# 5 -11.7275 -6.1782 -5.1325 0.0000 39.3249 0.0000
# 6 0.0000 0.0000 0.0000 6.3791 0.0000 29.8532
#
#
#
# Elastic Compliance Matrix: (Units=1/GPa)
#
#
# Indices 1 2 3 4 5 6 
#
# 1 0.007022 -0.000681 -0.002318 0.000000 0.001685 0.000000
# 2 -0.000681 0.013863 -0.005282 0.000000 0.001285 0.000000
# 3 -0.002318 -0.005282 0.019519 0.000000 0.001026 0.000000
# 4 0.000000 0.000000 0.000000 0.093002 0.000000 -0.019873
# 5 0.001685 0.001285 0.001026 0.000000 0.026267 0.000000
# 6 0.000000 0.000000 0.000000 -0.019873 0.000000 0.037744
#
#
# Mechanical properties :
#
#
# Convention : Reuss Voigt Hill
#
# Bulk Modulus (GPa) = 41.94303 47.99089 44.96696
# Shear Modulus (GPa) = 22.52975 31.75580 27.14277
#
# Velocity S-wave (km/s) = 3.23959 3.84613 3.55582
# Velocity P-wave (km/s) = 5.79064 6.48684 6.14860
#
# Compressibility (1/GPa) = 0.02384187
#
# Stress axis : x y z
#
# Youngs Moduli (GPa) = 142.40457 72.13323 51.23098
#
# Poissons Ratio (x) = 0.04913 0.11876
# Poissons Ratio (y) = 0.09699 0.27062
# Poissons Ratio (z) = 0.33011 0.38103
#
# Static dielectric constant tensor:
#      x y z
#    x 1.909990 0.000000 0.042760 
#    y 0.000000 1.770710 0.000000 
#    z 0.042760 0.000000 1.733780 
# 
# From -- ./inp_files/14339.got.cif
#   From: 2010.05.17/outbox.cif.g08.bks.cpg/sg5_8_cif.got.tgz:14339.got - 2010.06.03 18:56:24.
