data_PCOD9127394
_publ_section_title
;
Structure prediction by ZEFSAII (Michael W. Deem and Ramdas Pophale) SiO2 
 PCOD9127394
Probable space group: C 2
;
_chemical_formula_sum "Si O2"
_cell_formula_units_Z 24
_cell_length_a 22.367361
_cell_length_b 7.961938
_cell_length_c 11.445713
_cell_angle_alpha 90.000000
_cell_angle_beta 28.699364
_cell_angle_gamma 90.000000
_cell_volume 978.838384
_symmetry_space_group_name_H-M "C 2"
_symmetry_group_IT_number 5
_symmetry_cell_setting 'monoclinic'
loop_
_space_group_symop_operation_xyz
x,y,z
-x,y,-z
1/2+x,1/2+y,z
1/2-x,1/2+y,-z
loop_
_atom_site_type_symbol
_atom_site_label
_atom_site_fract_x
_atom_site_fract_y
_atom_site_fract_z
Si Si1 0.697970 0.204610 0.453101
Si Si2 0.811539 0.325274 0.483424
Si Si3 0.714921 0.130989 0.940207
Si Si4 0.462789 0.660027 0.435467
Si Si5 0.268495 0.534997 0.092652
Si Si6 0.951365 0.696870 0.964354
O O1 0.803005 0.267615 0.363049
O O2 0.733688 0.155522 0.260495
O O3 0.566079 0.297805 0.706500
O O4 0.666070 0.020341 0.554756
O O5 0.908075 0.247687 0.411553
O O6 0.670782 0.296284 0.777007
O O7 0.843980 0.047868 0.677452
O O8 0.739913 0.332338 0.884885
O O9 0.688297 0.087745 0.117955
O O10 0.606805 0.083200 0.037038
O O11 0.500000 0.743889 0.500000
O O12 0.588752 0.572371 0.182143
O O13 0.000000 0.619077 0.000000
#
# Coordination Sequence:
#
# PCOD9127394 Si02
#       6
#     4   4   4   4   4   4
#     4  11  23  44  68 100 131 177 218 269 335 386
#     4  10  22  46  67  97 137 171 219 276 325 390
#     4  10  22  46  67  97 137 171 219 276 325 390
#     4   9  20  41  68  92 131 172 211 271 322 380
#     4  11  23  44  68 100 131 177 218 269 335 386
#     4   9  20  41  68  92 131 172 211 271 322 380
#
# _framework density 24.518858000000002
#
# number of rings (size 3 to 8) (size 9 to 14) (size 15 to 20)
#    0.000    2.000    3.333    0.000    0.000    6.667 
#   30.000    0.000    0.000    0.000    0.000    0.000 
#    0.000    0.000    0.000    0.000    0.000    0.000 
#
# Total GULP energy -66809.774085 kJ/mol
# GULP energy per Si atom -5567.481174 kJ/mol
# Density = 2.446305 g / cm^3
# Si number density = 24.518858 Si / 1000 Ang^3
#
#
#
# Elastic Constant Matrix: (Units=GPa)
#
#
# Indices 1 2 3 4 5 6 
#
# 1 222.1822 18.0276 57.6734 0.0000 14.1306 0.0000
# 2 18.0276 42.1744 16.8778 0.0000 4.8106 0.0000
# 3 57.6734 16.8778 108.5833 0.0000 9.6910 0.0000
# 4 0.0000 0.0000 0.0000 13.4482 0.0000 -3.5894
# 5 14.1306 4.8106 9.6910 0.0000 49.9591 0.0000
# 6 0.0000 0.0000 0.0000 -3.5894 0.0000 16.5338
#
#
#
# Elastic Compliance Matrix: (Units=1/GPa)
#
#
# Indices 1 2 3 4 5 6 
#
# 1 0.005317 -0.001143 -0.002566 0.000000 -0.000896 0.000000
# 2 -0.001143 0.025673 -0.003248 0.000000 -0.001519 0.000000
# 3 -0.002566 -0.003248 0.011178 0.000000 -0.001130 0.000000
# 4 0.000000 0.000000 0.000000 0.078933 0.000000 0.017136
# 5 -0.000896 -0.001519 -0.001130 0.000000 0.020635 0.000000
# 6 0.000000 0.000000 0.000000 0.017136 0.000000 0.064202
#
#
# Mechanical properties :
#
#
# Convention : Reuss Voigt Hill
#
# Bulk Modulus (GPa) = 35.39445 62.01083 48.70264
# Shear Modulus (GPa) = 21.80830 34.67895 28.24362
#
# Velocity S-wave (km/s) = 2.98560 3.76490 3.39767
# Velocity P-wave (km/s) = 5.13342 6.65171 5.94127
#
# Compressibility (1/GPa) = 0.02825302
#
# Stress axis : x y z
#
# Youngs Moduli (GPa) = 188.08635 38.95188 89.45994
#
# Poissons Ratio (x) = 0.04454 0.22958
# Poissons Ratio (y) = 0.21507 0.29053
# Poissons Ratio (z) = 0.48268 0.12650
#
# Static dielectric constant tensor:
#      x y z
#    x 2.095210 0.000000 -0.008080 
#    y 0.000000 1.987900 0.000000 
#    z -0.008080 0.000000 2.091200 
# 
# From -- ./inp_files/47251.got.cif
#   From: 2010.05.17/outbox.cif.g08.bks.cpg/sg5_24_cif.got.tgz:47251.got - 2010.06.03 18:56:24.
