data_PCOD9127709
_publ_section_title
;
Structure prediction by ZEFSAII (Michael W. Deem and Ramdas Pophale) SiO2 
 PCOD9127709
Probable space group: C 2
;
_chemical_formula_sum "Si O2"
_cell_formula_units_Z 32
_cell_length_a 9.633137
_cell_length_b 10.146549
_cell_length_c 15.327879
_cell_angle_alpha 90.000000
_cell_angle_beta 105.837885
_cell_angle_gamma 90.000000
_cell_volume 1441.319524
_symmetry_space_group_name_H-M "C 2"
_symmetry_group_IT_number 5
_symmetry_cell_setting 'monoclinic'
loop_
_space_group_symop_operation_xyz
x,y,z
-x,y,-z
1/2+x,1/2+y,z
1/2-x,1/2+y,-z
loop_
_atom_site_type_symbol
_atom_site_label
_atom_site_fract_x
_atom_site_fract_y
_atom_site_fract_z
Si Si1 0.734344 0.646060 0.079279
Si Si2 0.131489 0.402457 0.474419
Si Si3 0.901415 0.867193 0.210029
Si Si4 0.807685 0.916103 0.667842
Si Si5 0.927132 0.152639 0.124966
Si Si6 0.905410 0.435836 0.207115
Si Si7 0.497421 0.630676 0.601482
Si Si8 0.221769 0.506113 0.313047
O O1 0.832004 0.763611 0.133113
O O2 0.584074 0.647298 0.106649
O O3 0.817671 0.511860 0.116753
O O4 0.692421 0.663052 0.971631
O O5 0.237343 0.356545 0.568901
O O6 0.202668 0.485759 0.412287
O O7 0.000000 0.475778 0.500000
O O8 0.061956 0.277367 0.414835
O O9 0.803987 0.884383 0.279868
O O10 0.064123 0.833403 0.266130
O O11 0.903732 0.012302 0.167201
O O12 0.688706 0.948728 0.720390
O O13 0.890729 0.044183 0.642679
O O14 0.923121 0.283431 0.183292
O O15 0.061762 0.504605 0.245927
O O16 0.500000 0.584454 0.500000
O O17 0.657578 0.620051 0.669496
#
# Coordination Sequence:
#
# PCOD9127709 Si02
#       8
#     4   4   4   4   4   4   4   4
#     4  11  25  48  74 108 142 187 233 299 368 433
#     4  11  23  41  68  97 136 190 230 292 348 405
#     4  11  25  45  75 105 144 188 238 295 360 427
#     4  11  24  43  68 104 141 186 242 288 354 417
#     4  11  25  49  74 106 148 182 231 301 371 428
#     4  12  25  45  77 106 144 188 239 295 359 428
#     4  10  23  41  69  92 137 185 235 288 351 400
#     4  11  24  41  67 101 140 181 240 285 345 417
#
# _framework density 22.201877
#
# number of rings (size 3 to 8) (size 9 to 14) (size 15 to 20)
#    0.000    1.000    5.000    0.750    5.250    3.000 
#    0.000    1.250   11.000    0.000    0.000    0.000 
#    0.000    0.000    0.000    0.000    0.000    0.000 
#
# Total GULP energy -89456.210673 kJ/mol
# GULP energy per Si atom -5591.013167 kJ/mol
# Density = 2.215134 g / cm^3
# Si number density = 22.201877 Si / 1000 Ang^3
#
#
#
# Elastic Constant Matrix: (Units=GPa)
#
#
# Indices 1 2 3 4 5 6 
#
# 1 120.5953 24.3962 35.7688 0.0000 20.2728 0.0000
# 2 24.3962 84.0796 19.4272 0.0000 6.6440 0.0000
# 3 35.7688 19.4272 109.2428 0.0000 25.7362 0.0000
# 4 0.0000 0.0000 0.0000 73.7041 0.0000 22.7637
# 5 20.2728 6.6440 25.7362 0.0000 50.4927 0.0000
# 6 0.0000 0.0000 0.0000 22.7637 0.0000 35.8714
#
#
#
# Elastic Compliance Matrix: (Units=1/GPa)
#
#
# Indices 1 2 3 4 5 6 
#
# 1 0.009811 -0.002130 -0.002241 0.000000 -0.002517 0.000000
# 2 -0.002130 0.012880 -0.001586 0.000000 -0.000031 0.000000
# 3 -0.002241 -0.001586 0.011261 0.000000 -0.004631 0.000000
# 4 0.000000 0.000000 0.000000 0.016875 0.000000 -0.010709
# 5 -0.002517 -0.000031 -0.004631 0.000000 0.023180 0.000000
# 6 0.000000 0.000000 0.000000 -0.010709 0.000000 0.034673
#
#
# Mechanical properties :
#
#
# Convention : Reuss Voigt Hill
#
# Bulk Modulus (GPa) = 45.37420 52.56690 48.97055
# Shear Modulus (GPa) = 39.08103 47.63535 43.35819
#
# Velocity S-wave (km/s) = 4.20009 4.63704 4.42396
# Velocity P-wave (km/s) = 6.63344 7.23862 6.94263
#
# Compressibility (1/GPa) = 0.02203896
#
# Stress axis : x y z
#
# Youngs Moduli (GPa) = 101.92915 77.63720 88.80509
#
# Poissons Ratio (x) = 0.16537 0.19897
# Poissons Ratio (y) = 0.21712 0.14082
# Poissons Ratio (z) = 0.22838 0.12311
#
# Static dielectric constant tensor:
#      x y z
#    x 1.539900 0.000000 0.046780 
#    y 0.000000 1.804370 0.000000 
#    z 0.046780 0.000000 1.821990 
# 
# From -- ./inp_files/50528.got.cif
#   From: 2010.05.17/outbox.cif.g08.bks.cpg/sg5_26_cif.got.tgz:50528.got - 2010.06.03 18:56:24.
