data_PCOD9127208
_publ_section_title
;
Structure prediction by ZEFSAII (Michael W. Deem and Ramdas Pophale) SiO2 
 PCOD9127208
Probable space group: C 2
;
_chemical_formula_sum "Si O2"
_cell_formula_units_Z 32
_cell_length_a 8.005351
_cell_length_b 11.988140
_cell_length_c 26.533990
_cell_angle_alpha 90.000000
_cell_angle_beta 33.777204
_cell_angle_gamma 90.000000
_cell_volume 1415.735623
_symmetry_space_group_name_H-M "C 2"
_symmetry_group_IT_number 5
_symmetry_cell_setting 'monoclinic'
loop_
_space_group_symop_operation_xyz
x,y,z
-x,y,-z
1/2+x,1/2+y,z
1/2-x,1/2+y,-z
loop_
_atom_site_type_symbol
_atom_site_label
_atom_site_fract_x
_atom_site_fract_y
_atom_site_fract_z
Si Si1 0.835697 0.699290 0.692694
Si Si2 0.785689 0.889714 0.967434
Si Si3 0.806856 0.703144 0.135741
Si Si4 0.916072 0.936085 0.677856
Si Si5 0.697402 0.956915 0.845024
Si Si6 0.577147 0.239243 0.775461
Si Si7 0.723026 0.664142 0.602515
Si Si8 0.159892 0.528066 0.221797
O O1 0.521013 0.749662 0.793579
O O2 0.039526 0.809559 0.647765
O O3 0.796760 0.673686 0.643535
O O4 0.875022 0.585564 0.714095
O O5 0.918843 0.772225 0.953534
O O6 0.500000 0.879438 0.000000
O O7 0.645174 0.937142 0.053860
O O8 0.052899 0.960355 0.873129
O O9 0.760547 0.573834 0.136859
O O10 0.874710 0.717189 0.177913
O O11 0.777250 0.969746 0.766895
O O12 0.635285 0.950810 0.710235
O O13 0.149788 0.034747 0.608421
O O14 0.910622 0.855554 0.808618
O O15 0.383096 0.138721 0.801537
O O16 0.913400 0.230276 0.669111
O O17 0.000000 0.704197 0.500000
#
# Coordination Sequence:
#
# PCOD9127208 Si02
#       8
#     4   4   4   4   4   4   4   4
#     4  11  22  42  72  97 137 183 224 285 362 413
#     4  12  26  37  63 102 141 184 251 288 331 408
#     4  11  23  42  63  95 136 184 235 287 348 404
#     4  11  23  45  68  99 137 182 228 285 360 418
#     4  12  23  41  67  98 134 195 227 289 349 400
#     4  10  22  44  69  92 139 183 223 286 364 405
#     4  10  24  49  72 105 141 173 232 296 361 436
#     4  11  23  43  65  98 139 180 237 282 335 412
#
# _framework density 22.603090999999999
#
# number of rings (size 3 to 8) (size 9 to 14) (size 15 to 20)
#    0.000    1.000    7.500    0.750    1.750    0.500 
#    2.250    2.500    0.000    0.000    0.000    0.000 
#    0.000    0.000    0.000    0.000    0.000    0.000 
#
# Total GULP energy -89221.873198 kJ/mol
# GULP energy per Si atom -5576.367075 kJ/mol
# Density = 2.255165 g / cm^3
# Si number density = 22.603091 Si / 1000 Ang^3
#
#
#
# Elastic Constant Matrix: (Units=GPa)
#
#
# Indices 1 2 3 4 5 6 
#
# 1 34.6934 2.3764 7.0747 0.0096 0.6832 -0.0009
# 2 2.3764 138.9297 21.9872 0.0209 -14.6784 -0.0072
# 3 7.0747 21.9872 85.4624 0.1247 -6.6742 -0.0524
# 4 0.0096 0.0209 0.1247 23.4005 -0.0258 -0.9206
# 5 0.6832 -14.6784 -6.6742 -0.0258 12.6851 0.0081
# 6 -0.0009 -0.0072 -0.0524 -0.9206 0.0081 28.3602
#
#
#
# Elastic Compliance Matrix: (Units=1/GPa)
#
#
# Indices 1 2 3 4 5 6 
#
# 1 0.029453 -0.000462 -0.002591 -0.000002 -0.003484 -0.000003
# 2 -0.000462 0.008378 -0.001416 0.000010 0.008974 -0.000003
# 3 -0.002591 -0.001416 0.012684 -0.000059 0.005174 0.000020
# 4 -0.000002 0.000010 -0.000059 0.042789 0.000067 0.001389
# 5 -0.003484 0.008974 0.005174 0.000067 0.092128 -0.000013
# 6 -0.000003 -0.000003 0.000020 0.001389 -0.000013 0.035306
#
#
# Mechanical properties :
#
#
# Convention : Reuss Voigt Hill
#
# Bulk Modulus (GPa) = 24.05251 35.77355 29.91303
# Shear Modulus (GPa) = 20.53092 28.06562 24.29827
#
# Velocity S-wave (km/s) = 3.01711 3.52756 3.28227
# Velocity P-wave (km/s) = 4.77510 5.69673 5.25616
#
# Compressibility (1/GPa) = 0.04157570
#
# Stress axis : x y z
#
# Youngs Moduli (GPa) = 33.95288 119.35869 78.83849
#
# Poissons Ratio (x) = 0.05512 0.20430
# Poissons Ratio (y) = 0.01568 0.11167
# Poissons Ratio (z) = 0.08799 0.16906
#
# Static dielectric constant tensor:
#      x y z
#    x 1.960980 0.000010 -0.037300 
#    y 0.000010 1.913270 -0.000010 
#    z -0.037300 -0.000010 1.839080 
# 
# From -- ./inp_files/71581.got.cif
#   From: 2010.05.17/outbox.cif.g08.bks.cpg/sg5_36_cif.got.tgz:71581.got - 2010.06.03 18:56:24.
