data_PCOD9127765
_publ_section_title
;
Structure prediction by ZEFSAII (Michael W. Deem and Ramdas Pophale) SiO2 
 PCOD9127765
Probable space group: C 2
;
_chemical_formula_sum "Si O2"
_cell_formula_units_Z 20
_cell_length_a 13.308758
_cell_length_b 5.220237
_cell_length_c 11.362948
_cell_angle_alpha 90.000000
_cell_angle_beta 107.047932
_cell_angle_gamma 90.000000
_cell_volume 754.751248
_symmetry_space_group_name_H-M "C 2"
_symmetry_group_IT_number 5
_symmetry_cell_setting 'monoclinic'
loop_
_space_group_symop_operation_xyz
x,y,z
-x,y,-z
1/2+x,1/2+y,z
1/2-x,1/2+y,-z
loop_
_atom_site_type_symbol
_atom_site_label
_atom_site_fract_x
_atom_site_fract_y
_atom_site_fract_z
Si Si1 0.597852 0.479010 0.474128
Si Si2 0.921839 0.595542 0.877500
Si Si3 0.952534 0.370310 0.280120
Si Si4 0.821362 0.240254 0.019177
Si Si5 0.256474 0.808136 0.326429
O O1 0.500000 0.327919 0.500000
O O2 0.464938 0.713277 0.612255
O O3 0.674774 0.570494 0.604073
O O4 0.679734 0.381220 0.405661
O O5 0.885957 0.325280 0.924235
O O6 0.817745 0.742199 0.806889
O O7 0.983510 0.568113 0.776717
O O8 0.000000 0.715523 0.000000
O O9 0.853117 0.483792 0.317180
O O10 0.898751 0.201093 0.157109
O O11 0.755286 0.501642 0.018005
#
# Coordination Sequence:
#
# PCOD9127765 Si02
#       5
#     4   4   4   4   4
#     4  10  24  42  66  99 138 188 251 295 366 429
#     4  10  23  42  66 107 139 184 242 293 365 442
#     4  10  23  42  66 103 139 184 243 293 357 439
#     4  11  24  45  72 107 149 194 235 299 371 433
#     4  11  22  45  66  98 144 192 235 314 353 434
#
# _framework density 26.498795999999999
#
# number of rings (size 3 to 8) (size 9 to 14) (size 15 to 20)
#    0.000    1.600    2.000    1.200    2.800    4.800 
#    0.000    5.000    0.000    0.000    0.000    0.000 
#    0.000    0.000    0.000    0.000    0.000    0.000 
#
# Total GULP energy -55921.133312 kJ/mol
# GULP energy per Si atom -5592.113331 kJ/mol
# Density = 2.643848 g / cm^3
# Si number density = 26.498796 Si / 1000 Ang^3
#
#
#
# Elastic Constant Matrix: (Units=GPa)
#
#
# Indices 1 2 3 4 5 6 
#
# 1 230.7774 55.9634 46.3904 0.0000 -30.1662 0.0000
# 2 55.9634 75.7799 30.3401 0.0000 5.1753 0.0000
# 3 46.3904 30.3401 79.6657 0.0000 -2.1475 0.0000
# 4 0.0000 0.0000 0.0000 25.1295 0.0000 -6.1737
# 5 -30.1662 5.1753 -2.1475 0.0000 85.8600 0.0000
# 6 0.0000 0.0000 0.0000 -6.1737 0.0000 38.3478
#
#
#
# Elastic Compliance Matrix: (Units=1/GPa)
#
#
# Indices 1 2 3 4 5 6 
#
# 1 0.005933 -0.003749 -0.001966 0.000000 0.002261 0.000000
# 2 -0.003749 0.018041 -0.004756 0.000000 -0.002524 0.000000
# 3 -0.001966 -0.004756 0.015508 0.000000 -0.000016 0.000000
# 4 0.000000 0.000000 0.000000 0.041433 0.000000 0.006670
# 5 0.002261 -0.002524 -0.000016 0.000000 0.012593 0.000000
# 6 0.000000 0.000000 0.000000 0.006670 0.000000 0.027151
#
#
# Mechanical properties :
#
#
# Convention : Reuss Voigt Hill
#
# Bulk Modulus (GPa) = 53.93580 72.40119 63.16850
# Shear Modulus (GPa) = 33.83384 46.76939 40.30162
#
# Velocity S-wave (km/s) = 3.57712 4.20570 3.90408
# Velocity P-wave (km/s) = 6.12040 7.13903 6.64925
#
# Compressibility (1/GPa) = 0.01854056
#
# Stress axis : x y z
#
# Youngs Moduli (GPa) = 168.54576 55.42918 64.48193
#
# Poissons Ratio (x) = 0.20779 0.12679
# Poissons Ratio (y) = 0.63184 0.30667
# Poissons Ratio (z) = 0.33141 0.26361
#
# Static dielectric constant tensor:
#      x y z
#    x 2.097670 0.000000 -0.101400 
#    y 0.000000 2.083900 0.000000 
#    z -0.101400 0.000000 2.101830 
# 
# From -- ./inp_files/41119.got.cif
#   From: 2010.05.17/outbox.cif.g08.bks.cpg/sg5_21_cif.got.tgz:41119.got - 2010.06.03 18:56:24.
