data_PCOD9127053
_publ_section_title
;
Structure prediction by ZEFSAII (Michael W. Deem and Ramdas Pophale) SiO2 
 PCOD9127053
Probable space group: C 2
;
_chemical_formula_sum "Si O2"
_cell_formula_units_Z 30
_cell_length_a 13.554706
_cell_length_b 5.464968
_cell_length_c 16.581341
_cell_angle_alpha 90.000000
_cell_angle_beta 80.768361
_cell_angle_gamma 90.000000
_cell_volume 1212.371094
_symmetry_space_group_name_H-M "C 2"
_symmetry_group_IT_number 5
_symmetry_cell_setting 'monoclinic'
loop_
_space_group_symop_operation_xyz
x,y,z
-x,y,-z
1/2+x,1/2+y,z
1/2-x,1/2+y,-z
loop_
_atom_site_type_symbol
_atom_site_label
_atom_site_fract_x
_atom_site_fract_y
_atom_site_fract_z
Si Si1 0.462857 0.803020 0.156888
Si Si2 0.521592 0.179247 0.728003
Si Si3 0.359144 0.882758 0.660053
Si Si4 0.344682 0.583111 0.323185
Si Si5 0.500000 0.509914 0.000000
Si Si6 0.185829 0.241918 0.506970
Si Si7 0.703870 0.317639 0.038502
Si Si8 0.646860 0.550965 0.200470
O O1 0.393829 0.676940 0.234396
O O2 0.446664 0.688297 0.072145
O O3 0.580987 0.741703 0.156090
O O4 0.450986 0.082450 0.186012
O O5 0.614798 0.305560 0.673340
O O6 0.437892 0.382903 0.750329
O O7 0.461035 0.977347 0.685843
O O8 0.274913 0.092499 0.665375
O O9 0.371871 0.772879 0.569780
O O10 0.309057 0.697759 0.731139
O O11 0.373367 0.718362 0.401649
O O12 0.587079 0.347793 0.028766
O O13 0.253485 0.485976 0.505229
O O14 0.712409 0.390221 0.131894
O O15 0.740629 0.045392 0.013200
#
# Coordination Sequence:
#
# PCOD9127053 Si02
#       8
#     4   4   4   4   2   4   4   4
#     4   9  21  42  65 101 133 184 230 289 347 420
#     4  10  22  43  68  98 135 180 233 285 349 413
#     4  10  23  41  74  95 137 186 223 288 357 402
#     4  10  23  41  71  98 135 177 237 283 344 426
#     4  10  24  46  70 100 150 184 234 300 358 406
#     4  10  24  44  70 103 139 180 233 288 346 419
#     4  11  27  45  70 105 140 185 241 291 353 430
#     4   9  22  42  65  97 140 173 235 294 339 419
#
# _framework density 24.744897000000002
#
# number of rings (size 3 to 8) (size 9 to 14) (size 15 to 20)
#    0.000    2.133    0.000    0.000   14.933    1.600 
#    2.400    7.333    0.000    0.000    0.000    0.000 
#    0.000    0.000    0.000    0.000    0.000    0.000 
#
# Total GULP energy -83798.512732 kJ/mol
# GULP energy per Si atom -5586.567515 kJ/mol
# Density = 2.468858 g / cm^3
# Si number density = 24.744897 Si / 1000 Ang^3
#
#
#
# Elastic Constant Matrix: (Units=GPa)
#
#
# Indices 1 2 3 4 5 6 
#
# 1 74.2578 22.5653 27.8896 0.0000 -8.5278 0.0000
# 2 22.5653 77.7420 7.7179 0.0000 -3.7879 0.0000
# 3 27.8896 7.7179 135.4992 0.0000 -5.2486 0.0000
# 4 0.0000 0.0000 0.0000 38.2651 0.0000 -11.3396
# 5 -8.5278 -3.7879 -5.2486 0.0000 31.6149 0.0000
# 6 0.0000 0.0000 0.0000 -11.3396 0.0000 32.6560
#
#
#
# Elastic Compliance Matrix: (Units=1/GPa)
#
#
# Indices 1 2 3 4 5 6 
#
# 1 0.016267 -0.004262 -0.002974 0.000000 0.003384 0.000000
# 2 -0.004262 0.014118 0.000095 0.000000 0.000558 0.000000
# 3 -0.002974 0.000095 0.008008 0.000000 0.000538 0.000000
# 4 0.000000 0.000000 0.000000 0.029131 0.000000 0.010116
# 5 0.003384 0.000558 0.000538 0.000000 0.032700 0.000000
# 6 0.000000 0.000000 0.000000 0.010116 0.000000 0.034135
#
#
# Mechanical properties :
#
#
# Convention : Reuss Voigt Hill
#
# Bulk Modulus (GPa) = 41.47647 44.87163 43.17405
# Shear Modulus (GPa) = 31.91256 35.79560 33.85408
#
# Velocity S-wave (km/s) = 3.59508 3.80753 3.70283
# Velocity P-wave (km/s) = 5.83360 6.12395 5.98053
#
# Compressibility (1/GPa) = 0.02411006
#
# Stress axis : x y z
#
# Youngs Moduli (GPa) = 61.47302 70.83262 124.87794
#
# Poissons Ratio (x) = 0.30186 0.37145
# Poissons Ratio (y) = 0.26197 -0.01182
# Poissons Ratio (z) = 0.18285 -0.00670
#
# Static dielectric constant tensor:
#      x y z
#    x 1.938750 0.000000 0.014120 
#    y 0.000000 2.048120 0.000000 
#    z 0.014120 0.000000 1.989880 
# 
# From -- ./inp_files/61097.got.cif
#   From: 2010.05.17/outbox.cif.g08.bks.cpg/sg5_31_cif.got.tgz:61097.got - 2010.06.03 18:56:24.
