data_PCOD9127832
_publ_section_title
;
Structure prediction by ZEFSAII (Michael W. Deem and Ramdas Pophale) SiO2 
 PCOD9127832
Probable space group: C 2
;
_chemical_formula_sum "Si O2"
_cell_formula_units_Z 24
_cell_length_a 10.695153
_cell_length_b 9.356263
_cell_length_c 21.403075
_cell_angle_alpha 90.000000
_cell_angle_beta 34.914512
_cell_angle_gamma 90.000000
_cell_volume 1225.829317
_symmetry_space_group_name_H-M "C 2"
_symmetry_group_IT_number 5
_symmetry_cell_setting 'monoclinic'
loop_
_space_group_symop_operation_xyz
x,y,z
-x,y,-z
1/2+x,1/2+y,z
1/2-x,1/2+y,-z
loop_
_atom_site_type_symbol
_atom_site_label
_atom_site_fract_x
_atom_site_fract_y
_atom_site_fract_z
Si Si1 0.567837 0.328290 0.290639
Si Si2 0.539748 0.185199 0.056319
Si Si3 0.044092 0.341407 0.055395
Si Si4 0.224937 0.117267 0.385562
Si Si5 0.323099 0.320321 0.523480
Si Si6 0.607848 0.634097 0.294541
O O1 0.432530 0.218321 0.304457
O O2 0.441688 0.320640 0.408279
O O3 0.555972 0.494070 0.274573
O O4 0.825462 0.296241 0.182904
O O5 0.310993 0.219506 0.183783
O O6 0.570341 0.013296 0.049933
O O7 0.500000 0.219172 0.000000
O O8 0.743719 0.264627 0.003764
O O9 0.000000 0.309415 0.000000
O O10 0.186843 0.076247 0.329511
O O11 0.000000 0.193571 0.500000
O O12 0.237944 0.978024 0.424697
O O13 0.500000 0.261182 0.500000
O O14 0.106353 0.227371 0.609964
#
# Coordination Sequence:
#
# PCOD9127832 Si02
#       6
#     4   4   4   4   4   4
#     4  11  21  39  63  85 119 156 192 245 291 348
#     4  10  24  41  63  89 119 157 204 250 293 352
#     4  10  23  43  61  88 122 157 203 248 297 350
#     4  11  21  39  58  86 123 152 194 236 292 356
#     4  11  22  38  59  90 120 151 194 239 294 353
#     4  11  23  41  60  86 122 155 192 246 294 349
#
# _framework density 19.578582000000001
#
# number of rings (size 3 to 8) (size 9 to 14) (size 15 to 20)
#    0.000    1.333    5.000    1.000    2.333    2.667 
#    3.000    0.000    0.000    0.000    0.000    0.000 
#    0.000    0.000    0.000    0.000    0.000    0.000 
#
# Total GULP energy -66959.449099 kJ/mol
# GULP energy per Si atom -5579.954092 kJ/mol
# Density = 1.953402 g / cm^3
# Si number density = 19.578582 Si / 1000 Ang^3
#
#
#
# Elastic Constant Matrix: (Units=GPa)
#
#
# Indices 1 2 3 4 5 6 
#
# 1 102.6481 53.1070 48.4487 0.0000 -23.2049 0.0000
# 2 53.1070 57.8500 39.1509 0.0000 -21.8567 0.0000
# 3 48.4487 39.1509 155.8513 -0.0001 -28.1228 0.0000
# 4 0.0000 0.0000 -0.0001 31.0844 0.0000 -13.7258
# 5 -23.2049 -21.8567 -28.1228 0.0000 32.9540 0.0000
# 6 0.0000 0.0000 0.0000 -13.7258 0.0000 28.3820
#
#
#
# Elastic Compliance Matrix: (Units=1/GPa)
#
#
# Indices 1 2 3 4 5 6 
#
# 1 0.019033 -0.015762 -0.001685 0.000000 0.001511 0.000000
# 2 -0.015762 0.037949 -0.002475 0.000000 0.011958 0.000000
# 3 -0.001685 -0.002475 0.008335 0.000000 0.004285 0.000000
# 4 0.000000 0.000000 0.000000 0.040906 0.000000 0.019782
# 5 0.001511 0.011958 0.004285 0.000000 0.042997 0.000000
# 6 0.000000 0.000000 0.000000 0.019782 0.000000 0.044800
#
#
# Mechanical properties :
#
#
# Convention : Reuss Voigt Hill
#
# Bulk Modulus (GPa) = 39.25644 66.41806 52.83725
# Shear Modulus (GPa) = 20.63075 30.19360 25.41218
#
# Velocity S-wave (km/s) = 3.24966 3.93131 3.60663
# Velocity P-wave (km/s) = 5.84591 7.38948 6.66255
#
# Compressibility (1/GPa) = 0.02547353
#
# Stress axis : x y z
#
# Youngs Moduli (GPa) = 52.53898 26.35108 119.97389
#
# Poissons Ratio (x) = 0.41535 0.20212
# Poissons Ratio (y) = 0.82812 0.29698
# Poissons Ratio (z) = 0.08851 0.06523
#
# Static dielectric constant tensor:
#      x y z
#    x 1.689770 0.000000 0.029230 
#    y 0.000000 1.684880 0.000000 
#    z 0.029230 0.000000 1.704140 
# 
# From -- ./inp_files/35427.got.cif
#   From: 2010.05.17/outbox.cif.g08.bks.cpg/sg5_18_cif.got.tgz:35427.got - 2010.06.03 18:56:24.
