data_PCOD9127954
_publ_section_title
;
Structure prediction by ZEFSAII (Michael W. Deem and Ramdas Pophale) SiO2 
 PCOD9127954
Probable space group: C 2
;
_chemical_formula_sum "Si O2"
_cell_formula_units_Z 20
_cell_length_a 26.816277
_cell_length_b 7.613167
_cell_length_c 11.576767
_cell_angle_alpha 90.000000
_cell_angle_beta 156.507767
_cell_angle_gamma 90.000000
_cell_volume 942.139887
_symmetry_space_group_name_H-M "C 2"
_symmetry_group_IT_number 5
_symmetry_cell_setting 'monoclinic'
loop_
_space_group_symop_operation_xyz
x,y,z
-x,y,-z
1/2+x,1/2+y,z
1/2-x,1/2+y,-z
loop_
_atom_site_type_symbol
_atom_site_label
_atom_site_fract_x
_atom_site_fract_y
_atom_site_fract_z
Si Si1 0.358381 0.284780 0.153464
Si Si2 0.128856 0.124539 0.259501
Si Si3 0.131817 0.374534 0.845330
Si Si4 0.368736 0.254069 0.667707
Si Si5 0.811611 0.077955 0.864786
O O1 0.500000 0.320913 0.500000
O O2 0.355212 0.082381 0.106924
O O3 0.251797 0.312478 0.024625
O O4 0.324112 0.419404 0.978999
O O5 0.256902 0.227566 0.523302
O O6 0.121923 0.042820 0.115540
O O7 0.133348 0.963066 0.357352
O O8 0.000000 0.228717 0.000000
O O9 0.000000 0.346954 0.500000
O O10 0.131551 0.252344 0.956850
O O11 0.327613 0.137055 0.471494
O O12 0.500000 0.203780 0.000000
#
# Coordination Sequence:
#
# PCOD9127954 Si02
#       5
#     4   4   4   4   4
#     4  11  24  44  71  98 139 169 219 277 327 400
#     4   9  21  43  62  90 130 172 221 272 317 384
#     4  11  24  46  67 102 135 171 222 273 329 405
#     4   9  21  43  62  91 136 162 227 274 315 386
#     4  10  23  44  69  97 133 182 215 269 342 381
#
# _framework density 21.228268
#
# number of rings (size 3 to 8) (size 9 to 14) (size 15 to 20)
#    1.200    0.800    2.000    0.600    0.000    5.600 
#    7.200    0.000    0.000    0.000    0.000    0.000 
#    0.000    0.000    0.000    0.000    0.000    0.000 
#
# Total GULP energy -55724.237440 kJ/mol
# GULP energy per Si atom -5572.423744 kJ/mol
# Density = 2.117995 g / cm^3
# Si number density = 21.228268 Si / 1000 Ang^3
#
#
#
# Elastic Constant Matrix: (Units=GPa)
#
#
# Indices 1 2 3 4 5 6 
#
# 1 31.4965 6.9484 14.9052 0.0000 14.3406 0.0000
# 2 6.9484 105.6410 59.4093 0.0000 -6.9640 0.0000
# 3 14.9052 59.4093 153.0341 0.0000 24.6287 0.0000
# 4 0.0000 0.0000 0.0000 5.9411 0.0000 -6.5991
# 5 14.3406 -6.9640 24.6287 0.0000 42.2820 0.0000
# 6 0.0000 0.0000 0.0000 -6.5991 0.0000 19.6922
#
#
#
# Elastic Compliance Matrix: (Units=1/GPa)
#
#
# Indices 1 2 3 4 5 6 
#
# 1 0.038767 -0.003243 -0.000347 0.000000 -0.013480 0.000000
# 2 -0.003243 0.013525 -0.006036 0.000000 0.006843 0.000000
# 3 -0.000347 -0.006036 0.009989 0.000000 -0.006695 0.000000
# 4 0.000000 0.000000 0.000000 0.268120 0.000000 0.089850
# 5 -0.013480 0.006843 -0.006695 0.000000 0.033249 0.000000
# 6 0.000000 0.000000 0.000000 0.089850 0.000000 0.080891
#
#
# Mechanical properties :
#
#
# Convention : Reuss Voigt Hill
#
# Bulk Modulus (GPa) = 23.24069 50.29970 36.77020
# Shear Modulus (GPa) = 10.45724 27.51032 18.98378
#
# Velocity S-wave (km/s) = 2.22189 3.60381 2.99368
# Velocity P-wave (km/s) = 4.18977 6.40802 5.41372
#
# Compressibility (1/GPa) = 0.04302798
#
# Stress axis : x y z
#
# Youngs Moduli (GPa) = 25.79510 73.93764 100.11042
#
# Poissons Ratio (x) = 0.23979 0.03477
# Poissons Ratio (y) = 0.08366 0.60426
# Poissons Ratio (z) = 0.00896 0.44629
#
# Static dielectric constant tensor:
#      x y z
#    x 1.773840 0.000000 0.022440 
#    y 0.000000 1.749270 0.000000 
#    z 0.022440 0.000000 1.794690 
# 
# From -- ./inp_files/48323.got.cif
#   From: 2010.05.17/outbox.cif.g08.bks.cpg/sg5_25_cif.got.tgz:48323.got - 2010.06.03 18:56:24.
