data_PCOD9127341
_publ_section_title
;
Structure prediction by ZEFSAII (Michael W. Deem and Ramdas Pophale) SiO2 
 PCOD9127341
Probable space group: C 2
;
_chemical_formula_sum "Si O2"
_cell_formula_units_Z 26
_cell_length_a 12.514966
_cell_length_b 6.482634
_cell_length_c 26.959787
_cell_angle_alpha 90.000000
_cell_angle_beta 150.265789
_cell_angle_gamma 90.000000
_cell_volume 1084.824230
_symmetry_space_group_name_H-M "C 2"
_symmetry_group_IT_number 5
_symmetry_cell_setting 'monoclinic'
loop_
_space_group_symop_operation_xyz
x,y,z
-x,y,-z
1/2+x,1/2+y,z
1/2-x,1/2+y,-z
loop_
_atom_site_type_symbol
_atom_site_label
_atom_site_fract_x
_atom_site_fract_y
_atom_site_fract_z
Si Si1 0.934023 0.256570 0.395646
Si Si2 0.295612 0.935324 0.763124
Si Si3 0.500000 0.716310 0.000000
Si Si4 0.819456 0.678581 0.370797
Si Si5 0.688674 0.087845 0.130762
Si Si6 0.734235 0.339860 0.052710
Si Si7 0.750294 0.403128 0.561559
O O1 0.062164 0.367506 0.402134
O O2 0.755839 0.109850 0.298397
O O3 0.809927 0.434517 0.375761
O O4 0.114606 0.115366 0.496825
O O5 0.191305 0.031999 0.770415
O O6 0.534987 0.875950 0.877381
O O7 0.228474 0.733902 0.705657
O O8 0.373325 0.562780 0.984698
O O9 0.340440 0.869914 0.908069
O O10 0.701007 0.833663 0.362067
O O11 0.070109 0.732644 0.477071
O O12 0.780972 0.243325 0.126526
O O13 0.451608 0.192933 0.044158
#
# Coordination Sequence:
#
# PCOD9127341 Si02
#       7
#     4   4   2   4   4   4   4
#     4  11  23  45  70  98 136 175 221 277 330 405
#     4  11  25  39  63 105 127 172 226 271 333 388
#     4   8  18  40  66  88 110 188 208 270 334 376
#     4  10  24  42  67 100 133 169 225 270 330 402
#     4   9  21  41  63  88 132 171 221 270 326 392
#     4   9  21  41  61  91 132 167 225 271 326 392
#     4  10  22  45  70  95 131 177 218 266 346 396
#
# _framework density 23.967013999999999
#
# number of rings (size 3 to 8) (size 9 to 14) (size 15 to 20)
#    0.000    2.462    1.538    0.000    4.308    9.846 
#    0.000    0.000    0.000    0.000    0.000    0.000 
#    0.000    0.000    0.000    0.000    0.000    0.000 
#
# Total GULP energy -72404.797352 kJ/mol
# GULP energy per Si atom -5569.599796 kJ/mol
# Density = 2.391246 g / cm^3
# Si number density = 23.967014 Si / 1000 Ang^3
#
#
#
# Elastic Constant Matrix: (Units=GPa)
#
#
# Indices 1 2 3 4 5 6 
#
# 1 85.4969 30.9521 17.8170 0.0000 -13.7590 0.0000
# 2 30.9521 157.2526 27.0999 0.0001 -23.3712 0.0000
# 3 17.8170 27.0999 46.3170 -0.0001 -17.2312 0.0001
# 4 0.0000 0.0001 -0.0001 5.6707 0.0000 -6.2951
# 5 -13.7590 -23.3712 -17.2312 0.0000 21.3763 0.0000
# 6 0.0000 0.0000 0.0001 -6.2951 0.0000 27.4730
#
#
#
# Elastic Compliance Matrix: (Units=1/GPa)
#
#
# Indices 1 2 3 4 5 6 
#
# 1 0.013570 -0.001486 -0.002436 0.000000 0.005146 0.000000
# 2 -0.001486 0.007879 -0.001699 0.000000 0.006288 0.000000
# 3 -0.002436 -0.001699 0.031776 0.000001 0.022189 0.000000
# 4 0.000000 0.000000 0.000001 0.236503 0.000000 0.054191
# 5 0.005146 0.006288 0.022189 0.000000 0.074854 0.000000
# 6 0.000000 0.000000 0.000000 0.054191 0.000000 0.048817
#
#
# Mechanical properties :
#
#
# Convention : Reuss Voigt Hill
#
# Bulk Modulus (GPa) = 23.81913 48.97827 36.39870
# Shear Modulus (GPa) = 11.39896 25.11719 18.25807
#
# Velocity S-wave (km/s) = 2.18321 3.24078 2.76307
# Velocity P-wave (km/s) = 4.03920 5.87227 5.03978
#
# Compressibility (1/GPa) = 0.04198306
#
# Stress axis : x y z
#
# Youngs Moduli (GPa) = 73.69075 126.91795 31.46990
#
# Poissons Ratio (x) = 0.18866 0.07666
# Poissons Ratio (y) = 0.10954 0.05346
# Poissons Ratio (z) = 0.17951 0.21561
#
# Static dielectric constant tensor:
#      x y z
#    x 1.986190 0.000000 -0.042380 
#    y 0.000000 1.874960 0.000000 
#    z -0.042380 0.000000 1.960440 
# 
# From -- ./inp_files/71855.got.cif
#   From: 2010.05.17/outbox.cif.g08.bks.cpg/sg5_36_cif.got.tgz:71855.got - 2010.06.03 18:56:24.
