data_PCOD9127963
_publ_section_title
;
Structure prediction by ZEFSAII (Michael W. Deem and Ramdas Pophale) SiO2 
 PCOD9127963
Probable space group: C 2
;
_chemical_formula_sum "Si O2"
_cell_formula_units_Z 30
_cell_length_a 24.090435
_cell_length_b 8.682100
_cell_length_c 14.824703
_cell_angle_alpha 90.000000
_cell_angle_beta 26.228797
_cell_angle_gamma 90.000000
_cell_volume 1370.361692
_symmetry_space_group_name_H-M "C 2"
_symmetry_group_IT_number 5
_symmetry_cell_setting 'monoclinic'
loop_
_space_group_symop_operation_xyz
x,y,z
-x,y,-z
1/2+x,1/2+y,z
1/2-x,1/2+y,-z
loop_
_atom_site_type_symbol
_atom_site_label
_atom_site_fract_x
_atom_site_fract_y
_atom_site_fract_z
Si Si1 0.000000 0.432750 0.500000
Si Si2 0.069331 0.055823 0.037139
Si Si3 0.769344 0.789207 0.129079
Si Si4 0.620005 0.083680 0.722002
Si Si5 0.178383 0.528695 0.829192
Si Si6 0.172681 0.948189 0.690586
Si Si7 0.862250 0.574678 0.836287
Si Si8 0.712833 0.800136 0.926957
O O1 0.127468 0.335936 0.313667
O O2 0.004569 0.533691 0.402020
O O3 0.130620 0.014332 0.849796
O O4 0.097842 0.215910 0.044178
O O5 0.137568 0.930606 0.998452
O O6 0.923005 0.031632 0.238507
O O7 0.764491 0.694310 0.229210
O O8 0.836794 0.684237 0.956863
O O9 0.675128 0.992721 0.728699
O O10 0.691060 0.013065 0.533010
O O11 0.646172 0.265217 0.709056
O O12 0.470946 0.052515 0.931386
O O13 0.252736 0.410247 0.785359
O O14 0.796262 0.664681 0.848717
O O15 0.813359 0.414813 0.951700
#
# Coordination Sequence:
#
# PCOD9127963 Si02
#       8
#     2   4   4   4   4   4   4   4
#     4  12  24  42  78  96 138 190 242 302 362 434
#     4  11  22  45  67  95 143 185 225 292 367 412
#     4  11  22  46  69  98 138 192 238 295 371 425
#     4  11  23  44  66 105 139 187 231 290 358 443
#     4  10  23  44  70  92 147 183 225 292 362 422
#     4  11  25  40  69 102 142 182 235 289 354 448
#     4  11  24  46  69 103 140 183 244 305 363 419
#     4  11  23  42  72  97 136 186 230 307 354 427
#
# _framework density 21.892030999999999
#
# number of rings (size 3 to 8) (size 9 to 14) (size 15 to 20)
#    0.000    1.067    5.333    0.800    3.733    4.267 
#    2.400    2.667    0.000    0.000    0.000    0.000 
#    0.000    0.000    0.000    0.000    0.000    0.000 
#
# Total GULP energy -83510.113430 kJ/mol
# GULP energy per Si atom -5567.340895 kJ/mol
# Density = 2.184220 g / cm^3
# Si number density = 21.892031 Si / 1000 Ang^3
#
#
#
# Elastic Constant Matrix: (Units=GPa)
#
#
# Indices 1 2 3 4 5 6 
#
# 1 65.4381 16.8298 2.7471 0.0000 6.2403 0.0000
# 2 16.8298 83.4027 -6.7801 0.0000 4.3359 0.0000
# 3 2.7471 -6.7801 65.7929 0.0000 17.6169 0.0000
# 4 0.0000 0.0000 0.0000 13.2549 0.0000 -5.1442
# 5 6.2403 4.3359 17.6169 0.0000 16.8971 0.0000
# 6 0.0000 0.0000 0.0000 -5.1442 0.0000 32.7849
#
#
#
# Elastic Compliance Matrix: (Units=1/GPa)
#
#
# Indices 1 2 3 4 5 6 
#
# 1 0.016596 -0.002988 0.000603 0.000000 -0.005991 0.000000
# 2 -0.002988 0.013101 0.002885 0.000000 -0.005266 0.000000
# 3 0.000603 0.002885 0.021821 0.000000 -0.023714 0.000000
# 4 0.000000 0.000000 0.000000 0.080336 0.000000 0.012605
# 5 -0.005991 -0.005266 -0.023714 0.000000 0.087469 0.000000
# 6 0.000000 0.000000 0.000000 0.012605 0.000000 0.032480
#
#
# Mechanical properties :
#
#
# Convention : Reuss Voigt Hill
#
# Bulk Modulus (GPa) = 19.04097 26.69191 22.86644
# Shear Modulus (GPa) = 18.63515 26.04318 22.33916
#
# Velocity S-wave (km/s) = 2.92075 3.45283 3.19787
# Velocity P-wave (km/s) = 4.48229 5.30236 4.90948
#
# Compressibility (1/GPa) = 0.05251833
#
# Stress axis : x y z
#
# Youngs Moduli (GPa) = 60.25469 76.32802 45.82746
#
# Poissons Ratio (x) = 0.22810 -0.02765
# Poissons Ratio (y) = 0.18007 -0.13221
# Poissons Ratio (z) = -0.03635 -0.22020
#
# Static dielectric constant tensor:
#      x y z
#    x 1.853320 0.000000 0.040530 
#    y 0.000000 1.923770 0.000000 
#    z 0.040530 0.000000 1.775320 
# 
# From -- ./inp_files/57590.got.cif
#   From: 2010.05.17/outbox.cif.g08.bks.cpg/sg5_29_cif.got.tgz:57590.got - 2010.06.03 18:56:24.
