data_PCOD9127950
_publ_section_title
;
Structure prediction by ZEFSAII (Michael W. Deem and Ramdas Pophale) SiO2 
 PCOD9127950
Probable space group: C 2
;
_chemical_formula_sum "Si O2"
_cell_formula_units_Z 20
_cell_length_a 11.099272
_cell_length_b 7.823118
_cell_length_c 12.801705
_cell_angle_alpha 90.000000
_cell_angle_beta 53.435883
_cell_angle_gamma 90.000000
_cell_volume 892.813754
_symmetry_space_group_name_H-M "C 2"
_symmetry_group_IT_number 5
_symmetry_cell_setting 'monoclinic'
loop_
_space_group_symop_operation_xyz
x,y,z
-x,y,-z
1/2+x,1/2+y,z
1/2-x,1/2+y,-z
loop_
_atom_site_type_symbol
_atom_site_label
_atom_site_fract_x
_atom_site_fract_y
_atom_site_fract_z
Si Si1 0.398263 0.544000 0.841883
Si Si2 0.070843 0.411196 0.076338
Si Si3 0.926338 0.905204 0.439905
Si Si4 0.574651 0.246874 0.850093
Si Si5 0.167926 0.262704 0.419166
O O1 0.421939 0.742601 0.856181
O O2 0.510226 0.428743 0.851814
O O3 0.249656 0.762305 0.735719
O O4 0.234658 0.484049 0.963112
O O5 0.981662 0.570350 0.175430
O O6 0.000000 0.361328 0.000000
O O7 0.000000 0.802839 0.500000
O O8 0.792881 0.832179 0.436415
O O9 0.857173 0.071121 0.529534
O O10 0.056932 0.973075 0.295209
O O11 0.500000 0.217253 0.000000
O O12 0.000000 0.341153 0.500000
#
# Coordination Sequence:
#
# PCOD9127950 Si02
#       5
#     4   4   4   4   4
#     4  11  23  44  66 101 136 178 232 279 347 416
#     4  11  24  39  69 100 135 176 221 287 352 405
#     4  10  25  43  67  97 140 179 233 280 338 417
#     4  10  23  44  69 100 136 178 229 289 346 407
#     4  10  24  44  69  98 136 185 227 281 348 409
#
# _framework density 22.401087
#
# number of rings (size 3 to 8) (size 9 to 14) (size 15 to 20)
#    0.000    1.600    2.000    0.600   14.000    0.800 
#    0.000    4.000    0.000    0.000    0.000    0.000 
#    0.000    0.000    0.000    0.000    0.000    0.000 
#
# Total GULP energy -55718.683218 kJ/mol
# GULP energy per Si atom -5571.868322 kJ/mol
# Density = 2.235010 g / cm^3
# Si number density = 22.401087 Si / 1000 Ang^3
#
#
#
# Elastic Constant Matrix: (Units=GPa)
#
#
# Indices 1 2 3 4 5 6 
#
# 1 132.3400 29.8031 42.5047 0.0000 -23.1525 0.0000
# 2 29.8031 101.5115 25.8095 0.0000 -11.6368 0.0000
# 3 42.5047 25.8095 113.3821 0.0000 -21.4590 0.0000
# 4 0.0000 0.0000 0.0000 7.2638 0.0000 3.9183
# 5 -23.1525 -11.6368 -21.4590 0.0000 44.7156 0.0000
# 6 0.0000 0.0000 0.0000 3.9183 0.0000 15.9201
#
#
#
# Elastic Compliance Matrix: (Units=1/GPa)
#
#
# Indices 1 2 3 4 5 6 
#
# 1 0.009302 -0.001734 -0.002493 0.000000 0.003169 0.000000
# 2 -0.001734 0.010904 -0.001611 0.000000 0.001167 0.000000
# 3 -0.002493 -0.001611 0.010776 0.000000 0.003462 0.000000
# 4 0.000000 0.000000 0.000000 0.158745 0.000000 -0.039070
# 5 0.003169 0.001167 0.003462 0.000000 0.025969 0.000000
# 6 0.000000 0.000000 0.000000 -0.039070 0.000000 0.072430
#
#
# Mechanical properties :
#
#
# Convention : Reuss Voigt Hill
#
# Bulk Modulus (GPa) = 51.79779 60.38535 56.09157
# Shear Modulus (GPa) = 16.32731 30.18767 23.25749
#
# Velocity S-wave (km/s) = 2.70267 3.67495 3.22565
# Velocity P-wave (km/s) = 5.73693 6.70984 6.24237
#
# Compressibility (1/GPa) = 0.01930584
#
# Stress axis : x y z
#
# Youngs Moduli (GPa) = 107.50717 91.71332 92.79827
#
# Poissons Ratio (x) = 0.15902 0.23131
# Poissons Ratio (y) = 0.18641 0.14952
# Poissons Ratio (z) = 0.26797 0.14777
#
# Static dielectric constant tensor:
#      x y z
#    x 1.991150 0.000000 0.081650 
#    y 0.000000 1.802800 0.000000 
#    z 0.081650 0.000000 1.943540 
# 
# From -- ./inp_files/38060.got.cif
#   From: 2010.05.17/outbox.cif.g08.bks.cpg/sg5_20_cif.got.tgz:38060.got - 2010.06.03 18:56:24.
