data_PCOD9127533
_publ_section_title
;
Structure prediction by ZEFSAII (Michael W. Deem and Ramdas Pophale) SiO2 
 PCOD9127533
Probable space group: C 2
;
_chemical_formula_sum "Si O2"
_cell_formula_units_Z 26
_cell_length_a 21.828424
_cell_length_b 7.565910
_cell_length_c 11.521506
_cell_angle_alpha 90.000000
_cell_angle_beta 38.900202
_cell_angle_gamma 90.000000
_cell_volume 1194.892390
_symmetry_space_group_name_H-M "C 2"
_symmetry_group_IT_number 5
_symmetry_cell_setting 'monoclinic'
loop_
_space_group_symop_operation_xyz
x,y,z
-x,y,-z
1/2+x,1/2+y,z
1/2-x,1/2+y,-z
loop_
_atom_site_type_symbol
_atom_site_label
_atom_site_fract_x
_atom_site_fract_y
_atom_site_fract_z
Si Si1 0.839553 0.482190 0.728147
Si Si2 0.855913 0.564646 0.269205
Si Si3 0.172903 0.296515 0.484730
Si Si4 0.628710 0.463247 0.107537
Si Si5 0.538675 0.800153 0.270110
Si Si6 0.000000 0.790207 0.500000
Si Si7 0.458169 0.137825 0.890032
O O1 0.799224 0.429500 0.661066
O O2 0.908021 0.332668 0.686104
O O3 0.908648 0.654573 0.609128
O O4 0.745393 0.480967 0.952321
O O5 0.844386 0.398681 0.369700
O O6 0.754080 0.653479 0.390292
O O7 0.933426 0.686899 0.225957
O O8 0.907185 0.535327 0.070595
O O9 0.070164 0.228210 0.587431
O O10 0.601504 0.659151 0.107250
O O11 0.554631 0.412914 0.323208
O O12 0.603532 0.306569 0.055978
O O13 0.535914 0.998325 0.222587
#
# Coordination Sequence:
#
# PCOD9127533 Si02
#       7
#     4   4   4   4   4   2   4
#     4  12  23  48  71 107 153 189 240 310 379 444
#     4  10  23  42  69  97 138 191 244 298 362 432
#     4  11  23  43  69  99 139 190 236 304 363 435
#     4  12  26  43  74 108 140 204 237 302 386 451
#     4  11  25  44  70 106 142 186 241 305 379 448
#     4  12  24  46  72 108 160 186 248 306 374 460
#     4  10  22  49  66  97 146 185 240 310 362 437
#
# _framework density 21.759281000000001
#
# number of rings (size 3 to 8) (size 9 to 14) (size 15 to 20)
#    0.000    0.923    4.615    1.846    4.308    1.231 
#    2.769    1.538    0.000    0.000    0.000    0.000 
#    0.000    0.000    0.000    0.000    0.000    0.000 
#
# Total GULP energy -72408.449415 kJ/mol
# GULP energy per Si atom -5569.880724 kJ/mol
# Density = 2.170976 g / cm^3
# Si number density = 21.759281 Si / 1000 Ang^3
#
#
#
# Elastic Constant Matrix: (Units=GPa)
#
#
# Indices 1 2 3 4 5 6 
#
# 1 97.2169 18.0468 41.2064 -0.0001 -14.3565 0.0000
# 2 18.0468 48.3695 7.1248 -0.0005 -14.6976 0.0001
# 3 41.2064 7.1248 121.3902 -0.0001 -21.8009 0.0001
# 4 -0.0001 -0.0005 -0.0001 29.6163 0.0000 -1.4130
# 5 -14.3565 -14.6976 -21.8009 0.0000 54.5597 0.0000
# 6 0.0000 0.0001 0.0001 -1.4130 0.0000 16.2892
#
#
#
# Elastic Compliance Matrix: (Units=1/GPa)
#
#
# Indices 1 2 3 4 5 6 
#
# 1 0.012822 -0.003981 -0.003992 0.000000 0.000706 0.000000
# 2 -0.003981 0.023761 0.000989 0.000000 0.005748 0.000000
# 3 -0.003992 0.000989 0.010120 0.000000 0.003260 0.000000
# 4 0.000000 0.000000 0.000000 0.033905 0.000000 0.002941
# 5 0.000706 0.005748 0.003260 0.000000 0.021366 0.000000
# 6 0.000000 0.000000 0.000000 0.002941 0.000000 0.061646
#
#
# Mechanical properties :
#
#
# Convention : Reuss Voigt Hill
#
# Bulk Modulus (GPa) = 30.54833 44.41472 37.48153
# Shear Modulus (GPa) = 26.52544 33.46629 29.99586
#
# Velocity S-wave (km/s) = 3.49526 3.92602 3.71689
# Velocity P-wave (km/s) = 5.50989 6.40372 5.97355
#
# Compressibility (1/GPa) = 0.03273501
#
# Stress axis : x y z
#
# Youngs Moduli (GPa) = 77.99336 42.08647 98.81077
#
# Poissons Ratio (x) = 0.16755 0.39444
# Poissons Ratio (y) = 0.31050 -0.09775
# Poissons Ratio (z) = 0.31134 -0.04163
#
# Static dielectric constant tensor:
#      x y z
#    x 1.823280 0.000000 0.017770 
#    y 0.000000 1.784850 0.000000 
#    z 0.017770 0.000000 1.898440 
# 
# From -- ./inp_files/46104.got.cif
#   From: 2010.05.17/outbox.cif.g08.bks.cpg/sg5_24_cif.got.tgz:46104.got - 2010.06.03 18:56:24.
