data_PCOD9127957
_publ_section_title
;
Structure prediction by ZEFSAII (Michael W. Deem and Ramdas Pophale) SiO2 
 PCOD9127957
Probable space group: C 2
;
_chemical_formula_sum "Si O2"
_cell_formula_units_Z 18
_cell_length_a 4.971447
_cell_length_b 19.587846
_cell_length_c 8.310880
_cell_angle_alpha 90.000000
_cell_angle_beta 69.747075
_cell_angle_gamma 90.000000
_cell_volume 759.276126
_symmetry_space_group_name_H-M "C 2"
_symmetry_group_IT_number 5
_symmetry_cell_setting 'monoclinic'
loop_
_space_group_symop_operation_xyz
x,y,z
-x,y,-z
1/2+x,1/2+y,z
1/2-x,1/2+y,-z
loop_
_atom_site_type_symbol
_atom_site_label
_atom_site_fract_x
_atom_site_fract_y
_atom_site_fract_z
Si Si1 0.500000 0.446250 0.000000
Si Si2 0.295102 0.778134 0.690582
Si Si3 0.805850 0.337400 0.166950
Si Si4 0.587414 0.630014 0.294206
Si Si5 0.589949 0.043491 0.292681
O O1 0.680827 0.400282 0.090591
O O2 0.276452 0.489369 0.154246
O O3 0.500000 0.767003 0.500000
O O4 0.459197 0.841446 0.742546
O O5 0.295924 0.704287 0.776561
O O6 0.972924 0.797979 0.716827
O O7 0.000000 0.296139 0.000000
O O8 0.500000 0.631343 0.500000
O O9 0.299831 0.608782 0.263777
O O10 0.817853 0.568691 0.245991
O O11 0.500000 0.025255 0.500000
#
# Coordination Sequence:
#
# PCOD9127957 Si02
#       5
#     2   4   4   4   4
#     4  12  28  46  68  98 148 188 242 282 336 416
#     4  11  23  45  75 104 135 179 233 292 361 420
#     4  12  25  46  64  96 149 182 226 295 339 405
#     4   9  20  42  70 101 134 167 226 293 350 419
#     4  10  23  44  70 100 135 182 229 288 350 408
#
# _framework density 23.706793000000001
#
# number of rings (size 3 to 8) (size 9 to 14) (size 15 to 20)
#    0.000    1.333    2.222    2.000    3.111    4.444 
#   16.000    0.000    0.000    0.000    0.000    0.000 
#    0.000    0.000    0.000    0.000    0.000    0.000 
#
# Total GULP energy -50164.330604 kJ/mol
# GULP energy per Si atom -5573.814512 kJ/mol
# Density = 2.365284 g / cm^3
# Si number density = 23.706793 Si / 1000 Ang^3
#
#
#
# Elastic Constant Matrix: (Units=GPa)
#
#
# Indices 1 2 3 4 5 6 
#
# 1 113.3535 9.1078 18.6922 0.0000 -24.3833 0.0000
# 2 9.1078 80.6263 37.1491 0.0000 -8.4781 0.0000
# 3 18.6922 37.1491 67.7404 0.0000 -31.2445 0.0000
# 4 0.0000 0.0000 0.0000 21.3023 0.0000 -22.6972
# 5 -24.3833 -8.4781 -31.2445 0.0000 40.9043 0.0000
# 6 0.0000 0.0000 0.0000 -22.6972 0.0000 76.8095
#
#
#
# Elastic Compliance Matrix: (Units=1/GPa)
#
#
# Indices 1 2 3 4 5 6 
#
# 1 0.010148 -0.000708 0.000480 0.000000 0.006269 0.000000
# 2 -0.000708 0.017463 -0.012208 0.000000 -0.006127 0.000000
# 3 0.000480 -0.012208 0.031326 0.000000 0.021684 0.000000
# 4 0.000000 0.000000 0.000000 0.068515 0.000000 0.020246
# 5 0.006269 -0.006127 0.021684 0.000000 0.043477 0.000000
# 6 0.000000 0.000000 0.000000 0.020246 0.000000 0.019002
#
#
# Mechanical properties :
#
#
# Convention : Reuss Voigt Hill
#
# Bulk Modulus (GPa) = 29.35553 43.51315 36.43434
# Shear Modulus (GPa) = 22.10823 40.92129 31.51476
#
# Velocity S-wave (km/s) = 3.05711 4.15919 3.64999
# Velocity P-wave (km/s) = 4.98707 6.43892 5.75893
#
# Compressibility (1/GPa) = 0.03406513
#
# Stress axis : x y z
#
# Youngs Moduli (GPa) = 98.53872 57.26263 31.92216
#
# Poissons Ratio (x) = 0.04055 -0.01531
# Poissons Ratio (y) = 0.06978 0.38970
# Poissons Ratio (z) = -0.04725 0.69905
#
# Static dielectric constant tensor:
#      x y z
#    x 1.865660 0.000000 0.032630 
#    y 0.000000 1.932280 0.000000 
#    z 0.032630 0.000000 2.070880 
# 
# From -- ./inp_files/12238.got.cif
#   From: 2010.05.17/outbox.cif.g08.bks.cpg/sg5_7_cif.got.tgz:12238.got - 2010.06.03 18:56:24.
