data_PCOD9127573
_publ_section_title
;
Structure prediction by ZEFSAII (Michael W. Deem and Ramdas Pophale) SiO2 
 PCOD9127573
Probable space group: C 2
;
_chemical_formula_sum "Si O2"
_cell_formula_units_Z 24
_cell_length_a 14.005696
_cell_length_b 12.704017
_cell_length_c 13.379021
_cell_angle_alpha 90.000000
_cell_angle_beta 148.559012
_cell_angle_gamma 90.000000
_cell_volume 1241.722132
_symmetry_space_group_name_H-M "C 2"
_symmetry_group_IT_number 5
_symmetry_cell_setting 'monoclinic'
loop_
_space_group_symop_operation_xyz
x,y,z
-x,y,-z
1/2+x,1/2+y,z
1/2-x,1/2+y,-z
loop_
_atom_site_type_symbol
_atom_site_label
_atom_site_fract_x
_atom_site_fract_y
_atom_site_fract_z
Si Si1 0.142947 0.543380 0.549995
Si Si2 0.063578 0.157413 0.315085
Si Si3 0.050273 0.394165 0.782019
Si Si4 0.690390 0.057721 0.054027
Si Si5 0.784555 0.630195 0.712624
Si Si6 0.285791 0.351257 0.808575
O O1 0.313486 0.611894 0.664953
O O2 0.210581 0.445408 0.675662
O O3 0.000000 0.597941 0.500000
O O4 0.051688 0.487221 0.371318
O O5 0.166610 0.119362 0.508122
O O6 0.059325 0.284867 0.304064
O O7 0.857888 0.109967 0.142086
O O8 0.213990 0.361099 0.855699
O O9 0.129018 0.447346 0.951642
O O10 0.742223 0.051414 0.217797
O O11 0.502490 0.126851 0.883599
O O12 0.727903 0.741729 0.708656
O O13 0.500000 0.356023 0.000000
#
# Coordination Sequence:
#
# PCOD9127573 Si02
#       6
#     4   4   4   4   4   4
#     4  10  23  38  64  93 132 168 227 274 319 390
#     4  12  22  41  70  93 134 178 215 271 339 380
#     4  11  22  39  65  96 132 167 221 272 329 391
#     4  11  23  38  63 104 131 161 218 281 322 390
#     4  11  21  38  68  98 129 166 222 272 319 392
#     4  11  19  37  64  98 122 167 224 272 320 389
#
# _framework density 19.327995999999999
#
# number of rings (size 3 to 8) (size 9 to 14) (size 15 to 20)
#    0.000    1.000    6.667    1.500    0.000    0.000 
#    0.000    0.000   25.667    0.000    0.000    0.000 
#    0.000    0.000    0.000    0.000    0.000    0.000 
#
# Total GULP energy -66934.755411 kJ/mol
# GULP energy per Si atom -5577.896284 kJ/mol
# Density = 1.928400 g / cm^3
# Si number density = 19.327996 Si / 1000 Ang^3
#
#
#
# Elastic Constant Matrix: (Units=GPa)
#
#
# Indices 1 2 3 4 5 6 
#
# 1 133.9536 67.4051 40.5565 0.0001 15.1169 0.0002
# 2 67.4051 72.7576 26.8193 0.0002 0.4207 0.0003
# 3 40.5565 26.8193 65.9316 0.0000 6.1459 0.0003
# 4 0.0001 0.0002 0.0000 17.1680 0.0001 -13.4081
# 5 15.1169 0.4207 6.1459 0.0001 42.9162 0.0002
# 6 0.0002 0.0003 0.0003 -13.4081 0.0002 29.4055
#
#
#
# Elastic Compliance Matrix: (Units=1/GPa)
#
#
# Indices 1 2 3 4 5 6 
#
# 1 0.015854 -0.013214 -0.003921 0.000000 -0.004893 0.000000
# 2 -0.013214 0.027209 -0.003394 -0.000001 0.004874 0.000000
# 3 -0.003921 -0.003394 0.019083 0.000000 -0.001318 0.000000
# 4 0.000000 -0.000001 0.000000 0.090462 0.000000 0.041248
# 5 -0.004893 0.004874 -0.001318 0.000000 0.025166 0.000000
# 6 0.000000 0.000000 0.000000 0.041248 0.000000 0.052815
#
#
# Mechanical properties :
#
#
# Convention : Reuss Voigt Hill
#
# Bulk Modulus (GPa) = 47.42094 60.24496 53.83295
# Shear Modulus (GPa) = 17.94199 27.08873 22.51536
#
# Velocity S-wave (km/s) = 3.05009 3.74776 3.41678
# Velocity P-wave (km/s) = 6.08212 7.06860 6.59383
#
# Compressibility (1/GPa) = 0.02108773
#
# Stress axis : x y z
#
# Youngs Moduli (GPa) = 63.07628 36.75264 52.40382
#
# Poissons Ratio (x) = 0.48565 0.20547
# Poissons Ratio (y) = 0.83348 0.17786
# Poissons Ratio (z) = 0.24732 0.12474
#
# Static dielectric constant tensor:
#      x y z
#    x 1.716340 0.000000 -0.013120 
#    y 0.000000 1.677530 0.000000 
#    z -0.013120 0.000000 1.750510 
# 
# From -- ./inp_files/31892.got.cif
#   From: 2010.05.17/outbox.cif.g08.bks.cpg/sg5_16_cif.got.tgz:31892.got - 2010.06.03 18:56:24.
