data_PCOD9127263
_publ_section_title
;
Structure prediction by ZEFSAII (Michael W. Deem and Ramdas Pophale) SiO2 
 PCOD9127263
Probable space group: C 2
;
_chemical_formula_sum "Si O2"
_cell_formula_units_Z 24
_cell_length_a 9.753107
_cell_length_b 18.065002
_cell_length_c 9.460002
_cell_angle_alpha 90.000000
_cell_angle_beta 45.695744
_cell_angle_gamma 90.000000
_cell_volume 1192.799245
_symmetry_space_group_name_H-M "C 2"
_symmetry_group_IT_number 5
_symmetry_cell_setting 'monoclinic'
loop_
_space_group_symop_operation_xyz
x,y,z
-x,y,-z
1/2+x,1/2+y,z
1/2-x,1/2+y,-z
loop_
_atom_site_type_symbol
_atom_site_label
_atom_site_fract_x
_atom_site_fract_y
_atom_site_fract_z
Si Si1 0.502956 0.445430 0.837770
Si Si2 0.619481 0.778451 0.057402
Si Si3 0.574119 0.950410 0.108181
Si Si4 0.970222 0.798281 0.352192
Si Si5 0.840331 0.547764 0.500975
Si Si6 0.121135 0.191493 0.554019
O O1 0.537983 0.382262 0.696362
O O2 0.675175 0.502524 0.700345
O O3 0.500000 0.414559 0.000000
O O4 0.292960 0.478613 0.959104
O O5 0.589045 0.862622 0.136914
O O6 0.532168 0.716323 0.218844
O O7 0.500000 0.776989 0.000000
O O8 0.840541 0.766638 0.859882
O O9 0.440526 0.995478 0.311430
O O10 0.500000 0.954866 0.000000
O O11 0.780921 0.755950 0.440546
O O12 0.000000 0.794702 0.500000
O O13 0.737181 0.617622 0.505845
O O14 0.000000 0.571143 0.500000
O O15 0.000000 0.184550 0.500000
#
# Coordination Sequence:
#
# PCOD9127263 Si02
#       6
#     4   4   4   4   4   4
#     4  11  25  43  72 106 133 175 225 285 335 399
#     4  10  22  44  73 101 131 174 226 277 338 402
#     4  10  24  44  72 102 131 172 227 285 339 399
#     4  11  24  45  73 104 136 177 224 277 342 405
#     4  12  27  47  67  94 141 184 227 272 342 406
#     4  12  29  44  66 100 137 183 226 283 335 402
#
# _framework density 20.120736000000001
#
# number of rings (size 3 to 8) (size 9 to 14) (size 15 to 20)
#    0.000    1.000    3.333    1.500   11.667    3.333 
#    0.000    0.000    0.000    0.000    0.000    0.000 
#    0.000    0.000    0.000    0.000    0.000    0.000 
#
# Total GULP energy -67091.041632 kJ/mol
# GULP energy per Si atom -5590.920136 kJ/mol
# Density = 2.007494 g / cm^3
# Si number density = 20.120736 Si / 1000 Ang^3
#
#
#
# Elastic Constant Matrix: (Units=GPa)
#
#
# Indices 1 2 3 4 5 6 
#
# 1 164.5421 42.8464 59.0307 0.0000 -8.2029 0.0000
# 2 42.8464 53.6660 60.2449 0.0000 4.6997 0.0000
# 3 59.0307 60.2449 115.3262 0.0000 -7.5995 0.0000
# 4 0.0000 0.0000 0.0000 34.4551 0.0000 1.9253
# 5 -8.2029 4.6997 -7.5995 0.0000 32.3595 0.0000
# 6 0.0000 0.0000 0.0000 1.9253 0.0000 26.4679
#
#
#
# Elastic Compliance Matrix: (Units=1/GPa)
#
#
# Indices 1 2 3 4 5 6 
#
# 1 0.008001 -0.005318 -0.001151 0.000000 0.002530 0.000000
# 2 -0.005318 0.053949 -0.026475 0.000000 -0.015401 0.000000
# 3 -0.001151 -0.026475 0.023691 0.000000 0.009117 0.000000
# 4 0.000000 0.000000 0.000000 0.029142 0.000000 -0.002120
# 5 0.002530 -0.015401 0.009117 0.000000 0.035922 0.000000
# 6 0.000000 0.000000 0.000000 -0.002120 0.000000 0.037936
#
#
# Mechanical properties :
#
#
# Convention : Reuss Voigt Hill
#
# Bulk Modulus (GPa) = 50.62315 73.08648 61.85482
# Shear Modulus (GPa) = 19.14887 30.08400 24.61644
#
# Velocity S-wave (km/s) = 3.08831 3.87094 3.50156
# Velocity P-wave (km/s) = 6.15883 7.50878 6.86706
#
# Compressibility (1/GPa) = 0.01975381
#
# Stress axis : x y z
#
# Youngs Moduli (GPa) = 124.98105 18.53617 42.21007
#
# Poissons Ratio (x) = 0.09857 0.04858
# Poissons Ratio (y) = 0.66462 1.11751
# Poissons Ratio (z) = 0.14383 0.49074
#
# Static dielectric constant tensor:
#      x y z
#    x 1.694510 0.000000 -0.011390 
#    y 0.000000 1.707880 0.000000 
#    z -0.011390 0.000000 1.703200 
# 
# From -- ./inp_files/16712.got.cif
#   From: 2010.05.17/outbox.cif.g08.bks.cpg/sg5_9_cif.got.tgz:16712.got - 2010.06.03 18:56:24.
