data_PCOD9127576
_publ_section_title
;
Structure prediction by ZEFSAII (Michael W. Deem and Ramdas Pophale) SiO2 
 PCOD9127576
Probable space group: C 2
;
_chemical_formula_sum "Si O2"
_cell_formula_units_Z 30
_cell_length_a 12.417291
_cell_length_b 7.901780
_cell_length_c 26.288809
_cell_angle_alpha 90.000000
_cell_angle_beta 30.008068
_cell_angle_gamma 90.000000
_cell_volume 1290.026446
_symmetry_space_group_name_H-M "C 2"
_symmetry_group_IT_number 5
_symmetry_cell_setting 'monoclinic'
loop_
_space_group_symop_operation_xyz
x,y,z
-x,y,-z
1/2+x,1/2+y,z
1/2-x,1/2+y,-z
loop_
_atom_site_type_symbol
_atom_site_label
_atom_site_fract_x
_atom_site_fract_y
_atom_site_fract_z
Si Si1 0.533083 0.488260 0.139195
Si Si2 0.721306 0.771229 0.216262
Si Si3 0.500000 0.371116 0.500000
Si Si4 0.304712 0.083269 0.640128
Si Si5 0.250048 0.784526 0.907683
Si Si6 0.625400 0.001471 0.586793
Si Si7 0.257679 0.251829 0.387343
Si Si8 0.978712 0.624598 0.195994
O O1 0.412914 0.416003 0.138617
O O2 0.341961 0.575396 0.250085
O O3 0.708272 0.636019 0.067895
O O4 0.595482 0.309719 0.141069
O O5 0.668970 0.719321 0.180939
O O6 0.528307 0.863269 0.324287
O O7 0.813900 0.628557 0.215853
O O8 0.360650 0.452983 0.511119
O O9 0.335628 0.255114 0.598590
O O10 0.540453 0.019710 0.564376
O O11 0.210641 0.943876 0.641031
O O12 0.372096 0.960748 0.867422
O O13 0.000000 0.807237 0.000000
O O14 0.609580 0.187095 0.618797
O O15 0.345881 0.141881 0.303119
O O16 0.000000 0.232502 0.500000
#
# Coordination Sequence:
#
# PCOD9127576 Si02
#       8
#     4   4   2   4   4   4   4   4
#     4   8  21  44  58  86 127 158 205 258 300 380
#     4   9  21  44  60  85 130 160 205 263 311 373
#     4  12  24  32  56  92 120 152 216 262 288 370
#     4  10  23  39  55  83 121 162 207 252 308 364
#     4  12  23  40  71  97 121 165 208 253 329 387
#     4  11  22  37  60  80 121 167 196 258 314 343
#     4  11  20  38  62  86 122 165 209 254 294 368
#     4   9  22  43  62  90 133 162 206 264 306 374
#
# _framework density 23.255336
#
# number of rings (size 3 to 8) (size 9 to 14) (size 15 to 20)
#    0.800    1.067    4.000    0.800    1.867    1.600 
#    2.400    2.667    0.000    0.000    0.000    0.000 
#    0.000    0.000    0.000    0.000    0.000    0.000 
#
# Total GULP energy -83584.915133 kJ/mol
# GULP energy per Si atom -5572.327676 kJ/mol
# Density = 2.320241 g / cm^3
# Si number density = 23.255336 Si / 1000 Ang^3
#
#
#
# Elastic Constant Matrix: (Units=GPa)
#
#
# Indices 1 2 3 4 5 6 
#
# 1 72.9885 25.3742 -1.0992 -0.0001 -15.3143 0.0000
# 2 25.3742 93.0290 22.0525 -0.0002 -25.4880 0.0000
# 3 -1.0992 22.0525 51.8595 -0.0010 -18.4554 0.0005
# 4 -0.0001 -0.0002 -0.0010 22.4915 0.0001 -20.8720
# 5 -15.3143 -25.4880 -18.4554 0.0001 31.1611 -0.0001
# 6 0.0000 0.0000 0.0005 -20.8720 -0.0001 51.1205
#
#
#
# Elastic Compliance Matrix: (Units=1/GPa)
#
#
# Indices 1 2 3 4 5 6 
#
# 1 0.016683 -0.003425 0.004727 0.000000 0.008197 0.000000
# 2 -0.003425 0.014788 -0.003365 0.000000 0.008420 0.000000
# 3 0.004727 -0.003365 0.026179 0.000001 0.015076 0.000000
# 4 0.000000 0.000000 0.000001 0.071584 0.000001 0.029227
# 5 0.008197 0.008420 0.015076 0.000001 0.051935 0.000000
# 6 0.000000 0.000000 0.000000 0.029227 0.000000 0.031495
#
#
# Mechanical properties :
#
#
# Convention : Reuss Voigt Hill
#
# Bulk Modulus (GPa) = 18.68307 34.50355 26.59331
# Shear Modulus (GPa) = 21.31019 32.39126 26.85072
#
# Velocity S-wave (km/s) = 3.03042 3.73614 3.40163
# Velocity P-wave (km/s) = 4.50510 5.78625 5.18540
#
# Compressibility (1/GPa) = 0.05352439
#
# Stress axis : x y z
#
# Youngs Moduli (GPa) = 59.94286 67.62269 38.19871
#
# Poissons Ratio (x) = 0.23161 -0.18057
# Poissons Ratio (y) = 0.20531 0.12852
# Poissons Ratio (z) = -0.28336 0.22752
#
# Static dielectric constant tensor:
#      x y z
#    x 1.812460 0.000000 -0.025000 
#    y 0.000000 1.966160 0.000000 
#    z -0.025000 0.000000 1.950350 
# 
# From -- ./inp_files/71699.got.cif
#   From: 2010.05.17/outbox.cif.g08.bks.cpg/sg5_36_cif.got.tgz:71699.got - 2010.06.03 18:56:24.
