data_PCOD9127387
_publ_section_title
;
Structure prediction by ZEFSAII (Michael W. Deem and Ramdas Pophale) SiO2 
 PCOD9127387
Probable space group: C 2
;
_chemical_formula_sum "Si O2"
_cell_formula_units_Z 28
_cell_length_a 18.381300
_cell_length_b 5.857694
_cell_length_c 12.741741
_cell_angle_alpha 90.000000
_cell_angle_beta 65.816212
_cell_angle_gamma 90.000000
_cell_volume 1251.523234
_symmetry_space_group_name_H-M "C 2"
_symmetry_group_IT_number 5
_symmetry_cell_setting 'monoclinic'
loop_
_space_group_symop_operation_xyz
x,y,z
-x,y,-z
1/2+x,1/2+y,z
1/2-x,1/2+y,-z
loop_
_atom_site_type_symbol
_atom_site_label
_atom_site_fract_x
_atom_site_fract_y
_atom_site_fract_z
Si Si1 0.057829 0.467320 0.159066
Si Si2 0.000000 0.723440 0.500000
Si Si3 0.763796 0.311170 0.435969
Si Si4 0.631326 0.512804 0.382416
Si Si5 0.127670 0.869926 0.014151
Si Si6 0.000000 0.165228 0.000000
Si Si7 0.930349 0.352255 0.400980
Si Si8 0.703207 0.715128 0.137395
O O1 0.060149 0.724504 0.115186
O O2 0.151898 0.427995 0.125375
O O3 0.018421 0.321535 0.089223
O O4 0.011499 0.374822 0.288215
O O5 0.061191 0.573231 0.530250
O O6 0.055736 0.867737 0.389167
O O7 0.752502 0.048754 0.485264
O O8 0.702557 0.350527 0.378797
O O9 0.857770 0.343463 0.362163
O O10 0.670459 0.668553 0.272436
O O11 0.592659 0.654054 0.502534
O O12 0.171558 0.021522 0.076638
O O13 0.201919 0.737661 0.918815
O O14 0.079641 0.010601 0.954393
#
# Coordination Sequence:
#
# PCOD9127387 Si02
#       8
#     4   2   4   4   4   2   4   4
#     4  11  23  45  68  99 138 175 234 288 346 426
#     4  12  20  40  66 100 132 176 232 280 344 424
#     4  10  22  46  64  96 145 188 235 288 354 434
#     4  11  24  41  66  99 138 179 232 285 354 429
#     4  11  23  46  69  99 135 177 231 295 349 417
#     4  10  26  44  68 102 130 180 230 282 354 416
#     4  11  24  42  67  99 138 184 224 290 353 425
#     4  11  23  43  69  99 132 180 232 288 352 415
#
# _framework density 22.372737000000001
#
# number of rings (size 3 to 8) (size 9 to 14) (size 15 to 20)
#    0.000    1.143    2.857    3.429    0.000    3.429 
#   10.286    0.000    0.000    0.000    0.000    0.000 
#    0.000    0.000    0.000    0.000    0.000    0.000 
#
# Total GULP energy -77961.310006 kJ/mol
# GULP energy per Si atom -5568.665000 kJ/mol
# Density = 2.232182 g / cm^3
# Si number density = 22.372737 Si / 1000 Ang^3
#
#
#
# Elastic Constant Matrix: (Units=GPa)
#
#
# Indices 1 2 3 4 5 6 
#
# 1 109.2042 1.2891 15.1002 0.0000 -18.6532 0.0000
# 2 1.2891 25.6765 -17.3716 0.0002 -5.9110 0.0003
# 3 15.1002 -17.3716 49.4955 0.0001 -12.3614 0.0000
# 4 0.0000 0.0002 0.0001 9.4991 0.0000 -7.5669
# 5 -18.6532 -5.9110 -12.3614 0.0000 31.9926 0.0000
# 6 0.0000 0.0003 0.0000 -7.5669 0.0000 22.3834
#
#
#
# Elastic Compliance Matrix: (Units=1/GPa)
#
#
# Indices 1 2 3 4 5 6 
#
# 1 0.010328 -0.000850 -0.002196 0.000000 0.005016 0.000000
# 2 -0.000850 0.062785 0.027746 -0.000003 0.021825 -0.000002
# 3 -0.002196 0.027746 0.034945 -0.000001 0.017348 -0.000001
# 4 0.000000 -0.000003 -0.000001 0.144070 -0.000001 0.048704
# 5 0.005016 0.021825 0.017348 -0.000001 0.044917 -0.000001
# 6 0.000000 -0.000002 -0.000001 0.048704 -0.000001 0.061140
#
#
# Mechanical properties :
#
#
# Convention : Reuss Voigt Hill
#
# Bulk Modulus (GPa) = 6.35094 20.26793 13.30943
# Shear Modulus (GPa) = 13.84003 25.13227 19.48615
#
# Velocity S-wave (km/s) = 2.48989 3.35527 2.95443
# Velocity P-wave (km/s) = 3.33330 4.90809 4.19525
#
# Compressibility (1/GPa) = 0.15745709
#
# Stress axis : x y z
#
# Youngs Moduli (GPa) = 96.82749 15.92738 28.61675
#
# Poissons Ratio (x) = 0.01353 0.06285
# Poissons Ratio (y) = 0.08227 -0.79400
# Poissons Ratio (z) = 0.21266 -0.44192
#
# Static dielectric constant tensor:
#      x y z
#    x 1.810830 0.000000 -0.009240 
#    y 0.000000 1.945130 0.000000 
#    z -0.009240 0.000000 1.816600 
# 
# From -- ./inp_files/45513.got.cif
#   From: 2010.05.17/outbox.cif.g08.bks.cpg/sg5_23_cif.got.tgz:45513.got - 2010.06.03 18:56:24.
