data_PCOD9127000
_publ_section_title
;
Structure prediction by ZEFSAII (Michael W. Deem and Ramdas Pophale) SiO2 
 PCOD9127000
Probable space group: C 2
;
_chemical_formula_sum "Si O2"
_cell_formula_units_Z 26
_cell_length_a 8.619937
_cell_length_b 10.863322
_cell_length_c 19.249863
_cell_angle_alpha 90.000000
_cell_angle_beta 39.314543
_cell_angle_gamma 90.000000
_cell_volume 1142.073294
_symmetry_space_group_name_H-M "C 2"
_symmetry_group_IT_number 5
_symmetry_cell_setting 'monoclinic'
loop_
_space_group_symop_operation_xyz
x,y,z
-x,y,-z
1/2+x,1/2+y,z
1/2-x,1/2+y,-z
loop_
_atom_site_type_symbol
_atom_site_label
_atom_site_fract_x
_atom_site_fract_y
_atom_site_fract_z
Si Si1 0.403058 0.038320 0.754079
Si Si2 0.838116 0.110705 0.941844
Si Si3 0.000000 0.415197 0.000000
Si Si4 0.213506 0.937382 0.483726
Si Si5 0.411769 0.245711 0.848627
Si Si6 0.774806 0.168177 0.430828
Si Si7 0.155668 0.277641 0.193004
O O1 0.513603 0.156484 0.754336
O O2 0.119743 0.071213 0.839905
O O3 0.547962 0.997512 0.635534
O O4 0.417028 0.917619 0.797679
O O5 0.784729 0.202557 0.896455
O O6 0.653197 0.997625 0.999612
O O7 0.771653 0.173265 0.036816
O O8 0.223665 0.345890 0.883900
O O9 0.269711 0.793212 0.480815
O O10 0.000000 0.931951 0.500000
O O11 0.139059 0.039110 0.566149
O O12 0.624872 0.287697 0.826741
O O13 0.500000 0.147781 0.500000
O O14 0.940807 0.208068 0.308365
#
# Coordination Sequence:
#
# PCOD9127000 Si02
#       7
#     4   4   2   4   4   4   4
#     4  11  24  40  64  88 120 161 201 244 301 358
#     4  12  24  40  60  89 122 160 199 245 296 352
#     4  12  24  40  56  88 128 150 206 246 288 352
#     4  10  22  43  64  92 123 157 203 255 306 363
#     4  12  24  40  60  89 122 160 199 245 296 352
#     4  10  22  43  64  92 123 157 203 255 306 363
#     4  11  24  40  64  88 120 161 201 244 301 358
#
# _framework density 22.765612999999998
#
# number of rings (size 3 to 8) (size 9 to 14) (size 15 to 20)
#    0.000    0.923    4.615    1.846    2.154    1.846 
#    2.769    0.000    0.000    0.000    0.000    0.000 
#    0.000    0.000    0.000    0.000    0.000    0.000 
#
# Total GULP energy -72632.693792 kJ/mol
# GULP energy per Si atom -5587.130292 kJ/mol
# Density = 2.271380 g / cm^3
# Si number density = 22.765613 Si / 1000 Ang^3
#
#
#
# Elastic Constant Matrix: (Units=GPa)
#
#
# Indices 1 2 3 4 5 6 
#
# 1 31.1571 1.7406 -4.6214 0.0001 -2.6199 0.0000
# 2 1.7406 79.8052 -16.0421 0.0002 25.3186 -0.0001
# 3 -4.6214 -16.0421 44.0778 0.0000 -12.1583 -0.0001
# 4 0.0001 0.0002 0.0000 30.6430 -0.0001 -8.1478
# 5 -2.6199 25.3186 -12.1583 -0.0001 25.8679 0.0001
# 6 0.0000 -0.0001 -0.0001 -8.1478 0.0001 6.5221
#
#
#
# Elastic Compliance Matrix: (Units=1/GPa)
#
#
# Indices 1 2 3 4 5 6 
#
# 1 0.033612 -0.002262 0.004884 0.000000 0.007914 0.000000
# 2 -0.002262 0.018475 0.001650 0.000000 -0.017536 0.000000
# 3 0.004884 0.001650 0.026990 0.000000 0.011566 0.000000
# 4 0.000000 0.000000 0.000000 0.048865 0.000000 0.061044
# 5 0.007914 -0.017536 0.011566 0.000000 0.062060 -0.000001
# 6 0.000000 0.000000 0.000000 0.061044 -0.000001 0.229583
#
#
# Mechanical properties :
#
#
# Convention : Reuss Voigt Hill
#
# Bulk Modulus (GPa) = 11.41305 13.02157 12.21731
# Shear Modulus (GPa) = 11.35723 24.20414 17.78068
#
# Velocity S-wave (km/s) = 2.23598 3.26419 2.79773
# Velocity P-wave (km/s) = 3.41911 4.46530 3.97676
#
# Compressibility (1/GPa) = 0.08761899
#
# Stress axis : x y z
#
# Youngs Moduli (GPa) = 29.75163 54.12727 37.05095
#
# Poissons Ratio (x) = 0.12244 -0.18095
# Poissons Ratio (y) = 0.06730 -0.06112
# Poissons Ratio (z) = -0.14530 -0.08929
#
# Static dielectric constant tensor:
#      x y z
#    x 1.832960 0.000000 -0.007380 
#    y 0.000000 1.960710 0.000000 
#    z -0.007380 0.000000 1.839680 
# 
# From -- ./inp_files/64449.got.cif
#   From: 2010.05.17/outbox.cif.g08.bks.cpg/sg5_33_cif.got.tgz:64449.got - 2010.06.03 18:56:24.
