data_PCOD9127596
_publ_section_title
;
Structure prediction by ZEFSAII (Michael W. Deem and Ramdas Pophale) SiO2 
 PCOD9127596
Probable space group: C 2
;
_chemical_formula_sum "Si O2"
_cell_formula_units_Z 30
_cell_length_a 24.197979
_cell_length_b 5.016414
_cell_length_c 13.038140
_cell_angle_alpha 90.000000
_cell_angle_beta 133.145763
_cell_angle_gamma 90.000000
_cell_volume 1154.735816
_symmetry_space_group_name_H-M "C 2"
_symmetry_group_IT_number 5
_symmetry_cell_setting 'monoclinic'
loop_
_space_group_symop_operation_xyz
x,y,z
-x,y,-z
1/2+x,1/2+y,z
1/2-x,1/2+y,-z
loop_
_atom_site_type_symbol
_atom_site_label
_atom_site_fract_x
_atom_site_fract_y
_atom_site_fract_z
Si Si1 0.500000 0.853580 0.500000
Si Si2 0.074975 0.049545 0.889786
Si Si3 0.240369 0.207855 0.054678
Si Si4 0.978962 0.580903 0.816370
Si Si5 0.672669 0.869158 0.300032
Si Si6 0.257146 0.870141 0.379438
Si Si7 0.109595 0.961639 0.699925
Si Si8 0.408629 0.129729 0.520138
O O1 0.583993 0.755288 0.641143
O O2 0.473527 0.918528 0.581334
O O3 0.162968 0.135210 0.013278
O O4 0.078987 0.925682 0.777301
O O5 0.025266 0.313422 0.846045
O O6 0.039808 0.813269 0.914176
O O7 0.225683 0.430945 0.947023
O O8 0.305167 0.366995 0.195457
O O9 0.912673 0.477227 0.807933
O O10 0.927141 0.718753 0.658683
O O11 0.706246 0.860928 0.459516
O O12 0.728612 0.077707 0.315398
O O13 0.686237 0.568576 0.283140
O O14 0.326010 0.005239 0.407783
O O15 0.073711 0.814732 0.555336
#
# Coordination Sequence:
#
# PCOD9127596 Si02
#       8
#     2   4   4   4   4   4   4   4
#     4  12  22  36  54  82 124 158 198 232 288 356
#     4  11  21  38  57  84 114 154 198 246 283 342
#     4  10  23  40  59  78 112 159 206 245 281 331
#     4  11  21  36  60  87 117 150 195 243 302 337
#     4   9  18  34  54  80 109 149 192 242 281 354
#     4   9  19  34  53  77 116 154 190 225 296 343
#     4  11  24  37  55  83 121 163 193 236 287 351
#     4  11  24  35  55  87 126 163 187 240 287 373
#
# _framework density 25.979968
#
# number of rings (size 3 to 8) (size 9 to 14) (size 15 to 20)
#    0.000    1.600    1.333    4.400    5.600    2.133 
#    0.000    0.000    0.000    0.000    0.000    5.600 
#    0.000    0.000    0.000    0.000    0.000    0.000 
#
# Total GULP energy -83547.725883 kJ/mol
# GULP energy per Si atom -5569.848392 kJ/mol
# Density = 2.592084 g / cm^3
# Si number density = 25.979968 Si / 1000 Ang^3
#
#
#
# Elastic Constant Matrix: (Units=GPa)
#
#
# Indices 1 2 3 4 5 6 
#
# 1 64.6898 17.9200 25.4279 0.0000 22.1896 0.0000
# 2 17.9200 93.5092 28.8413 0.0001 21.7485 0.0001
# 3 25.4279 28.8413 89.8939 0.0000 25.8133 0.0000
# 4 0.0000 0.0001 0.0000 35.7947 0.0000 23.4257
# 5 22.1896 21.7485 25.8133 0.0000 39.3259 0.0000
# 6 0.0000 0.0001 0.0000 23.4257 0.0000 24.9068
#
#
#
# Elastic Compliance Matrix: (Units=1/GPa)
#
#
# Indices 1 2 3 4 5 6 
#
# 1 0.019842 -0.000879 -0.002779 0.000000 -0.008886 0.000000
# 2 -0.000879 0.012766 -0.002418 0.000000 -0.004977 0.000000
# 3 -0.002779 -0.002418 0.014605 0.000000 -0.006681 0.000000
# 4 0.000000 0.000000 0.000000 0.072664 0.000000 -0.068343
# 5 -0.008886 -0.004977 -0.006681 0.000000 0.037580 0.000000
# 6 0.000000 0.000000 0.000000 -0.068343 0.000000 0.104429
#
#
# Mechanical properties :
#
#
# Convention : Reuss Voigt Hill
#
# Bulk Modulus (GPa) = 28.52191 43.60791 36.06491
# Shear Modulus (GPa) = 17.49941 31.73239 24.61590
#
# Velocity S-wave (km/s) = 2.59814 3.49867 3.08148
# Velocity P-wave (km/s) = 4.47244 5.75696 5.15487
#
# Compressibility (1/GPa) = 0.03506077
#
# Stress axis : x y z
#
# Youngs Moduli (GPa) = 50.39770 78.33381 68.47145
#
# Poissons Ratio (x) = 0.06883 0.19030
# Poissons Ratio (y) = 0.04428 0.16557
# Poissons Ratio (z) = 0.14006 0.18942
#
# Static dielectric constant tensor:
#      x y z
#    x 2.069230 0.000000 -0.106820 
#    y 0.000000 2.556720 0.000000 
#    z -0.106820 0.000000 2.076170 
# 
# From -- ./inp_files/63171.got.cif
#   From: 2010.05.17/outbox.cif.g08.bks.cpg/sg5_32_cif.got.tgz:63171.got - 2010.06.03 18:56:24.
