data_PCOD9127321
_publ_section_title
;
Structure prediction by ZEFSAII (Michael W. Deem and Ramdas Pophale) SiO2 
 PCOD9127321
Probable space group: C 2
;
_chemical_formula_sum "Si O2"
_cell_formula_units_Z 24
_cell_length_a 11.528382
_cell_length_b 7.739625
_cell_length_c 23.607197
_cell_angle_alpha 90.000000
_cell_angle_beta 28.150513
_cell_angle_gamma 90.000000
_cell_volume 993.758550
_symmetry_space_group_name_H-M "C 2"
_symmetry_group_IT_number 5
_symmetry_cell_setting 'monoclinic'
loop_
_space_group_symop_operation_xyz
x,y,z
-x,y,-z
1/2+x,1/2+y,z
1/2-x,1/2+y,-z
loop_
_atom_site_type_symbol
_atom_site_label
_atom_site_fract_x
_atom_site_fract_y
_atom_site_fract_z
Si Si1 0.601773 0.781730 0.696729
Si Si2 0.703005 0.077467 0.129123
Si Si3 0.178727 0.525341 0.476560
Si Si4 0.983363 0.435483 0.909140
Si Si5 0.864105 0.949654 0.838958
Si Si6 0.402987 0.264579 0.666198
O O1 0.680471 0.701851 0.603614
O O2 0.546659 0.606716 0.756813
O O3 0.824014 0.852805 0.639691
O O4 0.382659 0.917756 0.795221
O O5 0.570366 0.253827 0.205257
O O6 0.607324 0.032439 0.107382
O O7 0.000000 0.101316 0.000000
O O8 0.384150 0.383352 0.398838
O O9 0.000000 0.483416 0.500000
O O10 0.022930 0.581204 0.598534
O O11 0.167203 0.515653 0.876548
O O12 0.154716 0.280877 0.811103
O O13 0.748870 0.415372 0.050439
#
# Coordination Sequence:
#
# PCOD9127321 Si02
#       6
#     4   4   4   4   4   4
#     4  10  24  44  71 100 141 179 227 291 341 408
#     4  11  25  40  67 107 136 187 236 270 352 421
#     4  10  22  46  68  97 138 178 230 290 347 396
#     4  10  23  42  66 100 142 175 233 278 339 422
#     4  11  23  45  68  99 146 182 221 292 344 420
#     4  10  22  45  68 100 133 178 233 282 342 411
#
# _framework density 24.150735999999998
#
# number of rings (size 3 to 8) (size 9 to 14) (size 15 to 20)
#    0.000    1.667    3.333    0.000    7.000    1.333 
#   12.000    0.833    0.000    0.000    0.000    0.000 
#    0.000    0.000    0.000    0.000    0.000    0.000 
#
# Total GULP energy -66861.418645 kJ/mol
# GULP energy per Si atom -5571.784887 kJ/mol
# Density = 2.409577 g / cm^3
# Si number density = 24.150736 Si / 1000 Ang^3
#
#
#
# Elastic Constant Matrix: (Units=GPa)
#
#
# Indices 1 2 3 4 5 6 
#
# 1 99.0313 28.8712 10.0643 0.0001 7.6055 0.0000
# 2 28.8712 109.2043 49.4701 0.0000 -8.4224 0.0000
# 3 10.0643 49.4701 118.4522 0.0001 11.4870 -0.0002
# 4 0.0001 0.0000 0.0001 33.0675 -0.0001 -0.4661
# 5 7.6055 -8.4224 11.4870 -0.0001 33.6172 0.0000
# 6 0.0000 0.0000 -0.0002 -0.4661 0.0000 30.5666
#
#
#
# Elastic Compliance Matrix: (Units=1/GPa)
#
#
# Indices 1 2 3 4 5 6 
#
# 1 0.011387 -0.003747 0.000970 0.000000 -0.003846 0.000000
# 2 -0.003747 0.013257 -0.005815 0.000000 0.006156 0.000000
# 3 0.000970 -0.005815 0.011326 0.000000 -0.005547 0.000000
# 4 0.000000 0.000000 0.000000 0.030248 0.000000 0.000461
# 5 -0.003846 0.006156 -0.005547 0.000000 0.034054 0.000000
# 6 0.000000 0.000000 0.000000 0.000461 0.000000 0.032722
#
#
# Mechanical properties :
#
#
# Convention : Reuss Voigt Hill
#
# Bulk Modulus (GPa) = 53.22870 55.94434 54.58652
# Shear Modulus (GPa) = 31.96115 35.33574 33.64844
#
# Velocity S-wave (km/s) = 3.64181 3.82924 3.73670
# Velocity P-wave (km/s) = 6.30648 6.53955 6.42407
#
# Compressibility (1/GPa) = 0.01878686
#
# Stress axis : x y z
#
# Youngs Moduli (GPa) = 87.82031 75.43322 88.29004
#
# Poissons Ratio (x) = 0.28262 -0.08566
# Poissons Ratio (y) = 0.32903 0.51342
# Poissons Ratio (z) = -0.08521 0.43866
#
# Static dielectric constant tensor:
#      x y z
#    x 2.005180 0.000000 0.048840 
#    y 0.000000 1.932450 0.000000 
#    z 0.048840 0.000000 2.045600 
# 
# From -- ./inp_files/68238.got.cif
#   From: 2010.05.17/outbox.cif.g08.bks.cpg/sg5_35_cif.got.tgz:68238.got - 2010.06.03 18:56:24.
