data_PCOD9127845
_publ_section_title
;
Structure prediction by ZEFSAII (Michael W. Deem and Ramdas Pophale) SiO2 
 PCOD9127845
Probable space group: C 2
;
_chemical_formula_sum "Si O2"
_cell_formula_units_Z 32
_cell_length_a 10.455177
_cell_length_b 9.369892
_cell_length_c 23.814844
_cell_angle_alpha 90.000000
_cell_angle_beta 34.323983
_cell_angle_gamma 90.000000
_cell_volume 1315.509786
_symmetry_space_group_name_H-M "C 2"
_symmetry_group_IT_number 5
_symmetry_cell_setting 'monoclinic'
loop_
_space_group_symop_operation_xyz
x,y,z
-x,y,-z
1/2+x,1/2+y,z
1/2-x,1/2+y,-z
loop_
_atom_site_type_symbol
_atom_site_label
_atom_site_fract_x
_atom_site_fract_y
_atom_site_fract_z
Si Si1 0.994092 0.704510 0.434635
Si Si2 0.152797 0.408140 0.495813
Si Si3 0.999227 0.284581 0.764486
Si Si4 0.834759 0.243491 0.149065
Si Si5 0.840987 0.945531 0.177910
Si Si6 0.990938 0.671361 0.830079
Si Si7 0.790627 0.412274 0.954143
Si Si8 0.903128 0.023991 0.720523
O O1 0.984251 0.535042 0.423103
O O2 0.779884 0.789314 0.486419
O O3 0.000000 0.715309 0.500000
O O4 0.230554 0.775248 0.329992
O O5 0.353258 0.499069 0.393885
O O6 0.000000 0.348711 0.500000
O O7 0.906639 0.397850 0.751935
O O8 0.877100 0.337364 0.865675
O O9 0.913304 0.135749 0.768398
O O10 0.699880 0.170606 0.147620
O O11 0.684997 0.372411 0.226241
O O12 0.072942 0.319953 0.049034
O O13 0.862618 0.111722 0.181793
O O14 0.933607 0.834027 0.189328
O O15 0.026008 0.916514 0.061112
O O16 0.229752 0.588506 0.737252
O O17 0.885689 0.574060 0.918355
#
# Coordination Sequence:
#
# PCOD9127845 Si02
#       8
#     4   4   4   4   4   4   4   4
#     4  11  24  48  73 105 144 186 236 294 360 435
#     4  11  24  48  72 105 147 185 230 302 360 429
#     4  11  22  46  72  98 143 189 228 292 356 413
#     4  11  24  42  69 102 134 184 240 291 351 420
#     4  11  24  41  69  99 139 190 235 291 352 408
#     4  10  23  43  65  98 142 183 234 296 343 419
#     4  11  23  42  67 101 143 186 238 289 347 417
#     4  10  23  46  69 101 143 183 234 295 354 423
#
# _framework density 24.325171000000001
#
# number of rings (size 3 to 8) (size 9 to 14) (size 15 to 20)
#    0.000    1.250    3.750    2.625    1.750    3.000 
#    4.500    0.000    2.750    0.000    0.000    0.000 
#    0.000    0.000    0.000    0.000    0.000    0.000 
#
# Total GULP energy -89427.259903 kJ/mol
# GULP energy per Si atom -5589.203744 kJ/mol
# Density = 2.426981 g / cm^3
# Si number density = 24.325171 Si / 1000 Ang^3
#
#
#
# Elastic Constant Matrix: (Units=GPa)
#
#
# Indices 1 2 3 4 5 6 
#
# 1 127.0162 44.2655 16.7239 0.0000 -33.4407 0.0000
# 2 44.2655 172.1978 8.5996 0.0000 -14.7472 0.0000
# 3 16.7239 8.5996 63.9511 -0.0001 -19.9944 0.0000
# 4 0.0000 0.0000 -0.0001 34.7433 0.0000 -9.0071
# 5 -33.4407 -14.7472 -19.9944 0.0000 42.7690 0.0000
# 6 0.0000 0.0000 0.0000 -9.0071 0.0000 37.8273
#
#
#
# Elastic Compliance Matrix: (Units=1/GPa)
#
#
# Indices 1 2 3 4 5 6 
#
# 1 0.010588 -0.002073 -0.000147 0.000000 0.007495 0.000000
# 2 -0.002073 0.006392 -0.000158 0.000000 0.000509 0.000000
# 3 -0.000147 -0.000158 0.018322 0.000000 0.008396 0.000000
# 4 0.000000 0.000000 0.000000 0.030676 0.000000 0.007304
# 5 0.007495 0.000509 0.008396 0.000000 0.033343 0.000000
# 6 0.000000 0.000000 0.000000 0.007304 0.000000 0.028175
#
#
# Mechanical properties :
#
#
# Convention : Reuss Voigt Hill
#
# Bulk Modulus (GPa) = 32.73726 55.81591 44.27659
# Shear Modulus (GPa) = 35.10439 42.63966 38.87202
#
# Velocity S-wave (km/s) = 3.80298 4.19131 4.00186
# Velocity P-wave (km/s) = 5.72459 6.81310 6.29243
#
# Compressibility (1/GPa) = 0.03054624
#
# Stress axis : x y z
#
# Youngs Moduli (GPa) = 94.44659 156.45600 54.58032
#
# Poissons Ratio (x) = 0.32426 0.00801
# Poissons Ratio (y) = 0.19574 0.00864
# Poissons Ratio (z) = 0.01386 0.02476
#
# Static dielectric constant tensor:
#      x y z
#    x 2.004870 0.000000 0.017610 
#    y 0.000000 1.931890 0.000000 
#    z 0.017610 0.000000 1.988300 
# 
# From -- ./inp_files/71750.got.cif
#   From: 2010.05.17/outbox.cif.g08.bks.cpg/sg5_36_cif.got.tgz:71750.got - 2010.06.03 18:56:24.
