data_PCOD9127681
_publ_section_title
;
Structure prediction by ZEFSAII (Michael W. Deem and Ramdas Pophale) SiO2 
 PCOD9127681
Probable space group: C 2
;
_chemical_formula_sum "Si O2"
_cell_formula_units_Z 18
_cell_length_a 7.892760
_cell_length_b 20.110790
_cell_length_c 9.016119
_cell_angle_alpha 90.000000
_cell_angle_beta 35.963584
_cell_angle_gamma 90.000000
_cell_volume 840.458307
_symmetry_space_group_name_H-M "C 2"
_symmetry_group_IT_number 5
_symmetry_cell_setting 'monoclinic'
loop_
_space_group_symop_operation_xyz
x,y,z
-x,y,-z
1/2+x,1/2+y,z
1/2-x,1/2+y,-z
loop_
_atom_site_type_symbol
_atom_site_label
_atom_site_fract_x
_atom_site_fract_y
_atom_site_fract_z
Si Si1 0.826389 0.942490 0.970868
Si Si2 0.500000 0.630941 0.500000
Si Si3 0.205447 0.757810 0.735586
Si Si4 0.674264 0.310213 0.226797
Si Si5 0.323942 0.027213 0.472459
O O1 0.793849 0.875983 0.897726
O O2 0.032921 0.990341 0.729371
O O3 0.000000 0.931100 0.000000
O O4 0.529782 0.978889 0.228865
O O5 0.309166 0.686229 0.721890
O O6 0.709752 0.587871 0.453377
O O7 0.500000 0.797764 0.500000
O O8 0.029879 0.756724 0.709492
O O9 0.000000 0.788902 0.000000
O O10 0.500000 0.327054 0.500000
O O11 0.000000 0.283474 0.000000
O O12 0.500000 0.044408 0.500000
#
# Coordination Sequence:
#
# PCOD9127681 Si02
#       5
#     4   2   4   4   4
#     4  10  23  42  65  95 136 173 213 275 343 398
#     4  10  26  42  74  90 140 180 232 268 340 402
#     4  10  24  45  65  95 128 187 221 271 340 391
#     4  12  25  41  67 104 134 173 227 284 336 405
#     4  10  23  41  66 101 132 174 222 277 334 403
#
# _framework density 21.416888
#
# number of rings (size 3 to 8) (size 9 to 14) (size 15 to 20)
#    0.667    0.889    0.000    3.333    7.778    3.556 
#    0.000    0.000    0.000    0.000    0.000    0.000 
#    0.000    0.000    0.000    0.000    0.000    0.000 
#
# Total GULP energy -50181.435980 kJ/mol
# GULP energy per Si atom -5575.715109 kJ/mol
# Density = 2.136814 g / cm^3
# Si number density = 21.416888 Si / 1000 Ang^3
#
#
#
# Elastic Constant Matrix: (Units=GPa)
#
#
# Indices 1 2 3 4 5 6 
#
# 1 86.1428 19.6550 38.4797 0.0001 -13.8609 0.0000
# 2 19.6550 65.0069 22.3259 -0.0001 3.1050 0.0000
# 3 38.4797 22.3259 182.4271 0.0004 -7.1973 0.0000
# 4 0.0001 -0.0001 0.0004-5010.5949 -0.0003 57.9515
# 5 -13.8609 3.1050 -7.1973 -0.0003 30.0137 0.0000
# 6 0.0000 0.0000 0.0000 57.9515 0.0000 24.4840
#
#
#
# Elastic Compliance Matrix: (Units=1/GPa)
#
#
# Indices 1 2 3 4 5 6 
#
# 1 0.014612 -0.003929 -0.002341 0.000000 0.006593 0.000000
# 2 -0.003929 0.017253 -0.001438 0.000000 -0.003944 0.000000
# 3 -0.002341 -0.001438 0.006173 0.000000 0.000548 0.000000
# 4 0.000000 0.000000 0.000000 -0.000194 0.000000 0.000460
# 5 0.006593 -0.003944 0.000548 0.000000 0.036902 0.000000
# 6 0.000000 0.000000 0.000000 0.000460 0.000000 0.039755
#
#
# Mechanical properties :
#
#
# Convention : Reuss Voigt Hill
#
# Bulk Modulus (GPa) = 44.20587 54.94423 49.57505
# Shear Modulus (GPa) = 36.37476 -974.34503 -468.98513
#
# Velocity S-wave (km/s) = 4.12565 -21.35252 -14.81400
# Velocity P-wave (km/s) = 6.58636 24.12875 16.41366
#
# Compressibility (1/GPa) = 0.02262143
#
# Stress axis : x y z
#
# Youngs Moduli (GPa) = 68.43841 57.96008 161.99268
#
# Poissons Ratio (x) = 0.22771 0.37925
# Poissons Ratio (y) = 0.26888 0.23301
# Poissons Ratio (z) = 0.16022 0.08337
#
# Static dielectric constant tensor:
#      x y z
#    x 3.764620 0.000000 -0.390570 
#    y 0.000000 1.746320 0.000000 
#    z -0.390570 0.000000 1.931790 
# 
# From -- ./inp_files/2690.got.cif
#   From: 2010.05.17/outbox.cif.g08.bks.cpg/sg5_2_cif.got.tgz:2690.got - 2010.06.03 18:56:24.
