data_PCOD9127880
_publ_section_title
;
Structure prediction by ZEFSAII (Michael W. Deem and Ramdas Pophale) SiO2 
 PCOD9127880
Probable space group: C 2
;
_chemical_formula_sum "Si O2"
_cell_formula_units_Z 24
_cell_length_a 13.720608
_cell_length_b 6.432628
_cell_length_c 26.791173
_cell_angle_alpha 90.000000
_cell_angle_beta 153.848863
_cell_angle_gamma 90.000000
_cell_volume 1042.164978
_symmetry_space_group_name_H-M "C 2"
_symmetry_group_IT_number 5
_symmetry_cell_setting 'monoclinic'
loop_
_space_group_symop_operation_xyz
x,y,z
-x,y,-z
1/2+x,1/2+y,z
1/2-x,1/2+y,-z
loop_
_atom_site_type_symbol
_atom_site_label
_atom_site_fract_x
_atom_site_fract_y
_atom_site_fract_z
Si Si1 0.554709 0.601330 0.233674
Si Si2 0.000000 0.982463 0.500000
Si Si3 0.888633 0.613464 0.025651
Si Si4 0.837595 0.140157 0.608865
Si Si5 0.470205 0.824482 0.401463
Si Si6 0.674333 0.000165 0.893066
Si Si7 0.000000 0.305276 0.000000
O O1 0.541468 0.554358 0.286233
O O2 0.773337 0.492252 0.314228
O O3 0.518609 0.851477 0.215203
O O4 0.354922 0.540734 0.105257
O O5 0.178380 0.824979 0.556893
O O6 0.069099 0.141143 0.576298
O O7 0.907232 0.594580 0.092608
O O8 0.039150 0.455991 0.064918
O O9 0.881223 0.847857 0.002887
O O10 0.990798 0.230317 0.635487
O O11 0.687320 0.955455 0.517394
O O12 0.784011 0.165261 0.907857
#
# Coordination Sequence:
#
# PCOD9127880 Si02
#       7
#     4   2   4   4   4   4   2
#     4  10  24  44  66 106 141 171 241 280 334 414
#     4  12  22  42  74  90 142 182 218 286 336 398
#     4  10  23  44  67 100 133 179 225 286 335 400
#     4  12  24  44  72 104 135 185 229 277 349 402
#     4  12  24  45  69 104 138 181 230 283 340 412
#     4  10  23  43  69  99 131 183 223 284 340 398
#     4  12  20  44  72  88 136 178 224 272 348 396
#
# _framework density 23.028983
#
# number of rings (size 3 to 8) (size 9 to 14) (size 15 to 20)
#    1.000    0.000    6.667    0.500    0.000    4.000 
#    0.000    5.000    0.000    0.000    0.000    0.000 
#    0.000    0.000    0.000    0.000    0.000    0.000 
#
# Total GULP energy -66980.897701 kJ/mol
# GULP energy per Si atom -5581.741475 kJ/mol
# Density = 2.297657 g / cm^3
# Si number density = 23.028983 Si / 1000 Ang^3
#
#
#
# Elastic Constant Matrix: (Units=GPa)
#
#
# Indices 1 2 3 4 5 6 
#
# 1 145.2072 29.4341 10.4246 -0.0002 1.2468 0.0001
# 2 29.4341 90.2749 -13.6612 -0.0012 18.3053 0.0006
# 3 10.4246 -13.6612 43.3581 0.0000 1.3829 -0.0002
# 4 -0.0002 -0.0012 0.0000 39.2454 0.0002 10.7439
# 5 1.2468 18.3053 1.3829 0.0002 25.6039 -0.0004
# 6 0.0001 0.0006 -0.0002 10.7439 -0.0004 59.3155
#
#
#
# Elastic Compliance Matrix: (Units=1/GPa)
#
#
# Indices 1 2 3 4 5 6 
#
# 1 0.007785 -0.003454 -0.003032 0.000000 0.002254 0.000000
# 2 -0.003454 0.015378 0.006031 0.000001 -0.011152 0.000000
# 3 -0.003032 0.006031 0.025870 0.000000 -0.005562 0.000000
# 4 0.000000 0.000001 0.000000 0.026810 -0.000001 -0.004856
# 5 0.002254 -0.011152 -0.005562 -0.000001 0.047220 0.000001
# 6 0.000000 0.000000 0.000000 -0.004856 0.000001 0.017739
#
#
# Mechanical properties :
#
#
# Convention : Reuss Voigt Hill
#
# Bulk Modulus (GPa) = 20.78008 36.80391 28.79199
# Shear Modulus (GPa) = 31.69510 41.67580 36.68545
#
# Velocity S-wave (km/s) = 3.71389 4.25868 3.99559
# Velocity P-wave (km/s) = 5.23772 6.34020 5.81515
#
# Compressibility (1/GPa) = 0.04812302
#
# Stress axis : x y z
#
# Youngs Moduli (GPa) = 128.44820 65.03002 38.65413
#
# Poissons Ratio (x) = 0.22464 0.11720
# Poissons Ratio (y) = 0.44370 -0.23314
# Poissons Ratio (z) = 0.38947 -0.39222
#
# Static dielectric constant tensor:
#      x y z
#    x 1.831840 0.000000 0.033380 
#    y 0.000000 1.899780 0.000000 
#    z 0.033380 0.000000 1.876280 
# 
# From -- ./inp_files/71814.got.cif
#   From: 2010.05.17/outbox.cif.g08.bks.cpg/sg5_36_cif.got.tgz:71814.got - 2010.06.03 18:56:24.
