data_PCOD9127144
_publ_section_title
;
Structure prediction by ZEFSAII (Michael W. Deem and Ramdas Pophale) SiO2 
 PCOD9127144
Probable space group: C 2
;
_chemical_formula_sum "Si O2"
_cell_formula_units_Z 28
_cell_length_a 5.555271
_cell_length_b 18.662591
_cell_length_c 11.577438
_cell_angle_alpha 90.000000
_cell_angle_beta 108.379522
_cell_angle_gamma 90.000000
_cell_volume 1139.070813
_symmetry_space_group_name_H-M "C 2"
_symmetry_group_IT_number 5
_symmetry_cell_setting 'monoclinic'
loop_
_space_group_symop_operation_xyz
x,y,z
-x,y,-z
1/2+x,1/2+y,z
1/2-x,1/2+y,-z
loop_
_atom_site_type_symbol
_atom_site_label
_atom_site_fract_x
_atom_site_fract_y
_atom_site_fract_z
Si Si1 0.140593 0.882420 0.312383
Si Si2 0.795119 0.040072 0.575907
Si Si3 0.154517 0.122644 0.782194
Si Si4 0.000000 0.788271 0.500000
Si Si5 0.039233 0.499627 0.867398
Si Si6 0.850870 0.348267 0.859021
Si Si7 0.000000 0.083669 0.000000
Si Si8 0.988344 0.258890 0.675510
O O1 0.384568 0.832415 0.344459
O O2 0.990361 0.842867 0.392454
O O3 0.945247 0.871050 0.176393
O O4 0.188833 0.962984 0.357631
O O5 0.500000 0.051247 0.500000
O O6 0.000000 0.040624 0.500000
O O7 0.893635 0.098228 0.682637
O O8 0.351015 0.058824 0.787837
O O9 0.199648 0.198163 0.726922
O O10 0.136945 0.127791 0.919164
O O11 0.743728 0.743043 0.445896
O O12 0.978072 0.419598 0.819564
O O13 0.318022 0.530894 0.900876
O O14 0.000000 0.497559 0.000000
O O15 0.885037 0.277306 0.788024
O O16 0.000000 0.338118 0.000000
#
# Coordination Sequence:
#
# PCOD9127144 Si02
#       8
#     4   4   4   2   4   4   2   4
#     4  11  23  44  70  99 139 187 237 305 369 432
#     4  12  28  47  80 114 149 194 257 317 371 451
#     4  11  26  45  70 107 146 190 244 309 377 447
#     4  10  22  44  66  92 134 180 236 286 368 426
#     4   9  20  41  66  97 133 180 241 294 364 435
#     4  10  23  42  67 101 138 180 243 296 360 444
#     4  10  24  44  76  98 148 196 232 312 380 448
#     4  11  26  41  70  99 142 190 237 302 369 446
#
# _framework density 24.581441000000002
#
# number of rings (size 3 to 8) (size 9 to 14) (size 15 to 20)
#    0.000    1.429    2.143    1.286    8.000    4.000 
#    5.143    0.000    0.000    0.000    0.000    0.000 
#    0.000    0.000    0.000    0.000    0.000    0.000 
#
# Total GULP energy -78201.184749 kJ/mol
# GULP energy per Si atom -5585.798911 kJ/mol
# Density = 2.452549 g / cm^3
# Si number density = 24.581441 Si / 1000 Ang^3
#
#
#
# Elastic Constant Matrix: (Units=GPa)
#
#
# Indices 1 2 3 4 5 6 
#
# 1 68.9820 -15.6754 27.7987 0.0000 28.9221 0.0000
# 2 -15.6754 59.7586 14.6359 0.0000 1.7549 0.0000
# 3 27.7987 14.6359 107.5109 0.0000 22.2774 0.0000
# 4 0.0000 0.0000 0.0000 24.5453 0.0000 13.0803
# 5 28.9221 1.7549 22.2774 0.0000 47.4821 0.0000
# 6 0.0000 0.0000 0.0000 13.0803 0.0000 19.4966
#
#
#
# Elastic Compliance Matrix: (Units=1/GPa)
#
#
# Indices 1 2 3 4 5 6 
#
# 1 0.023161 0.007530 -0.004467 0.000000 -0.012290 0.000000
# 2 0.007530 0.019771 -0.003918 0.000000 -0.003480 0.000000
# 3 -0.004467 -0.003918 0.011515 0.000000 -0.002537 0.000000
# 4 0.000000 0.000000 0.000000 0.063413 0.000000 -0.042544
# 5 -0.012290 -0.003480 -0.002537 0.000000 0.029866 0.000000
# 6 0.000000 0.000000 0.000000 -0.042544 0.000000 0.079834
#
#
# Mechanical properties :
#
#
# Convention : Reuss Voigt Hill
#
# Bulk Modulus (GPa) = 18.96151 32.19664 25.57907
# Shear Modulus (GPa) = 20.25541 32.27094 26.26318
#
# Velocity S-wave (km/s) = 2.87368 3.62721 3.27221
# Velocity P-wave (km/s) = 4.32911 5.53792 4.97040
#
# Compressibility (1/GPa) = 0.05273841
#
# Stress axis : x y z
#
# Youngs Moduli (GPa) = 43.17651 50.57927 86.84005
#
# Poissons Ratio (x) = -0.38088 0.38792
# Poissons Ratio (y) = -0.32513 0.34020
# Poissons Ratio (z) = 0.19287 0.19815
#
# Static dielectric constant tensor:
#      x y z
#    x 2.086890 0.000000 -0.049810 
#    y 0.000000 1.918360 0.000000 
#    z -0.049810 0.000000 2.004000 
# 
# From -- ./inp_files/34011.got.cif
#   From: 2010.05.17/outbox.cif.g08.bks.cpg/sg5_18_cif.got.tgz:34011.got - 2010.06.03 18:56:24.
