data_PCOD9127591
_publ_section_title
;
Structure prediction by ZEFSAII (Michael W. Deem and Ramdas Pophale) SiO2 
 PCOD9127591
Probable space group: C 2
;
_chemical_formula_sum "Si O2"
_cell_formula_units_Z 22
_cell_length_a 12.910221
_cell_length_b 12.964042
_cell_length_c 12.800483
_cell_angle_alpha 90.000000
_cell_angle_beta 31.271423
_cell_angle_gamma 90.000000
_cell_volume 1112.104329
_symmetry_space_group_name_H-M "C 2"
_symmetry_group_IT_number 5
_symmetry_cell_setting 'monoclinic'
loop_
_space_group_symop_operation_xyz
x,y,z
-x,y,-z
1/2+x,1/2+y,z
1/2-x,1/2+y,-z
loop_
_atom_site_type_symbol
_atom_site_label
_atom_site_fract_x
_atom_site_fract_y
_atom_site_fract_z
Si Si1 0.777553 0.947360 0.159192
Si Si2 0.743133 0.904368 0.959201
Si Si3 0.064569 0.733007 0.657801
Si Si4 0.480257 0.770326 0.695892
Si Si5 0.360859 0.114344 0.024361
Si Si6 0.000000 0.613114 0.500000
O O1 0.622654 0.852301 0.293573
O O2 0.682655 0.040357 0.305270
O O3 0.793146 0.968700 0.021774
O O4 0.000000 0.918217 0.000000
O O5 0.933138 0.837033 0.763984
O O6 0.580366 0.821193 0.139652
O O7 0.663230 0.991208 0.952125
O O8 0.285336 0.757745 0.508487
O O9 0.064471 0.679281 0.544852
O O10 0.962824 0.657938 0.830994
O O11 0.357164 0.666157 0.784484
O O12 0.500000 0.148687 0.000000
#
# Coordination Sequence:
#
# PCOD9127591 Si02
#       6
#     4   4   4   4   4   2
#     4  10  23  39  69  96 128 171 218 268 319 376
#     4   9  23  42  61  93 131 171 208 263 329 385
#     4  11  24  43  64  97 132 163 224 267 322 381
#     4   9  23  40  66  94 127 166 217 275 316 374
#     4  11  23  43  64  91 129 176 215 259 328 389
#     4  12  26  40  72 100 126 174 220 270 322 382
#
# _framework density 19.782316999999999
#
# number of rings (size 3 to 8) (size 9 to 14) (size 15 to 20)
#    1.091    0.727    1.818    0.545    5.091    3.636 
#    0.000    0.000    0.000    0.000    0.000    0.000 
#    0.000    0.000    0.000    0.000    0.000    0.000 
#
# Total GULP energy -61312.783080 kJ/mol
# GULP energy per Si atom -5573.889371 kJ/mol
# Density = 1.973729 g / cm^3
# Si number density = 19.782317 Si / 1000 Ang^3
#
#
#
# Elastic Constant Matrix: (Units=GPa)
#
#
# Indices 1 2 3 4 5 6 
#
# 1 95.3902 43.2296 52.0917 -0.0024 -8.1795 -0.0008
# 2 43.2296 108.6345 53.5358 -0.0009 -11.3321 -0.0004
# 3 52.0917 53.5358 102.0462 -0.0024 -22.5366 -0.0024
# 4 -0.0024 -0.0009 -0.0024 27.5930 0.0020 -2.2403
# 5 -8.1795 -11.3321 -22.5366 0.0020 43.0109 0.0012
# 6 -0.0008 -0.0004 -0.0024 -2.2403 0.0012 -1.0412
#
#
#
# Elastic Compliance Matrix: (Units=1/GPa)
#
#
# Indices 1 2 3 4 5 6 
#
# 1 0.015294 -0.003011 -0.006514 0.000001 -0.001298 0.000001
# 2 -0.003011 0.013009 -0.005267 0.000000 0.000095 0.000008
# 3 -0.006514 -0.005267 0.017311 -0.000001 0.006444 -0.000022
# 4 0.000001 0.000000 -0.000001 0.030851 0.000000 -0.066381
# 5 -0.001298 0.000095 0.006444 0.000000 0.026405 0.000016
# 6 0.000001 0.000008 -0.000022 -0.066381 0.000016 -0.817590
#
#
# Mechanical properties :
#
#
# Convention : Reuss Voigt Hill
#
# Bulk Modulus (GPa) = 62.38337 67.08722 64.73530
# Shear Modulus (GPa) = -7.35517 24.39346 8.51914
#
# Velocity S-wave (km/s) = -1.93032 3.51535 2.07745
# Velocity P-wave (km/s) = 5.16093 7.10375 6.20880
#
# Compressibility (1/GPa) = 0.01602991
#
# Stress axis : x y z
#
# Youngs Moduli (GPa) = 65.38589 76.87123 57.76758
#
# Poissons Ratio (x) = 0.23148 0.37630
# Poissons Ratio (y) = 0.19689 0.30423
# Poissons Ratio (z) = 0.42592 0.40484
#
# Static dielectric constant tensor:
#      x y z
#    x 1.768520 0.000000 0.041540 
#    y 0.000000 1.695240 0.000000 
#    z 0.041540 0.000000 1.687620 
# 
# From -- ./inp_files/39052.got.cif
#   From: 2010.05.17/outbox.cif.g08.bks.cpg/sg5_20_cif.got.tgz:39052.got - 2010.06.03 18:56:24.
