data_PCOD9127296
_publ_section_title
;
Structure prediction by ZEFSAII (Michael W. Deem and Ramdas Pophale) SiO2 
 PCOD9127296
Probable space group: C 2
;
_chemical_formula_sum "Si O2"
_cell_formula_units_Z 30
_cell_length_a 14.641015
_cell_length_b 8.299427
_cell_length_c 13.271309
_cell_angle_alpha 90.000000
_cell_angle_beta 121.757978
_cell_angle_gamma 90.000000
_cell_volume 1371.180035
_symmetry_space_group_name_H-M "C 2"
_symmetry_group_IT_number 5
_symmetry_cell_setting 'monoclinic'
loop_
_space_group_symop_operation_xyz
x,y,z
-x,y,-z
1/2+x,1/2+y,z
1/2-x,1/2+y,-z
loop_
_atom_site_type_symbol
_atom_site_label
_atom_site_fract_x
_atom_site_fract_y
_atom_site_fract_z
Si Si1 0.575878 0.821780 0.695047
Si Si2 0.656419 0.946065 0.946435
Si Si3 0.500000 0.774194 0.000000
Si Si4 0.846642 0.766583 0.161854
Si Si5 0.363575 0.936264 0.488106
Si Si6 0.811765 0.162386 0.761714
Si Si7 0.543977 0.491776 0.328323
Si Si8 0.201390 0.809395 0.544844
O O1 0.650133 0.862591 0.832783
O O2 0.468940 0.930589 0.619386
O O3 0.625813 0.854347 0.614724
O O4 0.527727 0.645100 0.684941
O O5 0.553211 0.880487 0.944835
O O6 0.646805 0.134248 0.921414
O O7 0.760192 0.897024 0.071754
O O8 0.405883 0.670705 0.897309
O O9 0.794985 0.668516 0.227448
O O10 0.960377 0.851546 0.248665
O O11 0.275349 0.829064 0.491326
O O12 0.336629 0.125417 0.462326
O O13 0.869255 0.046065 0.708953
O O14 0.783663 0.327949 0.685085
O O15 0.606360 0.430405 0.464515
#
# Coordination Sequence:
#
# PCOD9127296 Si02
#       8
#     4   4   2   4   4   4   4   4
#     4  11  23  44  69 101 143 187 246 305 375 443
#     4  11  22  46  67 106 143 186 250 306 370 452
#     4  10  22  44  78  94 146 190 238 310 366 428
#     4  11  27  44  74 106 145 197 246 311 381 454
#     4  11  23  40  66 101 141 190 232 307 372 444
#     4  11  24  46  71 103 142 196 236 311 370 440
#     4  12  25  47  71 107 144 196 249 307 379 459
#     4  12  23  44  68 105 146 183 251 296 381 452
#
# _framework density 21.878965000000001
#
# number of rings (size 3 to 8) (size 9 to 14) (size 15 to 20)
#    0.000    0.800    4.000    2.400    1.867    4.800 
#    2.400    2.667    0.000    0.000    0.000    0.000 
#    0.000    0.000    0.000    0.000    0.000    0.000 
#
# Total GULP energy -83566.130595 kJ/mol
# GULP energy per Si atom -5571.075373 kJ/mol
# Density = 2.182917 g / cm^3
# Si number density = 21.878965 Si / 1000 Ang^3
#
#
#
# Elastic Constant Matrix: (Units=GPa)
#
#
# Indices 1 2 3 4 5 6 
#
# 1 59.3437 14.7953 13.0066 0.0000 -8.0094 0.0000
# 2 14.7953 72.5356 16.3659 0.0000 -9.0674 0.0000
# 3 13.0066 16.3659 98.1272 0.0000 5.7314 0.0000
# 4 0.0000 0.0000 0.0000 38.0336 0.0000 -5.5168
# 5 -8.0094 -9.0674 5.7314 0.0000 36.7017 0.0000
# 6 0.0000 0.0000 0.0000 -5.5168 0.0000 -3.7646
#
#
#
# Elastic Compliance Matrix: (Units=1/GPa)
#
#
# Indices 1 2 3 4 5 6 
#
# 1 0.018535 -0.002823 -0.002202 0.000000 0.003691 0.000000
# 2 -0.002823 0.015345 -0.002393 0.000000 0.003549 0.000000
# 3 -0.002202 -0.002393 0.011045 0.000000 -0.002796 0.000000
# 4 0.000000 0.000000 0.000000 0.021683 0.000000 -0.031776
# 5 0.003691 0.003549 -0.002796 0.000000 0.029366 0.000000
# 6 0.000000 0.000000 0.000000 -0.031776 0.000000 -0.219068
#
#
# Mechanical properties :
#
#
# Convention : Reuss Voigt Hill
#
# Bulk Modulus (GPa) = 33.23086 35.37136 34.30111
# Shear Modulus (GPa) = -50.90144 26.58340 -12.15902
#
# Velocity S-wave (km/s) = -4.82861 3.48950 -2.35997
# Velocity P-wave (km/s) = 3.98320 5.69538 2.87850
#
# Compressibility (1/GPa) = 0.03009251
#
# Stress axis : x y z
#
# Youngs Moduli (GPa) = 53.95059 65.16573 90.53834
#
# Poissons Ratio (x) = 0.18393 0.19934
# Poissons Ratio (y) = 0.15228 0.21662
# Poissons Ratio (z) = 0.11878 0.15591
#
# Static dielectric constant tensor:
#      x y z
#    x 1.875660 0.000000 0.034810 
#    y 0.000000 1.796780 0.000000 
#    z 0.034810 0.000000 1.937120 
# 
# From -- ./inp_files/42049.got.cif
#   From: 2010.05.17/outbox.cif.g08.bks.cpg/sg5_22_cif.got.tgz:42049.got - 2010.06.03 18:56:24.
