data_PCOD9127546
_publ_section_title
;
Structure prediction by ZEFSAII (Michael W. Deem and Ramdas Pophale) SiO2 
 PCOD9127546
Probable space group: C 2
;
_chemical_formula_sum "Si O2"
_cell_formula_units_Z 16
_cell_length_a 13.173590
_cell_length_b 6.088522
_cell_length_c 9.484387
_cell_angle_alpha 90.000000
_cell_angle_beta 133.496943
_cell_angle_gamma 90.000000
_cell_volume 551.835307
_symmetry_space_group_name_H-M "C 2"
_symmetry_group_IT_number 5
_symmetry_cell_setting 'monoclinic'
loop_
_space_group_symop_operation_xyz
x,y,z
-x,y,-z
1/2+x,1/2+y,z
1/2-x,1/2+y,-z
loop_
_atom_site_type_symbol
_atom_site_label
_atom_site_fract_x
_atom_site_fract_y
_atom_site_fract_z
Si Si1 0.921833 0.724520 0.111076
Si Si2 0.860954 0.359647 0.684282
Si Si3 0.756237 0.965278 0.724782
Si Si4 0.114813 0.115968 0.778451
O O1 0.056281 0.582457 0.200257
O O2 0.939094 0.863307 0.271953
O O3 0.878124 0.893998 0.947613
O O4 0.776579 0.589095 0.987485
O O5 0.759806 0.411263 0.456876
O O6 0.993544 0.221242 0.757018
O O7 0.780205 0.229305 0.729226
O O8 0.639500 0.795347 0.677861
#
# Coordination Sequence:
#
# PCOD9127546 Si02
#       4
#     4   4   4   4
#     4  10  23  52  88 120 172 235 283 364 447 514
#     4  12  25  54  85 127 178 223 301 361 439 535
#     4  10  27  52  82 137 167 230 295 365 441 533
#     4  10  22  51  80 125 167 230 287 360 445 508
#
# _framework density 28.994157999999999
#
# number of rings (size 3 to 8) (size 9 to 14) (size 15 to 20)
#    1.500    0.000    2.500    0.750    3.500    1.000 
#   18.000    5.000    0.000    0.000    0.000    0.000 
#    0.000    0.000    0.000    0.000    0.000    0.000 
#
# Total GULP energy -44559.439998 kJ/mol
# GULP energy per Si atom -5569.930000 kJ/mol
# Density = 2.892817 g / cm^3
# Si number density = 28.994158 Si / 1000 Ang^3
#
#
#
# Elastic Constant Matrix: (Units=GPa)
#
#
# Indices 1 2 3 4 5 6 
#
# 1 140.1945 75.2287 53.7969 0.0000 -3.5006 0.0000
# 2 75.2287 169.5802 75.1325 0.0000 -19.6931 0.0000
# 3 53.7969 75.1325 150.8639 0.0000 -6.1781 0.0000
# 4 0.0000 0.0000 0.0000 53.1014 0.0000 2.4811
# 5 -3.5006 -19.6931 -6.1781 0.0000 37.2254 0.0000
# 6 0.0000 0.0000 0.0000 2.4811 0.0000 77.6790
#
#
#
# Elastic Compliance Matrix: (Units=1/GPa)
#
#
# Indices 1 2 3 4 5 6 
#
# 1 0.009747 -0.003740 -0.001668 0.000000 -0.001339 0.000000
# 2 -0.003740 0.009455 -0.003206 0.000000 0.004118 0.000000
# 3 -0.001668 -0.003206 0.008804 0.000000 -0.000392 0.000000
# 4 0.000000 0.000000 0.000000 0.018860 0.000000 -0.000602
# 5 -0.001339 0.004118 -0.000392 0.000000 0.028851 0.000000
# 6 0.000000 0.000000 0.000000 -0.000602 0.000000 0.012893
#
#
# Mechanical properties :
#
#
# Convention : Reuss Voigt Hill
#
# Bulk Modulus (GPa) = 92.79166 96.55051 94.67109
# Shear Modulus (GPa) = 45.69134 50.69988 48.19561
#
# Velocity S-wave (km/s) = 3.97404 4.18619 4.08150
# Velocity P-wave (km/s) = 7.28906 7.53245 7.41176
#
# Compressibility (1/GPa) = 0.01077683
#
# Stress axis : x y z
#
# Youngs Moduli (GPa) = 102.60074 105.76430 113.58638
#
# Poissons Ratio (x) = 0.39560 0.18942
# Poissons Ratio (y) = 0.38377 0.36419
# Poissons Ratio (z) = 0.17110 0.33911
#
# Static dielectric constant tensor:
#      x y z
#    x 2.314750 0.000000 -0.114030 
#    y 0.000000 2.644290 0.000000 
#    z -0.114030 0.000000 2.244390 
# 
# From -- ./inp_files/43681.got.cif
#   From: 2010.05.17/outbox.cif.g08.bks.cpg/sg5_22_cif.got.tgz:43681.got - 2010.06.03 18:56:24.
