data_PCOD9127725
_publ_section_title
;
Structure prediction by ZEFSAII (Michael W. Deem and Ramdas Pophale) SiO2 
 PCOD9127725
Probable space group: C 2
;
_chemical_formula_sum "Si O2"
_cell_formula_units_Z 28
_cell_length_a 14.057085
_cell_length_b 9.965749
_cell_length_c 9.074254
_cell_angle_alpha 90.000000
_cell_angle_beta 61.279714
_cell_angle_gamma 90.000000
_cell_volume 1114.817804
_symmetry_space_group_name_H-M "C 2"
_symmetry_group_IT_number 5
_symmetry_cell_setting 'monoclinic'
loop_
_space_group_symop_operation_xyz
x,y,z
-x,y,-z
1/2+x,1/2+y,z
1/2-x,1/2+y,-z
loop_
_atom_site_type_symbol
_atom_site_label
_atom_site_fract_x
_atom_site_fract_y
_atom_site_fract_z
Si Si1 0.016600 0.367410 0.815811
Si Si2 0.301537 0.051129 0.441669
Si Si3 0.630379 0.587122 0.789211
Si Si4 0.604165 0.301339 0.767309
Si Si5 0.644458 0.660038 0.110770
Si Si6 0.363889 0.255473 0.928752
Si Si7 0.881624 0.944185 0.643479
O O1 0.086833 0.471189 0.668706
O O2 0.086277 0.228210 0.761159
O O3 0.899088 0.312856 0.851512
O O4 0.000000 0.410534 0.000000
O O5 0.253641 0.063017 0.641609
O O6 0.314442 0.205176 0.378273
O O7 0.211808 0.974675 0.406647
O O8 0.575732 0.455811 0.756683
O O9 0.610650 0.602114 0.977353
O O10 0.490547 0.223881 0.835916
O O11 0.647181 0.319277 0.900991
O O12 0.602109 0.583805 0.283653
O O13 0.773872 0.642703 0.006794
O O14 0.340906 0.342307 0.800721
O O15 0.000000 0.895776 0.500000
#
# Coordination Sequence:
#
# PCOD9127725 Si02
#       7
#     4   4   4   4   4   4   4
#     4  10  23  41  70  98 135 180 225 271 343 411
#     4  12  25  44  70 105 141 176 227 292 347 402
#     4  11  23  45  72  98 135 188 227 274 344 422
#     4  11  24  42  71 102 136 179 235 284 350 398
#     4  11  23  44  69  98 135 181 230 280 339 412
#     4  11  24  42  68  97 137 180 230 284 341 408
#     4  12  24  42  68 103 134 179 234 281 335 414
#
# _framework density 25.116212999999998
#
# number of rings (size 3 to 8) (size 9 to 14) (size 15 to 20)
#    0.000    0.857    2.857    5.143    6.000    2.286 
#    0.000    0.000    0.000    0.000    0.000    0.000 
#    0.000    0.000    0.000    0.000    0.000    0.000 
#
# Total GULP energy -78160.736589 kJ/mol
# GULP energy per Si atom -5582.909756 kJ/mol
# Density = 2.505905 g / cm^3
# Si number density = 25.116213 Si / 1000 Ang^3
#
#
#
# Elastic Constant Matrix: (Units=GPa)
#
#
# Indices 1 2 3 4 5 6 
#
# 1 63.3605 12.0493 15.0715 0.0000 -3.6871 0.0000
# 2 12.0493 95.7969 31.0234 0.0000 -15.0986 0.0000
# 3 15.0715 31.0234 130.6156 0.0000 -23.5484 0.0000
# 4 0.0000 0.0000 0.0000 43.8371 0.0000 -13.8477
# 5 -3.6871 -15.0986 -23.5484 0.0000 38.2150 0.0000
# 6 0.0000 0.0000 0.0000 -13.8477 0.0000 25.6468
#
#
#
# Elastic Compliance Matrix: (Units=1/GPa)
#
#
# Indices 1 2 3 4 5 6 
#
# 1 0.016445 -0.001572 -0.001519 0.000000 0.000030 0.000000
# 2 -0.001572 0.011810 -0.002036 0.000000 0.003260 0.000000
# 3 -0.001519 -0.002036 0.009161 0.000000 0.004694 0.000000
# 4 0.000000 0.000000 0.000000 0.027503 0.000000 0.014850
# 5 0.000030 0.003260 0.004694 0.000000 0.030351 0.000000
# 6 0.000000 0.000000 0.000000 0.014850 0.000000 0.047009
#
#
# Mechanical properties :
#
#
# Convention : Reuss Voigt Hill
#
# Bulk Modulus (GPa) = 36.81586 45.11791 40.96689
# Shear Modulus (GPa) = 30.94335 36.98171 33.96253
#
# Velocity S-wave (km/s) = 3.51380 3.84138 3.68124
# Velocity P-wave (km/s) = 5.58144 6.13821 5.86643
#
# Compressibility (1/GPa) = 0.02716221
#
# Stress axis : x y z
#
# Youngs Moduli (GPa) = 60.81017 84.67730 109.15606
#
# Poissons Ratio (x) = 0.13310 0.16579
# Poissons Ratio (y) = 0.09558 0.22223
# Poissons Ratio (z) = 0.09236 0.17239
#
# Static dielectric constant tensor:
#      x y z
#    x 2.063790 0.000000 -0.003740 
#    y 0.000000 2.026740 0.000000 
#    z -0.003740 0.000000 1.972650 
# 
# From -- ./inp_files/23791.got.cif
#   From: 2010.05.17/outbox.cif.g08.bks.cpg/sg5_12_cif.got.tgz:23791.got - 2010.06.03 18:56:24.
