data_PCOD9127413
_publ_section_title
;
Structure prediction by ZEFSAII (Michael W. Deem and Ramdas Pophale) SiO2 
 PCOD9127413
Probable space group: C 2
;
_chemical_formula_sum "Si O2"
_cell_formula_units_Z 24
_cell_length_a 15.710407
_cell_length_b 7.970279
_cell_length_c 13.068864
_cell_angle_alpha 90.000000
_cell_angle_beta 140.117332
_cell_angle_gamma 90.000000
_cell_volume 1049.310911
_symmetry_space_group_name_H-M "C 2"
_symmetry_group_IT_number 5
_symmetry_cell_setting 'monoclinic'
loop_
_space_group_symop_operation_xyz
x,y,z
-x,y,-z
1/2+x,1/2+y,z
1/2-x,1/2+y,-z
loop_
_atom_site_type_symbol
_atom_site_label
_atom_site_fract_x
_atom_site_fract_y
_atom_site_fract_z
Si Si1 0.051867 0.689430 0.838174
Si Si2 0.873318 0.930807 0.776402
Si Si3 0.648692 0.729269 0.635763
Si Si4 0.777903 0.528108 0.568715
Si Si5 0.721467 0.447768 0.865430
Si Si6 0.876809 0.296164 0.836995
O O1 0.982275 0.785794 0.868858
O O2 0.918921 0.609702 0.664184
O O3 0.121774 0.843455 0.843832
O O4 0.159849 0.545957 0.965140
O O5 0.758501 0.872695 0.747931
O O6 0.805075 0.961749 0.602621
O O7 0.923495 0.113481 0.849220
O O8 0.500000 0.794816 0.500000
O O9 0.691127 0.644573 0.565945
O O10 0.659555 0.591257 0.735277
O O11 0.821049 0.379837 0.684427
O O12 0.773522 0.308422 0.833290
O O13 0.000000 0.395897 0.000000
#
# Coordination Sequence:
#
# PCOD9127413 Si02
#       6
#     4   4   4   4   4   4
#     4  11  25  44  65  97 134 176 226 267 345 388
#     4  11  25  40  72  98 134 177 221 276 333 405
#     4  10  23  42  65  95 134 172 221 270 333 394
#     4  10  22  46  69  95 134 177 222 277 332 402
#     4  11  26  42  65  96 133 178 216 285 322 407
#     4  11  23  42  67  99 130 170 221 273 334 387
#
# _framework density 22.872154999999999
#
# number of rings (size 3 to 8) (size 9 to 14) (size 15 to 20)
#    0.000    1.333    1.667    3.000    4.667    4.000 
#    0.000    0.833    0.000    0.000    0.000    0.000 
#    0.000    0.000    0.000    0.000    0.000    0.000 
#
# Total GULP energy -66997.686753 kJ/mol
# GULP energy per Si atom -5583.140563 kJ/mol
# Density = 2.282010 g / cm^3
# Si number density = 22.872155 Si / 1000 Ang^3
#
#
#
# Elastic Constant Matrix: (Units=GPa)
#
#
# Indices 1 2 3 4 5 6 
#
# 1 87.9513 22.3570 59.3579 0.0000 13.3787 0.0000
# 2 22.3570 67.5063 17.0684 0.0000 -8.9936 0.0000
# 3 59.3579 17.0684 118.7960 0.0000 -9.4572 0.0000
# 4 0.0000 0.0000 0.0000 21.8962 0.0000 16.1707
# 5 13.3787 -8.9936 -9.4572 0.0000 35.8509 0.0000
# 6 0.0000 0.0000 0.0000 16.1707 0.0000 35.0231
#
#
#
# Elastic Compliance Matrix: (Units=1/GPa)
#
#
# Indices 1 2 3 4 5 6 
#
# 1 0.022740 -0.006373 -0.011491 0.000000 -0.013116 0.000000
# 2 -0.006373 0.017561 0.001227 0.000000 0.007107 0.000000
# 3 -0.011491 0.001227 0.014657 0.000000 0.008462 0.000000
# 4 0.000000 0.000000 0.000000 0.069300 0.000000 -0.031997
# 5 -0.013116 0.007107 0.008462 0.000000 0.036803 0.000000
# 6 0.000000 0.000000 0.000000 -0.031997 0.000000 0.043326
#
#
# Mechanical properties :
#
#
# Convention : Reuss Voigt Hill
#
# Bulk Modulus (GPa) = 46.11743 52.42449 49.27096
# Shear Modulus (GPa) = 20.41740 30.25207 25.33473
#
# Velocity S-wave (km/s) = 2.99101 3.64078 3.33177
# Velocity P-wave (km/s) = 5.66878 6.37528 6.03238
#
# Compressibility (1/GPa) = 0.02168378
#
# Stress axis : x y z
#
# Youngs Moduli (GPa) = 43.97469 56.94519 68.22793
#
# Poissons Ratio (x) = 0.36293 0.78400
# Poissons Ratio (y) = 0.28026 -0.08373
# Poissons Ratio (z) = 0.50531 -0.06988
#
# Static dielectric constant tensor:
#      x y z
#    x 1.857310 0.000000 0.003450 
#    y 0.000000 1.874420 0.000000 
#    z 0.003450 0.000000 1.897490 
# 
# From -- ./inp_files/54244.got.cif
#   From: 2010.05.17/outbox.cif.g08.bks.cpg/sg5_28_cif.got.tgz:54244.got - 2010.06.03 18:56:24.
