data_PCOD9127556
_publ_section_title
;
Structure prediction by ZEFSAII (Michael W. Deem and Ramdas Pophale) SiO2 
 PCOD9127556
Probable space group: C 2
;
_chemical_formula_sum "Si O2"
_cell_formula_units_Z 24
_cell_length_a 22.315843
_cell_length_b 9.430217
_cell_length_c 9.743520
_cell_angle_alpha 90.000000
_cell_angle_beta 151.084030
_cell_angle_gamma 90.000000
_cell_volume 991.450508
_symmetry_space_group_name_H-M "C 2"
_symmetry_group_IT_number 5
_symmetry_cell_setting 'monoclinic'
loop_
_space_group_symop_operation_xyz
x,y,z
-x,y,-z
1/2+x,1/2+y,z
1/2-x,1/2+y,-z
loop_
_atom_site_type_symbol
_atom_site_label
_atom_site_fract_x
_atom_site_fract_y
_atom_site_fract_z
Si Si1 0.309135 0.891630 0.743000
Si Si2 0.602550 0.236435 0.486548
Si Si3 0.684001 0.173735 0.061711
Si Si4 0.118707 0.015538 0.645300
Si Si5 0.462886 0.626018 0.083842
Si Si6 0.287688 0.951758 0.385807
O O1 0.177138 0.809770 0.506531
O O2 0.411330 0.783897 0.009037
O O3 0.331856 0.915502 0.627919
O O4 0.316531 0.043543 0.830272
O O5 0.645956 0.347839 0.690342
O O6 0.634961 0.071851 0.536205
O O7 0.454812 0.234119 0.211698
O O8 0.753640 0.098280 0.072949
O O9 0.769797 0.305930 0.272038
O O10 0.000000 0.043016 0.500000
O O11 0.066954 0.069913 0.394497
O O12 0.346965 0.522285 0.868669
O O13 0.500000 0.620888 0.000000
#
# Coordination Sequence:
#
# PCOD9127556 Si02
#       6
#     4   4   4   4   4   4
#     4  10  23  37  63 104 143 180 227 282 349 415
#     4  10  23  45  63  96 136 185 231 287 348 419
#     4  11  23  42  66  96 135 183 231 286 346 418
#     4  11  25  50  69  98 142 185 240 298 350 417
#     4  11  22  41  69 100 144 184 227 290 351 414
#     4  11  22  39  66 102 141 182 228 284 351 420
#
# _framework density 24.206956000000002
#
# number of rings (size 3 to 8) (size 9 to 14) (size 15 to 20)
#    0.000    1.333    1.667    5.000    4.667    1.333 
#    9.000    0.833    0.000    0.000    0.000    0.000 
#    0.000    0.000    0.000    0.000    0.000    0.000 
#
# Total GULP energy -67042.451160 kJ/mol
# GULP energy per Si atom -5586.870930 kJ/mol
# Density = 2.415186 g / cm^3
# Si number density = 24.206956 Si / 1000 Ang^3
#
#
#
# Elastic Constant Matrix: (Units=GPa)
#
#
# Indices 1 2 3 4 5 6 
#
# 1 93.4061 28.0784 22.0878 0.0000 19.2916 0.0000
# 2 28.0784 190.7178 38.0363 0.0000 5.0986 0.0000
# 3 22.0878 38.0363 66.6114 0.0000 14.6092 0.0000
# 4 0.0000 0.0000 0.0000 19.0561 0.0000 5.5591
# 5 19.2916 5.0986 14.6092 0.0000 35.4408 0.0000
# 6 0.0000 0.0000 0.0000 5.5591 0.0000 24.0046
#
#
#
# Elastic Compliance Matrix: (Units=1/GPa)
#
#
# Indices 1 2 3 4 5 6 
#
# 1 0.012835 -0.001288 -0.002231 0.000000 -0.005882 0.000000
# 2 -0.001288 0.006058 -0.003292 0.000000 0.001187 0.000000
# 3 -0.002231 -0.003292 0.018978 0.000000 -0.006135 0.000000
# 4 0.000000 0.000000 0.000000 0.056279 0.000000 -0.013033
# 5 -0.005882 0.001187 -0.006135 0.000000 0.033776 0.000000
# 6 0.000000 0.000000 0.000000 -0.013033 0.000000 0.044677
#
#
# Mechanical properties :
#
#
# Convention : Reuss Voigt Hill
#
# Bulk Modulus (GPa) = 41.23845 58.57115 49.90480
# Shear Modulus (GPa) = 25.73244 33.20248 29.46746
#
# Velocity S-wave (km/s) = 3.26393 3.70754 3.49279
# Velocity P-wave (km/s) = 5.59259 6.52506 6.07674
#
# Compressibility (1/GPa) = 0.02424922
#
# Stress axis : x y z
#
# Youngs Moduli (GPa) = 77.91008 165.07600 52.69334
#
# Poissons Ratio (x) = 0.21254 0.11755
# Poissons Ratio (y) = 0.10031 0.17349
# Poissons Ratio (z) = 0.17381 0.54350
#
# Static dielectric constant tensor:
#      x y z
#    x 1.975540 0.000000 0.014160 
#    y 0.000000 1.901880 0.000000 
#    z 0.014160 0.000000 1.981650 
# 
# From -- ./inp_files/38356.got.cif
#   From: 2010.05.17/outbox.cif.g08.bks.cpg/sg5_20_cif.got.tgz:38356.got - 2010.06.03 18:56:24.
