data_PCOD9127279
_publ_section_title
;
Structure prediction by ZEFSAII (Michael W. Deem and Ramdas Pophale) SiO2 
 PCOD9127279
Probable space group: C 2
;
_chemical_formula_sum "Si O2"
_cell_formula_units_Z 24
_cell_length_a 26.115078
_cell_length_b 4.975963
_cell_length_c 15.878230
_cell_angle_alpha 90.000000
_cell_angle_beta 26.446294
_cell_angle_gamma 90.000000
_cell_volume 918.926024
_symmetry_space_group_name_H-M "C 2"
_symmetry_group_IT_number 5
_symmetry_cell_setting 'monoclinic'
loop_
_space_group_symop_operation_xyz
x,y,z
-x,y,-z
1/2+x,1/2+y,z
1/2-x,1/2+y,-z
loop_
_atom_site_type_symbol
_atom_site_label
_atom_site_fract_x
_atom_site_fract_y
_atom_site_fract_z
Si Si1 0.594709 0.945390 0.233556
Si Si2 0.646955 0.821422 0.569791
Si Si3 0.056162 0.223756 0.040362
Si Si4 0.069869 0.947417 0.539603
Si Si5 0.740960 0.236993 0.150625
Si Si6 0.836822 0.182189 0.278169
O O1 0.523667 0.672023 0.347360
O O2 0.501857 0.173840 0.347538
O O3 0.656670 0.034730 0.227780
O O4 0.694133 0.907801 0.017145
O O5 0.623452 0.558947 0.548167
O O6 0.737661 0.999018 0.386556
O O7 0.706714 0.829437 0.574617
O O8 0.519231 0.910665 0.787125
O O9 0.115008 0.350262 0.871321
O O10 0.154888 0.097547 0.951222
O O11 0.951559 0.050172 0.153323
O O12 0.166570 0.907315 0.326347
#
# Coordination Sequence:
#
# PCOD9127279 Si02
#       6
#     4   4   4   4   4   4
#     4  12  29  55  75 124 159 211 268 339 399 480
#     4  10  22  44  74 112 155 211 254 331 392 471
#     4   9  22  44  71 115 150 205 264 322 386 480
#     4  12  30  51  84 119 162 211 271 326 411 481
#     4  12  28  50  85 113 164 212 270 334 405 474
#     4   9  21  42  71 105 160 197 263 317 391 464
#
# _framework density 26.117446000000001
#
# number of rings (size 3 to 8) (size 9 to 14) (size 15 to 20)
#    1.000    0.333    1.667    1.500    4.667    8.000 
#    0.000    0.000    0.000    0.000    0.000    0.000 
#    0.000    0.000    0.000    0.000    0.000    0.000 
#
# Total GULP energy -66962.718593 kJ/mol
# GULP energy per Si atom -5580.226549 kJ/mol
# Density = 2.605800 g / cm^3
# Si number density = 26.117446 Si / 1000 Ang^3
#
#
#
# Elastic Constant Matrix: (Units=GPa)
#
#
# Indices 1 2 3 4 5 6 
#
# 1 152.0435 20.0658 73.3921 0.0047 2.6079 -0.0061
# 2 20.0658 43.7882 50.7624 -0.0152 16.8296 0.0127
# 3 73.3921 50.7624 167.0540 -0.0116 9.8234 -0.0063
# 4 0.0047 -0.0152 -0.0116 38.8728 -0.0095 -7.7271
# 5 2.6079 16.8296 9.8234 -0.0095 58.9154 0.0117
# 6 -0.0061 0.0127 -0.0063 -7.7271 0.0117 29.4369
#
#
#
# Elastic Compliance Matrix: (Units=1/GPa)
#
#
# Indices 1 2 3 4 5 6 
#
# 1 0.008360 0.000610 -0.003864 -0.000002 0.000100 0.000000
# 2 0.000610 0.039921 -0.011843 0.000007 -0.009456 -0.000014
# 3 -0.003864 -0.011843 0.011183 0.000001 0.001689 0.000006
# 4 -0.000002 0.000007 0.000001 0.027141 0.000001 0.007124
# 5 0.000100 -0.009456 0.001689 0.000001 0.019389 -0.000003
# 6 0.000000 -0.000014 0.000006 0.007124 -0.000003 0.035841
#
#
# Mechanical properties :
#
#
# Convention : Reuss Voigt Hill
#
# Bulk Modulus (GPa) = 34.16395 72.36960 53.26677
# Shear Modulus (GPa) = 27.50505 40.02271 33.76388
#
# Velocity S-wave (km/s) = 3.24872 3.91885 3.59941
# Velocity P-wave (km/s) = 5.21359 6.94593 6.14115
#
# Compressibility (1/GPa) = 0.02927062
#
# Stress axis : x y z
#
# Youngs Moduli (GPa) = 119.61644 25.04960 89.42143
#
# Poissons Ratio (x) = -0.01529 0.34554
# Poissons Ratio (y) = -0.07299 1.05899
# Poissons Ratio (z) = 0.46221 0.29665
#
# Static dielectric constant tensor:
#      x y z
#    x 2.074620 -0.000010 -0.000120 
#    y -0.000010 2.085000 0.000010 
#    z -0.000120 0.000010 2.059420 
# 
# From -- ./inp_files/67664.got.cif
#   From: 2010.05.17/outbox.cif.g08.bks.cpg/sg5_34_cif.got.tgz:67664.got - 2010.06.03 18:56:24.
