data_PCOD9127858
_publ_section_title
;
Structure prediction by ZEFSAII (Michael W. Deem and Ramdas Pophale) SiO2 
 PCOD9127858
Probable space group: C 2
;
_chemical_formula_sum "Si O2"
_cell_formula_units_Z 32
_cell_length_a 13.797207
_cell_length_b 9.219657
_cell_length_c 10.948775
_cell_angle_alpha 90.000000
_cell_angle_beta 80.487323
_cell_angle_gamma 90.000000
_cell_volume 1373.593027
_symmetry_space_group_name_H-M "C 2"
_symmetry_group_IT_number 5
_symmetry_cell_setting 'monoclinic'
loop_
_space_group_symop_operation_xyz
x,y,z
-x,y,-z
1/2+x,1/2+y,z
1/2-x,1/2+y,-z
loop_
_atom_site_type_symbol
_atom_site_label
_atom_site_fract_x
_atom_site_fract_y
_atom_site_fract_z
Si Si1 0.727795 0.232070 0.365500
Si Si2 0.067277 0.387830 0.887909
Si Si3 0.963858 0.899679 0.641747
Si Si4 0.730298 0.101717 0.878413
Si Si5 0.194983 0.407557 0.427055
Si Si6 0.434021 0.719629 0.719955
Si Si7 0.382048 0.351352 0.208486
Si Si8 0.670538 0.619314 0.901314
O O1 0.646682 0.345531 0.336899
O O2 0.792404 0.319890 0.449821
O O3 0.778641 0.172989 0.233091
O O4 0.687466 0.082605 0.437339
O O5 0.162177 0.480483 0.829659
O O6 0.111935 0.257301 0.959927
O O7 0.005915 0.311800 0.792792
O O8 0.000000 0.472816 0.000000
O O9 0.000000 0.861906 0.500000
O O10 0.023151 0.814195 0.733176
O O11 0.982508 0.071888 0.657637
O O12 0.834917 0.148686 0.800264
O O13 0.660923 0.239891 0.878416
O O14 0.753851 0.063423 0.013559
O O15 0.106761 0.332387 0.371630
O O16 0.294961 0.378111 0.326590
O O17 0.401957 0.494964 0.127032
#
# Coordination Sequence:
#
# PCOD9127858 Si02
#       8
#     4   4   4   4   4   4   4   4
#     4  11  24  42  72 100 138 187 231 294 368 428
#     4  12  25  43  69 103 143 184 240 298 363 437
#     4  12  24  44  67 100 140 182 238 295 356 431
#     4  11  25  45  72 102 143 186 237 301 365 433
#     4  10  23  43  68  96 137 180 233 283 358 426
#     4  11  25  45  70 103 140 190 238 300 362 432
#     4  10  23  43  67  96 138 179 227 290 351 426
#     4  11  23  45  69 101 138 186 237 291 367 435
#
# _framework density 23.296565999999999
#
# number of rings (size 3 to 8) (size 9 to 14) (size 15 to 20)
#    0.000    1.000    3.750    2.250    7.000    1.000 
#    0.000    2.500    0.000    0.000    0.000    0.000 
#    0.000    0.000    0.000    0.000    0.000    0.000 
#
# Total GULP energy -89364.941854 kJ/mol
# GULP energy per Si atom -5585.308866 kJ/mol
# Density = 2.324354 g / cm^3
# Si number density = 23.296566 Si / 1000 Ang^3
#
#
#
# Elastic Constant Matrix: (Units=GPa)
#
#
# Indices 1 2 3 4 5 6 
#
# 1 98.1838 14.0602 40.6201 0.0000 33.5813 0.0000
# 2 14.0602 66.2629 17.7872 0.0000 15.5178 0.0000
# 3 40.6201 17.7872 93.1892 0.0000 29.7141 0.0000
# 4 0.0000 0.0000 0.0000 154.5764 0.0000 40.6411
# 5 33.5813 15.5178 29.7141 0.0000 45.9778 0.0000
# 6 0.0000 0.0000 0.0000 40.6411 0.0000 48.1431
#
#
#
# Elastic Compliance Matrix: (Units=1/GPa)
#
#
# Indices 1 2 3 4 5 6 
#
# 1 0.014533 -0.000179 -0.003697 0.000000 -0.008165 0.000000
# 2 -0.000179 0.016610 -0.001696 0.000000 -0.004379 0.000000
# 3 -0.003697 -0.001696 0.014639 0.000000 -0.006188 0.000000
# 4 0.000000 0.000000 0.000000 0.008315 0.000000 -0.007019
# 5 -0.008165 -0.004379 -0.006188 0.000000 0.033190 0.000000
# 6 0.000000 0.000000 0.000000 -0.007019 0.000000 0.026697
#
#
# Mechanical properties :
#
#
# Convention : Reuss Voigt Hill
#
# Bulk Modulus (GPa) = 28.87039 44.73011 36.80025
# Shear Modulus (GPa) = 36.58335 62.08401 49.33368
#
# Velocity S-wave (km/s) = 3.96704 5.16791 4.60677
# Velocity P-wave (km/s) = 5.77950 7.40619 6.64283
#
# Compressibility (1/GPa) = 0.03463756
#
# Stress axis : x y z
#
# Youngs Moduli (GPa) = 68.81044 60.20395 68.30946
#
# Poissons Ratio (x) = 0.01079 0.25255
# Poissons Ratio (y) = 0.01233 0.11585
# Poissons Ratio (z) = 0.25440 0.10211
#
# Static dielectric constant tensor:
#      x y z
#    x 1.756660 0.000000 0.151030 
#    y 0.000000 1.917440 0.000000 
#    z 0.151030 0.000000 1.553080 
# 
# From -- ./inp_files/41961.got.cif
#   From: 2010.05.17/outbox.cif.g08.bks.cpg/sg5_21_cif.got.tgz:41961.got - 2010.06.03 18:56:24.
