data_PCOD9127119
_publ_section_title
;
Structure prediction by ZEFSAII (Michael W. Deem and Ramdas Pophale) SiO2 
 PCOD9127119
Probable space group: C 2
;
_chemical_formula_sum "Si O2"
_cell_formula_units_Z 30
_cell_length_a 5.628056
_cell_length_b 13.292843
_cell_length_c 20.654064
_cell_angle_alpha 90.000000
_cell_angle_beta 111.020423
_cell_angle_gamma 90.000000
_cell_volume 1442.361383
_symmetry_space_group_name_H-M "C 2"
_symmetry_group_IT_number 5
_symmetry_cell_setting 'monoclinic'
loop_
_space_group_symop_operation_xyz
x,y,z
-x,y,-z
1/2+x,1/2+y,z
1/2-x,1/2+y,-z
loop_
_atom_site_type_symbol
_atom_site_label
_atom_site_fract_x
_atom_site_fract_y
_atom_site_fract_z
Si Si1 0.544840 0.733030 0.371125
Si Si2 0.133971 0.232058 0.130420
Si Si3 0.309276 0.864214 0.739695
Si Si4 0.500000 0.303771 0.500000
Si Si5 0.103750 0.024397 0.316015
Si Si6 0.209385 0.390728 0.576372
Si Si7 0.266432 0.508542 0.819505
Si Si8 0.444485 0.322326 0.920446
O O1 0.588739 0.800688 0.310934
O O2 0.776136 0.736457 0.446073
O O3 0.495531 0.622471 0.339242
O O4 0.319224 0.786702 0.387261
O O5 0.236935 0.289325 0.204782
O O6 0.307615 0.268924 0.087059
O O7 0.828476 0.260277 0.103439
O O8 0.195620 0.113774 0.140717
O O9 0.494842 0.953943 0.782663
O O10 0.064287 0.924837 0.694318
O O11 0.451923 0.379171 0.554850
O O12 0.339032 0.985174 0.381626
O O13 0.145608 0.035124 0.244463
O O14 0.000000 0.392293 0.500000
O O15 0.411084 0.421169 0.872723
O O16 0.500000 0.348966 0.000000
#
# Coordination Sequence:
#
# PCOD9127119 Si02
#       8
#     4   4   4   2   4   4   4   4
#     4  11  23  40  61  92 126 171 222 275 345 402
#     4  11  25  45  72 105 144 182 229 283 343 408
#     4  11  23  40  64 100 135 171 222 287 341 410
#     4  10  22  44  58  82 130 174 210 284 332 408
#     4  12  23  39  68  95 125 174 225 278 347 404
#     4  10  23  43  60  88 132 167 222 281 335 412
#     4  11  25  42  71 103 136 178 227 284 345 407
#     4  11  26  47  72 104 146 188 229 279 338 413
#
# _framework density 20.799223999999999
#
# number of rings (size 3 to 8) (size 9 to 14) (size 15 to 20)
#    0.000    1.067    5.333    0.400    2.800    3.200 
#    3.600    0.000    0.000    0.000    0.000    0.000 
#    0.000    0.000    0.000    0.000    0.000    0.000 
#
# Total GULP energy -83514.224667 kJ/mol
# GULP energy per Si atom -5567.614978 kJ/mol
# Density = 2.075188 g / cm^3
# Si number density = 20.799224 Si / 1000 Ang^3
#
#
#
# Elastic Constant Matrix: (Units=GPa)
#
#
# Indices 1 2 3 4 5 6 
#
# 1 52.4188 13.3344 11.2384 0.0000 -12.8902 0.0000
# 2 13.3344 89.4751 9.4830 0.0000 9.9123 0.0000
# 3 11.2384 9.4830 73.8830 0.0000 -21.3864 0.0000
# 4 0.0000 0.0000 0.0000 11.3703 0.0000 -7.1973
# 5 -12.8902 9.9123 -21.3864 0.0000 28.8903 0.0000
# 6 0.0000 0.0000 0.0000 -7.1973 0.0000 22.2109
#
#
#
# Elastic Compliance Matrix: (Units=1/GPa)
#
#
# Indices 1 2 3 4 5 6 
#
# 1 0.023285 -0.004951 0.000754 0.000000 0.012646 0.000000
# 2 -0.004951 0.013368 -0.003729 0.000000 -0.009556 0.000000
# 3 0.000754 -0.003729 0.018285 0.000000 0.015151 0.000000
# 4 0.000000 0.000000 0.000000 0.110644 0.000000 0.035853
# 5 0.012646 -0.009556 0.015151 0.000000 0.054751 0.000000
# 6 0.000000 0.000000 0.000000 0.035853 0.000000 0.056641
#
#
# Mechanical properties :
#
#
# Convention : Reuss Voigt Hill
#
# Bulk Modulus (GPa) = 25.58461 31.54314 28.56388
# Shear Modulus (GPa) = 16.34778 24.60904 20.47841
#
# Velocity S-wave (km/s) = 2.80658 3.44346 3.14120
# Velocity P-wave (km/s) = 4.77807 5.56851 5.18837
#
# Compressibility (1/GPa) = 0.03908599
#
# Stress axis : x y z
#
# Youngs Moduli (GPa) = 42.94680 74.80583 54.69113
#
# Poissons Ratio (x) = 0.37036 -0.04125
# Poissons Ratio (y) = 0.21263 0.20393
# Poissons Ratio (z) = -0.03239 0.27893
#
# Static dielectric constant tensor:
#      x y z
#    x 1.891730 0.000000 0.151300 
#    y 0.000000 1.738160 0.000000 
#    z 0.151300 0.000000 2.019170 
# 
# From -- ./inp_files/64025.got.cif
#   From: 2010.05.17/outbox.cif.g08.bks.cpg/sg5_33_cif.got.tgz:64025.got - 2010.06.03 18:56:24.
