data_PCOD9127460
_publ_section_title
;
Structure prediction by ZEFSAII (Michael W. Deem and Ramdas Pophale) SiO2 
 PCOD9127460
Probable space group: C 2
;
_chemical_formula_sum "Si O2"
_cell_formula_units_Z 16
_cell_length_a 25.769889
_cell_length_b 5.460265
_cell_length_c 4.800016
_cell_angle_alpha 90.000000
_cell_angle_beta 63.252769
_cell_angle_gamma 90.000000
_cell_volume 603.143637
_symmetry_space_group_name_H-M "C 2"
_symmetry_group_IT_number 5
_symmetry_cell_setting 'monoclinic'
loop_
_space_group_symop_operation_xyz
x,y,z
-x,y,-z
1/2+x,1/2+y,z
1/2-x,1/2+y,-z
loop_
_atom_site_type_symbol
_atom_site_label
_atom_site_fract_x
_atom_site_fract_y
_atom_site_fract_z
Si Si1 0.259409 0.362990 0.650165
Si Si2 0.360545 0.895871 0.830143
Si Si3 0.037972 0.090015 0.135124
Si Si4 0.118423 0.713949 0.708443
O O1 0.249114 0.611016 0.502295
O O2 0.327545 0.361927 0.555863
O O3 0.208425 0.342721 0.002821
O O4 0.403442 0.706468 0.875535
O O5 0.383862 0.973268 0.475225
O O6 0.366464 0.131462 0.016600
O O7 0.000000 0.030077 0.500000
O O8 0.000000 0.242834 0.000000
O O9 0.061470 0.871379 0.883620
#
# Coordination Sequence:
#
# PCOD9127460 Si02
#       4
#     4   4   4   4
#     4  10  22  46  76 118 168 204 262 338 408 484
#     4  11  25  46  74 113 155 205 261 331 403 476
#     4  12  26  48  76 110 158 208 268 326 394 486
#     4  11  25  46  74 113 155 205 261 331 403 476
#
# _framework density 26.527674000000001
#
# number of rings (size 3 to 8) (size 9 to 14) (size 15 to 20)
#    0.000    1.000    2.500    3.000    0.000   12.000 
#    4.500    0.000    0.000    0.000    0.000    0.000 
#    0.000    0.000    0.000    0.000    0.000    0.000 
#
# Total GULP energy -44767.851299 kJ/mol
# GULP energy per Si atom -5595.981412 kJ/mol
# Density = 2.646730 g / cm^3
# Si number density = 26.527674 Si / 1000 Ang^3
#
#
#
# Elastic Constant Matrix: (Units=GPa)
#
#
# Indices 1 2 3 4 5 6 
#
# 1 119.1618 19.1846 86.7751 0.0000 -14.8463 0.0000
# 2 19.1846 93.2998 59.4282 0.0000 -8.8756 0.0000
# 3 86.7751 59.4282 205.0433 0.0000 -27.1925 0.0000
# 4 0.0000 0.0000 0.0000 51.9588 0.0000 -4.2472
# 5 -14.8463 -8.8756 -27.1925 0.0000 64.6574 0.0000
# 6 0.0000 0.0000 0.0000 -4.2472 0.0000 36.9891
#
#
#
# Elastic Compliance Matrix: (Units=1/GPa)
#
#
# Indices 1 2 3 4 5 6 
#
# 1 0.012228 0.000968 -0.005365 0.000000 0.000684 0.000000
# 2 0.000968 0.013224 -0.004207 0.000000 0.000268 0.000000
# 3 -0.005365 -0.004207 0.008607 0.000000 0.001810 0.000000
# 4 0.000000 0.000000 0.000000 0.019428 0.000000 0.002231
# 5 0.000684 0.000268 0.001810 0.000000 0.016422 0.000000
# 6 0.000000 0.000000 0.000000 0.002231 0.000000 0.027291
#
#
# Mechanical properties :
#
#
# Convention : Reuss Voigt Hill
#
# Bulk Modulus (GPa) = 59.34138 83.14229 71.24183
# Shear Modulus (GPa) = 41.65811 47.52885 44.59348
#
# Velocity S-wave (km/s) = 3.96708 4.23740 4.10447
# Velocity P-wave (km/s) = 6.58801 7.43980 7.02682
#
# Compressibility (1/GPa) = 0.01685165
#
# Stress axis : x y z
#
# Youngs Moduli (GPa) = 81.77920 75.61879 116.18784
#
# Poissons Ratio (x) = -0.07319 0.62331
# Poissons Ratio (y) = -0.07915 0.48878
# Poissons Ratio (z) = 0.43872 0.31811
#
# Static dielectric constant tensor:
#      x y z
#    x 2.190550 0.000000 -0.060520 
#    y 0.000000 2.120520 0.000000 
#    z -0.060520 0.000000 2.015120 
# 
# From -- ./inp_files/9064.got.cif
#   From: 2010.05.17/outbox.cif.g08.bks.cpg/sg5_5_cif.got.tgz:9064.got - 2010.06.03 18:56:24.
