data_PCOD9127448
_publ_section_title
;
Structure prediction by ZEFSAII (Michael W. Deem and Ramdas Pophale) SiO2 
 PCOD9127448
Probable space group: C 2
;
_chemical_formula_sum "Si O2"
_cell_formula_units_Z 28
_cell_length_a 12.138235
_cell_length_b 7.777425
_cell_length_c 10.794893
_cell_angle_alpha 90.000000
_cell_angle_beta 97.547602
_cell_angle_gamma 90.000000
_cell_volume 1010.254111
_symmetry_space_group_name_H-M "C 2"
_symmetry_group_IT_number 5
_symmetry_cell_setting 'monoclinic'
loop_
_space_group_symop_operation_xyz
x,y,z
-x,y,-z
1/2+x,1/2+y,z
1/2-x,1/2+y,-z
loop_
_atom_site_type_symbol
_atom_site_label
_atom_site_fract_x
_atom_site_fract_y
_atom_site_fract_z
Si Si1 0.066564 0.102020 0.135008
Si Si2 0.187283 0.626273 0.115916
Si Si3 0.608031 0.487589 0.738537
Si Si4 0.807597 0.499344 0.146563
Si Si5 0.466225 0.935708 0.716303
Si Si6 0.358858 0.685394 0.496075
Si Si7 0.877435 0.798993 0.491307
O O1 0.028108 0.282596 0.183401
O O2 0.008494 0.959873 0.213243
O O3 0.198067 0.111226 0.155454
O O4 0.000000 0.077788 0.000000
O O5 0.298637 0.513597 0.147232
O O6 0.242497 0.815799 0.124376
O O7 0.110429 0.577031 0.222954
O O8 0.140571 0.569667 0.975200
O O9 0.603402 0.650130 0.640466
O O10 0.648959 0.341069 0.654291
O O11 0.905042 0.497068 0.263598
O O12 0.408908 0.842584 0.585859
O O13 0.384237 0.492445 0.550531
O O14 0.226935 0.703996 0.470831
O O15 0.000000 0.719587 0.500000
#
# Coordination Sequence:
#
# PCOD9127448 Si02
#       7
#     4   4   4   4   4   4   4
#     4  12  24  48  76 106 153 204 253 313 383 447
#     4  12  24  48  75 112 156 193 256 318 375 456
#     4  10  23  45  76 105 146 198 248 311 375 450
#     4  12  27  46  76 111 153 208 249 312 391 450
#     4  12  24  47  73 111 149 194 257 317 377 464
#     4  10  24  45  76 107 151 197 246 320 382 447
#     4  10  22  46  75 104 148 197 250 311 381 458
#
# _framework density 27.715802
#
# number of rings (size 3 to 8) (size 9 to 14) (size 15 to 20)
#    0.857    0.000    4.286    3.000    0.000    3.429 
#    2.571    3.571    0.000    0.000    0.000    0.000 
#    0.000    0.000    0.000    0.000    0.000    0.000 
#
# Total GULP energy -78233.649087 kJ/mol
# GULP energy per Si atom -5588.117792 kJ/mol
# Density = 2.765272 g / cm^3
# Si number density = 27.715802 Si / 1000 Ang^3
#
#
#
# Elastic Constant Matrix: (Units=GPa)
#
#
# Indices 1 2 3 4 5 6 
#
# 1 213.3355 44.8746 54.9438 0.0000 12.1916 0.0000
# 2 44.8746 120.1972 43.6668 0.0000 -4.7714 0.0000
# 3 54.9438 43.6668 139.4769 0.0000 18.3357 0.0000
# 4 0.0000 0.0000 0.0000 30.2961 0.0000 5.1442
# 5 12.1916 -4.7714 18.3357 0.0000 41.2933 0.0000
# 6 0.0000 0.0000 0.0000 5.1442 0.0000 38.7148
#
#
#
# Elastic Compliance Matrix: (Units=1/GPa)
#
#
# Indices 1 2 3 4 5 6 
#
# 1 0.005466 -0.001530 -0.001528 0.000000 -0.001112 0.000000
# 2 -0.001530 0.010073 -0.002935 0.000000 0.002919 0.000000
# 3 -0.001528 -0.002935 0.009213 0.000000 -0.003979 0.000000
# 4 0.000000 0.000000 0.000000 0.033770 0.000000 -0.004487
# 5 -0.001112 0.002919 -0.003979 0.000000 0.026649 0.000000
# 6 0.000000 0.000000 0.000000 -0.004487 0.000000 0.026426
#
#
# Mechanical properties :
#
#
# Convention : Reuss Voigt Hill
#
# Bulk Modulus (GPa) = 78.32430 84.44223 81.38326
# Shear Modulus (GPa) = 39.11179 44.02912 41.57046
#
# Velocity S-wave (km/s) = 3.76063 3.99004 3.87703
# Velocity P-wave (km/s) = 6.86860 7.19448 7.03343
#
# Compressibility (1/GPa) = 0.01276743
#
# Stress axis : x y z
#
# Youngs Moduli (GPa) = 182.93636 99.27747 108.53650
#
# Poissons Ratio (x) = 0.15187 0.16587
# Poissons Ratio (y) = 0.27985 0.31851
# Poissons Ratio (z) = 0.27957 0.29134
#
# Static dielectric constant tensor:
#      x y z
#    x 2.119550 0.000000 -0.034280 
#    y 0.000000 2.283780 0.000000 
#    z -0.034280 0.000000 2.148900 
# 
# From -- ./inp_files/52230.got.cif
#   From: 2010.05.17/outbox.cif.g08.bks.cpg/sg5_27_cif.got.tgz:52230.got - 2010.06.03 18:56:24.
