data_PCOD9127623
_publ_section_title
;
Structure prediction by ZEFSAII (Michael W. Deem and Ramdas Pophale) SiO2 
 PCOD9127623
Probable space group: C 2
;
_chemical_formula_sum "Si O2"
_cell_formula_units_Z 20
_cell_length_a 7.261573
_cell_length_b 25.444897
_cell_length_c 4.940272
_cell_angle_alpha 90.000000
_cell_angle_beta 66.914003
_cell_angle_gamma 90.000000
_cell_volume 839.713390
_symmetry_space_group_name_H-M "C 2"
_symmetry_group_IT_number 5
_symmetry_cell_setting 'monoclinic'
loop_
_space_group_symop_operation_xyz
x,y,z
-x,y,-z
1/2+x,1/2+y,z
1/2-x,1/2+y,-z
loop_
_atom_site_type_symbol
_atom_site_label
_atom_site_fract_x
_atom_site_fract_y
_atom_site_fract_z
Si Si1 0.500000 0.745180 0.000000
Si Si2 0.365623 0.096699 0.337068
Si Si3 0.000000 0.415070 0.500000
Si Si4 0.000000 0.171538 0.500000
Si Si5 0.705777 0.492153 0.713843
Si Si6 0.203473 0.346636 0.030948
Si Si7 0.000000 0.907197 0.500000
O O1 0.446085 0.708368 0.279649
O O2 0.675378 0.784715 0.001501
O O3 0.500000 0.121626 0.500000
O O4 0.267664 0.046506 0.543414
O O5 0.190183 0.134539 0.335854
O O6 0.500000 0.082135 0.000000
O O7 0.887186 0.460591 0.752085
O O8 0.829062 0.368666 0.650647
O O9 0.664703 0.449133 0.505712
O O10 0.500000 0.497366 0.000000
O O11 0.394781 0.371432 0.783756
O O12 0.000000 0.367904 0.000000
#
# Coordination Sequence:
#
# PCOD9127623 Si02
#       7
#     2   4   2   2   4   4   2
#     4  10  24  48  80 102 142 198 240 318 376 424
#     4  12  30  49  77 112 149 193 253 311 372 445
#     4  12  21  42  64 100 150 186 237 282 360 450
#     4  12  26  54  80 104 146 190 258 320 382 422
#     4  12  26  39  69 102 145 198 234 288 368 442
#     4  10  23  40  66 103 141 182 235 294 357 432
#     4  12  23  40  66 106 144 188 235 288 356 448
#
# _framework density 23.817651000000001
#
# number of rings (size 3 to 8) (size 9 to 14) (size 15 to 20)
#    0.600    0.000    5.000    2.400    9.800    0.000 
#    5.400    0.000    0.000    0.000    0.000    0.000 
#    0.000    0.000    0.000    0.000    0.000    0.000 
#
# Total GULP energy -55709.307758 kJ/mol
# GULP energy per Si atom -5570.930776 kJ/mol
# Density = 2.376344 g / cm^3
# Si number density = 23.817651 Si / 1000 Ang^3
#
#
#
# Elastic Constant Matrix: (Units=GPa)
#
#
# Indices 1 2 3 4 5 6 
#
# 1 77.0397 29.0576 31.6533 0.0000 -14.5057 0.0000
# 2 29.0576 151.1256 61.9699 0.0000 -19.0055 0.0000
# 3 31.6533 61.9699 190.1588 0.0000 -38.5817 0.0000
# 4 0.0000 0.0000 0.0000 27.7669 0.0000 1.3305
# 5 -14.5057 -19.0055 -38.5817 0.0000 46.9038 0.0000
# 6 0.0000 0.0000 0.0000 1.3305 0.0000 147.7861
#
#
#
# Elastic Compliance Matrix: (Units=1/GPa)
#
#
# Indices 1 2 3 4 5 6 
#
# 1 0.014757 -0.001978 -0.001258 0.000000 0.002727 0.000000
# 2 -0.001978 0.007965 -0.002083 0.000000 0.000902 0.000000
# 3 -0.001258 -0.002083 0.007078 0.000000 0.004589 0.000000
# 4 0.000000 0.000000 0.000000 0.036030 0.000000 -0.000324
# 5 0.002727 0.000902 0.004589 0.000000 0.026304 0.000000
# 6 0.000000 0.000000 0.000000 -0.000324 0.000000 0.006769
#
#
# Mechanical properties :
#
#
# Convention : Reuss Voigt Hill
#
# Bulk Modulus (GPa) = 52.19211 73.74284 62.96747
# Shear Modulus (GPa) = 43.12930 64.20092 53.66511
#
# Velocity S-wave (km/s) = 4.25998 5.19747 4.75190
# Velocity P-wave (km/s) = 6.79392 8.18822 7.52344
#
# Compressibility (1/GPa) = 0.01915998
#
# Stress axis : x y z
#
# Youngs Moduli (GPa) = 67.76419 125.54682 141.27787
#
# Poissons Ratio (x) = 0.24839 0.17778
# Poissons Ratio (y) = 0.13407 0.29434
# Poissons Ratio (z) = 0.08527 0.26157
#
# Static dielectric constant tensor:
#      x y z
#    x 1.534980 0.000000 -0.155200 
#    y 0.000000 1.838580 0.000000 
#    z -0.155200 0.000000 1.874010 
# 
# From -- ./inp_files/3586.got.cif
#   From: 2010.05.17/outbox.cif.g08.bks.cpg/sg5_2_cif.got.tgz:3586.got - 2010.06.03 18:56:24.
