data_PCOD9127746
_publ_section_title
;
Structure prediction by ZEFSAII (Michael W. Deem and Ramdas Pophale) SiO2 
 PCOD9127746
Probable space group: C 2
;
_chemical_formula_sum "Si O2"
_cell_formula_units_Z 22
_cell_length_a 12.412452
_cell_length_b 8.543890
_cell_length_c 15.661528
_cell_angle_alpha 90.000000
_cell_angle_beta 38.923350
_cell_angle_gamma 90.000000
_cell_volume 1043.519843
_symmetry_space_group_name_H-M "C 2"
_symmetry_group_IT_number 5
_symmetry_cell_setting 'monoclinic'
loop_
_space_group_symop_operation_xyz
x,y,z
-x,y,-z
1/2+x,1/2+y,z
1/2-x,1/2+y,-z
loop_
_atom_site_type_symbol
_atom_site_label
_atom_site_fract_x
_atom_site_fract_y
_atom_site_fract_z
Si Si1 0.276653 0.074730 0.231602
Si Si2 0.000000 0.820499 0.000000
Si Si3 0.184340 0.522165 0.126758
Si Si4 0.170915 0.422594 0.618743
Si Si5 0.555591 0.580446 0.665172
Si Si6 0.743153 0.387890 0.089628
O O1 0.086847 0.130585 0.318139
O O2 0.273791 0.008875 0.328138
O O3 0.308843 0.936920 0.142384
O O4 0.413701 0.209321 0.125034
O O5 0.153161 0.926007 0.940671
O O6 0.220906 0.704396 0.097267
O O7 0.016637 0.491976 0.286388
O O8 0.145589 0.451287 0.056952
O O9 0.307918 0.466043 0.462376
O O10 0.144808 0.236503 0.644720
O O11 0.437702 0.483735 0.804082
#
# Coordination Sequence:
#
# PCOD9127746 Si02
#       6
#     4   2   4   4   4   4
#     4  10  23  44  69  99 138 183 223 296 342 419
#     4  12  24  42  66 106 140 178 248 282 358 408
#     4  12  23  41  67  98 138 184 231 296 336 424
#     4  12  22  43  73  95 142 179 232 283 354 406
#     4  10  24  43  69 102 135 187 226 284 350 424
#     4  10  23  42  63 100 133 179 232 274 361 395
#
# _framework density 21.082491999999998
#
# number of rings (size 3 to 8) (size 9 to 14) (size 15 to 20)
#    1.091    0.000    1.818    6.000    0.000    3.636 
#    0.000    0.000    0.000    0.000    0.000    0.000 
#    0.000    0.000    0.000    0.000    0.000    0.000 
#
# Total GULP energy -61438.750367 kJ/mol
# GULP energy per Si atom -5585.340942 kJ/mol
# Density = 2.103451 g / cm^3
# Si number density = 21.082492 Si / 1000 Ang^3
#
#
#
# Elastic Constant Matrix: (Units=GPa)
#
#
# Indices 1 2 3 4 5 6 
#
# 1 58.2001 4.0506 -8.0412 0.0000 -8.2960 0.0000
# 2 4.0506 130.6100 5.2321 0.0000 -4.4813 0.0000
# 3 -8.0412 5.2321 88.6002 0.0000 -17.9006 0.0000
# 4 0.0000 0.0000 0.0000 33.3986 0.0000 -10.0743
# 5 -8.2960 -4.4813 -17.9006 0.0000 26.1358 0.0000
# 6 0.0000 0.0000 0.0000 -10.0743 0.0000 31.8863
#
#
#
# Elastic Compliance Matrix: (Units=1/GPa)
#
#
# Indices 1 2 3 4 5 6 
#
# 1 0.018857 -0.000438 0.003402 0.000000 0.008241 0.000000
# 2 -0.000438 0.007716 -0.000297 0.000000 0.000980 0.000000
# 3 0.003402 -0.000297 0.013719 0.000000 0.010425 0.000000
# 4 0.000000 0.000000 0.000000 0.033095 0.000000 0.010456
# 5 0.008241 0.000980 0.010425 0.000000 0.048186 0.000000
# 6 0.000000 0.000000 0.000000 0.010456 0.000000 0.034665
#
#
# Mechanical properties :
#
#
# Convention : Reuss Voigt Hill
#
# Bulk Modulus (GPa) = 21.91766 31.09924 26.50845
# Shear Modulus (GPa) = 30.09982 36.69540 33.39761
#
# Velocity S-wave (km/s) = 3.78261 4.17653 3.98444
# Velocity P-wave (km/s) = 5.43105 6.16775 5.81108
#
# Compressibility (1/GPa) = 0.04562530
#
# Stress axis : x y z
#
# Youngs Moduli (GPa) = 53.02973 129.60894 72.88975
#
# Poissons Ratio (x) = 0.05682 -0.24799
# Poissons Ratio (y) = 0.02325 0.02168
# Poissons Ratio (z) = -0.18042 0.03854
#
# Static dielectric constant tensor:
#      x y z
#    x 1.798110 0.000000 -0.038160 
#    y 0.000000 1.716600 0.000000 
#    z -0.038160 0.000000 1.735880 
# 
# From -- ./inp_files/30636.got.cif
#   From: 2010.05.17/outbox.cif.g08.bks.cpg/sg5_16_cif.got.tgz:30636.got - 2010.06.03 18:56:24.
