data_PCOD9127552
_publ_section_title
;
Structure prediction by ZEFSAII (Michael W. Deem and Ramdas Pophale) SiO2 
 PCOD9127552
Probable space group: C 2
;
_chemical_formula_sum "Si O2"
_cell_formula_units_Z 30
_cell_length_a 29.187405
_cell_length_b 8.112582
_cell_length_c 10.105192
_cell_angle_alpha 90.000000
_cell_angle_beta 138.233890
_cell_angle_gamma 90.000000
_cell_volume 1593.796933
_symmetry_space_group_name_H-M "C 2"
_symmetry_group_IT_number 5
_symmetry_cell_setting 'monoclinic'
loop_
_space_group_symop_operation_xyz
x,y,z
-x,y,-z
1/2+x,1/2+y,z
1/2-x,1/2+y,-z
loop_
_atom_site_type_symbol
_atom_site_label
_atom_site_fract_x
_atom_site_fract_y
_atom_site_fract_z
Si Si1 0.304518 0.228400 0.216796
Si Si2 0.222621 0.909831 0.100737
Si Si3 0.043113 0.852348 0.958832
Si Si4 0.596616 0.633650 0.892855
Si Si5 0.697558 0.225303 0.311172
Si Si6 0.217038 0.353792 0.261203
Si Si7 0.000000 0.350383 0.500000
Si Si8 0.036232 0.677451 0.444710
O O1 0.279895 0.272482 0.016885
O O2 0.264328 0.346408 0.232067
O O3 0.386347 0.240137 0.402020
O O4 0.280857 0.044138 0.200625
O O5 0.149803 0.007009 0.938390
O O6 0.228262 0.832847 0.257408
O O7 0.007012 0.728879 0.776485
O O8 0.052501 0.024451 0.899978
O O9 0.118972 0.784511 0.156466
O O10 0.000000 0.869142 0.000000
O O11 0.552252 0.735886 0.692784
O O12 0.646609 0.759395 0.077352
O O13 0.740661 0.257746 0.535437
O O14 0.701849 0.036506 0.277170
O O15 0.035124 0.480821 0.473476
O O16 0.000000 0.748798 0.500000
#
# Coordination Sequence:
#
# PCOD9127552 Si02
#       8
#     4   4   4   4   4   4   2   4
#     4  11  22  38  60  95 122 160 211 264 310 374
#     4  10  23  36  64  89 125 160 211 263 319 368
#     4  11  23  41  66  95 129 167 215 264 323 393
#     4  10  23  41  63  94 123 173 213 260 325 377
#     4  11  22  43  64  91 125 173 203 262 325 379
#     4  11  23  41  66  89 127 161 218 261 316 382
#     4  10  24  40  64  88 130 174 214 262 314 398
#     4  10  23  39  63  91 126 173 209 256 325 383
#
# _framework density 18.822975
#
# number of rings (size 3 to 8) (size 9 to 14) (size 15 to 20)
#    0.400    1.067    0.000    6.400    8.400    0.000 
#    0.000    5.333    0.000    0.000    0.000    0.000 
#    0.000    0.000    0.000    0.000    0.000    0.000 
#
# Total GULP energy -83783.511916 kJ/mol
# GULP energy per Si atom -5585.567461 kJ/mol
# Density = 1.878013 g / cm^3
# Si number density = 18.822975 Si / 1000 Ang^3
#
#
#
# Elastic Constant Matrix: (Units=GPa)
#
#
# Indices 1 2 3 4 5 6 
#
# 1 95.5487 29.1674 40.2620 0.0000 -6.2398 0.0000
# 2 29.1674 80.0906 26.0536 0.0000 5.7569 0.0000
# 3 40.2620 26.0536 133.1603 0.0000 -0.0537 0.0000
# 4 0.0000 0.0000 0.0000 36.0355 0.0000 -7.8425
# 5 -6.2398 5.7569 -0.0537 0.0000 18.7367 0.0000
# 6 0.0000 0.0000 0.0000 -7.8425 0.0000 16.0010
#
#
#
# Elastic Compliance Matrix: (Units=1/GPa)
#
#
# Indices 1 2 3 4 5 6 
#
# 1 0.013522 -0.004286 -0.003248 0.000000 0.005811 0.000000
# 2 -0.004286 0.015016 -0.001645 0.000000 -0.006046 0.000000
# 3 -0.003248 -0.001645 0.008813 0.000000 -0.000551 0.000000
# 4 0.000000 0.000000 0.000000 0.031064 0.000000 0.015225
# 5 0.005811 -0.006046 -0.000551 0.000000 0.057162 0.000000
# 6 0.000000 0.000000 0.000000 0.015225 0.000000 0.069959
#
#
# Mechanical properties :
#
#
# Convention : Reuss Voigt Hill
#
# Bulk Modulus (GPa) = 52.64377 55.52953 54.08665
# Shear Modulus (GPa) = 22.70416 28.37573 25.53995
#
# Velocity S-wave (km/s) = 3.47680 3.88687 3.68754
# Velocity P-wave (km/s) = 6.64425 7.05044 6.85035
#
# Compressibility (1/GPa) = 0.01899560
#
# Stress axis : x y z
#
# Youngs Moduli (GPa) = 73.95315 66.59478 113.46544
#
# Poissons Ratio (x) = 0.28540 0.36849
# Poissons Ratio (y) = 0.31694 0.18661
# Poissons Ratio (z) = 0.24017 0.10952
#
# Static dielectric constant tensor:
#      x y z
#    x 1.644160 0.000000 0.000540 
#    y 0.000000 1.657450 0.000000 
#    z 0.000540 0.000000 1.623250 
# 
# From -- ./inp_files/31664.got.cif
#   From: 2010.05.17/outbox.cif.g08.bks.cpg/sg5_16_cif.got.tgz:31664.got - 2010.06.03 18:56:24.
