data_PCOD9127980
_publ_section_title
;
Structure prediction by ZEFSAII (Michael W. Deem and Ramdas Pophale) SiO2 
 PCOD9127980
Probable space group: C 2
;
_chemical_formula_sum "Si O2"
_cell_formula_units_Z 32
_cell_length_a 10.714313
_cell_length_b 8.698014
_cell_length_c 28.780555
_cell_angle_alpha 90.000000
_cell_angle_beta 147.877699
_cell_angle_gamma 90.000000
_cell_volume 1426.176709
_symmetry_space_group_name_H-M "C 2"
_symmetry_group_IT_number 5
_symmetry_cell_setting 'monoclinic'
loop_
_space_group_symop_operation_xyz
x,y,z
-x,y,-z
1/2+x,1/2+y,z
1/2-x,1/2+y,-z
loop_
_atom_site_type_symbol
_atom_site_label
_atom_site_fract_x
_atom_site_fract_y
_atom_site_fract_z
Si Si1 0.925883 0.319480 0.528882
Si Si2 0.181307 0.392692 0.201899
Si Si3 0.595950 0.379880 0.277759
Si Si4 0.927901 0.833431 0.906648
Si Si5 0.318385 0.042650 0.028692
Si Si6 0.990007 0.953898 0.443584
Si Si7 0.012711 0.518899 0.244995
Si Si8 0.593374 0.605338 0.859295
O O1 0.672885 0.370267 0.467383
O O2 0.000000 0.366581 0.500000
O O3 0.127531 0.385857 0.626410
O O4 0.942634 0.134548 0.535295
O O5 0.448974 0.435513 0.276560
O O6 0.070275 0.486032 0.209213
O O7 0.120897 0.217431 0.194449
O O8 0.039173 0.436795 0.110624
O O9 0.519595 0.201724 0.251585
O O10 0.507265 0.475519 0.206004
O O11 0.779036 0.716558 0.891511
O O12 0.728876 0.933408 0.818589
O O13 0.101127 0.957221 0.984670
O O14 0.098966 0.715309 0.933107
O O15 0.228711 0.047926 0.947492
O O16 0.000000 0.897806 0.500000
O O17 0.725678 0.946260 0.341262
#
# Coordination Sequence:
#
# PCOD9127980 Si02
#       8
#     4   4   4   4   4   4   4   4
#     4  10  23  44  72 105 142 180 228 288 351 428
#     4  11  24  42  63  94 135 174 225 285 337 410
#     4  11  24  42  69 101 132 180 230 279 353 409
#     4  11  25  43  66  92 135 175 228 287 336 408
#     4  12  24  41  65  93 128 180 225 281 344 398
#     4  10  23  46  71 102 143 183 227 288 351 424
#     4  10  25  44  66 101 135 176 231 284 346 412
#     4  11  25  43  65  93 135 176 232 281 343 410
#
# _framework density 22.437611
#
# number of rings (size 3 to 8) (size 9 to 14) (size 15 to 20)
#    0.000    1.250    2.500    1.875    3.500    6.500 
#    2.250    1.250    0.000    0.000    0.000    0.000 
#    0.000    0.000    0.000    0.000    0.000    0.000 
#
# Total GULP energy -89392.365314 kJ/mol
# GULP energy per Si atom -5587.022832 kJ/mol
# Density = 2.238654 g / cm^3
# Si number density = 22.437611 Si / 1000 Ang^3
#
#
#
# Elastic Constant Matrix: (Units=GPa)
#
#
# Indices 1 2 3 4 5 6 
#
# 1 61.2288 26.2695 11.3063 0.0000 5.8256 0.0000
# 2 26.2695 69.5984 46.0158 0.0000 12.9496 0.0000
# 3 11.3063 46.0158 82.2170 0.0000 13.7210 0.0000
# 4 0.0000 0.0000 0.0000 30.5279 0.0000 7.1891
# 5 5.8256 12.9496 13.7210 0.0000 36.6594 0.0000
# 6 0.0000 0.0000 0.0000 7.1891 0.0000 28.3057
#
#
#
# Elastic Compliance Matrix: (Units=1/GPa)
#
#
# Indices 1 2 3 4 5 6 
#
# 1 0.019789 -0.008892 0.002406 0.000000 -0.000904 0.000000
# 2 -0.008892 0.027232 -0.013492 0.000000 -0.003157 0.000000
# 3 0.002406 -0.013492 0.019894 0.000000 -0.003063 0.000000
# 4 0.000000 0.000000 0.000000 0.034841 0.000000 -0.008849
# 5 -0.000904 -0.003157 -0.003063 0.000000 0.029683 0.000000
# 6 0.000000 0.000000 0.000000 -0.008849 0.000000 0.037576
#
#
# Mechanical properties :
#
#
# Convention : Reuss Voigt Hill
#
# Bulk Modulus (GPa) = 37.09150 42.24750 39.66950
# Shear Modulus (GPa) = 22.94035 27.72877 25.33456
#
# Velocity S-wave (km/s) = 3.20098 3.51923 3.36387
# Velocity P-wave (km/s) = 5.49805 5.94837 5.72763
#
# Compressibility (1/GPa) = 0.02696035
#
# Stress axis : x y z
#
# Youngs Moduli (GPa) = 50.53354 36.72165 50.26561
#
# Poissons Ratio (x) = 0.32652 -0.12095
# Poissons Ratio (y) = 0.44934 0.67817
# Poissons Ratio (z) = -0.12160 0.49544
#
# Static dielectric constant tensor:
#      x y z
#    x 1.874950 0.000000 -0.004220 
#    y 0.000000 1.831730 0.000000 
#    z -0.004220 0.000000 1.825890 
# 
# From -- ./inp_files/71774.got.cif
#   From: 2010.05.17/outbox.cif.g08.bks.cpg/sg5_36_cif.got.tgz:71774.got - 2010.06.03 18:56:24.
