data_PCOD9127249
_publ_section_title
;
Structure prediction by ZEFSAII (Michael W. Deem and Ramdas Pophale) SiO2 
 PCOD9127249
Probable space group: C 2
;
_chemical_formula_sum "Si O2"
_cell_formula_units_Z 14
_cell_length_a 12.524550
_cell_length_b 7.730229
_cell_length_c 6.155385
_cell_angle_alpha 90.000000
_cell_angle_beta 65.657572
_cell_angle_gamma 90.000000
_cell_volume 542.968890
_symmetry_space_group_name_H-M "C 2"
_symmetry_group_IT_number 5
_symmetry_cell_setting 'monoclinic'
loop_
_space_group_symop_operation_xyz
x,y,z
-x,y,-z
1/2+x,1/2+y,z
1/2-x,1/2+y,-z
loop_
_atom_site_type_symbol
_atom_site_label
_atom_site_fract_x
_atom_site_fract_y
_atom_site_fract_z
Si Si1 0.500000 0.399370 0.000000
Si Si2 0.707581 0.483734 0.148115
Si Si3 0.864773 0.347807 0.656443
Si Si4 0.620789 0.185971 0.528464
O O1 0.404556 0.495525 0.926609
O O2 0.578205 0.281638 0.777974
O O3 0.700963 0.664727 0.280247
O O4 0.687994 0.317239 0.314781
O O5 0.824536 0.445015 0.911708
O O6 0.829662 0.491577 0.507525
O O7 0.000000 0.302878 0.500000
O O8 0.500000 0.153542 0.500000
#
# Coordination Sequence:
#
# PCOD9127249 Si02
#       4
#     2   4   4   4
#     4  10  22  44  72 104 138 176 232 286 338 402
#     4  11  22  45  69  99 141 181 225 284 339 406
#     4  11  22  42  72  96 134 184 224 271 345 404
#     4   9  20  42  67  96 136 179 223 279 336 402
#
# _framework density 25.784164000000001
#
# number of rings (size 3 to 8) (size 9 to 14) (size 15 to 20)
#    0.000    1.714    2.857    2.571    0.000    0.000 
#   10.286   22.857    0.000    0.000    0.000    0.000 
#    0.000    0.000    0.000    0.000    0.000    0.000 
#
# Total GULP energy -39150.212859 kJ/mol
# GULP energy per Si atom -5592.887551 kJ/mol
# Density = 2.572548 g / cm^3
# Si number density = 25.784164 Si / 1000 Ang^3
#
#
#
# Elastic Constant Matrix: (Units=GPa)
#
#
# Indices 1 2 3 4 5 6 
#
# 1 117.3582 25.6826 38.6642 0.0000 -14.1353 0.0000
# 2 25.6826 166.5740 48.2873 0.0000 -16.2073 0.0000
# 3 38.6642 48.2873 144.3197 0.0000 -54.6269 0.0000
# 4 0.0000 0.0000 0.0000 40.3200 0.0000 -21.2858
# 5 -14.1353 -16.2073 -54.6269 0.0000 49.8883 0.0000
# 6 0.0000 0.0000 0.0000 -21.2858 0.0000 14.9740
#
#
#
# Elastic Compliance Matrix: (Units=1/GPa)
#
#
# Indices 1 2 3 4 5 6 
#
# 1 0.009441 -0.000799 -0.002302 0.000000 -0.000105 0.000000
# 2 -0.000799 0.006722 -0.002210 0.000000 -0.000463 0.000000
# 3 -0.002302 -0.002210 0.013264 0.000000 0.013154 0.000000
# 4 0.000000 0.000000 0.000000 0.099385 0.000000 0.141278
# 5 -0.000105 -0.000463 0.013154 0.000000 0.034268 0.000000
# 6 0.000000 0.000000 0.000000 0.141278 0.000000 0.267611
#
#
# Mechanical properties :
#
#
# Convention : Reuss Voigt Hill
#
# Bulk Modulus (GPa) = 53.17426 72.61335 62.89381
# Shear Modulus (GPa) = 11.17113 42.07765 26.62439
#
# Velocity S-wave (km/s) = 2.08374 4.04408 3.21688
# Velocity P-wave (km/s) = 5.14363 7.07314 6.18410
#
# Compressibility (1/GPa) = 0.01880609
#
# Stress axis : x y z
#
# Youngs Moduli (GPa) = 105.91619 148.76101 75.39087
#
# Poissons Ratio (x) = 0.11880 0.17354
# Poissons Ratio (y) = 0.08459 0.16664
# Poissons Ratio (z) = 0.24381 0.32881
#
# Static dielectric constant tensor:
#      x y z
#    x 2.143800 0.000000 0.085090 
#    y 0.000000 2.053070 0.000000 
#    z 0.085090 0.000000 2.054610 
# 
# From -- ./inp_files/6269.got.cif
#   From: 2010.05.17/outbox.cif.g08.bks.cpg/sg5_4_cif.got.tgz:6269.got - 2010.06.03 18:56:24.
