data_PCOD9127043
_publ_section_title
;
Structure prediction by ZEFSAII (Michael W. Deem and Ramdas Pophale) SiO2 
 PCOD9127043
Probable space group: C 2
;
_chemical_formula_sum "Si O2"
_cell_formula_units_Z 30
_cell_length_a 8.929379
_cell_length_b 31.060534
_cell_length_c 5.233662
_cell_angle_alpha 90.000000
_cell_angle_beta 108.065721
_cell_angle_gamma 90.000000
_cell_volume 1380.002887
_symmetry_space_group_name_H-M "C 2"
_symmetry_group_IT_number 5
_symmetry_cell_setting 'monoclinic'
loop_
_space_group_symop_operation_xyz
x,y,z
-x,y,-z
1/2+x,1/2+y,z
1/2-x,1/2+y,-z
loop_
_atom_site_type_symbol
_atom_site_label
_atom_site_fract_x
_atom_site_fract_y
_atom_site_fract_z
Si Si1 0.500000 0.187310 0.500000
Si Si2 0.310128 0.891016 0.895539
Si Si3 0.604709 0.676215 0.804664
Si Si4 0.809805 0.032232 0.882056
Si Si5 0.189195 0.981734 0.618712
Si Si6 0.309486 0.840642 0.400054
Si Si7 0.352812 0.113677 0.075364
Si Si8 0.669795 0.247518 0.218550
O O1 0.421316 0.154927 0.258528
O O2 0.630550 0.217699 0.441707
O O3 0.249486 0.936501 0.759153
O O4 0.260002 0.856997 0.652521
O O5 0.500000 0.893060 0.000000
O O6 0.260334 0.874106 0.149174
O O7 0.500000 0.681414 0.500000
O O8 0.709807 0.719211 0.883212
O O9 0.500000 0.669840 0.000000
O O10 0.716987 0.634690 0.830194
O O11 0.726479 0.077689 0.791576
O O12 0.762445 0.998278 0.636678
O O13 0.000000 0.036758 0.000000
O O14 0.763512 0.015902 0.139016
O O15 0.000000 0.979306 0.500000
O O16 0.500000 0.838662 0.500000
O O17 0.241476 0.793681 0.313808
O O18 0.500000 0.095027 0.000000
O O19 0.500000 0.252798 0.000000
#
# Coordination Sequence:
#
# PCOD9127043 Si02
#       8
#     2   4   4   4   4   4   4   4
#     4  12  24  48  68  96 154 184 236 310 352 412
#     4  10  22  43  67  98 138 173 221 282 351 423
#     4  12  26  44  70  98 133 187 237 293 355 424
#     4  10  24  43  68 102 135 180 231 289 341 423
#     4  10  22  43  69  97 137 175 225 282 351 420
#     4  10  24  42  67 100 135 180 229 284 340 424
#     4  12  26  45  68 100 140 188 238 300 355 414
#     4  12  26  44  68 100 141 186 237 297 355 412
#
# _framework density 21.739086
#
# number of rings (size 3 to 8) (size 9 to 14) (size 15 to 20)
#    0.000    1.067    2.667    2.400    3.733    4.800 
#    0.000    0.000    0.000    0.000    0.000    0.000 
#    0.000    0.000    0.000    0.000    0.000    0.000 
#
# Total GULP energy -83879.994110 kJ/mol
# GULP energy per Si atom -5591.999607 kJ/mol
# Density = 2.168961 g / cm^3
# Si number density = 21.739086 Si / 1000 Ang^3
#
#
#
# Elastic Constant Matrix: (Units=GPa)
#
#
# Indices 1 2 3 4 5 6 
#
# 1 52.3890 29.3077 34.2124 0.0000 2.1705 0.0000
# 2 29.3077 114.6842 36.8440 0.0000 13.3908 0.0000
# 3 34.2124 36.8440 126.6051 0.0000 2.4392 0.0000
# 4 0.0000 0.0000 0.0000 -16.8813 0.0000 10.0547
# 5 2.1705 13.3908 2.4392 0.0000 17.9887 0.0000
# 6 0.0000 0.0000 0.0000 10.0547 0.0000 41.4752
#
#
#
# Elastic Compliance Matrix: (Units=1/GPa)
#
#
# Indices 1 2 3 4 5 6 
#
# 1 0.025318 -0.004873 -0.005449 0.000000 0.001311 0.000000
# 2 -0.004873 0.011464 -0.001871 0.000000 -0.007692 0.000000
# 3 -0.005449 -0.001871 0.009902 0.000000 0.000708 0.000000
# 4 0.000000 0.000000 0.000000 -0.051763 0.000000 0.012549
# 5 0.001311 -0.007692 0.000708 0.000000 0.061062 0.000000
# 6 0.000000 0.000000 0.000000 0.012549 0.000000 0.021069
#
#
# Mechanical properties :
#
#
# Convention : Reuss Voigt Hill
#
# Bulk Modulus (GPa) = 44.84624 54.93403 49.89014
# Shear Modulus (GPa) = 45.92616 21.40414 33.66515
#
# Velocity S-wave (km/s) = 4.60130 3.14123 3.93949
# Velocity P-wave (km/s) = 6.99309 6.20330 6.61000
#
# Compressibility (1/GPa) = 0.02229841
#
# Stress axis : x y z
#
# Youngs Moduli (GPa) = 39.49780 87.22856 100.98991
#
# Poissons Ratio (x) = 0.42503 0.55028
# Poissons Ratio (y) = 0.19246 0.18899
# Poissons Ratio (z) = 0.21522 0.16323
#
# Static dielectric constant tensor:
#      x y z
#    x 1.826390 0.000000 -0.027790 
#    y 0.000000 1.772760 0.000000 
#    z -0.027790 0.000000 1.663010 
# 
# From -- ./inp_files/3970.got.cif
#   From: 2010.05.17/outbox.cif.g08.bks.cpg/sg5_2_cif.got.tgz:3970.got - 2010.06.03 18:56:24.
