data_PCOD9127456
_publ_section_title
;
Structure prediction by ZEFSAII (Michael W. Deem and Ramdas Pophale) SiO2 
 PCOD9127456
Probable space group: C 2
;
_chemical_formula_sum "Si O2"
_cell_formula_units_Z 18
_cell_length_a 7.702367
_cell_length_b 6.693796
_cell_length_c 12.108554
_cell_angle_alpha 90.000000
_cell_angle_beta 70.542968
_cell_angle_gamma 90.000000
_cell_volume 588.641275
_symmetry_space_group_name_H-M "C 2"
_symmetry_group_IT_number 5
_symmetry_cell_setting 'monoclinic'
loop_
_space_group_symop_operation_xyz
x,y,z
-x,y,-z
1/2+x,1/2+y,z
1/2-x,1/2+y,-z
loop_
_atom_site_type_symbol
_atom_site_label
_atom_site_fract_x
_atom_site_fract_y
_atom_site_fract_z
Si Si1 0.482597 0.527840 0.202480
Si Si2 0.196703 0.585542 0.428325
Si Si3 0.500000 0.329232 0.000000
Si Si4 0.752143 0.030359 0.659470
Si Si5 0.564205 0.948640 0.112303
O O1 0.312815 0.466120 0.314789
O O2 0.560283 0.342115 0.117890
O O3 0.622898 0.600876 0.267245
O O4 0.483239 0.722973 0.123665
O O5 0.184600 0.801364 0.374960
O O6 0.278937 0.618482 0.532567
O O7 0.000000 0.500974 0.500000
O O8 0.283511 0.422378 0.078011
O O9 0.548500 0.020407 0.755854
O O10 0.500000 0.057890 0.000000
#
# Coordination Sequence:
#
# PCOD9127456 Si02
#       5
#     4   4   2   4   4
#     4  11  23  49  76 109 151 192 247 306 366 439
#     4  11  26  47  73 105 149 195 248 304 372 434
#     4  10  22  46  76 110 150 196 238 306 370 442
#     4  11  26  45  74 109 147 194 246 308 367 434
#     4   9  23  44  66 112 146 195 239 294 366 439
#
# _framework density 30.578893999999998
#
# number of rings (size 3 to 8) (size 9 to 14) (size 15 to 20)
#    0.667    0.889    1.111    2.000    6.222    5.333 
#    4.000    0.000    0.000    0.000    0.000    0.000 
#    0.000    0.000    0.000    0.000    0.000    0.000 
#
# Total GULP energy -50318.852335 kJ/mol
# GULP energy per Si atom -5590.983593 kJ/mol
# Density = 3.050929 g / cm^3
# Si number density = 30.578894 Si / 1000 Ang^3
#
#
#
# Elastic Constant Matrix: (Units=GPa)
#
#
# Indices 1 2 3 4 5 6 
#
# 1 143.3034 29.4848 65.6588 0.0000 -22.5092 0.0000
# 2 29.4848 95.3319 69.8733 0.0000 28.0123 0.0000
# 3 65.6588 69.8733 310.1856 0.0000 -4.5626 0.0000
# 4 0.0000 0.0000 0.0000 74.6963 0.0000 7.0060
# 5 -22.5092 28.0123 -4.5626 0.0000 74.0316 0.0000
# 6 0.0000 0.0000 0.0000 7.0060 0.0000 48.6822
#
#
#
# Elastic Compliance Matrix: (Units=1/GPa)
#
#
# Indices 1 2 3 4 5 6 
#
# 1 0.008675 -0.002946 -0.001119 0.000000 0.003683 0.000000
# 2 -0.002946 0.015665 -0.003008 0.000000 -0.007008 0.000000
# 3 -0.001119 -0.003008 0.004154 0.000000 0.001054 0.000000
# 4 0.000000 0.000000 0.000000 0.013571 0.000000 -0.001953
# 5 0.003683 -0.007008 0.001054 0.000000 0.017344 0.000000
# 6 0.000000 0.000000 0.000000 -0.001953 0.000000 0.020822
#
#
# Mechanical properties :
#
#
# Convention : Reuss Voigt Hill
#
# Bulk Modulus (GPa) = 69.69084 97.65052 83.67068
# Shear Modulus (GPa) = 50.42360 65.06894 57.74627
#
# Velocity S-wave (km/s) = 4.06515 4.61792 4.35033
# Velocity P-wave (km/s) = 6.69880 7.77412 7.25641
#
# Compressibility (1/GPa) = 0.01434909
#
# Stress axis : x y z
#
# Youngs Moduli (GPa) = 115.26906 63.83672 240.74115
#
# Poissons Ratio (x) = 0.18803 0.26931
# Poissons Ratio (y) = 0.33953 0.72423
# Poissons Ratio (z) = 0.12895 0.19204
#
# Static dielectric constant tensor:
#      x y z
#    x 2.544580 0.000000 0.112590 
#    y 0.000000 2.579480 0.000000 
#    z 0.112590 0.000000 2.380890 
# 
# From -- ./inp_files/34713.got.cif
#   From: 2010.05.17/outbox.cif.g08.bks.cpg/sg5_18_cif.got.tgz:34713.got - 2010.06.03 18:56:24.
