data_PCOD9127405
_publ_section_title
;
Structure prediction by ZEFSAII (Michael W. Deem and Ramdas Pophale) SiO2 
 PCOD9127405
Probable space group: C 2
;
_chemical_formula_sum "Si O2"
_cell_formula_units_Z 28
_cell_length_a 6.772375
_cell_length_b 13.024307
_cell_length_c 20.383758
_cell_angle_alpha 90.000000
_cell_angle_beta 53.631449
_cell_angle_gamma 90.000000
_cell_volume 1447.751772
_symmetry_space_group_name_H-M "C 2"
_symmetry_group_IT_number 5
_symmetry_cell_setting 'monoclinic'
loop_
_space_group_symop_operation_xyz
x,y,z
-x,y,-z
1/2+x,1/2+y,z
1/2-x,1/2+y,-z
loop_
_atom_site_type_symbol
_atom_site_label
_atom_site_fract_x
_atom_site_fract_y
_atom_site_fract_z
Si Si1 0.418525 0.511370 0.857392
Si Si2 0.118113 0.657842 0.222295
Si Si3 0.652251 0.519513 0.280937
Si Si4 0.000000 0.654530 0.000000
Si Si5 0.754856 0.153509 0.423977
Si Si6 0.957199 0.805847 0.637989
Si Si7 0.214777 0.792015 0.073980
Si Si8 0.500000 0.753703 0.500000
O O1 0.671668 0.573131 0.809122
O O2 0.342301 0.494700 0.796996
O O3 0.420043 0.400935 0.891554
O O4 0.218486 0.582712 0.931791
O O5 0.190465 0.729479 0.146601
O O6 0.870191 0.596860 0.255228
O O7 0.081866 0.728410 0.293352
O O8 0.402036 0.577727 0.348454
O O9 0.657019 0.414835 0.321134
O O10 0.093402 0.724965 0.040840
O O11 0.500000 0.106887 0.500000
O O12 0.673064 0.253645 0.398767
O O13 0.922231 0.185128 0.452704
O O14 0.249857 0.813937 0.566815
O O15 0.500000 0.809471 0.000000
#
# Coordination Sequence:
#
# PCOD9127405 Si02
#       8
#     4   4   4   2   4   4   4   2
#     4  12  26  43  70 101 132 178 222 271 338 394
#     4  12  25  43  68 101 136 173 222 276 330 395
#     4  12  25  42  71 100 134 177 224 270 336 391
#     4  12  26  44  70  98 138 176 220 274 332 402
#     4  10  23  45  67  99 139 174 221 274 326 396
#     4  11  24  43  68 101 135 176 223 272 329 395
#     4  12  26  44  70  98 135 177 221 273 333 400
#     4  10  22  46  68  96 142 174 216 278 326 390
#
# _framework density 19.340332
#
# number of rings (size 3 to 8) (size 9 to 14) (size 15 to 20)
#    0.000    0.571    7.857    0.000    1.000    5.714 
#    3.857    0.000    0.000    0.000    0.000    0.000 
#    0.000    0.000    0.000    0.000    0.000    0.000 
#
# Total GULP energy -78284.753797 kJ/mol
# GULP energy per Si atom -5591.768128 kJ/mol
# Density = 1.929631 g / cm^3
# Si number density = 19.340332 Si / 1000 Ang^3
#
#
#
# Elastic Constant Matrix: (Units=GPa)
#
#
# Indices 1 2 3 4 5 6 
#
# 1 63.6028 19.3323 27.1520 -0.0010 7.7594 -0.0002
# 2 19.3323 104.8617 43.2912 -0.0001 -6.0107 -0.0004
# 3 27.1520 43.2912 111.9512 0.0008 -0.1812 -0.0008
# 4 -0.0010 -0.0001 0.0008 3.7885 0.0000 4.4854
# 5 7.7594 -6.0107 -0.1812 0.0000 41.9391 0.0003
# 6 -0.0002 -0.0004 -0.0008 4.4854 0.0003 22.9948
#
#
#
# Elastic Compliance Matrix: (Units=1/GPa)
#
#
# Indices 1 2 3 4 5 6 
#
# 1 0.018371 -0.002092 -0.003653 0.000007 -0.003714 -0.000001
# 2 -0.002092 0.011696 -0.004012 0.000001 0.002046 0.000000
# 3 -0.003653 -0.004012 0.011370 -0.000005 0.000150 0.000001
# 4 0.000007 0.000001 -0.000005 0.343223 -0.000001 -0.066950
# 5 -0.003714 0.002046 0.000150 -0.000001 0.024825 0.000000
# 6 -0.000001 0.000000 0.000001 -0.066950 0.000000 0.056548
#
#
# Mechanical properties :
#
#
# Convention : Reuss Voigt Hill
#
# Bulk Modulus (GPa) = 45.61309 51.10740 48.36025
# Shear Modulus (GPa) = 10.14501 26.45383 18.29942
#
# Velocity S-wave (km/s) = 2.29279 3.70240 3.07934
# Velocity P-wave (km/s) = 5.53578 6.69027 6.14022
#
# Compressibility (1/GPa) = 0.02192353
#
# Stress axis : x y z
#
# Youngs Moduli (GPa) = 54.43406 85.50219 87.95049
#
# Poissons Ratio (x) = 0.17885 0.32126
# Poissons Ratio (y) = 0.11386 0.35286
# Poissons Ratio (z) = 0.19883 0.34304
#
# Static dielectric constant tensor:
#      x y z
#    x 1.648620 0.000000 -0.006790 
#    y 0.000000 1.630800 0.000000 
#    z -0.006790 0.000000 1.673950 
# 
# From -- ./inp_files/58834.got.cif
#   From: 2010.05.17/outbox.cif.g08.bks.cpg/sg5_30_cif.got.tgz:58834.got - 2010.06.03 18:56:24.
