data_PCOD9127156
_publ_section_title
;
Structure prediction by ZEFSAII (Michael W. Deem and Ramdas Pophale) SiO2 
 PCOD9127156
Probable space group: C 2
;
_chemical_formula_sum "Si O2"
_cell_formula_units_Z 30
_cell_length_a 11.719612
_cell_length_b 7.080373
_cell_length_c 24.620033
_cell_angle_alpha 90.000000
_cell_angle_beta 34.345833
_cell_angle_gamma 90.000000
_cell_volume 1152.605909
_symmetry_space_group_name_H-M "C 2"
_symmetry_group_IT_number 5
_symmetry_cell_setting 'monoclinic'
loop_
_space_group_symop_operation_xyz
x,y,z
-x,y,-z
1/2+x,1/2+y,z
1/2-x,1/2+y,-z
loop_
_atom_site_type_symbol
_atom_site_label
_atom_site_fract_x
_atom_site_fract_y
_atom_site_fract_z
Si Si1 0.281211 0.684820 0.557381
Si Si2 0.689135 0.348632 0.140424
Si Si3 0.819198 0.658508 0.968862
Si Si4 0.750748 0.977064 0.284051
Si Si5 0.623823 0.072294 0.501633
Si Si6 0.991392 0.304743 0.163719
Si Si7 0.500000 0.171670 0.000000
Si Si8 0.903313 0.489438 0.763407
O O1 0.500000 0.647024 0.500000
O O2 0.240419 0.909698 0.578694
O O3 0.245441 0.655833 0.505677
O O4 0.116988 0.558088 0.653743
O O5 0.740903 0.260928 0.061849
O O6 0.452319 0.397970 0.231290
O O7 0.714154 0.180268 0.173060
O O8 0.828829 0.529781 0.089697
O O9 0.959153 0.486210 0.893189
O O10 0.929960 0.777557 0.973667
O O11 0.611838 0.637164 0.084678
O O12 0.706068 0.885353 0.243246
O O13 0.781604 0.202476 0.260648
O O14 0.557200 0.960295 0.397257
O O15 0.500000 0.174691 0.500000
O O16 0.069442 0.370966 0.192452
#
# Coordination Sequence:
#
# PCOD9127156 Si02
#       8
#     4   4   4   4   4   4   2   4
#     4  10  22  44  67 100 133 172 219 273 341 407
#     4  11  23  40  61  89 127 167 219 264 320 382
#     4  11  23  40  60  87 122 168 214 267 311 377
#     4  11  23  43  65  96 130 167 218 270 326 394
#     4  10  23  42  70  99 135 172 218 274 341 403
#     4  11  22  44  61  92 128 165 220 265 321 379
#     4  12  22  36  60  84 120 170 210 258 320 364
#     4  10  25  41  66  94 129 172 211 276 329 385
#
# _framework density 26.027975000000001
#
# number of rings (size 3 to 8) (size 9 to 14) (size 15 to 20)
#    0.000    1.333    2.667    2.400    1.867    4.800 
#    0.000    4.000    0.000    0.000    0.000    0.000 
#    0.000    0.000    0.000    0.000    0.000    0.000 
#
# Total GULP energy -83643.168490 kJ/mol
# GULP energy per Si atom -5576.211233 kJ/mol
# Density = 2.596873 g / cm^3
# Si number density = 26.027975 Si / 1000 Ang^3
#
#
#
# Elastic Constant Matrix: (Units=GPa)
#
#
# Indices 1 2 3 4 5 6 
#
# 1 188.7782 13.5206 32.5235 0.0000 34.9941 0.0003
# 2 13.5206 64.4609 7.5391 0.0001 10.4913 0.0005
# 3 32.5235 7.5391 95.7966 -0.0001 17.7143 0.0000
# 4 0.0000 0.0001 -0.0001 38.0679 -0.0001 7.5356
# 5 34.9941 10.4913 17.7143 -0.0001 51.7689 0.0000
# 6 0.0003 0.0005 0.0000 7.5356 0.0000 25.2942
#
#
#
# Elastic Compliance Matrix: (Units=1/GPa)
#
#
# Indices 1 2 3 4 5 6 
#
# 1 0.006253 -0.000556 -0.001407 0.000000 -0.003633 0.000000
# 2 -0.000556 0.016137 -0.000583 0.000000 -0.002695 0.000000
# 3 -0.001407 -0.000583 0.011492 0.000000 -0.002863 0.000000
# 4 0.000000 0.000000 0.000000 0.027915 0.000000 -0.008316
# 5 -0.003633 -0.002695 -0.002863 0.000000 0.023298 0.000000
# 6 0.000000 0.000000 0.000000 -0.008316 0.000000 0.042012
#
#
# Mechanical properties :
#
#
# Convention : Reuss Voigt Hill
#
# Bulk Modulus (GPa) = 34.73516 50.68913 42.71214
# Shear Modulus (GPa) = 35.26210 42.72303 38.99256
#
# Velocity S-wave (km/s) = 3.68472 4.05585 3.87473
# Velocity P-wave (km/s) = 5.61045 6.43819 6.03852
#
# Compressibility (1/GPa) = 0.02878927
#
# Stress axis : x y z
#
# Youngs Moduli (GPa) = 159.92672 61.97068 87.01808
#
# Poissons Ratio (x) = 0.03444 0.12247
# Poissons Ratio (y) = 0.08887 0.05072
# Poissons Ratio (z) = 0.22509 0.03612
#
# Static dielectric constant tensor:
#      x y z
#    x 2.121300 0.000000 -0.043560 
#    y 0.000000 2.073070 0.000000 
#    z -0.043560 0.000000 2.035290 
# 
# From -- ./inp_files/68277.got.cif
#   From: 2010.05.17/outbox.cif.g08.bks.cpg/sg5_35_cif.got.tgz:68277.got - 2010.06.03 18:56:24.
