data_PCOD9127014
_publ_section_title
;
Structure prediction by ZEFSAII (Michael W. Deem and Ramdas Pophale) SiO2 
 PCOD9127014
Probable space group: C 2
;
_chemical_formula_sum "Si O2"
_cell_formula_units_Z 26
_cell_length_a 10.352596
_cell_length_b 10.457847
_cell_length_c 12.278375
_cell_angle_alpha 90.000000
_cell_angle_beta 73.749447
_cell_angle_gamma 90.000000
_cell_volume 1276.218417
_symmetry_space_group_name_H-M "C 2"
_symmetry_group_IT_number 5
_symmetry_cell_setting 'monoclinic'
loop_
_space_group_symop_operation_xyz
x,y,z
-x,y,-z
1/2+x,1/2+y,z
1/2-x,1/2+y,-z
loop_
_atom_site_type_symbol
_atom_site_label
_atom_site_fract_x
_atom_site_fract_y
_atom_site_fract_z
Si Si1 0.986046 0.270180 0.677847
Si Si2 0.141988 0.671499 0.982946
Si Si3 0.736538 0.947334 0.655970
Si Si4 0.000000 0.049140 0.500000
Si Si5 0.578303 0.344954 0.203979
Si Si6 0.935500 0.108449 0.899379
Si Si7 0.309757 0.242300 0.268100
O O1 0.018690 0.145322 0.597657
O O2 0.966280 0.220732 0.806370
O O3 0.834191 0.307559 0.674928
O O4 0.104310 0.374310 0.644426
O O5 0.128411 0.755290 0.094243
O O6 0.839263 0.754916 0.131409
O O7 0.275994 0.590750 0.955697
O O8 0.000000 0.600270 0.000000
O O9 0.800867 0.871400 0.742258
O O10 0.864333 0.967637 0.546436
O O11 0.704895 0.091227 0.704265
O O12 0.523784 0.476845 0.166271
O O13 0.446007 0.287279 0.292692
O O14 0.000000 0.131915 0.000000
#
# Coordination Sequence:
#
# PCOD9127014 Si02
#       7
#     4   4   4   2   4   4   4
#     4  10  22  43  66  93 122 166 213 258 315 376
#     4   9  18  35  53  87 123 167 204 242 299 360
#     4  11  22  43  67  91 121 168 208 265 316 372
#     4  10  22  44  64  90 132 156 210 272 322 352
#     4  11  20  39  62  88 134 169 202 255 311 368
#     4  11  20  38  59  94 129 164 208 254 306 375
#     4   9  20  41  57  90 128 162 206 255 310 363
#
# _framework density 20.372686000000002
#
# number of rings (size 3 to 8) (size 9 to 14) (size 15 to 20)
#    0.000    1.846    4.615    2.308    0.000    2.462 
#   19.385    0.000    0.000    0.000    0.000    0.000 
#    0.000    0.000    0.000    0.000    0.000    0.000 
#
# Total GULP energy -72466.957072 kJ/mol
# GULP energy per Si atom -5574.381313 kJ/mol
# Density = 2.032632 g / cm^3
# Si number density = 20.372686 Si / 1000 Ang^3
#
#
#
# Elastic Constant Matrix: (Units=GPa)
#
#
# Indices 1 2 3 4 5 6 
#
# 1 106.7342 48.3520 32.4370 0.0000 -37.6027 0.0000
# 2 48.3520 53.7181 19.0070 0.0000 -23.1343 0.0000
# 3 32.4370 19.0070 76.9777 0.0000 -22.1275 0.0000
# 4 0.0000 0.0000 0.0000 20.1815 0.0000 -13.1345
# 5 -37.6027 -23.1343 -22.1275 0.0000 39.3958 0.0000
# 6 0.0000 0.0000 0.0000 -13.1345 0.0000 38.2186
#
#
#
# Elastic Compliance Matrix: (Units=1/GPa)
#
#
# Indices 1 2 3 4 5 6 
#
# 1 0.018943 -0.012071 -0.002197 0.000000 0.009759 0.000000
# 2 -0.012071 0.032961 -0.000954 0.000000 0.007299 0.000000
# 3 -0.002197 -0.000954 0.015966 0.000000 0.006311 0.000000
# 4 0.000000 0.000000 0.000000 0.063826 0.000000 0.021935
# 5 0.009759 0.007299 0.006311 0.000000 0.042528 0.000000
# 6 0.000000 0.000000 0.000000 0.021935 0.000000 0.033704
#
#
# Mechanical properties :
#
#
# Convention : Reuss Voigt Hill
#
# Bulk Modulus (GPa) = 26.71854 48.55801 37.63827
# Shear Modulus (GPa) = 19.93248 28.73479 24.33363
#
# Velocity S-wave (km/s) = 3.13132 3.75968 3.45979
# Velocity P-wave (km/s) = 5.12024 6.53709 5.87156
#
# Compressibility (1/GPa) = 0.03742720
#
# Stress axis : x y z
#
# Youngs Moduli (GPa) = 52.79076 30.33847 62.63300
#
# Poissons Ratio (x) = 0.36620 0.13758
# Poissons Ratio (y) = 0.63722 0.05977
# Poissons Ratio (z) = 0.11596 0.02895
#
# Static dielectric constant tensor:
#      x y z
#    x 1.766710 0.000000 -0.018500 
#    y 0.000000 1.703480 0.000000 
#    z -0.018500 0.000000 1.774510 
# 
# From -- ./inp_files/50230.got.cif
#   From: 2010.05.17/outbox.cif.g08.bks.cpg/sg5_26_cif.got.tgz:50230.got - 2010.06.03 18:56:24.
