data_PCOD9127752
_publ_section_title
;
Structure prediction by ZEFSAII (Michael W. Deem and Ramdas Pophale) SiO2 
 PCOD9127752
Probable space group: C 2
;
_chemical_formula_sum "Si O2"
_cell_formula_units_Z 20
_cell_length_a 8.430475
_cell_length_b 10.145605
_cell_length_c 9.834484
_cell_angle_alpha 90.000000
_cell_angle_beta 91.266677
_cell_angle_gamma 90.000000
_cell_volume 840.960183
_symmetry_space_group_name_H-M "C 2"
_symmetry_group_IT_number 5
_symmetry_cell_setting 'monoclinic'
loop_
_space_group_symop_operation_xyz
x,y,z
-x,y,-z
1/2+x,1/2+y,z
1/2-x,1/2+y,-z
loop_
_atom_site_type_symbol
_atom_site_label
_atom_site_fract_x
_atom_site_fract_y
_atom_site_fract_z
Si Si1 0.138031 0.850510 0.793514
Si Si2 0.647414 0.062484 0.717704
Si Si3 0.276515 0.119918 0.711200
Si Si4 0.326743 0.826099 0.066058
Si Si5 0.142634 0.863965 0.396981
O O1 0.208280 0.709611 0.747690
O O2 0.952613 0.854101 0.749886
O O3 0.198466 0.978135 0.715558
O O4 0.194786 0.855887 0.949229
O O5 0.461496 0.085444 0.693831
O O6 0.656842 0.956949 0.840591
O O7 0.748249 0.991447 0.602905
O O8 0.219163 0.195387 0.848414
O O9 0.248273 0.234011 0.598889
O O10 0.500000 0.806319 0.000000
O O11 0.000000 0.858120 0.500000
#
# Coordination Sequence:
#
# PCOD9127752 Si02
#       5
#     4   4   4   4   4
#     4  11  23  38  66  96 125 173 209 255 320 380
#     4  10  23  42  63  94 133 163 215 263 315 383
#     4  10  23  43  65  96 130 167 212 259 323 378
#     4  11  22  39  65  96 140 168 205 260 321 391
#     4  10  25  45  64  89 129 170 218 271 313 371
#
# _framework density 23.782340000000001
#
# number of rings (size 3 to 8) (size 9 to 14) (size 15 to 20)
#    0.000    1.600    2.000    1.200    2.800    9.600 
#    3.600    1.000    0.000    0.000    0.000    0.000 
#    0.000    0.000    0.000    0.000    0.000    0.000 
#
# Total GULP energy -55806.175183 kJ/mol
# GULP energy per Si atom -5580.617518 kJ/mol
# Density = 2.372821 g / cm^3
# Si number density = 23.782340 Si / 1000 Ang^3
#
#
#
# Elastic Constant Matrix: (Units=GPa)
#
#
# Indices 1 2 3 4 5 6 
#
# 1 65.0942 35.3137 20.7416 0.0000 -21.7966 0.0000
# 2 35.3137 220.1683 26.7233 0.0000 -31.5272 0.0000
# 3 20.7416 26.7233 73.0147 0.0000 -23.2058 0.0000
# 4 0.0000 0.0000 0.0000 35.7437 0.0000 -9.8268
# 5 -21.7966 -31.5272 -23.2058 0.0000 47.1040 0.0000
# 6 0.0000 0.0000 0.0000 -9.8268 0.0000 45.9067
#
#
#
# Elastic Compliance Matrix: (Units=1/GPa)
#
#
# Indices 1 2 3 4 5 6 
#
# 1 0.019392 -0.001861 -0.002812 0.000000 0.006342 0.000000
# 2 -0.001861 0.005254 -0.000653 0.000000 0.002334 0.000000
# 3 -0.002812 -0.000653 0.016814 0.000000 0.006545 0.000000
# 4 0.000000 0.000000 0.000000 0.029726 0.000000 0.006363
# 5 0.006342 0.002334 0.006545 0.000000 0.028951 0.000000
# 6 0.000000 0.000000 0.000000 0.006363 0.000000 0.023145
#
#
# Mechanical properties :
#
#
# Convention : Reuss Voigt Hill
#
# Bulk Modulus (GPa) = 32.45818 58.20383 45.33100
# Shear Modulus (GPa) = 34.67358 44.11746 39.39552
#
# Velocity S-wave (km/s) = 3.82246 4.31170 4.07443
# Velocity P-wave (km/s) = 5.75841 7.02242 6.42159
#
# Compressibility (1/GPa) = 0.03080887
#
# Stress axis : x y z
#
# Youngs Moduli (GPa) = 51.56893 190.33652 59.47511
#
# Poissons Ratio (x) = 0.35418 0.16723
# Poissons Ratio (y) = 0.09596 0.03881
# Poissons Ratio (z) = 0.14500 0.12420
#
# Static dielectric constant tensor:
#      x y z
#    x 1.883440 0.000000 0.010970 
#    y 0.000000 1.982000 0.000000 
#    z 0.010970 0.000000 2.051580 
# 
# From -- ./inp_files/34737.got.cif
#   From: 2010.05.17/outbox.cif.g08.bks.cpg/sg5_18_cif.got.tgz:34737.got - 2010.06.03 18:56:24.
