data_PCOD9127021
_publ_section_title
;
Structure prediction by ZEFSAII (Michael W. Deem and Ramdas Pophale) SiO2 
 PCOD9127021
Probable space group: C 2
;
_chemical_formula_sum "Si O2"
_cell_formula_units_Z 20
_cell_length_a 13.165159
_cell_length_b 7.061139
_cell_length_c 9.662721
_cell_angle_alpha 90.000000
_cell_angle_beta 91.421640
_cell_angle_gamma 90.000000
_cell_volume 897.979886
_symmetry_space_group_name_H-M "C 2"
_symmetry_group_IT_number 5
_symmetry_cell_setting 'monoclinic'
loop_
_space_group_symop_operation_xyz
x,y,z
-x,y,-z
1/2+x,1/2+y,z
1/2-x,1/2+y,-z
loop_
_atom_site_type_symbol
_atom_site_label
_atom_site_fract_x
_atom_site_fract_y
_atom_site_fract_z
Si Si1 0.000000 0.544050 0.500000
Si Si2 0.038064 0.265320 0.710494
Si Si3 0.334060 0.641321 0.790971
Si Si4 0.187103 0.929982 0.681334
Si Si5 0.160694 0.765643 0.373413
Si Si6 0.500000 0.750863 0.000000
O O1 0.073122 0.404707 0.591096
O O2 0.049005 0.676391 0.385077
O O3 0.088068 0.056932 0.712818
O O4 0.043727 0.352234 0.864926
O O5 0.916824 0.234199 0.687420
O O6 0.319287 0.433717 0.731788
O O7 0.402609 0.641898 0.932274
O O8 0.234138 0.771616 0.785239
O O9 0.269473 0.094436 0.669063
O O10 0.178603 0.834400 0.530871
#
# Coordination Sequence:
#
# PCOD9127021 Si02
#       6
#     2   4   4   4   4   2
#     4  12  22  40  72 106 134 186 232 300 348 410
#     4  10  22  43  66  97 135 181 229 278 355 402
#     4  10  22  45  62  92 143 174 224 282 340 419
#     4  12  22  39  66 102 133 177 231 287 345 414
#     4  12  22  38  64 103 137 171 231 289 350 405
#     4   8  22  48  60  92 142 188 222 284 344 428
#
# _framework density 22.272213000000001
#
# number of rings (size 3 to 8) (size 9 to 14) (size 15 to 20)
#    1.200    0.000    4.000    3.600    0.000    0.000 
#    3.600    4.000    0.000    0.000    0.000    0.000 
#    0.000    0.000    0.000    0.000    0.000    0.000 
#
# Total GULP energy -55679.417589 kJ/mol
# GULP energy per Si atom -5567.941759 kJ/mol
# Density = 2.222152 g / cm^3
# Si number density = 22.272213 Si / 1000 Ang^3
#
#
#
# Elastic Constant Matrix: (Units=GPa)
#
#
# Indices 1 2 3 4 5 6 
#
# 1 48.1883 27.9344 7.8409 0.0000 9.0700 0.0000
# 2 27.9344 116.3066 39.6548 0.0000 15.5760 0.0000
# 3 7.8409 39.6548 102.7535 0.0000 20.2176 0.0000
# 4 0.0000 0.0000 0.0000 11.5803 0.0000 -2.9148
# 5 9.0700 15.5760 20.2176 0.0000 34.6194 0.0000
# 6 0.0000 0.0000 0.0000 -2.9148 0.0000 37.7260
#
#
#
# Elastic Compliance Matrix: (Units=1/GPa)
#
#
# Indices 1 2 3 4 5 6 
#
# 1 0.024753 -0.005749 0.001239 0.000000 -0.004622 0.000000
# 2 -0.005749 0.011433 -0.003681 0.000000 -0.001488 0.000000
# 3 0.001239 -0.003681 0.012198 0.000000 -0.005792 0.000000
# 4 0.000000 0.000000 0.000000 0.088067 0.000000 0.006804
# 5 -0.004622 -0.001488 -0.005792 0.000000 0.034149 0.000000
# 6 0.000000 0.000000 0.000000 0.006804 0.000000 0.027033
#
#
# Mechanical properties :
#
#
# Convention : Reuss Voigt Hill
#
# Bulk Modulus (GPa) = 31.24718 46.45653 38.85185
# Shear Modulus (GPa) = 22.25398 29.57301 25.91349
#
# Velocity S-wave (km/s) = 3.16441 3.64785 3.41470
# Velocity P-wave (km/s) = 5.23560 6.21661 5.74707
#
# Compressibility (1/GPa) = 0.03200289
#
# Stress axis : x y z
#
# Youngs Moduli (GPa) = 40.39960 87.46681 81.98367
#
# Poissons Ratio (x) = 0.50281 -0.10159
# Poissons Ratio (y) = 0.23224 0.30176
# Poissons Ratio (z) = -0.05006 0.32194
#
# Static dielectric constant tensor:
#      x y z
#    x 1.974190 0.000000 0.018720 
#    y 0.000000 1.853420 0.000000 
#    z 0.018720 0.000000 1.817660 
# 
# From -- ./inp_files/40978.got.cif
#   From: 2010.05.17/outbox.cif.g08.bks.cpg/sg5_21_cif.got.tgz:40978.got - 2010.06.03 18:56:24.
