data_PCOD9127200
_publ_section_title
;
Structure prediction by ZEFSAII (Michael W. Deem and Ramdas Pophale) SiO2 
 PCOD9127200
Probable space group: C 2
;
_chemical_formula_sum "Si O2"
_cell_formula_units_Z 30
_cell_length_a 12.555214
_cell_length_b 11.465945
_cell_length_c 21.248866
_cell_angle_alpha 90.000000
_cell_angle_beta 26.118555
_cell_angle_gamma 90.000000
_cell_volume 1346.633258
_symmetry_space_group_name_H-M "C 2"
_symmetry_group_IT_number 5
_symmetry_cell_setting 'monoclinic'
loop_
_space_group_symop_operation_xyz
x,y,z
-x,y,-z
1/2+x,1/2+y,z
1/2-x,1/2+y,-z
loop_
_atom_site_type_symbol
_atom_site_label
_atom_site_fract_x
_atom_site_fract_y
_atom_site_fract_z
Si Si1 0.485851 0.030800 0.164925
Si Si2 0.686227 0.580267 0.117174
Si Si3 0.970023 0.880021 0.319308
Si Si4 0.060233 0.997439 0.535482
Si Si5 0.808770 0.990830 0.226684
Si Si6 0.166967 0.842635 0.968781
Si Si7 0.439336 0.132647 0.749521
Si Si8 0.500000 0.899161 0.500000
O O1 0.598775 0.121701 0.155154
O O2 0.201253 0.053716 0.312082
O O3 0.588688 0.912619 0.143024
O O4 0.584016 0.030640 0.042331
O O5 0.589208 0.492620 0.222164
O O6 0.481145 0.579195 0.172254
O O7 0.754675 0.713374 0.093033
O O8 0.122986 0.762630 0.239240
O O9 0.892993 0.913583 0.430612
O O10 0.740973 0.840239 0.398200
O O11 0.283982 0.085737 0.408767
O O12 0.000000 0.938172 0.500000
O O13 0.712515 0.046250 0.213939
O O14 0.591545 0.968339 0.390239
O O15 0.977021 0.875512 0.125838
O O16 0.000000 0.884341 0.000000
#
# Coordination Sequence:
#
# PCOD9127200 Si02
#       8
#     4   4   4   4   4   4   4   2
#     4  10  24  43  67 101 137 182 238 277 356 412
#     4  10  26  42  67 102 136 182 233 286 351 411
#     4  11  25  44  69 106 142 185 231 293 352 417
#     4  10  24  47  66 104 138 182 233 284 355 416
#     4  10  22  46  67 102 136 183 233 282 356 411
#     4  11  23  44  70  94 136 186 230 292 338 421
#     4  11  23  45  72 101 142 183 230 293 345 426
#     4  10  22  44  68  98 144 178 240 270 350 430
#
# _framework density 22.277781999999998
#
# number of rings (size 3 to 8) (size 9 to 14) (size 15 to 20)
#    0.000    1.600    2.667    0.000   12.133    0.000 
#    6.000    2.667    0.000    0.000    0.000    0.000 
#    0.000    0.000    0.000    0.000    0.000    0.000 
#
# Total GULP energy -83520.393621 kJ/mol
# GULP energy per Si atom -5568.026241 kJ/mol
# Density = 2.222708 g / cm^3
# Si number density = 22.277782 Si / 1000 Ang^3
#
#
#
# Elastic Constant Matrix: (Units=GPa)
#
#
# Indices 1 2 3 4 5 6 
#
# 1 95.3360 23.6124 20.5245 -0.0039 2.5172 0.0022
# 2 23.6124 120.7149 32.3856 0.0036 7.9563 -0.0048
# 3 20.5245 32.3856 83.5508 -0.0088 1.7104 0.0015
# 4 -0.0039 0.0036 -0.0088 15.1115 0.0118 2.0642
# 5 2.5172 7.9563 1.7104 0.0118 37.7613 -0.0109
# 6 0.0022 -0.0048 0.0015 2.0642 -0.0109 23.5994
#
#
#
# Elastic Compliance Matrix: (Units=1/GPa)
#
#
# Indices 1 2 3 4 5 6 
#
# 1 0.011364 -0.001624 -0.002156 0.000003 -0.000318 -0.000002
# 2 -0.001624 0.009599 -0.003286 -0.000003 -0.001766 0.000002
# 3 -0.002156 -0.003286 0.013768 0.000008 0.000212 -0.000002
# 4 0.000003 -0.000003 0.000008 0.066975 -0.000022 -0.005858
# 5 -0.000318 -0.001766 0.000212 -0.000022 0.026866 0.000014
# 6 -0.000002 0.000002 -0.000002 -0.005858 0.000014 0.042886
#
#
# Mechanical properties :
#
#
# Convention : Reuss Voigt Hill
#
# Bulk Modulus (GPa) = 48.54242 50.29408 49.41825
# Shear Modulus (GPa) = 25.98004 30.16637 28.07320
#
# Velocity S-wave (km/s) = 3.41865 3.68380 3.55370
# Velocity P-wave (km/s) = 6.11717 6.38113 6.25054
#
# Compressibility (1/GPa) = 0.02060054
#
# Stress axis : x y z
#
# Youngs Moduli (GPa) = 87.99866 104.17234 72.63396
#
# Poissons Ratio (x) = 0.16913 0.15658
# Poissons Ratio (y) = 0.14287 0.23867
# Poissons Ratio (z) = 0.18970 0.34230
#
# Static dielectric constant tensor:
#      x y z
#    x 1.848470 0.000000 -0.012290 
#    y 0.000000 1.817950 0.000010 
#    z -0.012290 0.000010 1.923490 
# 
# From -- ./inp_files/65346.got.cif
#   From: 2010.05.17/outbox.cif.g08.bks.cpg/sg5_33_cif.got.tgz:65346.got - 2010.06.03 18:56:24.
