data_PCOD9127191
_publ_section_title
;
Structure prediction by ZEFSAII (Michael W. Deem and Ramdas Pophale) SiO2 
 PCOD9127191
Probable space group: C 2
;
_chemical_formula_sum "Si O2"
_cell_formula_units_Z 26
_cell_length_a 12.884949
_cell_length_b 6.425371
_cell_length_c 27.304194
_cell_angle_alpha 90.000000
_cell_angle_beta 152.998481
_cell_angle_gamma 90.000000
_cell_volume 1026.312539
_symmetry_space_group_name_H-M "C 2"
_symmetry_group_IT_number 5
_symmetry_cell_setting 'monoclinic'
loop_
_space_group_symop_operation_xyz
x,y,z
-x,y,-z
1/2+x,1/2+y,z
1/2-x,1/2+y,-z
loop_
_atom_site_type_symbol
_atom_site_label
_atom_site_fract_x
_atom_site_fract_y
_atom_site_fract_z
Si Si1 0.742168 0.076820 0.556860
Si Si2 0.532515 0.712215 0.589139
Si Si3 0.255851 0.307869 0.348062
Si Si4 0.741028 0.930559 0.056887
Si Si5 0.218027 0.186189 0.142674
Si Si6 0.000000 0.810304 0.000000
Si Si7 0.205506 0.056100 0.237194
O O1 0.892767 0.087545 0.571795
O O2 0.516347 0.219686 0.455599
O O3 0.851772 0.183107 0.651221
O O4 0.643331 0.843621 0.518072
O O5 0.705531 0.554833 0.635081
O O6 0.658609 0.885984 0.674861
O O7 0.147302 0.237268 0.251385
O O8 0.813041 0.839448 0.140957
O O9 0.969293 0.947207 0.121994
O O10 0.535318 0.782792 0.953624
O O11 0.627629 0.154638 0.017026
O O12 0.329394 0.151313 0.242111
O O13 0.179570 0.962932 0.101595
#
# Coordination Sequence:
#
# PCOD9127191 Si02
#       7
#     4   4   4   4   4   2   4
#     4  10  22  44  68  95 129 178 216 267 343 395
#     4  11  23  44  69  97 134 174 224 272 332 404
#     4  10  24  41  65 100 131 172 218 274 330 395
#     4   9  21  41  60  90 130 170 219 277 322 388
#     4   9  21  41  62  90 128 173 219 268 330 384
#     4   8  18  38  64  80 114 184 212 266 328 378
#     4  11  25  37  61 105 127 172 226 267 333 388
#
# _framework density 25.333414000000001
#
# number of rings (size 3 to 8) (size 9 to 14) (size 15 to 20)
#    0.000    2.462    1.538    0.000    2.154   13.538 
#    0.000    0.000    0.000    0.000    0.000    0.000 
#    0.000    0.000    0.000    0.000    0.000    0.000 
#
# Total GULP energy -72653.075220 kJ/mol
# GULP energy per Si atom -5588.698094 kJ/mol
# Density = 2.527575 g / cm^3
# Si number density = 25.333414 Si / 1000 Ang^3
#
#
#
# Elastic Constant Matrix: (Units=GPa)
#
#
# Indices 1 2 3 4 5 6 
#
# 1 109.5578 44.1678 10.8400 -0.0002 -22.4926 0.0001
# 2 44.1678 158.3250 27.0016 -0.0001 -29.1089 0.0002
# 3 10.8400 27.0016 38.5615 -0.0001 -8.6954 -0.0001
# 4 -0.0002 -0.0001 -0.0001 27.3007 -0.0003 -6.9567
# 5 -22.4926 -29.1089 -8.6954 -0.0003 39.4652 0.0000
# 6 0.0001 0.0002 -0.0001 -6.9567 0.0000 36.8188
#
#
#
# Elastic Compliance Matrix: (Units=1/GPa)
#
#
# Indices 1 2 3 4 5 6 
#
# 1 0.010978 -0.002127 -0.000568 0.000000 0.004563 0.000000
# 2 -0.002127 0.008394 -0.004374 0.000000 0.004015 0.000000
# 3 -0.000568 -0.004374 0.029837 0.000000 0.003024 0.000000
# 4 0.000000 0.000000 0.000000 0.038482 0.000000 0.007271
# 5 0.004563 0.004015 0.003024 0.000000 0.031567 0.000000
# 6 0.000000 0.000000 0.000000 0.007271 0.000000 0.028534
#
#
# Mechanical properties :
#
#
# Convention : Reuss Voigt Hill
#
# Bulk Modulus (GPa) = 28.51356 52.27370 40.39363
# Shear Modulus (GPa) = 28.79863 35.67927 32.23895
#
# Velocity S-wave (km/s) = 3.37528 3.75692 3.57120
# Velocity P-wave (km/s) = 5.14488 6.28477 5.74318
#
# Compressibility (1/GPa) = 0.03507103
#
# Stress axis : x y z
#
# Youngs Moduli (GPa) = 91.09142 119.13827 33.51540
#
# Poissons Ratio (x) = 0.25338 0.01903
# Poissons Ratio (y) = 0.19373 0.14660
# Poissons Ratio (z) = 0.05173 0.52113
#
# Static dielectric constant tensor:
#      x y z
#    x 1.999110 0.000000 -0.045420 
#    y 0.000000 2.003940 0.000000 
#    z -0.045420 0.000000 2.086920 
# 
# From -- ./inp_files/71859.got.cif
#   From: 2010.05.17/outbox.cif.g08.bks.cpg/sg5_36_cif.got.tgz:71859.got - 2010.06.03 18:56:24.
