data_PCOD9127111
_publ_section_title
;
Structure prediction by ZEFSAII (Michael W. Deem and Ramdas Pophale) SiO2 
 PCOD9127111
Probable space group: C 2
;
_chemical_formula_sum "Si O2"
_cell_formula_units_Z 28
_cell_length_a 28.349356
_cell_length_b 5.460026
_cell_length_c 9.628089
_cell_angle_alpha 90.000000
_cell_angle_beta 54.822044
_cell_angle_gamma 90.000000
_cell_volume 1218.133535
_symmetry_space_group_name_H-M "C 2"
_symmetry_group_IT_number 5
_symmetry_cell_setting 'monoclinic'
loop_
_space_group_symop_operation_xyz
x,y,z
-x,y,-z
1/2+x,1/2+y,z
1/2-x,1/2+y,-z
loop_
_atom_site_type_symbol
_atom_site_label
_atom_site_fract_x
_atom_site_fract_y
_atom_site_fract_z
Si Si1 0.555597 0.736990 0.998426
Si Si2 0.111606 0.529896 0.235570
Si Si3 0.666690 0.629812 0.247872
Si Si4 0.376184 0.235113 0.178154
Si Si5 0.706748 0.277407 0.929397
Si Si6 0.482422 0.431183 0.687030
Si Si7 0.391131 0.277602 0.462105
O O1 0.535250 0.657830 0.186309
O O2 0.500000 0.790704 0.000000
O O3 0.584800 0.482481 0.896539
O O4 0.594753 0.981021 0.925501
O O5 0.109827 0.245040 0.272609
O O6 0.065336 0.712716 0.246622
O O7 0.118661 0.617851 0.383244
O O8 0.171685 0.542998 0.048493
O O9 0.725000 0.767514 0.192258
O O10 0.642625 0.517756 0.430937
O O11 0.689178 0.461285 0.082726
O O12 0.322177 0.306419 0.172113
O O13 0.366874 0.188891 0.357292
O O14 0.500000 0.491458 0.500000
O O15 0.540109 0.319851 0.661260
#
# Coordination Sequence:
#
# PCOD9127111 Si02
#       7
#     4   4   4   4   4   4   4
#     4  12  26  47  74 106 155 205 250 314 390 460
#     4  10  22  43  74 107 145 194 253 311 385 447
#     4  11  24  48  74 107 152 202 256 331 384 455
#     4  12  28  47  73 113 149 201 261 314 382 470
#     4  11  24  44  75 108 145 195 262 315 379 453
#     4  10  22  47  71 112 151 194 254 316 385 466
#     4  10  25  47  67 109 152 197 249 314 389 457
#
# _framework density 22.985986
#
# number of rings (size 3 to 8) (size 9 to 14) (size 15 to 20)
#    0.000    1.143    4.286    0.429    4.000    0.000 
#    5.143    4.286    0.000    0.000    0.000    0.000 
#    0.000    0.000    0.000    0.000    0.000    0.000 
#
# Total GULP energy -78042.322077 kJ/mol
# GULP energy per Si atom -5574.451577 kJ/mol
# Density = 2.293367 g / cm^3
# Si number density = 22.985986 Si / 1000 Ang^3
#
#
#
# Elastic Constant Matrix: (Units=GPa)
#
#
# Indices 1 2 3 4 5 6 
#
# 1 176.2143 31.9497 50.9073 0.0000 15.8670 0.0000
# 2 31.9497 80.4477 21.1975 0.0000 -12.4206 0.0000
# 3 50.9073 21.1975 93.3683 0.0000 19.7756 0.0000
# 4 0.0000 0.0000 0.0000 9.0576 0.0000 9.2294
# 5 15.8670 -12.4206 19.7756 0.0000 48.2631 0.0000
# 6 0.0000 0.0000 0.0000 9.2294 0.0000 25.6387
#
#
#
# Elastic Compliance Matrix: (Units=1/GPa)
#
#
# Indices 1 2 3 4 5 6 
#
# 1 0.007110 -0.002297 -0.002994 0.000000 -0.001702 0.000000
# 2 -0.002297 0.015204 -0.003491 0.000000 0.006098 0.000000
# 3 -0.002994 -0.003491 0.014364 0.000000 -0.005799 0.000000
# 4 0.000000 0.000000 0.000000 0.174360 0.000000 -0.062766
# 5 -0.001702 0.006098 -0.005799 0.000000 0.025225 0.000000
# 6 0.000000 0.000000 0.000000 -0.062766 0.000000 0.061598
#
#
# Mechanical properties :
#
#
# Convention : Reuss Voigt Hill
#
# Bulk Modulus (GPa) = 52.32220 62.01548 57.16884
# Shear Modulus (GPa) = 15.53774 32.99026 24.26400
#
# Velocity S-wave (km/s) = 2.60275 3.79256 3.25252
# Velocity P-wave (km/s) = 5.64309 6.79825 6.24743
#
# Compressibility (1/GPa) = 0.01911235
#
# Stress axis : x y z
#
# Youngs Moduli (GPa) = 140.65182 65.77116 69.61925
#
# Poissons Ratio (x) = 0.15110 0.20847
# Poissons Ratio (y) = 0.32312 0.24304
# Poissons Ratio (z) = 0.42118 0.22960
#
# Static dielectric constant tensor:
#      x y z
#    x 1.884150 0.000000 0.009470 
#    y 0.000000 2.135690 0.000000 
#    z 0.009470 0.000000 1.847900 
# 
# From -- ./inp_files/32233.got.cif
#   From: 2010.05.17/outbox.cif.g08.bks.cpg/sg5_17_cif.got.tgz:32233.got - 2010.06.03 18:56:24.
