data_PCOD9127278
_publ_section_title
;
Structure prediction by ZEFSAII (Michael W. Deem and Ramdas Pophale) SiO2 
 PCOD9127278
Probable space group: C 2
;
_chemical_formula_sum "Si O2"
_cell_formula_units_Z 20
_cell_length_a 7.434964
_cell_length_b 17.983772
_cell_length_c 6.942973
_cell_angle_alpha 90.000000
_cell_angle_beta 61.972367
_cell_angle_gamma 90.000000
_cell_volume 819.461638
_symmetry_space_group_name_H-M "C 2"
_symmetry_group_IT_number 5
_symmetry_cell_setting 'monoclinic'
loop_
_space_group_symop_operation_xyz
x,y,z
-x,y,-z
1/2+x,1/2+y,z
1/2-x,1/2+y,-z
loop_
_atom_site_type_symbol
_atom_site_label
_atom_site_fract_x
_atom_site_fract_y
_atom_site_fract_z
Si Si1 0.070139 0.830800 0.753305
Si Si2 0.727990 0.052628 0.940715
Si Si3 0.184958 0.087338 0.659957
Si Si4 0.224302 0.445364 0.625342
Si Si5 0.500000 0.215243 0.500000
Si Si6 0.000000 0.338781 0.500000
O O1 0.439404 0.591417 0.763918
O O2 0.939377 0.770867 0.704252
O O3 0.296310 0.795090 0.644012
O O4 0.000000 0.581882 0.000000
O O5 0.692180 0.162464 0.436514
O O6 0.735260 0.969596 0.842168
O O7 0.757020 0.057974 0.155323
O O8 0.273078 0.026157 0.471325
O O9 0.000000 0.849201 0.000000
O O10 0.385768 0.401266 0.406451
O O11 0.033672 0.393902 0.665660
#
# Coordination Sequence:
#
# PCOD9127278 Si02
#       6
#     4   4   4   4   2   2
#     4  10  26  49  77 105 161 205 256 319 399 460
#     4  11  24  44  74 114 156 203 249 327 398 445
#     4  11  26  44  72 115 155 197 271 312 379 483
#     4  10  22  44  74 112 151 198 258 327 381 454
#     4  12  27  52  70 113 166 206 254 328 393 476
#     4   8  21  46  70 113 146 188 274 318 355 492
#
# _framework density 24.406268000000001
#
# number of rings (size 3 to 8) (size 9 to 14) (size 15 to 20)
#    1.200    0.400    0.000    3.600    5.600    2.400 
#   14.400    0.000    0.000    0.000    0.000    0.000 
#    0.000    0.000    0.000    0.000    0.000    0.000 
#
# Total GULP energy -55733.573297 kJ/mol
# GULP energy per Si atom -5573.357330 kJ/mol
# Density = 2.435072 g / cm^3
# Si number density = 24.406268 Si / 1000 Ang^3
#
#
#
# Elastic Constant Matrix: (Units=GPa)
#
#
# Indices 1 2 3 4 5 6 
#
# 1 137.5382 25.6108 22.9273 0.0000 -9.5686 0.0000
# 2 25.6108 112.9432 42.6908 0.0000 11.0649 0.0000
# 3 22.9273 42.6908 125.8359 0.0000 16.8260 0.0000
# 4 0.0000 0.0000 0.0000 -1.1031 0.0000 20.2800
# 5 -9.5686 11.0649 16.8260 0.0000 43.0586 0.0000
# 6 0.0000 0.0000 0.0000 20.2800 0.0000 31.5354
#
#
#
# Elastic Compliance Matrix: (Units=1/GPa)
#
#
# Indices 1 2 3 4 5 6 
#
# 1 0.007964 -0.001588 -0.001270 0.000000 0.002674 0.000000
# 2 -0.001588 0.010546 -0.003038 0.000000 -0.001876 0.000000
# 3 -0.001270 -0.003038 0.009646 0.000000 -0.003271 0.000000
# 4 0.000000 0.000000 0.000000 -0.070697 0.000000 0.045464
# 5 0.002674 -0.001876 -0.003271 0.000000 0.025579 0.000000
# 6 0.000000 0.000000 0.000000 0.045464 0.000000 0.002473
#
#
# Mechanical properties :
#
#
# Convention : Reuss Voigt Hill
#
# Bulk Modulus (GPa) = 61.10472 62.08611 61.59541
# Shear Modulus (GPa) = 1813.51500 33.70409 923.60955
#
# Velocity S-wave (km/s) = 27.28857 3.72016 19.47441
# Velocity P-wave (km/s) = 31.90578 6.62922 23.04263
#
# Compressibility (1/GPa) = 0.01636535
#
# Stress axis : x y z
#
# Youngs Moduli (GPa) = 125.56322 94.82220 103.66806
#
# Poissons Ratio (x) = 0.15057 0.13165
# Poissons Ratio (y) = 0.19938 0.31491
# Poissons Ratio (z) = 0.15946 0.28804
#
# Static dielectric constant tensor:
#      x y z
#    x 2.398370 0.000000 0.071150 
#    y 0.000000 1.904870 0.000000 
#    z 0.071150 0.000000 2.040660 
# 
# From -- ./inp_files/2877.got.cif
#   From: 2010.05.17/outbox.cif.g08.bks.cpg/sg5_2_cif.got.tgz:2877.got - 2010.06.03 18:56:24.
