data_PCOD9127687
_publ_section_title
;
Structure prediction by ZEFSAII (Michael W. Deem and Ramdas Pophale) SiO2 
 PCOD9127687
Probable space group: C 2
;
_chemical_formula_sum "Si O2"
_cell_formula_units_Z 24
_cell_length_a 17.710130
_cell_length_b 11.628231
_cell_length_c 5.102432
_cell_angle_alpha 90.000000
_cell_angle_beta 73.644003
_cell_angle_gamma 90.000000
_cell_volume 1008.257410
_symmetry_space_group_name_H-M "C 2"
_symmetry_group_IT_number 5
_symmetry_cell_setting 'monoclinic'
loop_
_space_group_symop_operation_xyz
x,y,z
-x,y,-z
1/2+x,1/2+y,z
1/2-x,1/2+y,-z
loop_
_atom_site_type_symbol
_atom_site_label
_atom_site_fract_x
_atom_site_fract_y
_atom_site_fract_z
Si Si1 0.311420 0.404260 0.323614
Si Si2 0.359864 0.047097 0.233254
Si Si3 0.755899 0.591089 0.856429
Si Si4 0.840756 0.293923 0.262932
Si Si5 0.056065 0.090089 0.690206
Si Si6 0.047160 0.744490 0.713529
O O1 0.291199 0.469227 0.067399
O O2 0.230357 0.344691 0.494074
O O3 0.367133 0.506910 0.389646
O O4 0.368876 0.300122 0.331161
O O5 0.297631 0.068007 0.533712
O O6 0.437279 0.109971 0.259702
O O7 0.374898 0.915439 0.134874
O O8 0.320705 0.104161 0.015353
O O9 0.699584 0.701758 0.895460
O O10 0.906430 0.217805 0.341831
O O11 0.000000 0.069962 0.500000
O O12 0.000000 0.075153 0.000000
O O13 0.000000 0.768424 0.500000
O O14 0.000000 0.794892 0.000000
#
# Coordination Sequence:
#
# PCOD9127687 Si02
#       6
#     4   4   4   4   4   4
#     4  10  23  44  73 104 139 187 243 295 352 435
#     4  11  24  41  64  98 138 175 234 284 350 418
#     4  10  23  41  67 101 130 173 233 299 341 411
#     4  10  24  44  76 101 141 189 242 293 354 437
#     4  11  26  48  71 107 149 191 240 303 372 430
#     4  12  26  42  65  96 142 185 226 288 359 422
#
# _framework density 23.803443000000001
#
# number of rings (size 3 to 8) (size 9 to 14) (size 15 to 20)
#    0.000    1.333    1.667    2.000    2.333   13.333 
#    0.000    0.000    0.000    0.000    0.000    0.000 
#    0.000    0.000    0.000    0.000    0.000    0.000 
#
# Total GULP energy -66887.843925 kJ/mol
# GULP energy per Si atom -5573.986994 kJ/mol
# Density = 2.374927 g / cm^3
# Si number density = 23.803443 Si / 1000 Ang^3
#
#
#
# Elastic Constant Matrix: (Units=GPa)
#
#
# Indices 1 2 3 4 5 6 
#
# 1 82.4260 14.6307 36.9784 0.0000 2.8523 0.0000
# 2 14.6307 141.1002 14.0416 0.0000 7.6386 0.0000
# 3 36.9784 14.0416 104.6296 0.0000 18.9771 0.0000
# 4 0.0000 0.0000 0.0000 3.8923 0.0000 3.0431
# 5 2.8523 7.6386 18.9771 0.0000 32.4604 0.0000
# 6 0.0000 0.0000 0.0000 3.0431 0.0000 32.8969
#
#
#
# Elastic Compliance Matrix: (Units=1/GPa)
#
#
# Indices 1 2 3 4 5 6 
#
# 1 0.014690 -0.001099 -0.005433 0.000000 0.002144 0.000000
# 2 -0.001099 0.007312 -0.000334 0.000000 -0.001429 0.000000
# 3 -0.005433 -0.000334 0.012777 0.000000 -0.006913 0.000000
# 4 0.000000 0.000000 0.000000 0.276944 0.000000 -0.025619
# 5 0.002144 -0.001429 -0.006913 0.000000 0.034996 0.000000
# 6 0.000000 0.000000 0.000000 -0.025619 0.000000 0.032768
#
#
# Mechanical properties :
#
#
# Convention : Reuss Voigt Hill
#
# Bulk Modulus (GPa) = 47.51271 51.05082 49.28176
# Shear Modulus (GPa) = 12.49267 31.35026 21.92147
#
# Velocity S-wave (km/s) = 2.29339 3.63305 3.03799
# Velocity P-wave (km/s) = 5.19775 6.25237 5.74929
#
# Compressibility (1/GPa) = 0.02104700
#
# Stress axis : x y z
#
# Youngs Moduli (GPa) = 68.07139 136.76794 78.26852
#
# Poissons Ratio (x) = 0.15026 0.42526
# Poissons Ratio (y) = 0.07479 0.02613
# Poissons Ratio (z) = 0.36986 0.04565
#
# Static dielectric constant tensor:
#      x y z
#    x 2.005870 0.000000 -0.105110 
#    y 0.000000 2.079700 0.000000 
#    z -0.105110 0.000000 1.938930 
# 
# From -- ./inp_files/8285.got.cif
#   From: 2010.05.17/outbox.cif.g08.bks.cpg/sg5_5_cif.got.tgz:8285.got - 2010.06.03 18:56:24.
