data_PCOD9127996
_publ_section_title
;
Structure prediction by ZEFSAII (Michael W. Deem and Ramdas Pophale) SiO2 
 PCOD9127996
Probable space group: C 2
;
_chemical_formula_sum "Si O2"
_cell_formula_units_Z 20
_cell_length_a 22.535992
_cell_length_b 5.260494
_cell_length_c 7.430124
_cell_angle_alpha 90.000000
_cell_angle_beta 114.609107
_cell_angle_gamma 90.000000
_cell_volume 800.837378
_symmetry_space_group_name_H-M "C 2"
_symmetry_group_IT_number 5
_symmetry_cell_setting 'monoclinic'
loop_
_space_group_symop_operation_xyz
x,y,z
-x,y,-z
1/2+x,1/2+y,z
1/2-x,1/2+y,-z
loop_
_atom_site_type_symbol
_atom_site_label
_atom_site_fract_x
_atom_site_fract_y
_atom_site_fract_z
Si Si1 0.387784 0.681800 0.256079
Si Si2 0.091595 0.783934 0.245726
Si Si3 0.814066 0.159505 0.814114
Si Si4 0.050754 0.668144 0.806335
Si Si5 0.310484 0.923208 0.456773
O O1 0.411534 0.397229 0.245380
O O2 0.356061 0.725167 0.409099
O O3 0.441666 0.900979 0.286180
O O4 0.332950 0.742010 0.035605
O O5 0.143378 0.662836 0.445978
O O6 0.021838 0.776195 0.253572
O O7 0.121296 0.038509 0.196532
O O8 0.079975 0.625903 0.044811
O O9 0.789483 0.354080 0.632787
O O10 0.754266 0.963694 0.740695
#
# Coordination Sequence:
#
# PCOD9127996 Si02
#       5
#     4   4   4   4   4
#     4  11  27  46  72 105 144 184 241 299 360 419
#     4  10  23  44  74  99 143 193 235 292 363 423
#     4  11  25  46  70 103 145 188 244 296 359 429
#     4  10  24  47  72 104 144 189 235 298 356 428
#     4  12  25  44  75 101 143 193 239 298 359 430
#
# _framework density 24.973859999999998
#
# number of rings (size 3 to 8) (size 9 to 14) (size 15 to 20)
#    0.000    1.200    4.000    0.000    5.600    7.200 
#    0.000    0.000    0.000    0.000    0.000    0.000 
#    0.000    0.000    0.000    0.000    0.000    0.000 
#
# Total GULP energy -55919.776481 kJ/mol
# GULP energy per Si atom -5591.977648 kJ/mol
# Density = 2.491702 g / cm^3
# Si number density = 24.973860 Si / 1000 Ang^3
#
#
#
# Elastic Constant Matrix: (Units=GPa)
#
#
# Indices 1 2 3 4 5 6 
#
# 1 87.2410 20.6255 32.5246 0.0000 -5.8579 0.0000
# 2 20.6255 76.2520 10.7095 0.0000 -9.2322 0.0000
# 3 32.5246 10.7095 103.3015 0.0000 -6.5538 0.0000
# 4 0.0000 0.0000 0.0000 28.6495 0.0000 -6.2773
# 5 -5.8579 -9.2322 -6.5538 0.0000 42.9776 0.0000
# 6 0.0000 0.0000 0.0000 -6.2773 0.0000 26.1267
#
#
#
# Elastic Compliance Matrix: (Units=1/GPa)
#
#
# Indices 1 2 3 4 5 6 
#
# 1 0.013706 -0.003079 -0.003958 0.000000 0.000603 0.000000
# 2 -0.003079 0.014311 -0.000349 0.000000 0.002601 0.000000
# 3 -0.003958 -0.000349 0.011031 0.000000 0.001068 0.000000
# 4 0.000000 0.000000 0.000000 0.036844 0.000000 0.008852
# 5 0.000603 0.002601 0.001068 0.000000 0.024072 0.000000
# 6 0.000000 0.000000 0.000000 0.008852 0.000000 0.040402
#
#
# Mechanical properties :
#
#
# Convention : Reuss Voigt Hill
#
# Bulk Modulus (GPa) = 41.19247 43.83485 42.51366
# Shear Modulus (GPa) = 30.63161 33.07976 31.85569
#
# Velocity S-wave (km/s) = 3.50601 3.64342 3.57537
# Velocity P-wave (km/s) = 5.73755 5.94052 5.83992
#
# Compressibility (1/GPa) = 0.02427628
#
# Stress axis : x y z
#
# Youngs Moduli (GPa) = 72.95832 69.87554 90.65731
#
# Poissons Ratio (x) = 0.21511 0.35883
# Poissons Ratio (y) = 0.22460 0.03167
# Poissons Ratio (z) = 0.28877 0.02441
#
# Static dielectric constant tensor:
#      x y z
#    x 1.963920 0.000000 0.038790 
#    y 0.000000 2.046420 0.000000 
#    z 0.038790 0.000000 1.970300 
# 
# From -- ./inp_files/28371.got.cif
#   From: 2010.05.17/outbox.cif.g08.bks.cpg/sg5_15_cif.got.tgz:28371.got - 2010.06.03 18:56:24.
