data_PCOD9127995
_publ_section_title
;
Structure prediction by ZEFSAII (Michael W. Deem and Ramdas Pophale) SiO2 
 PCOD9127995
Probable space group: C 2
;
_chemical_formula_sum "Si O2"
_cell_formula_units_Z 24
_cell_length_a 13.444488
_cell_length_b 14.001235
_cell_length_c 9.481384
_cell_angle_alpha 90.000000
_cell_angle_beta 38.178096
_cell_angle_gamma 90.000000
_cell_volume 1103.180704
_symmetry_space_group_name_H-M "C 2"
_symmetry_group_IT_number 5
_symmetry_cell_setting 'monoclinic'
loop_
_space_group_symop_operation_xyz
x,y,z
-x,y,-z
1/2+x,1/2+y,z
1/2-x,1/2+y,-z
loop_
_atom_site_type_symbol
_atom_site_label
_atom_site_fract_x
_atom_site_fract_y
_atom_site_fract_z
Si Si1 0.664848 0.016250 0.400135
Si Si2 0.693634 0.783609 0.678985
Si Si3 0.858495 0.165336 0.022184
Si Si4 0.325238 0.649065 0.734885
Si Si5 0.830356 0.819817 0.235565
Si Si6 0.845442 0.510070 0.260360
O O1 0.500000 0.037231 0.500000
O O2 0.814193 0.071474 0.162206
O O3 0.654083 0.043007 0.577776
O O4 0.700117 0.903146 0.359079
O O5 0.745101 0.743430 0.774009
O O6 0.815232 0.782712 0.412955
O O7 0.653534 0.895203 0.739373
O O8 0.535850 0.716973 0.819042
O O9 0.813958 0.137867 0.913920
O O10 0.500000 0.688030 0.500000
O O11 0.201572 0.729370 0.825622
O O12 0.299309 0.555520 0.667751
O O13 0.000000 0.861331 0.000000
O O14 0.000000 0.541986 0.000000
#
# Coordination Sequence:
#
# PCOD9127995 Si02
#       6
#     4   4   4   4   4   4
#     4  11  26  43  73 109 149 193 249 305 374 436
#     4  10  23  44  74  98 145 197 240 296 368 426
#     4  11  23  42  73 101 140 196 240 297 362 440
#     4  12  25  41  70 106 148 188 248 297 369 435
#     4  11  25  45  71 107 146 196 247 309 365 440
#     4  11  23  44  71 105 146 197 239 303 362 439
#
# _framework density 21.755277
#
# number of rings (size 3 to 8) (size 9 to 14) (size 15 to 20)
#    0.000    1.000    3.333    3.000    7.000    4.000 
#    0.000    0.833    0.000    0.000    0.000    0.000 
#    0.000    0.000    0.000    0.000    0.000    0.000 
#
# Total GULP energy -66945.757083 kJ/mol
# GULP energy per Si atom -5578.813090 kJ/mol
# Density = 2.170576 g / cm^3
# Si number density = 21.755277 Si / 1000 Ang^3
#
#
#
# Elastic Constant Matrix: (Units=GPa)
#
#
# Indices 1 2 3 4 5 6 
#
# 1 107.2174 42.9594 58.5396 0.0000 32.8817 0.0000
# 2 42.9594 107.5875 30.0463 0.0000 13.0672 0.0000
# 3 58.5396 30.0463 143.8531 0.0000 43.8702 0.0000
# 4 0.0000 0.0000 0.0000 18.6928 0.0000 -2.7750
# 5 32.8817 13.0672 43.8702 0.0000 51.2785 0.0000
# 6 0.0000 0.0000 0.0000 -2.7750 0.0000 23.9148
#
#
#
# Elastic Compliance Matrix: (Units=1/GPa)
#
#
# Indices 1 2 3 4 5 6 
#
# 1 0.014494 -0.004192 -0.003401 0.000000 -0.005316 0.000000
# 2 -0.004192 0.011122 -0.000775 0.000000 0.000517 0.000000
# 3 -0.003401 -0.000775 0.010516 0.000000 -0.006618 0.000000
# 4 0.000000 0.000000 0.000000 0.054434 0.000000 0.006316
# 5 -0.005316 0.000517 -0.006618 0.000000 0.028440 0.000000
# 6 0.000000 0.000000 0.000000 0.006316 0.000000 0.042548
#
#
# Mechanical properties :
#
#
# Convention : Reuss Voigt Hill
#
# Bulk Modulus (GPa) = 51.55775 69.08318 60.32046
# Shear Modulus (GPa) = 27.06278 33.91807 30.49043
#
# Velocity S-wave (km/s) = 3.53081 3.95279 3.74775
# Velocity P-wave (km/s) = 6.35394 7.25647 6.82015
#
# Compressibility (1/GPa) = 0.01939573
#
# Stress axis : x y z
#
# Youngs Moduli (GPa) = 68.99506 89.91055 95.09482
#
# Poissons Ratio (x) = 0.37688 0.32346
# Poissons Ratio (y) = 0.28921 0.07368
# Poissons Ratio (z) = 0.23468 0.06966
#
# Static dielectric constant tensor:
#      x y z
#    x 1.913780 0.000000 -0.072590 
#    y 0.000000 1.779990 0.000000 
#    z -0.072590 0.000000 1.855550 
# 
# From -- ./inp_files/24505.got.cif
#   From: 2010.05.17/outbox.cif.g08.bks.cpg/sg5_13_cif.got.tgz:24505.got - 2010.06.03 18:56:24.
