data_PCOD9127434
_publ_section_title
;
Structure prediction by ZEFSAII (Michael W. Deem and Ramdas Pophale) SiO2 
 PCOD9127434
Probable space group: C 2
;
_chemical_formula_sum "Si O2"
_cell_formula_units_Z 32
_cell_length_a 10.886265
_cell_length_b 10.191576
_cell_length_c 22.531012
_cell_angle_alpha 90.000000
_cell_angle_beta 145.593814
_cell_angle_gamma 90.000000
_cell_volume 1412.513164
_symmetry_space_group_name_H-M "C 2"
_symmetry_group_IT_number 5
_symmetry_cell_setting 'monoclinic'
loop_
_space_group_symop_operation_xyz
x,y,z
-x,y,-z
1/2+x,1/2+y,z
1/2-x,1/2+y,-z
loop_
_atom_site_type_symbol
_atom_site_label
_atom_site_fract_x
_atom_site_fract_y
_atom_site_fract_z
Si Si1 0.133621 0.850610 0.183898
Si Si2 0.627417 0.196027 0.607458
Si Si3 0.526575 0.979773 0.850047
Si Si4 0.629149 0.720800 0.824342
Si Si5 0.190517 0.110938 0.126007
Si Si6 0.175910 0.389296 0.616517
Si Si7 0.616260 0.341310 0.722244
Si Si8 0.788267 0.463847 0.951836
O O1 0.200702 0.751393 0.159386
O O2 0.284372 0.832703 0.301815
O O3 0.885500 0.849868 0.106738
O O4 0.156487 0.994304 0.160978
O O5 0.500000 0.247939 0.500000
O O6 0.549007 0.260069 0.637228
O O7 0.883239 0.224861 0.702981
O O8 0.604961 0.039269 0.600280
O O9 0.633037 0.839659 0.873100
O O10 0.273761 0.956375 0.762050
O O11 0.589193 0.074121 0.821531
O O12 0.638666 0.018049 0.955682
O O13 0.676053 0.581692 0.871770
O O14 0.231656 0.244339 0.178085
O O15 0.000000 0.109728 0.000000
O O16 0.408664 0.386479 0.676184
O O17 0.000000 0.331161 0.500000
O O18 0.000000 0.423219 0.000000
#
# Coordination Sequence:
#
# PCOD9127434 Si02
#       8
#     4   4   4   4   4   4   4   4
#     4  11  22  44  65  95 136 168 223 275 315 395
#     4  10  22  46  72  97 131 171 218 279 334 386
#     4  10  24  41  64  96 134 171 224 264 322 390
#     4  10  24  42  70  96 128 181 217 269 336 388
#     4  11  22  43  68  92 135 179 213 267 327 387
#     4  11  24  44  72 100 130 172 218 279 334 386
#     4  11  24  46  66  99 135 169 223 270 327 397
#     4  12  24  39  61  96 135 171 222 260 317 395
#
# _framework density 22.654655999999999
#
# number of rings (size 3 to 8) (size 9 to 14) (size 15 to 20)
#    0.000    1.250    3.750    1.500    3.500    2.500 
#    0.000    0.000    0.000    0.000    0.000    0.000 
#    0.000    0.000    0.000    0.000    0.000    0.000 
#
# Total GULP energy -89583.626662 kJ/mol
# GULP energy per Si atom -5598.976666 kJ/mol
# Density = 2.260309 g / cm^3
# Si number density = 22.654656 Si / 1000 Ang^3
#
#
#
# Elastic Constant Matrix: (Units=GPa)
#
#
# Indices 1 2 3 4 5 6 
#
# 1 145.0104 19.8089 48.3669 0.0000 -10.2451 0.0000
# 2 19.8089 49.1275 16.3023 0.0000 -6.0720 0.0000
# 3 48.3669 16.3023 117.4053 0.0000 -28.1034 0.0000
# 4 0.0000 0.0000 0.0000 13.0271 0.0000 -2.6655
# 5 -10.2451 -6.0720 -28.1034 0.0000 35.2103 0.0000
# 6 0.0000 0.0000 0.0000 -2.6655 0.0000 34.0515
#
#
#
# Elastic Compliance Matrix: (Units=1/GPa)
#
#
# Indices 1 2 3 4 5 6 
#
# 1 0.008244 -0.002329 -0.003208 0.000000 -0.000563 0.000000
# 2 -0.002329 0.022072 -0.001677 0.000000 0.001790 0.000000
# 3 -0.003208 -0.001677 0.012089 0.000000 0.008426 0.000000
# 4 0.000000 0.000000 0.000000 0.078012 0.000000 0.006107
# 5 -0.000563 0.001790 0.008426 0.000000 0.035271 0.000000
# 6 0.000000 0.000000 0.000000 0.006107 0.000000 0.029845
#
#
# Mechanical properties :
#
#
# Convention : Reuss Voigt Hill
#
# Bulk Modulus (GPa) = 35.74276 53.38881 44.56579
# Shear Modulus (GPa) = 23.89057 31.59547 27.74302
#
# Velocity S-wave (km/s) = 3.25091 3.73856 3.50323
# Velocity P-wave (km/s) = 5.46834 6.50026 6.00650
#
# Compressibility (1/GPa) = 0.02797769
#
# Stress axis : x y z
#
# Youngs Moduli (GPa) = 121.29457 45.30612 82.72129
#
# Poissons Ratio (x) = 0.10554 0.26535
# Poissons Ratio (y) = 0.28255 0.13869
# Poissons Ratio (z) = 0.38908 0.07596
#
# Static dielectric constant tensor:
#      x y z
#    x 1.841950 0.000000 -0.002700 
#    y 0.000000 1.851790 0.000000 
#    z -0.002700 0.000000 1.842920 
# 
# From -- ./inp_files/68404.got.cif
#   From: 2010.05.17/outbox.cif.g08.bks.cpg/sg5_35_cif.got.tgz:68404.got - 2010.06.03 18:56:24.
