data_PCOD9127522
_publ_section_title
;
Structure prediction by ZEFSAII (Michael W. Deem and Ramdas Pophale) SiO2 
 PCOD9127522
Probable space group: C 2
;
_chemical_formula_sum "Si O2"
_cell_formula_units_Z 24
_cell_length_a 15.805559
_cell_length_b 8.481368
_cell_length_c 8.084790
_cell_angle_alpha 90.000000
_cell_angle_beta 83.094465
_cell_angle_gamma 90.000000
_cell_volume 1075.926340
_symmetry_space_group_name_H-M "C 2"
_symmetry_group_IT_number 5
_symmetry_cell_setting 'monoclinic'
loop_
_space_group_symop_operation_xyz
x,y,z
-x,y,-z
1/2+x,1/2+y,z
1/2-x,1/2+y,-z
loop_
_atom_site_type_symbol
_atom_site_label
_atom_site_fract_x
_atom_site_fract_y
_atom_site_fract_z
Si Si1 0.096545 0.971190 0.528616
Si Si2 0.884227 0.620643 0.411360
Si Si3 0.549487 0.990237 0.266979
Si Si4 0.192346 0.384865 0.019390
Si Si5 0.778508 0.095542 0.763685
Si Si6 0.441154 0.693889 0.164282
O O1 0.136987 0.798464 0.531975
O O2 0.000000 0.943745 0.500000
O O3 0.142781 0.068241 0.374510
O O4 0.093447 0.066677 0.699734
O O5 0.905347 0.513445 0.566113
O O6 0.805683 0.563268 0.323548
O O7 0.972111 0.614959 0.286111
O O8 0.622550 0.005073 0.112519
O O9 0.501012 0.824158 0.243684
O O10 0.220033 0.268627 0.158992
O O11 0.270421 0.473111 0.916378
O O12 0.138252 0.282318 0.901496
O O13 0.500000 0.630808 0.000000
#
# Coordination Sequence:
#
# PCOD9127522 Si02
#       6
#     4   4   4   4   4   4
#     4  12  27  47  71 108 141 186 246 294 363 425
#     4  11  26  45  72 107 138 189 240 303 355 430
#     4  10  22  48  75  99 139 192 243 288 360 436
#     4  11  27  46  70 108 146 191 238 295 366 425
#     4  12  30  44  73 106 148 194 235 308 353 431
#     4  10  23  46  75 102 138 192 240 292 358 435
#
# _framework density 22.306359
#
# number of rings (size 3 to 8) (size 9 to 14) (size 15 to 20)
#    0.000    1.000    3.333    2.000   16.333    0.000 
#    3.000    0.000    0.000    0.000    0.000    0.000 
#    0.000    0.000    0.000    0.000    0.000    0.000 
#
# Total GULP energy -67118.093376 kJ/mol
# GULP energy per Si atom -5593.174448 kJ/mol
# Density = 2.225559 g / cm^3
# Si number density = 22.306359 Si / 1000 Ang^3
#
#
#
# Elastic Constant Matrix: (Units=GPa)
#
#
# Indices 1 2 3 4 5 6 
#
# 1 40.8868 6.1721 12.1563 0.0000 1.1238 0.0000
# 2 6.1721 39.7163 44.6261 0.0000 -4.0641 0.0000
# 3 12.1563 44.6261 94.4979 0.0000 -16.5910 0.0000
# 4 0.0000 0.0000 0.0000 49.7179 0.0000 -2.2845
# 5 1.1238 -4.0641 -16.5910 0.0000 40.1232 0.0000
# 6 0.0000 0.0000 0.0000 -2.2845 0.0000 22.6732
#
#
#
# Elastic Compliance Matrix: (Units=1/GPa)
#
#
# Indices 1 2 3 4 5 6 
#
# 1 0.025617 -0.000142 -0.003620 0.000000 -0.002229 0.000000
# 2 -0.000142 0.054766 -0.026817 0.000000 -0.005538 0.000000
# 3 -0.003620 -0.026817 0.025073 0.000000 0.007753 0.000000
# 4 0.000000 0.000000 0.000000 0.020207 0.000000 0.002036
# 5 -0.002229 -0.005538 0.007753 0.000000 0.027631 0.000000
# 6 0.000000 0.000000 0.000000 0.002036 0.000000 0.044310
#
#
# Mechanical properties :
#
#
# Convention : Reuss Voigt Hill
#
# Bulk Modulus (GPa) = 22.57390 33.44555 28.00972
# Shear Modulus (GPa) = 18.27976 29.97930 24.12953
#
# Velocity S-wave (km/s) = 2.86577 3.67001 3.29254
# Velocity P-wave (km/s) = 4.59262 5.74325 5.19986
#
# Compressibility (1/GPa) = 0.04429895
#
# Stress axis : x y z
#
# Youngs Moduli (GPa) = 39.03720 18.25951 39.88327
#
# Poissons Ratio (x) = 0.00259 0.14436
# Poissons Ratio (y) = 0.00554 1.06955
# Poissons Ratio (z) = 0.14130 0.48966
#
# Static dielectric constant tensor:
#      x y z
#    x 1.808970 0.000000 -0.010900 
#    y 0.000000 1.823670 0.000000 
#    z -0.010900 0.000000 1.847240 
# 
# From -- ./inp_files/22848.got.cif
#   From: 2010.05.17/outbox.cif.g08.bks.cpg/sg5_12_cif.got.tgz:22848.got - 2010.06.03 18:56:24.
