data_PCOD9127801
_publ_section_title
;
Structure prediction by ZEFSAII (Michael W. Deem and Ramdas Pophale) SiO2 
 PCOD9127801
Probable space group: C 2
;
_chemical_formula_sum "Si O2"
_cell_formula_units_Z 24
_cell_length_a 18.733251
_cell_length_b 5.348407
_cell_length_c 21.106334
_cell_angle_alpha 90.000000
_cell_angle_beta 29.666965
_cell_angle_gamma 90.000000
_cell_volume 1046.691131
_symmetry_space_group_name_H-M "C 2"
_symmetry_group_IT_number 5
_symmetry_cell_setting 'monoclinic'
loop_
_space_group_symop_operation_xyz
x,y,z
-x,y,-z
1/2+x,1/2+y,z
1/2-x,1/2+y,-z
loop_
_atom_site_type_symbol
_atom_site_label
_atom_site_fract_x
_atom_site_fract_y
_atom_site_fract_z
Si Si1 0.543132 0.998800 0.530291
Si Si2 0.715636 0.833731 0.618415
Si Si3 0.200196 0.820624 0.225880
Si Si4 0.922608 0.999041 0.992059
Si Si5 0.925433 0.500987 0.156860
Si Si6 0.041680 0.117983 0.645233
O O1 0.500000 0.854158 0.500000
O O2 0.541970 0.835899 0.593478
O O3 0.698122 0.126483 0.408471
O O4 0.420075 0.209978 0.633902
O O5 0.584079 0.720542 0.680621
O O6 0.666871 0.033402 0.708072
O O7 0.829852 0.935182 0.478392
O O8 0.320959 0.965850 0.175185
O O9 0.265839 0.592928 0.134289
O O10 0.112107 0.989449 0.244828
O O11 0.993238 0.234156 0.901021
O O12 0.962238 0.729113 0.934134
O O13 0.000000 0.992868 0.000000
#
# Coordination Sequence:
#
# PCOD9127801 Si02
#       6
#     4   4   4   4   4   4
#     4  11  23  40  68 104 142 178 240 302 354 437
#     4  11  24  43  64 107 140 192 233 286 380 428
#     4  10  24  41  68 105 137 189 242 296 364 422
#     4  10  23  42  69 105 137 183 237 303 354 402
#     4  11  24  41  74 103 141 182 242 298 346 429
#     4  11  25  40  69  98 149 188 228 298 365 447
#
# _framework density 22.929399
#
# number of rings (size 3 to 8) (size 9 to 14) (size 15 to 20)
#    0.000    1.333    3.333    1.500   11.667    0.000 
#    0.000    0.000    3.667    0.000    0.000    0.000 
#    0.000    0.000    0.000    0.000    0.000    0.000 
#
# Total GULP energy -67046.647777 kJ/mol
# GULP energy per Si atom -5587.220648 kJ/mol
# Density = 2.287721 g / cm^3
# Si number density = 22.929399 Si / 1000 Ang^3
#
#
#
# Elastic Constant Matrix: (Units=GPa)
#
#
# Indices 1 2 3 4 5 6 
#
# 1 141.4122 45.9162 37.8750 -0.0159 -4.6858 0.0131
# 2 45.9162 103.2170 27.6108 -0.0309 -0.3522 0.0298
# 3 37.8750 27.6108 75.9850 -0.0134 -3.2623 0.0242
# 4 -0.0159 -0.0309 -0.0134 19.5189 0.0187 -12.9227
# 5 -4.6858 -0.3522 -3.2623 0.0187 16.4236 -0.0220
# 6 0.0131 0.0298 0.0242 -12.9227 -0.0220 28.6227
#
#
#
# Elastic Compliance Matrix: (Units=1/GPa)
#
#
# Indices 1 2 3 4 5 6 
#
# 1 0.009029 -0.003132 -0.003283 0.000001 0.001857 0.000004
# 2 -0.003132 0.011823 -0.002786 0.000013 -0.001194 -0.000004
# 3 -0.003283 -0.002786 0.015902 -0.000004 0.002162 -0.000009
# 4 0.000001 0.000013 -0.000004 0.073076 -0.000039 0.032992
# 5 0.001857 -0.001194 0.002162 -0.000039 0.061822 0.000028
# 6 0.000004 -0.000004 -0.000009 0.032992 0.000028 0.049833
#
#
# Mechanical properties :
#
#
# Convention : Reuss Voigt Hill
#
# Bulk Modulus (GPa) = 54.48985 60.37981 57.43483
# Shear Modulus (GPa) = 20.32485 26.86052 23.59269
#
# Velocity S-wave (km/s) = 2.98049 3.42635 3.21117
# Velocity P-wave (km/s) = 5.97162 6.48408 6.23312
#
# Compressibility (1/GPa) = 0.01835204
#
# Stress axis : x y z
#
# Youngs Moduli (GPa) = 110.75016 84.58159 62.88500
#
# Poissons Ratio (x) = 0.26493 0.20644
# Poissons Ratio (y) = 0.34689 0.17520
# Poissons Ratio (z) = 0.36357 0.23565
#
# Static dielectric constant tensor:
#      x y z
#    x 1.800300 0.000000 -0.048260 
#    y 0.000000 1.933540 0.000010 
#    z -0.048260 0.000010 2.005070 
# 
# From -- ./inp_files/66905.got.cif
#   From: 2010.05.17/outbox.cif.g08.bks.cpg/sg5_34_cif.got.tgz:66905.got - 2010.06.03 18:56:24.
