data_PCOD9127589
_publ_section_title
;
Structure prediction by ZEFSAII (Michael W. Deem and Ramdas Pophale) SiO2 
 PCOD9127589
Probable space group: C 2
;
_chemical_formula_sum "Si O2"
_cell_formula_units_Z 28
_cell_length_a 17.597802
_cell_length_b 13.630454
_cell_length_c 5.262334
_cell_angle_alpha 90.000000
_cell_angle_beta 71.451735
_cell_angle_gamma 90.000000
_cell_volume 1196.688620
_symmetry_space_group_name_H-M "C 2"
_symmetry_group_IT_number 5
_symmetry_cell_setting 'monoclinic'
loop_
_space_group_symop_operation_xyz
x,y,z
-x,y,-z
1/2+x,1/2+y,z
1/2-x,1/2+y,-z
loop_
_atom_site_type_symbol
_atom_site_label
_atom_site_fract_x
_atom_site_fract_y
_atom_site_fract_z
Si Si1 0.120664 0.566990 0.862113
Si Si2 0.293603 0.185251 0.877208
Si Si3 0.909621 0.343707 0.098983
Si Si4 0.950682 0.972724 0.290588
Si Si5 0.222860 0.030379 0.626507
Si Si6 0.923823 0.754915 0.397916
Si Si7 0.697279 0.827842 0.295575
O O1 0.137564 0.605764 0.126100
O O2 0.082640 0.461550 0.874359
O O3 0.209163 0.552662 0.651608
O O4 0.079042 0.656921 0.764739
O O5 0.260604 0.244198 0.151716
O O6 0.225727 0.120893 0.818196
O O7 0.340083 0.258800 0.642237
O O8 0.854211 0.310029 0.394529
O O9 0.862565 0.331572 0.883220
O O10 0.000000 0.302069 0.000000
O O11 0.932577 0.858102 0.248401
O O12 0.000000 0.978696 0.500000
O O13 0.863881 0.020763 0.401855
O O14 0.000000 0.013771 0.000000
O O15 0.253587 0.929539 0.725043
O O16 0.000000 0.749406 0.500000
#
# Coordination Sequence:
#
# PCOD9127589 Si02
#       7
#     4   4   4   4   4   4   4
#     4  10  23  39  68 100 134 181 225 291 342 421
#     4  11  24  42  72 101 135 183 235 286 340 416
#     4  11  25  44  70  99 140 181 228 285 352 406
#     4  11  27  44  70 103 141 187 228 289 353 409
#     4  10  24  44  69 103 139 181 240 276 351 416
#     4  10  25  38  63 108 143 178 224 288 363 413
#     4  11  25  43  72 102 138 184 229 285 342 416
#
# _framework density 23.397901000000001
#
# number of rings (size 3 to 8) (size 9 to 14) (size 15 to 20)
#    0.000    1.429    1.429    1.286   20.000    0.000 
#    0.000    0.714    3.143    0.000    0.000    0.000 
#    0.000    0.000    0.000    0.000    0.000    0.000 
#
# Total GULP energy -78339.919036 kJ/mol
# GULP energy per Si atom -5595.708503 kJ/mol
# Density = 2.334465 g / cm^3
# Si number density = 23.397901 Si / 1000 Ang^3
#
#
#
# Elastic Constant Matrix: (Units=GPa)
#
#
# Indices 1 2 3 4 5 6 
#
# 1 134.6042 25.5772 44.5279 0.0000 -8.2071 0.0000
# 2 25.5772 58.5339 22.9865 0.0000 -10.5497 0.0000
# 3 44.5279 22.9865 120.5470 0.0000 -8.7201 0.0000
# 4 0.0000 0.0000 0.0000 25.6593 0.0000 -2.4932
# 5 -8.2071 -10.5497 -8.7201 0.0000 36.2800 0.0000
# 6 0.0000 0.0000 0.0000 -2.4932 0.0000 21.9751
#
#
#
# Elastic Compliance Matrix: (Units=1/GPa)
#
#
# Indices 1 2 3 4 5 6 
#
# 1 0.008879 -0.002709 -0.002722 0.000000 0.000567 0.000000
# 2 -0.002709 0.020081 -0.002494 0.000000 0.004627 0.000000
# 3 -0.002722 -0.002494 0.009851 0.000000 0.001027 0.000000
# 4 0.000000 0.000000 0.000000 0.039407 0.000000 0.004471
# 5 0.000567 0.004627 0.001027 0.000000 0.029284 0.000000
# 6 0.000000 0.000000 0.000000 0.004471 0.000000 0.046013
#
#
# Mechanical properties :
#
#
# Convention : Reuss Voigt Hill
#
# Bulk Modulus (GPa) = 43.55155 55.54091 49.54623
# Shear Modulus (GPa) = 28.24572 31.48912 29.86742
#
# Velocity S-wave (km/s) = 3.47823 3.67251 3.57669
# Velocity P-wave (km/s) = 5.89785 6.46314 6.18696
#
# Compressibility (1/GPa) = 0.02296129
#
# Stress axis : x y z
#
# Youngs Moduli (GPa) = 112.62577 49.79833 101.51361
#
# Poissons Ratio (x) = 0.13488 0.27635
# Poissons Ratio (y) = 0.30506 0.25317
# Poissons Ratio (z) = 0.30660 0.12419
#
# Static dielectric constant tensor:
#      x y z
#    x 1.904230 0.000000 0.011690 
#    y 0.000000 1.882390 0.000000 
#    z 0.011690 0.000000 1.886350 
# 
# From -- ./inp_files/8564.got.cif
#   From: 2010.05.17/outbox.cif.g08.bks.cpg/sg5_5_cif.got.tgz:8564.got - 2010.06.03 18:56:24.
