data_PCOD9127892
_publ_section_title
;
Structure prediction by ZEFSAII (Michael W. Deem and Ramdas Pophale) SiO2 
 PCOD9127892
Probable space group: C 2
;
_chemical_formula_sum "Si O2"
_cell_formula_units_Z 26
_cell_length_a 20.344460
_cell_length_b 9.071640
_cell_length_c 7.789624
_cell_angle_alpha 90.000000
_cell_angle_beta 52.801951
_cell_angle_gamma 90.000000
_cell_volume 1145.148442
_symmetry_space_group_name_H-M "C 2"
_symmetry_group_IT_number 5
_symmetry_cell_setting 'monoclinic'
loop_
_space_group_symop_operation_xyz
x,y,z
-x,y,-z
1/2+x,1/2+y,z
1/2-x,1/2+y,-z
loop_
_atom_site_type_symbol
_atom_site_label
_atom_site_fract_x
_atom_site_fract_y
_atom_site_fract_z
Si Si1 0.430562 0.582010 0.971114
Si Si2 0.343968 0.319492 0.668995
Si Si3 0.540997 0.919295 0.105967
Si Si4 0.370540 0.989552 0.504179
Si Si5 0.699310 0.027125 0.761133
Si Si6 0.500000 0.500515 0.500000
Si Si7 0.287226 0.348357 0.145962
O O1 0.425678 0.758093 0.003209
O O2 0.458758 0.578977 0.727346
O O3 0.500000 0.531096 0.000000
O O4 0.348860 0.479487 0.114521
O O5 0.359758 0.160186 0.565943
O O6 0.275478 0.424603 0.691848
O O7 0.429956 0.403116 0.524462
O O8 0.319153 0.306647 0.907339
O O9 0.464236 0.929217 0.356958
O O10 0.500000 0.989923 0.000000
O O11 0.623567 0.006948 0.014757
O O12 0.332912 0.974789 0.372405
O O13 0.306536 0.901747 0.721837
O O14 0.715522 0.201554 0.734745
#
# Coordination Sequence:
#
# PCOD9127892 Si02
#       7
#     4   4   4   4   4   2   4
#     4  10  23  43  71  95 143 181 235 287 349 412
#     4  11  25  46  65  98 146 174 236 283 345 415
#     4   9  22  43  66 102 134 178 232 285 346 418
#     4  11  24  43  72 100 135 183 233 283 347 413
#     4  11  24  42  72 100 138 177 231 287 344 419
#     4  10  26  42  68 106 132 186 228 290 342 420
#     4  11  25  43  66 102 135 186 224 288 354 404
#
# _framework density 22.704478999999999
#
# number of rings (size 3 to 8) (size 9 to 14) (size 15 to 20)
#    0.000    1.538    0.000    2.769   10.769    3.077 
#    2.769    0.000    0.000    0.000    0.000    0.000 
#    0.000    0.000    0.000    0.000    0.000    0.000 
#
# Total GULP energy -72593.921322 kJ/mol
# GULP energy per Si atom -5584.147794 kJ/mol
# Density = 2.265280 g / cm^3
# Si number density = 22.704479 Si / 1000 Ang^3
#
#
#
# Elastic Constant Matrix: (Units=GPa)
#
#
# Indices 1 2 3 4 5 6 
#
# 1 85.0638 37.7840 17.2641 0.0000 -20.4000 0.0000
# 2 37.7840 102.6870 13.7876 0.0000 -15.7252 0.0000
# 3 17.2641 13.7876 45.6905 0.0000 -22.0480 0.0000
# 4 0.0000 0.0000 0.0000 21.6410 0.0000 16.9801
# 5 -20.4000 -15.7252 -22.0480 0.0000 39.2384 0.0000
# 6 0.0000 0.0000 0.0000 16.9801 0.0000 -9.3772
#
#
#
# Elastic Compliance Matrix: (Units=1/GPa)
#
#
# Indices 1 2 3 4 5 6 
#
# 1 0.015430 -0.004637 -0.001999 0.000000 0.005041 0.000000
# 2 -0.004637 0.011849 -0.000954 0.000000 0.001802 0.000000
# 3 -0.001999 -0.000954 0.030518 0.000000 0.015727 0.000000
# 4 0.000000 0.000000 0.000000 0.019088 0.000000 0.034565
# 5 0.005041 0.001802 0.015727 0.000000 0.037665 0.000000
# 6 0.000000 0.000000 0.000000 0.034565 0.000000 -0.044053
#
#
# Mechanical properties :
#
#
# Convention : Reuss Voigt Hill
#
# Bulk Modulus (GPa) = 23.46437 41.23475 32.34956
# Shear Modulus (GPa) = 50.05845 21.27415 35.66630
#
# Velocity S-wave (km/s) = 4.70061 3.06437 3.96775
# Velocity P-wave (km/s) = 6.31015 5.54269 5.93883
#
# Compressibility (1/GPa) = 0.04261780
#
# Stress axis : x y z
#
# Youngs Moduli (GPa) = 64.80803 84.39806 32.76704
#
# Poissons Ratio (x) = 0.39138 0.06549
# Poissons Ratio (y) = 0.30054 0.03126
# Poissons Ratio (z) = 0.12952 0.08051
#
# Static dielectric constant tensor:
#      x y z
#    x 1.887570 0.000000 0.055570 
#    y 0.000000 1.864660 0.000000 
#    z 0.055570 0.000000 1.975370 
# 
# From -- ./inp_files/29107.got.cif
#   From: 2010.05.17/outbox.cif.g08.bks.cpg/sg5_15_cif.got.tgz:29107.got - 2010.06.03 18:56:24.
