data_PCOD9127905
_publ_section_title
;
Structure prediction by ZEFSAII (Michael W. Deem and Ramdas Pophale) SiO2 
 PCOD9127905
Probable space group: C 2
;
_chemical_formula_sum "Si O2"
_cell_formula_units_Z 30
_cell_length_a 13.642460
_cell_length_b 5.046491
_cell_length_c 16.444517
_cell_angle_alpha 90.000000
_cell_angle_beta 77.326283
_cell_angle_gamma 90.000000
_cell_volume 1104.563824
_symmetry_space_group_name_H-M "C 2"
_symmetry_group_IT_number 5
_symmetry_cell_setting 'monoclinic'
loop_
_space_group_symop_operation_xyz
x,y,z
-x,y,-z
1/2+x,1/2+y,z
1/2-x,1/2+y,-z
loop_
_atom_site_type_symbol
_atom_site_label
_atom_site_fract_x
_atom_site_fract_y
_atom_site_fract_z
Si Si1 0.298190 0.400030 0.679775
Si Si2 0.069660 0.800107 0.823480
Si Si3 0.816046 0.346225 0.975153
Si Si4 0.000000 0.027170 0.000000
Si Si5 0.212777 0.263787 0.459695
Si Si6 0.914849 0.275488 0.284927
Si Si7 0.560383 0.005994 0.377213
Si Si8 0.195955 0.306801 0.201830
O O1 0.255138 0.643323 0.633167
O O2 0.405250 0.312844 0.623298
O O3 0.307101 0.499599 0.769808
O O4 0.203060 0.213126 0.685833
O O5 0.185958 0.869618 0.823602
O O6 0.071156 0.509287 0.783957
O O7 0.007998 0.850977 0.917028
O O8 0.036634 0.010003 0.759994
O O9 0.850740 0.367962 0.875985
O O10 0.903587 0.218870 0.012357
O O11 0.772903 0.626653 0.010509
O O12 0.276630 0.505063 0.485310
O O13 0.105512 0.382108 0.450886
O O14 0.957641 0.390757 0.361793
O O15 0.630797 0.943227 0.284469
#
# Coordination Sequence:
#
# PCOD9127905 Si02
#       8
#     4   4   4   2   4   4   4   4
#     4  10  23  43  74  99 138 182 226 284 339 416
#     4  11  25  45  65  97 138 181 231 303 348 417
#     4  12  29  46  69  98 141 186 240 299 368 424
#     4  12  28  46  68 100 142 190 236 302 380 416
#     4  11  23  43  73 102 141 181 218 271 345 416
#     4  11  26  43  71 103 135 174 243 286 336 415
#     4  11  23  43  77 101 134 187 230 281 352 415
#     4  10  23  45  68  97 135 183 236 289 350 420
#
# _framework density 27.160043000000002
#
# number of rings (size 3 to 8) (size 9 to 14) (size 15 to 20)
#    0.000    1.067    4.000    0.800   11.200    2.133 
#    0.000    0.667    5.867    0.000    0.000    0.000 
#    0.000    0.000    0.000    0.000    0.000    0.000 
#
# Total GULP energy -83908.326799 kJ/mol
# GULP energy per Si atom -5593.888453 kJ/mol
# Density = 2.709823 g / cm^3
# Si number density = 27.160043 Si / 1000 Ang^3
#
#
#
# Elastic Constant Matrix: (Units=GPa)
#
#
# Indices 1 2 3 4 5 6 
#
# 1 105.2325 -0.0773 -5.5956 0.0000 22.7334 0.0000
# 2 -0.0773 111.2843 19.2620 0.0000 8.2975 0.0000
# 3 -5.5956 19.2620 112.9382 0.0000 16.6370 0.0000
# 4 0.0000 0.0000 0.0000 42.6711 0.0000 7.6289
# 5 22.7334 8.2975 16.6370 0.0000 41.5859 0.0000
# 6 0.0000 0.0000 0.0000 7.6289 0.0000 22.6194
#
#
#
# Elastic Compliance Matrix: (Units=1/GPa)
#
#
# Indices 1 2 3 4 5 6 
#
# 1 0.011023 0.000248 0.001486 0.000000 -0.006670 0.000000
# 2 0.000248 0.009331 -0.001365 0.000000 -0.001451 0.000000
# 3 0.001486 -0.001365 0.009819 0.000000 -0.004468 0.000000
# 4 0.000000 0.000000 0.000000 0.024939 0.000000 -0.008411
# 5 -0.006670 -0.001451 -0.004468 0.000000 0.029770 0.000000
# 6 0.000000 0.000000 0.000000 -0.008411 0.000000 0.047047
#
#
# Mechanical properties :
#
#
# Convention : Reuss Voigt Hill
#
# Bulk Modulus (GPa) = 32.35177 39.62592 35.98885
# Shear Modulus (GPa) = 35.33715 42.43300 38.88507
#
# Velocity S-wave (km/s) = 3.61095 3.95692 3.78789
# Velocity P-wave (km/s) = 5.41504 5.95800 5.69300
#
# Compressibility (1/GPa) = 0.03091021
#
# Stress axis : x y z
#
# Youngs Moduli (GPa) = 90.72037 107.17337 101.84169
#
# Poissons Ratio (x) = -0.02654 -0.15138
# Poissons Ratio (y) = -0.02247 0.13905
# Poissons Ratio (z) = -0.13485 0.14633
#
# Static dielectric constant tensor:
#      x y z
#    x 2.189890 0.000000 -0.042800 
#    y 0.000000 2.529870 0.000000 
#    z -0.042800 0.000000 2.127110 
# 
# From -- ./inp_files/61113.got.cif
#   From: 2010.05.17/outbox.cif.g08.bks.cpg/sg5_31_cif.got.tgz:61113.got - 2010.06.03 18:56:24.
