data_PCOD9127054
_publ_section_title
;
Structure prediction by ZEFSAII (Michael W. Deem and Ramdas Pophale) SiO2 
 PCOD9127054
Probable space group: C 2
;
_chemical_formula_sum "Si O2"
_cell_formula_units_Z 24
_cell_length_a 14.256748
_cell_length_b 8.377225
_cell_length_c 8.071656
_cell_angle_alpha 90.000000
_cell_angle_beta 104.978408
_cell_angle_gamma 90.000000
_cell_volume 931.259888
_symmetry_space_group_name_H-M "C 2"
_symmetry_group_IT_number 5
_symmetry_cell_setting 'monoclinic'
loop_
_space_group_symop_operation_xyz
x,y,z
-x,y,-z
1/2+x,1/2+y,z
1/2-x,1/2+y,-z
loop_
_atom_site_type_symbol
_atom_site_label
_atom_site_fract_x
_atom_site_fract_y
_atom_site_fract_z
Si Si1 0.333197 0.976830 0.846184
Si Si2 0.888336 0.973484 0.129077
Si Si3 0.000000 0.734858 0.000000
Si Si4 0.708516 0.470507 0.258290
Si Si5 0.091493 0.326015 0.808610
Si Si6 0.500000 0.035127 0.500000
Si Si7 0.813710 0.675606 0.520329
O O1 0.220753 0.950062 0.850705
O O2 0.317108 0.025788 0.648925
O O3 0.392421 0.851677 0.987170
O O4 0.401858 0.130538 0.929005
O O5 0.968059 0.834522 0.149849
O O6 0.922682 0.138535 0.224431
O O7 0.866084 0.992908 0.922837
O O8 0.807967 0.395498 0.224453
O O9 0.725745 0.638786 0.356830
O O10 0.683435 0.337960 0.381035
O O11 0.011270 0.424874 0.669842
O O12 0.408651 0.149460 0.457662
#
# Coordination Sequence:
#
# PCOD9127054 Si02
#       7
#     4   4   2   4   4   2   4
#     4  11  22  44  74 101 147 187 245 303 364 439
#     4  11  23  45  69 105 146 185 250 305 354 443
#     4  12  24  42  72 108 138 186 250 294 370 432
#     4  10  23  43  68 101 141 186 240 293 375 430
#     4  10  22  43  68  98 135 196 228 298 365 429
#     4  10  24  42  68 102 146 182 246 288 374 438
#     4  11  22  45  67 103 139 190 238 300 371 437
#
# _framework density 25.771538
#
# number of rings (size 3 to 8) (size 9 to 14) (size 15 to 20)
#    0.000    1.333    3.333    2.000    2.333    2.000 
#    9.000    0.000    0.000    1.000    0.000    0.000 
#    0.000    0.000    0.000    0.000    0.000    0.000 
#
# Total GULP energy -66936.461431 kJ/mol
# GULP energy per Si atom -5578.038453 kJ/mol
# Density = 2.571288 g / cm^3
# Si number density = 25.771538 Si / 1000 Ang^3
#
#
#
# Elastic Constant Matrix: (Units=GPa)
#
#
# Indices 1 2 3 4 5 6 
#
# 1 107.6071 22.8364 -6.0232 0.0000 -3.9635 0.0000
# 2 22.8364 83.5179 -3.6637 0.0000 -11.7579 0.0000
# 3 -6.0232 -3.6637 79.5592 0.0000 9.7858 0.0000
# 4 0.0000 0.0000 0.0000 50.6368 0.0000 -4.0890
# 5 -3.9635 -11.7579 9.7858 0.0000 26.6193 0.0000
# 6 0.0000 0.0000 0.0000 -4.0890 0.0000 23.6246
#
#
#
# Elastic Compliance Matrix: (Units=1/GPa)
#
#
# Indices 1 2 3 4 5 6 
#
# 1 0.009897 -0.002669 0.000618 0.000000 0.000067 0.000000
# 2 -0.002669 0.013488 -0.000277 0.000000 0.005662 0.000000
# 3 0.000618 -0.000277 0.013204 0.000000 -0.004885 0.000000
# 4 0.000000 0.000000 0.000000 0.020028 0.000000 0.003467
# 5 0.000067 0.005662 -0.004885 0.000000 0.041873 0.000000
# 6 0.000000 0.000000 0.000000 0.003467 0.000000 0.042929
#
#
# Mechanical properties :
#
#
# Convention : Reuss Voigt Hill
#
# Bulk Modulus (GPa) = 31.31712 32.99812 32.15762
# Shear Modulus (GPa) = 31.90378 37.34514 34.62446
#
# Velocity S-wave (km/s) = 3.52226 3.81081 3.66938
# Velocity P-wave (km/s) = 5.35910 5.67406 5.51883
#
# Compressibility (1/GPa) = 0.03193141
#
# Stress axis : x y z
#
# Youngs Moduli (GPa) = 101.04427 74.13778 75.73425
#
# Poissons Ratio (x) = 0.19791 -0.04681
# Poissons Ratio (y) = 0.26973 0.02101
# Poissons Ratio (z) = -0.06245 0.02057
#
# Static dielectric constant tensor:
#      x y z
#    x 2.111680 0.000000 -0.026090 
#    y 0.000000 2.083480 0.000000 
#    z -0.026090 0.000000 2.052020 
# 
# From -- ./inp_files/22927.got.cif
#   From: 2010.05.17/outbox.cif.g08.bks.cpg/sg5_12_cif.got.tgz:22927.got - 2010.06.03 18:56:24.
