data_PCOD9127223
_publ_section_title
;
Structure prediction by ZEFSAII (Michael W. Deem and Ramdas Pophale) SiO2 
 PCOD9127223
Probable space group: C 2
;
_chemical_formula_sum "Si O2"
_cell_formula_units_Z 20
_cell_length_a 5.490325
_cell_length_b 22.672817
_cell_length_c 7.959335
_cell_angle_alpha 90.000000
_cell_angle_beta 59.639391
_cell_angle_gamma 90.000000
_cell_volume 854.911863
_symmetry_space_group_name_H-M "C 2"
_symmetry_group_IT_number 5
_symmetry_cell_setting 'monoclinic'
loop_
_space_group_symop_operation_xyz
x,y,z
-x,y,-z
1/2+x,1/2+y,z
1/2-x,1/2+y,-z
loop_
_atom_site_type_symbol
_atom_site_label
_atom_site_fract_x
_atom_site_fract_y
_atom_site_fract_z
Si Si1 0.831887 0.941040 0.234739
Si Si2 0.000000 0.543632 0.500000
Si Si3 0.567785 0.751735 0.671188
Si Si4 0.826291 0.372014 0.233634
Si Si5 0.717514 0.142139 0.203405
Si Si6 0.000000 0.725172 0.000000
O O1 0.540682 0.907674 0.282805
O O2 0.037181 0.903625 0.281913
O O3 0.755040 0.999786 0.365902
O O4 0.000000 0.953127 0.000000
O O5 0.973331 0.588923 0.664715
O O6 0.500000 0.754170 0.500000
O O7 0.740958 0.807192 0.674665
O O8 0.680922 0.687585 0.686743
O O9 0.277169 0.761733 0.874234
O O10 0.000000 0.368228 0.000000
O O11 0.537395 0.183137 0.144951
O O12 0.000000 0.124018 0.000000
#
# Coordination Sequence:
#
# PCOD9127223 Si02
#       6
#     4   2   4   4   4   2
#     4  10  25  48  71 105 140 195 242 299 356 426
#     4  12  24  48  70 100 140 192 252 302 350 424
#     4  11  24  42  72 111 144 183 235 301 370 441
#     4  10  23  47  74 103 148 187 238 296 367 431
#     4  10  23  45  70 106 142 187 240 298 368 432
#     4  10  22  44  70 108 140 192 228 294 378 440
#
# _framework density 23.394224000000001
#
# number of rings (size 3 to 8) (size 9 to 14) (size 15 to 20)
#    0.000    1.600    0.000    3.600    8.400    0.800 
#   23.400    0.000    0.000    0.000    0.000    0.000 
#    0.000    0.000    0.000    0.000    0.000    0.000 
#
# Total GULP energy -55927.212827 kJ/mol
# GULP energy per Si atom -5592.721283 kJ/mol
# Density = 2.334098 g / cm^3
# Si number density = 23.394224 Si / 1000 Ang^3
#
#
#
# Elastic Constant Matrix: (Units=GPa)
#
#
# Indices 1 2 3 4 5 6 
#
# 1 128.0607 53.9050 53.6215 0.0000 3.3112 0.0000
# 2 53.9050 122.3573 81.5386 0.0000 1.7732 0.0000
# 3 53.6215 81.5386 122.6012 0.0000 -6.4879 0.0000
# 4 0.0000 0.0000 0.0000 -2.8301 0.0000 -10.1760
# 5 3.3112 1.7732 -6.4879 0.0000 48.4712 0.0000
# 6 0.0000 0.0000 0.0000 -10.1760 0.0000 110.9900
#
#
#
# Elastic Compliance Matrix: (Units=1/GPa)
#
#
# Indices 1 2 3 4 5 6 
#
# 1 0.010071 -0.002611 -0.002719 0.000000 -0.000956 0.000000
# 2 -0.002611 0.015523 -0.009268 0.000000 -0.001630 0.000000
# 3 -0.002719 -0.009268 0.015648 0.000000 0.002619 0.000000
# 4 0.000000 0.000000 0.000000 -0.265738 0.000000 -0.024364
# 5 -0.000956 -0.001630 0.002619 0.000000 0.021106 0.000000
# 6 0.000000 0.000000 0.000000 -0.024364 0.000000 0.006776
#
#
# Mechanical properties :
#
#
# Convention : Reuss Voigt Hill
#
# Bulk Modulus (GPa) = 83.01406 83.46104 83.23755
# Shear Modulus (GPa) = -30.59932 43.58983 6.49525
#
# Velocity S-wave (km/s) = -3.62053 4.32125 1.66807
# Velocity P-wave (km/s) = 4.25255 7.78787 6.27436
#
# Compressibility (1/GPa) = 0.01204615
#
# Stress axis : x y z
#
# Youngs Moduli (GPa) = 99.29454 64.42028 63.90532
#
# Poissons Ratio (x) = 0.16822 0.17374
# Poissons Ratio (y) = 0.25929 0.59228
# Poissons Ratio (z) = 0.26995 0.59706
#
# Static dielectric constant tensor:
#      x y z
#    x 1.898210 0.000000 -0.019510 
#    y 0.000000 1.841740 0.000000 
#    z -0.019510 0.000000 1.899270 
# 
# From -- ./inp_files/12409.got.cif
#   From: 2010.05.17/outbox.cif.g08.bks.cpg/sg5_7_cif.got.tgz:12409.got - 2010.06.03 18:56:24.
