data_PCOD9127109
_publ_section_title
;
Structure prediction by ZEFSAII (Michael W. Deem and Ramdas Pophale) SiO2 
 PCOD9127109
Probable space group: C 2
;
_chemical_formula_sum "Si O2"
_cell_formula_units_Z 24
_cell_length_a 13.479330
_cell_length_b 4.997186
_cell_length_c 20.699932
_cell_angle_alpha 90.000000
_cell_angle_beta 41.739327
_cell_angle_gamma 90.000000
_cell_volume 928.258936
_symmetry_space_group_name_H-M "C 2"
_symmetry_group_IT_number 5
_symmetry_cell_setting 'monoclinic'
loop_
_space_group_symop_operation_xyz
x,y,z
-x,y,-z
1/2+x,1/2+y,z
1/2-x,1/2+y,-z
loop_
_atom_site_type_symbol
_atom_site_label
_atom_site_fract_x
_atom_site_fract_y
_atom_site_fract_z
Si Si1 0.106779 0.551650 0.126622
Si Si2 0.707911 0.675439 0.195021
Si Si3 0.500000 0.951061 0.500000
Si Si4 0.084187 0.646158 0.320678
Si Si5 0.437294 0.557444 0.908981
Si Si6 0.000000 0.701715 0.000000
Si Si7 0.735659 0.212099 0.549786
O O1 0.140307 0.364757 0.170857
O O2 0.004955 0.353502 0.133073
O O3 0.044516 0.850353 0.159544
O O4 0.263539 0.596608 0.013237
O O5 0.703821 0.910154 0.251161
O O6 0.637318 0.425218 0.265763
O O7 0.848213 0.550264 0.087107
O O8 0.544592 0.127806 0.415913
O O9 0.357866 0.775586 0.544910
O O10 0.927782 0.589827 0.358466
O O11 0.497048 0.397625 0.940579
O O12 0.798940 0.994790 0.468515
#
# Coordination Sequence:
#
# PCOD9127109 Si02
#       7
#     4   4   2   4   4   2   4
#     4   9  18  35  57  80 118 167 215 268 324 396
#     4  11  24  43  65  98 144 183 237 289 345 415
#     4  10  24  48  78 104 146 184 232 300 374 446
#     4  11  24  44  70 108 141 184 235 296 360 430
#     4   9  18  34  58  83 110 169 223 261 332 379
#     4  10  24  42  66  94 142 186 230 298 334 402
#     4  10  22  43  74 104 139 184 229 291 371 437
#
# _framework density 25.854854
#
# number of rings (size 3 to 8) (size 9 to 14) (size 15 to 20)
#    0.000    2.000    0.000    3.000    0.000   12.667 
#    9.000    0.000    0.000    0.000    0.000    0.000 
#    0.000    0.000    0.000    0.000    0.000    0.000 
#
# Total GULP energy -66925.633736 kJ/mol
# GULP energy per Si atom -5577.136145 kJ/mol
# Density = 2.579601 g / cm^3
# Si number density = 25.854854 Si / 1000 Ang^3
#
#
#
# Elastic Constant Matrix: (Units=GPa)
#
#
# Indices 1 2 3 4 5 6 
#
# 1 104.5218 5.4606 35.8657 -0.0014 5.6991 0.0073
# 2 5.4606 145.7634 43.1958 -0.0018 1.9377 0.0165
# 3 35.8657 43.1958 147.9764 -0.0006 -2.5071 0.0000
# 4 -0.0014 -0.0018 -0.0006 23.6653 -0.0023 11.0304
# 5 5.6991 1.9377 -2.5071 -0.0023 36.7922 0.0021
# 6 0.0073 0.0165 0.0000 11.0304 0.0021 34.4754
#
#
#
# Elastic Compliance Matrix: (Units=1/GPa)
#
#
# Indices 1 2 3 4 5 6 
#
# 1 0.010580 0.000435 -0.002723 0.000002 -0.001847 -0.000003
# 2 0.000435 0.007539 -0.002317 0.000003 -0.000622 -0.000004
# 3 -0.002723 -0.002317 0.008113 -0.000001 0.001097 0.000002
# 4 0.000002 0.000003 -0.000001 0.049662 0.000003 -0.015889
# 5 -0.001847 -0.000622 0.001097 0.000003 0.027573 -0.000002
# 6 -0.000003 -0.000004 0.000002 -0.015889 -0.000002 0.034090
#
#
# Mechanical properties :
#
#
# Convention : Reuss Voigt Hill
#
# Bulk Modulus (GPa) = 58.74495 63.03397 60.88946
# Shear Modulus (GPa) = 32.80002 39.90254 36.35128
#
# Velocity S-wave (km/s) = 3.56564 3.93278 3.75370
# Velocity P-wave (km/s) = 6.30254 6.71232 6.51066
#
# Compressibility (1/GPa) = 0.01702274
#
# Stress axis : x y z
#
# Youngs Moduli (GPa) = 94.52169 132.64473 123.26604
#
# Poissons Ratio (x) = -0.05770 0.33559
# Poissons Ratio (y) = -0.04112 0.28557
# Poissons Ratio (z) = 0.25734 0.30729
#
# Static dielectric constant tensor:
#      x y z
#    x 2.231910 0.000000 -0.047550 
#    y 0.000000 2.013060 0.000000 
#    z -0.047550 0.000000 2.169830 
# 
# From -- ./inp_files/53714.got.cif
#   From: 2010.05.17/outbox.cif.g08.bks.cpg/sg5_27_cif.got.tgz:53714.got - 2010.06.03 18:56:24.
