data_PCOD9127364
_publ_section_title
;
Structure prediction by ZEFSAII (Michael W. Deem and Ramdas Pophale) SiO2 
 PCOD9127364
Probable space group: C 2
;
_chemical_formula_sum "Si O2"
_cell_formula_units_Z 28
_cell_length_a 14.055908
_cell_length_b 5.435942
_cell_length_c 15.660675
_cell_angle_alpha 90.000000
_cell_angle_beta 110.788479
_cell_angle_gamma 90.000000
_cell_volume 1118.685457
_symmetry_space_group_name_H-M "C 2"
_symmetry_group_IT_number 5
_symmetry_cell_setting 'monoclinic'
loop_
_space_group_symop_operation_xyz
x,y,z
-x,y,-z
1/2+x,1/2+y,z
1/2-x,1/2+y,-z
loop_
_atom_site_type_symbol
_atom_site_label
_atom_site_fract_x
_atom_site_fract_y
_atom_site_fract_z
Si Si1 0.406721 0.085570 0.718704
Si Si2 0.380367 0.065263 0.453508
Si Si3 0.937994 0.296885 0.902023
Si Si4 0.585021 0.800541 0.689414
Si Si5 0.242309 0.664426 0.942652
Si Si6 0.060323 0.954211 0.821098
Si Si7 0.182750 0.073625 0.571955
O O1 0.463926 0.347898 0.738490
O O2 0.291673 0.088640 0.651414
O O3 0.413080 0.980191 0.816982
O O4 0.477735 0.911226 0.683422
O O5 0.500000 0.065585 0.500000
O O6 0.337791 0.314274 0.475347
O O7 0.356090 0.016956 0.344204
O O8 0.337961 0.823040 0.484745
O O9 0.834222 0.180474 0.904636
O O10 0.013538 0.089068 0.888104
O O11 0.000000 0.418053 0.000000
O O12 0.621177 0.656710 0.784885
O O13 0.594324 0.597589 0.617597
O O14 0.134010 0.727598 0.865163
O O15 0.242613 0.402589 0.990215
#
# Coordination Sequence:
#
# PCOD9127364 Si02
#       7
#     4   4   4   4   4   4   4
#     4  11  24  41  69  96 141 177 235 288 344 408
#     4  10  22  45  72  99 139 178 221 276 344 409
#     4  11  24  43  65  99 133 187 232 298 340 410
#     4   9  23  40  68  98 134 176 222 276 340 406
#     4  12  27  46  68  96 136 184 239 291 357 410
#     4  11  24  42  66  98 138 179 234 291 349 409
#     4  10  23  42  70 101 133 179 228 270 343 411
#
# _framework density 25.029375999999999
#
# number of rings (size 3 to 8) (size 9 to 14) (size 15 to 20)
#    0.857    0.571    1.429    3.000    8.000    1.714 
#    0.000    1.429    0.000    0.000    0.000    0.000 
#    0.000    0.000    0.000    0.000    0.000    0.000 
#
# Total GULP energy -78258.299644 kJ/mol
# GULP energy per Si atom -5589.878546 kJ/mol
# Density = 2.497241 g / cm^3
# Si number density = 25.029376 Si / 1000 Ang^3
#
#
#
# Elastic Constant Matrix: (Units=GPa)
#
#
# Indices 1 2 3 4 5 6 
#
# 1 124.2708 25.6528 29.8861 0.0000 -19.0137 0.0000
# 2 25.6528 137.2966 26.5668 0.0001 10.3701 -0.0002
# 3 29.8861 26.5668 79.3044 0.0000 5.7008 0.0000
# 4 0.0000 0.0001 0.0000 -148.7450 0.0000 229.5071
# 5 -19.0137 10.3701 5.7008 0.0000 53.5406 0.0000
# 6 0.0000 -0.0002 0.0000 229.5071 0.0000 -237.9896
#
#
#
# Elastic Compliance Matrix: (Units=1/GPa)
#
#
# Indices 1 2 3 4 5 6 
#
# 1 0.009829 -0.001471 -0.003510 0.000000 0.004149 0.000000
# 2 -0.001471 0.008091 -0.002021 0.000000 -0.001874 0.000000
# 3 -0.003510 -0.002021 0.014784 0.000000 -0.002429 0.000000
# 4 0.000000 0.000000 0.000000 0.013778 0.000000 0.013286
# 5 0.004149 -0.001874 -0.002429 0.000000 0.020773 0.000000
# 6 0.000000 0.000000 0.000000 0.013286 0.000000 0.008611
#
#
# Mechanical properties :
#
#
# Convention : Reuss Voigt Hill
#
# Bulk Modulus (GPa) = 53.47471 56.12037 54.79754
# Shear Modulus (GPa) = 52.02720 -49.38773 1.31974
#
# Velocity S-wave (km/s) = 4.56416 -4.44688 0.72692
# Velocity P-wave (km/s) = 7.01332 1.97379 4.75872
#
# Compressibility (1/GPa) = 0.01870043
#
# Stress axis : x y z
#
# Youngs Moduli (GPa) = 101.73458 123.59376 67.64001
#
# Poissons Ratio (x) = 0.18178 0.23741
# Poissons Ratio (y) = 0.14963 0.13673
# Poissons Ratio (z) = 0.35707 0.24984
#
# Static dielectric constant tensor:
#      x y z
#    x 1.973480 0.000000 -0.012770 
#    y 0.000000 2.027210 0.000000 
#    z -0.012770 0.000000 2.017640 
# 
# From -- ./inp_files/61251.got.cif
#   From: 2010.05.17/outbox.cif.g08.bks.cpg/sg5_31_cif.got.tgz:61251.got - 2010.06.03 18:56:24.
