data_PCOD9127799
_publ_section_title
;
Structure prediction by ZEFSAII (Michael W. Deem and Ramdas Pophale) SiO2 
 PCOD9127799
Probable space group: C 2
;
_chemical_formula_sum "Si O2"
_cell_formula_units_Z 18
_cell_length_a 7.514374
_cell_length_b 20.151793
_cell_length_c 8.256452
_cell_angle_alpha 90.000000
_cell_angle_beta 35.453573
_cell_angle_gamma 90.000000
_cell_volume 725.204038
_symmetry_space_group_name_H-M "C 2"
_symmetry_group_IT_number 5
_symmetry_cell_setting 'monoclinic'
loop_
_space_group_symop_operation_xyz
x,y,z
-x,y,-z
1/2+x,1/2+y,z
1/2-x,1/2+y,-z
loop_
_atom_site_type_symbol
_atom_site_label
_atom_site_fract_x
_atom_site_fract_y
_atom_site_fract_z
Si Si1 0.847293 0.940810 0.939845
Si Si2 0.315592 0.148434 0.844535
Si Si3 0.500000 0.775597 0.000000
Si Si4 0.653371 0.861059 0.568302
Si Si5 0.467256 0.581799 0.337947
O O1 0.994982 0.882039 0.722247
O O2 0.495424 0.928052 0.242594
O O3 0.938124 0.012697 0.813442
O O4 0.000000 0.931588 0.000000
O O5 0.286190 0.225223 0.822500
O O6 0.626536 0.112184 0.567017
O O7 0.000000 0.118184 0.000000
O O8 0.218896 0.136263 0.100080
O O9 0.578543 0.810190 0.768736
O O10 0.500000 0.847294 0.500000
O O11 0.500000 0.568561 0.500000
#
# Coordination Sequence:
#
# PCOD9127799 Si02
#       5
#     4   4   2   4   4
#     4  10  23  42  69 104 146 184 237 307 380 434
#     4  10  25  44  66 101 140 201 239 296 368 435
#     4  10  26  46  78  98 154 198 252 294 378 448
#     4  10  23  43  71 108 140 188 244 311 367 443
#     4  12  24  42  70 106 148 186 249 308 369 444
#
# _framework density 24.820599999999999
#
# number of rings (size 3 to 8) (size 9 to 14) (size 15 to 20)
#    0.667    0.889    0.000    3.333    3.111    8.000 
#    0.000    4.444    0.000    0.000    0.000    0.000 
#    0.000    0.000    0.000    0.000    0.000    0.000 
#
# Total GULP energy -50205.624656 kJ/mol
# GULP energy per Si atom -5578.402740 kJ/mol
# Density = 2.476411 g / cm^3
# Si number density = 24.820600 Si / 1000 Ang^3
#
#
#
# Elastic Constant Matrix: (Units=GPa)
#
#
# Indices 1 2 3 4 5 6 
#
# 1 79.4174 43.8625 59.0548 0.0000 6.1423 0.0000
# 2 43.8625 128.8786 57.1501 0.0000 27.9565 0.0000
# 3 59.0548 57.1501 175.3794 0.0000 20.5763 0.0000
# 4 0.0000 0.0000 0.0000 -12.5991 0.0000 -16.0898
# 5 6.1423 27.9565 20.5763 0.0000 43.2429 0.0000
# 6 0.0000 0.0000 0.0000 -16.0898 0.0000 7.4809
#
#
#
# Elastic Compliance Matrix: (Units=1/GPa)
#
#
# Indices 1 2 3 4 5 6 
#
# 1 0.018796 -0.004743 -0.005116 0.000000 0.002830 0.000000
# 2 -0.004743 0.011278 -0.001379 0.000000 -0.005961 0.000000
# 3 -0.005116 -0.001379 0.008138 0.000000 -0.002254 0.000000
# 4 0.000000 0.000000 0.000000 -0.021184 0.000000 -0.045563
# 5 0.002830 -0.005961 -0.002254 0.000000 0.027650 0.000000
# 6 0.000000 0.000000 0.000000 -0.045563 0.000000 0.035678
#
#
# Mechanical properties :
#
#
# Convention : Reuss Voigt Hill
#
# Bulk Modulus (GPa) = 63.53928 78.20114 70.87021
# Shear Modulus (GPa) = 46.26360 22.53214 34.39787
#
# Velocity S-wave (km/s) = 4.32200 3.01624 3.72675
# Velocity P-wave (km/s) = 7.11064 6.61099 6.86536
#
# Compressibility (1/GPa) = 0.01573830
#
# Stress axis : x y z
#
# Youngs Moduli (GPa) = 53.20216 88.66946 122.87516
#
# Poissons Ratio (x) = 0.42052 0.62861
# Poissons Ratio (y) = 0.25231 0.16941
# Poissons Ratio (z) = 0.27217 0.12225
#
# Static dielectric constant tensor:
#      x y z
#    x 2.172600 0.000000 0.110340 
#    y 0.000000 1.992740 0.000000 
#    z 0.110340 0.000000 2.056360 
# 
# From -- ./inp_files/16635.got.cif
#   From: 2010.05.17/outbox.cif.g08.bks.cpg/sg5_9_cif.got.tgz:16635.got - 2010.06.03 18:56:24.
