data_PCOD9127974
_publ_section_title
;
Structure prediction by ZEFSAII (Michael W. Deem and Ramdas Pophale) SiO2 
 PCOD9127974
Probable space group: C 2
;
_chemical_formula_sum "Si O2"
_cell_formula_units_Z 18
_cell_length_a 7.845007
_cell_length_b 20.317037
_cell_length_c 7.305790
_cell_angle_alpha 90.000000
_cell_angle_beta 143.166951
_cell_angle_gamma 90.000000
_cell_volume 698.070816
_symmetry_space_group_name_H-M "C 2"
_symmetry_group_IT_number 5
_symmetry_cell_setting 'monoclinic'
loop_
_space_group_symop_operation_xyz
x,y,z
-x,y,-z
1/2+x,1/2+y,z
1/2-x,1/2+y,-z
loop_
_atom_site_type_symbol
_atom_site_label
_atom_site_fract_x
_atom_site_fract_y
_atom_site_fract_z
Si Si1 0.929554 0.256100 0.743381
Si Si2 0.566882 0.171472 0.841476
Si Si3 0.007850 0.523945 0.788612
Si Si4 0.500000 0.853906 0.500000
Si Si5 0.982237 0.935029 0.703535
O O1 0.621837 0.229057 0.416789
O O2 0.080590 0.304594 0.731847
O O3 0.000000 0.287401 0.000000
O O4 0.107343 0.189649 0.896297
O O5 0.548785 0.097238 0.752357
O O6 0.500000 0.172312 0.000000
O O7 0.701304 0.501510 0.459934
O O8 0.223582 0.461153 0.953495
O O9 0.000000 0.530142 0.000000
O O10 0.778855 0.888351 0.649072
O O11 0.000000 0.913926 0.500000
#
# Coordination Sequence:
#
# PCOD9127974 Si02
#       5
#     4   4   4   2   4
#     4  12  27  46  72 113 152 201 255 316 383 451
#     4  11  21  46  77 107 152 196 253 317 386 455
#     4   9  20  41  74 108 146 193 250 318 386 445
#     4  12  28  50  76 112 162 204 266 308 384 482
#     4  10  23  44  71 110 149 200 254 314 383 453
#
# _framework density 25.785352
#
# number of rings (size 3 to 8) (size 9 to 14) (size 15 to 20)
#    0.000    1.333    2.222    2.000    0.000   12.444 
#    8.000    0.000    0.000    0.000    0.000    0.000 
#    0.000    0.000    0.000    0.000    0.000    0.000 
#
# Total GULP energy -50237.225860 kJ/mol
# GULP energy per Si atom -5581.913984 kJ/mol
# Density = 2.572666 g / cm^3
# Si number density = 25.785352 Si / 1000 Ang^3
#
#
#
# Elastic Constant Matrix: (Units=GPa)
#
#
# Indices 1 2 3 4 5 6 
#
# 1 173.5727 54.1464 23.1675 0.0000 -31.7228 0.0000
# 2 54.1464 90.6394 -10.5512 0.0000 -5.5623 0.0000
# 3 23.1675 -10.5512 79.7010 0.0000 -3.5157 0.0000
# 4 0.0000 0.0000 0.0000 -13.0751 0.0000 24.5684
# 5 -31.7228 -5.5623 -3.5157 0.0000 42.1019 0.0000
# 6 0.0000 0.0000 0.0000 24.5684 0.0000 22.5060
#
#
#
# Elastic Compliance Matrix: (Units=1/GPa)
#
#
# Indices 1 2 3 4 5 6 
#
# 1 0.008864 -0.005296 -0.003025 0.000000 0.005726 0.000000
# 2 -0.005296 0.014479 0.003377 0.000000 -0.001795 0.000000
# 3 -0.003025 0.003377 0.013843 0.000000 -0.000677 0.000000
# 4 0.000000 0.000000 0.000000 -0.025066 0.000000 0.027363
# 5 0.005726 -0.001795 -0.000677 0.000000 0.027773 0.000000
# 6 0.000000 0.000000 0.000000 0.027363 0.000000 0.014562
#
#
# Mechanical properties :
#
#
# Convention : Reuss Voigt Hill
#
# Bulk Modulus (GPa) = 36.63151 53.04873 44.84012
# Shear Modulus (GPa) = 68.08062 28.78324 48.43193
#
# Velocity S-wave (km/s) = 5.14394 3.34468 4.33861
# Velocity P-wave (km/s) = 7.03686 5.96101 6.52116
#
# Compressibility (1/GPa) = 0.02729890
#
# Stress axis : x y z
#
# Youngs Moduli (GPa) = 112.82132 69.06451 72.23676
#
# Poissons Ratio (x) = 0.36574 0.21851
# Poissons Ratio (y) = 0.59746 -0.24394
# Poissons Ratio (z) = 0.34128 -0.23323
#
# Static dielectric constant tensor:
#      x y z
#    x 2.065020 0.000000 -0.040300 
#    y 0.000000 2.067470 0.000000 
#    z -0.040300 0.000000 1.972480 
# 
# From -- ./inp_files/16960.got.cif
#   From: 2010.05.17/outbox.cif.g08.bks.cpg/sg5_9_cif.got.tgz:16960.got - 2010.06.03 18:56:24.
