data_PCOD9127247
_publ_section_title
;
Structure prediction by ZEFSAII (Michael W. Deem and Ramdas Pophale) SiO2 
 PCOD9127247
Probable space group: C 2
;
_chemical_formula_sum "Si O2"
_cell_formula_units_Z 18
_cell_length_a 9.470157
_cell_length_b 18.311529
_cell_length_c 8.574223
_cell_angle_alpha 90.000000
_cell_angle_beta 147.694950
_cell_angle_gamma 90.000000
_cell_volume 794.629768
_symmetry_space_group_name_H-M "C 2"
_symmetry_group_IT_number 5
_symmetry_cell_setting 'monoclinic'
loop_
_space_group_symop_operation_xyz
x,y,z
-x,y,-z
1/2+x,1/2+y,z
1/2-x,1/2+y,-z
loop_
_atom_site_type_symbol
_atom_site_label
_atom_site_fract_x
_atom_site_fract_y
_atom_site_fract_z
Si Si1 0.046605 0.646170 0.367758
Si Si2 0.500000 0.459384 0.500000
Si Si3 0.429478 0.292953 0.109391
Si Si4 0.091996 0.342568 0.232293
Si Si5 0.943253 0.050842 0.126806
O O1 0.348191 0.617454 0.646505
O O2 0.000000 0.674118 0.500000
O O3 0.930807 0.705974 0.140842
O O4 0.858267 0.576831 0.166145
O O5 0.239600 0.410360 0.286978
O O6 0.468773 0.501919 0.306379
O O7 0.671858 0.313872 0.444640
O O8 0.500000 0.308523 0.000000
O O9 0.170020 0.339401 0.908910
O O10 0.000000 0.293248 0.000000
O O11 0.000000 0.023011 0.000000
#
# Coordination Sequence:
#
# PCOD9127247 Si02
#       5
#     4   2   4   4   4
#     4  10  22  44  72 103 144 184 234 308 376 434
#     4  12  28  46  80 100 154 204 248 296 368 454
#     4  12  26  44  74 111 148 188 250 311 373 444
#     4  12  25  48  69 102 144 203 242 297 370 435
#     4  10  25  44  71 109 142 188 244 304 367 441
#
# _framework density 22.652058
#
# number of rings (size 3 to 8) (size 9 to 14) (size 15 to 20)
#    0.000    0.889    2.222    3.333    6.222    2.667 
#    4.000    0.000    0.000    0.000    0.000    0.000 
#    0.000    0.000    0.000    0.000    0.000    0.000 
#
# Total GULP energy -50170.784484 kJ/mol
# GULP energy per Si atom -5574.531609 kJ/mol
# Density = 2.260050 g / cm^3
# Si number density = 22.652058 Si / 1000 Ang^3
#
#
#
# Elastic Constant Matrix: (Units=GPa)
#
#
# Indices 1 2 3 4 5 6 
#
# 1 100.8533 79.6781 -10.8803 0.0003 48.0250 -0.0004
# 2 79.6781 48.0911 41.8614 -0.0001 -16.2823 0.0001
# 3 -10.8803 41.8614 96.7637 0.0011 57.5404 0.0009
# 4 0.0003 -0.0001 0.0011 30.7123 0.0003 8.4095
# 5 48.0250 -16.2823 57.5404 0.0003 -0.7904 0.0010
# 6 -0.0004 0.0001 0.0009 8.4095 0.0010 78.3112
#
#
#
# Elastic Compliance Matrix: (Units=1/GPa)
#
#
# Indices 1 2 3 4 5 6 
#
# 1 0.005580 -0.001444 -0.004923 0.000000 0.010384 0.000000
# 2 -0.001444 0.013127 0.004677 0.000000 -0.017687 0.000000
# 3 -0.004923 0.004677 0.005485 0.000000 0.003822 0.000000
# 4 0.000000 0.000000 0.000000 0.033547 0.000000 -0.003602
# 5 0.010384 -0.017687 0.003822 0.000000 0.008403 0.000000
# 6 0.000000 0.000000 0.000000 -0.003602 0.000000 0.013156
#
#
# Mechanical properties :
#
#
# Convention : Reuss Voigt Hill
#
# Bulk Modulus (GPa) = 48.05178 51.89184 49.97181
# Shear Modulus (GPa) = 55.79394 30.64988 43.22191
#
# Velocity S-wave (km/s) = 4.96833 3.68240 4.37289
# Velocity P-wave (km/s) = 7.36013 6.40610 6.89962
#
# Compressibility (1/GPa) = 0.02081089
#
# Stress axis : x y z
#
# Youngs Moduli (GPa) = 179.21280 76.18019 182.32241
#
# Poissons Ratio (x) = 0.10998 0.89759
# Poissons Ratio (y) = 0.25874 -0.85263
# Poissons Ratio (z) = 0.88228 -0.35626
#
# Static dielectric constant tensor:
#      x y z
#    x 1.820270 0.000000 -0.046030 
#    y 0.000000 1.938690 0.000000 
#    z -0.046030 0.000000 1.779170 
# 
# From -- ./inp_files/16633.got.cif
#   From: 2010.05.17/outbox.cif.g08.bks.cpg/sg5_9_cif.got.tgz:16633.got - 2010.06.03 18:56:24.
