data_PCOD9127165
_publ_section_title
;
Structure prediction by ZEFSAII (Michael W. Deem and Ramdas Pophale) SiO2 
 PCOD9127165
Probable space group: C 2
;
_chemical_formula_sum "Si O2"
_cell_formula_units_Z 30
_cell_length_a 7.838496
_cell_length_b 11.512692
_cell_length_c 26.949979
_cell_angle_alpha 90.000000
_cell_angle_beta 34.526982
_cell_angle_gamma 90.000000
_cell_volume 1378.457922
_symmetry_space_group_name_H-M "C 2"
_symmetry_group_IT_number 5
_symmetry_cell_setting 'monoclinic'
loop_
_space_group_symop_operation_xyz
x,y,z
-x,y,-z
1/2+x,1/2+y,z
1/2-x,1/2+y,-z
loop_
_atom_site_type_symbol
_atom_site_label
_atom_site_fract_x
_atom_site_fract_y
_atom_site_fract_z
Si Si1 0.376163 0.943760 0.735798
Si Si2 0.299408 0.749101 0.875598
Si Si3 0.672078 0.634255 0.709105
Si Si4 0.461366 0.587441 0.099985
Si Si5 0.000000 0.948695 0.000000
Si Si6 0.838900 0.720517 0.486087
Si Si7 0.430331 0.206510 0.170169
Si Si8 0.950047 0.971596 0.453014
O O1 0.220656 0.819298 0.769366
O O2 0.735281 0.939972 0.648644
O O3 0.282142 0.022599 0.711926
O O4 0.240574 0.002205 0.817660
O O5 0.590413 0.730763 0.770878
O O6 0.330967 0.653522 0.910718
O O7 0.253056 0.867950 0.915202
O O8 0.038441 0.733196 0.896510
O O9 0.344310 0.613882 0.762948
O O10 0.919499 0.679414 0.612547
O O11 0.227380 0.669911 0.126977
O O12 0.625164 0.520724 0.016227
O O13 0.741663 0.854487 0.495853
O O14 0.635928 0.604164 0.541182
O O15 0.000000 0.735414 0.500000
O O16 0.000000 0.981764 0.500000
#
# Coordination Sequence:
#
# PCOD9127165 Si02
#       8
#     4   4   4   4   2   4   4   4
#     4  11  21  43  65  93 129 182 226 279 345 407
#     4   9  23  44  66  97 136 171 221 281 332 411
#     4   9  20  42  67  91 133 176 226 276 348 400
#     4  11  25  40  69  98 128 182 219 275 351 408
#     4  12  24  44  68 100 136 170 232 282 340 416
#     4  11  24  41  62 103 133 183 230 289 344 413
#     4  10  22  44  67  94 134 171 225 281 334 411
#     4  11  23  39  66  89 137 176 226 285 341 405
#
# _framework density 21.763449000000001
#
# number of rings (size 3 to 8) (size 9 to 14) (size 15 to 20)
#    0.800    0.800    4.000    0.000    3.733    1.600 
#    0.000    2.667    0.000    0.000    0.000    0.000 
#    0.000    0.000    0.000    0.000    0.000    0.000 
#
# Total GULP energy -83579.326671 kJ/mol
# GULP energy per Si atom -5571.955111 kJ/mol
# Density = 2.171391 g / cm^3
# Si number density = 21.763449 Si / 1000 Ang^3
#
#
#
# Elastic Constant Matrix: (Units=GPa)
#
#
# Indices 1 2 3 4 5 6 
#
# 1 54.9405 21.8932 17.4081 -0.0155 8.7431 -0.0223
# 2 21.8932 112.7841 21.0115 -0.0045 -15.1626 -0.0089
# 3 17.4081 21.0115 74.1751 -0.0161 8.3973 -0.0222
# 4 -0.0155 -0.0045 -0.0161 32.9165 0.0048 0.9428
# 5 8.7431 -15.1626 8.3973 0.0048 28.4038 0.0083
# 6 -0.0223 -0.0089 -0.0222 0.9428 0.0083 55.5365
#
#
#
# Elastic Compliance Matrix: (Units=1/GPa)
#
#
# Indices 1 2 3 4 5 6 
#
# 1 0.022500 -0.005009 -0.002871 0.000010 -0.008751 0.000008
# 2 -0.005009 0.011573 -0.003080 -0.000003 0.008630 -0.000003
# 3 -0.002871 -0.003080 0.015637 0.000007 -0.005383 0.000005
# 4 0.000010 -0.000003 0.000007 0.030395 -0.000012 -0.000516
# 5 -0.008751 0.008630 -0.005383 -0.000012 0.044099 -0.000011
# 6 0.000008 -0.000003 0.000005 -0.000516 -0.000011 0.018015
#
#
# Mechanical properties :
#
#
# Convention : Reuss Voigt Hill
#
# Bulk Modulus (GPa) = 35.98351 40.28059 38.13205
# Shear Modulus (GPa) = 28.83486 35.47716 32.15601
#
# Velocity S-wave (km/s) = 3.64390 4.04186 3.84803
# Velocity P-wave (km/s) = 5.85438 6.35065 6.10756
#
# Compressibility (1/GPa) = 0.02779051
#
# Stress axis : x y z
#
# Youngs Moduli (GPa) = 44.44460 86.40918 63.95018
#
# Poissons Ratio (x) = 0.43285 0.18359
# Poissons Ratio (y) = 0.22263 0.19694
# Poissons Ratio (z) = 0.12759 0.26611
#
# Static dielectric constant tensor:
#      x y z
#    x 1.771520 0.000010 -0.017510 
#    y 0.000010 1.878700 0.000010 
#    z -0.017510 0.000010 1.819180 
# 
# From -- ./inp_files/71557.got.cif
#   From: 2010.05.17/outbox.cif.g08.bks.cpg/sg5_36_cif.got.tgz:71557.got - 2010.06.03 18:56:24.
