data_PCOD9127651
_publ_section_title
;
Structure prediction by ZEFSAII (Michael W. Deem and Ramdas Pophale) SiO2 
 PCOD9127651
Probable space group: C 2
;
_chemical_formula_sum "Si O2"
_cell_formula_units_Z 26
_cell_length_a 23.680420
_cell_length_b 7.914596
_cell_length_c 11.414912
_cell_angle_alpha 90.000000
_cell_angle_beta 150.946125
_cell_angle_gamma 90.000000
_cell_volume 1038.957647
_symmetry_space_group_name_H-M "C 2"
_symmetry_group_IT_number 5
_symmetry_cell_setting 'monoclinic'
loop_
_space_group_symop_operation_xyz
x,y,z
-x,y,-z
1/2+x,1/2+y,z
1/2-x,1/2+y,-z
loop_
_atom_site_type_symbol
_atom_site_label
_atom_site_fract_x
_atom_site_fract_y
_atom_site_fract_z
Si Si1 0.750669 0.627750 0.113479
Si Si2 0.566477 0.991607 0.998414
Si Si3 0.500000 0.445141 0.000000
Si Si4 0.871815 0.991144 0.326301
Si Si5 0.154957 0.537287 0.489369
Si Si6 0.007716 0.146999 0.779947
Si Si7 0.269586 0.221813 0.589769
O O1 0.804841 0.814832 0.227074
O O2 0.833595 0.523868 0.351152
O O3 0.719540 0.591830 0.922501
O O4 0.628287 0.573258 0.949709
O O5 0.555317 0.835066 0.892103
O O6 0.472323 0.115209 0.767373
O O7 0.500000 0.953390 0.000000
O O8 0.691508 0.061763 0.260210
O O9 0.523093 0.560152 0.154183
O O10 0.612891 0.331315 0.188682
O O11 0.000000 0.956299 0.500000
O O12 0.910680 0.102730 0.508110
O O13 0.175969 0.350040 0.472676
O O14 0.240024 0.655233 0.562262
#
# Coordination Sequence:
#
# PCOD9127651 Si02
#       7
#     4   4   2   4   4   4   4
#     4  11  25  48  72 102 134 186 250 292 352 421
#     4  10  23  41  59 103 146 178 226 281 346 429
#     4  12  20  42  68 100 150 188 216 292 358 422
#     4  10  26  50  73  99 140 184 245 306 352 406
#     4  11  24  40  67 100 141 186 233 285 352 426
#     4  11  24  43  71 102 145 184 231 294 359 424
#     4  11  24  39  64 103 147 188 230 274 356 431
#
# _framework density 25.025081
#
# number of rings (size 3 to 8) (size 9 to 14) (size 15 to 20)
#    0.000    1.231    4.615    0.923    8.615    1.231 
#    2.769    0.000    0.000    0.000    0.000    0.000 
#    0.000    0.000    0.000    0.000    0.000    0.000 
#
# Total GULP energy -72502.231851 kJ/mol
# GULP energy per Si atom -5577.094758 kJ/mol
# Density = 2.496812 g / cm^3
# Si number density = 25.025081 Si / 1000 Ang^3
#
#
#
# Elastic Constant Matrix: (Units=GPa)
#
#
# Indices 1 2 3 4 5 6 
#
# 1 56.8365 16.6900 40.3126 0.0000 -12.3812 0.0000
# 2 16.6900 103.8241 41.8066 0.0000 -22.5517 0.0000
# 3 40.3126 41.8066 170.5276 0.0000 -34.5014 0.0000
# 4 0.0000 0.0000 0.0000 49.2906 0.0000 1.5399
# 5 -12.3812 -22.5517 -34.5014 0.0000 48.1761 0.0000
# 6 0.0000 0.0000 0.0000 1.5399 0.0000 34.8955
#
#
#
# Elastic Compliance Matrix: (Units=1/GPa)
#
#
# Indices 1 2 3 4 5 6 
#
# 1 0.021483 -0.001298 -0.004404 0.000000 0.001759 0.000000
# 2 -0.001298 0.011346 -0.001716 0.000000 0.003748 0.000000
# 3 -0.004404 -0.001716 0.008110 0.000000 0.003872 0.000000
# 4 0.000000 0.000000 0.000000 0.020316 0.000000 -0.000897
# 5 0.001759 0.003748 0.003872 0.000000 0.025737 0.000000
# 6 0.000000 0.000000 0.000000 -0.000897 0.000000 0.028697
#
#
# Mechanical properties :
#
#
# Convention : Reuss Voigt Hill
#
# Bulk Modulus (GPa) = 38.31294 58.75629 48.53462
# Shear Modulus (GPa) = 35.91325 41.96438 38.93881
#
# Velocity S-wave (km/s) = 3.79237 4.09943 3.94889
# Velocity P-wave (km/s) = 5.87530 6.77769 6.34256
#
# Compressibility (1/GPa) = 0.02610084
#
# Stress axis : x y z
#
# Youngs Moduli (GPa) = 46.54936 88.14011 123.31109
#
# Poissons Ratio (x) = 0.11438 0.54311
# Poissons Ratio (y) = 0.06041 0.21164
# Poissons Ratio (z) = 0.20502 0.15128
#
# Static dielectric constant tensor:
#      x y z
#    x 2.103470 0.000000 0.026130 
#    y 0.000000 2.097950 0.000000 
#    z 0.026130 0.000000 2.058710 
# 
# From -- ./inp_files/47957.got.cif
#   From: 2010.05.17/outbox.cif.g08.bks.cpg/sg5_24_cif.got.tgz:47957.got - 2010.06.03 18:56:24.
