data_PCOD9127032
_publ_section_title
;
Structure prediction by ZEFSAII (Michael W. Deem and Ramdas Pophale) SiO2 
 PCOD9127032
Probable space group: C 2
;
_chemical_formula_sum "Si O2"
_cell_formula_units_Z 26
_cell_length_a 7.205677
_cell_length_b 11.673123
_cell_length_c 19.323271
_cell_angle_alpha 90.000000
_cell_angle_beta 138.305995
_cell_angle_gamma 90.000000
_cell_volume 1081.094225
_symmetry_space_group_name_H-M "C 2"
_symmetry_group_IT_number 5
_symmetry_cell_setting 'monoclinic'
loop_
_space_group_symop_operation_xyz
x,y,z
-x,y,-z
1/2+x,1/2+y,z
1/2-x,1/2+y,-z
loop_
_atom_site_type_symbol
_atom_site_label
_atom_site_fract_x
_atom_site_fract_y
_atom_site_fract_z
Si Si1 0.500000 0.235991 0.500000
Si Si2 0.738500 0.051919 0.675733
Si Si3 0.773172 0.852773 0.031428
Si Si4 0.504655 0.184681 0.208165
Si Si5 0.956736 0.313345 0.411799
Si Si6 0.858844 0.456062 0.204439
Si Si7 0.510756 0.736701 0.177675
O O1 0.596284 0.148360 0.588481
O O2 0.738759 0.317748 0.536367
O O3 0.592243 0.004701 0.705324
O O4 0.008179 0.117702 0.784321
O O5 0.727970 0.930253 0.632914
O O6 0.913488 0.754587 0.116701
O O7 0.500000 0.890563 0.000000
O O8 0.694085 0.791374 0.937353
O O9 0.025089 0.943891 0.097949
O O10 0.795697 0.225393 0.318083
O O11 0.479165 0.051163 0.187242
O O12 0.286612 0.218926 0.208385
O O13 0.000000 0.265166 0.500000
O O14 0.010865 0.337477 0.233490
#
# Coordination Sequence:
#
# PCOD9127032 Si02
#       7
#     2   4   4   4   4   4   4
#     4  12  28  52  78 116 146 200 252 312 396 450
#     4  11  24  46  73 109 150 183 255 308 371 450
#     4  10  22  43  67 106 153 191 253 309 362 443
#     4  10  24  46  69 107 152 189 253 316 372 446
#     4  12  25  51  79 109 155 196 251 320 382 454
#     4  11  22  45  73 103 143 201 248 302 374 442
#     4  10  23  42  71 106 144 198 249 298 373 443
#
# _framework density 24.049707999999999
#
# number of rings (size 3 to 8) (size 9 to 14) (size 15 to 20)
#    0.000    1.231    2.308    3.231    0.000    7.385 
#    9.692    9.231    0.000    0.000    0.000    0.000 
#    0.000    0.000    0.000    0.000    0.000    0.000 
#
# Total GULP energy -72533.047707 kJ/mol
# GULP energy per Si atom -5579.465208 kJ/mol
# Density = 2.399497 g / cm^3
# Si number density = 24.049708 Si / 1000 Ang^3
#
#
#
# Elastic Constant Matrix: (Units=GPa)
#
#
# Indices 1 2 3 4 5 6 
#
# 1 71.6638 22.6768 26.1890 -0.0001 -0.1877 0.0000
# 2 22.6768 125.0220 39.1272 0.0000 5.1018 0.0000
# 3 26.1890 39.1272 106.2806 -0.0001 -25.7862 -0.0001
# 4 -0.0001 0.0000 -0.0001 3.1482 -0.0001 18.3646
# 5 -0.1877 5.1018 -25.7862 -0.0001 41.3031 0.0000
# 6 0.0000 0.0000 -0.0001 18.3646 0.0000 27.5685
#
#
#
# Elastic Compliance Matrix: (Units=1/GPa)
#
#
# Indices 1 2 3 4 5 6 
#
# 1 0.015854 -0.001587 -0.003839 0.000000 -0.002128 0.000000
# 2 -0.001587 0.009725 -0.004104 0.000000 -0.003770 0.000000
# 3 -0.003839 -0.004104 0.014124 0.000000 0.009307 0.000000
# 4 0.000000 0.000000 0.000000 -0.110069 0.000000 0.073322
# 5 -0.002128 -0.003770 0.009307 0.000000 0.030478 0.000000
# 6 0.000000 0.000000 0.000000 0.073322 0.000000 -0.012569
#
#
# Mechanical properties :
#
#
# Convention : Reuss Voigt Hill
#
# Bulk Modulus (GPa) = 48.44323 53.21691 50.83007
# Shear Modulus (GPa) = -188.55254 28.73553 -79.90850
#
# Velocity S-wave (km/s) = -8.86405 3.46039 -5.77049
# Velocity P-wave (km/s) = 9.19647 6.17590 4.81837
#
# Compressibility (1/GPa) = 0.02064272
#
# Stress axis : x y z
#
# Youngs Moduli (GPa) = 63.07745 102.83074 70.80194
#
# Poissons Ratio (x) = 0.16323 0.27177
# Poissons Ratio (y) = 0.10013 0.29056
# Poissons Ratio (z) = 0.24212 0.42200
#
# Static dielectric constant tensor:
#      x y z
#    x 1.971640 0.000000 -0.024720 
#    y 0.000000 1.998750 0.000000 
#    z -0.024720 0.000000 1.990100 
# 
# From -- ./inp_files/64588.got.cif
#   From: 2010.05.17/outbox.cif.g08.bks.cpg/sg5_33_cif.got.tgz:64588.got - 2010.06.03 18:56:24.
