data_PCOD9127319
_publ_section_title
;
Structure prediction by ZEFSAII (Michael W. Deem and Ramdas Pophale) SiO2 
 PCOD9127319
Probable space group: C 2
;
_chemical_formula_sum "Si O2"
_cell_formula_units_Z 20
_cell_length_a 17.615618
_cell_length_b 7.333849
_cell_length_c 10.142173
_cell_angle_alpha 90.000000
_cell_angle_beta 38.819202
_cell_angle_gamma 90.000000
_cell_volume 821.362476
_symmetry_space_group_name_H-M "C 2"
_symmetry_group_IT_number 5
_symmetry_cell_setting 'monoclinic'
loop_
_space_group_symop_operation_xyz
x,y,z
-x,y,-z
1/2+x,1/2+y,z
1/2-x,1/2+y,-z
loop_
_atom_site_type_symbol
_atom_site_label
_atom_site_fract_x
_atom_site_fract_y
_atom_site_fract_z
Si Si1 0.372485 0.518820 0.404096
Si Si2 0.248888 0.570859 0.089067
Si Si3 0.795559 0.443486 0.124178
Si Si4 0.476924 0.187878 0.758571
Si Si5 0.806097 0.415900 0.576058
O O1 0.278142 0.452055 0.643511
O O2 0.492818 0.398360 0.257509
O O3 0.312326 0.463416 0.347682
O O4 0.371111 0.734580 0.433561
O O5 0.325388 0.735046 0.046856
O O6 0.230299 0.411409 0.220498
O O7 0.113475 0.649301 0.240638
O O8 0.282999 0.510066 0.896238
O O9 0.909603 0.578842 0.967599
O O10 0.601703 0.082628 0.566044
#
# Coordination Sequence:
#
# PCOD9127319 Si02
#       5
#     4   4   4   4   4
#     4  12  24  46  73 101 151 194 243 305 376 440
#     4  10  22  45  67 110 144 190 251 301 364 448
#     4  10  23  42  70 102 149 183 247 307 356 447
#     4  10  25  45  70 105 144 189 246 295 380 430
#     4  12  23  45  74 102 145 200 240 305 371 444
#
# _framework density 24.349784
#
# number of rings (size 3 to 8) (size 9 to 14) (size 15 to 20)
#    1.200    0.000    4.000    1.800    0.000    2.400 
#    3.600    0.000    0.000    0.000    0.000    0.000 
#    0.000    0.000    0.000    0.000    0.000    0.000 
#
# Total GULP energy -55885.015375 kJ/mol
# GULP energy per Si atom -5588.501538 kJ/mol
# Density = 2.429436 g / cm^3
# Si number density = 24.349784 Si / 1000 Ang^3
#
#
#
# Elastic Constant Matrix: (Units=GPa)
#
#
# Indices 1 2 3 4 5 6 
#
# 1 139.5294 22.5770 31.3623 -0.0002 -10.5161 0.0001
# 2 22.5770 152.1666 7.2696 -0.0006 -4.3759 0.0004
# 3 31.3623 7.2696 61.7296 -0.0001 -8.9777 0.0003
# 4 -0.0002 -0.0006 -0.0001 38.5751 0.0000 -9.5304
# 5 -10.5161 -4.3759 -8.9777 0.0000 45.5777 0.0000
# 6 0.0001 0.0004 0.0003 -9.5304 0.0000 38.0426
#
#
#
# Elastic Compliance Matrix: (Units=1/GPa)
#
#
# Indices 1 2 3 4 5 6 
#
# 1 0.008296 -0.001013 -0.003944 0.000000 0.001040 0.000000
# 2 -0.001013 0.006743 -0.000226 0.000000 0.000369 0.000000
# 3 -0.003944 -0.000226 0.018628 0.000000 0.002738 0.000000
# 4 0.000000 0.000000 0.000000 0.027634 0.000000 0.006923
# 5 0.001040 0.000369 0.002738 0.000000 0.022755 0.000000
# 6 0.000000 0.000000 0.000000 0.006923 0.000000 0.028021
#
#
# Mechanical properties :
#
#
# Convention : Reuss Voigt Hill
#
# Bulk Modulus (GPa) = 42.91486 52.87151 47.89319
# Shear Modulus (GPa) = 38.39954 43.92019 41.15987
#
# Velocity S-wave (km/s) = 3.97545 4.25163 4.11586
# Velocity P-wave (km/s) = 6.22373 6.77217 6.50374
#
# Compressibility (1/GPa) = 0.02330195
#
# Stress axis : x y z
#
# Youngs Moduli (GPa) = 120.54426 148.29346 53.68159
#
# Poissons Ratio (x) = 0.15015 0.21173
# Poissons Ratio (y) = 0.12205 0.01213
# Poissons Ratio (z) = 0.47545 0.03352
#
# Static dielectric constant tensor:
#      x y z
#    x 1.909550 0.000000 -0.016650 
#    y 0.000000 1.913470 0.000000 
#    z -0.016650 0.000000 1.924600 
# 
# From -- ./inp_files/45775.got.cif
#   From: 2010.05.17/outbox.cif.g08.bks.cpg/sg5_23_cif.got.tgz:45775.got - 2010.06.03 18:56:24.
