data_PCOD9127318
_publ_section_title
;
Structure prediction by ZEFSAII (Michael W. Deem and Ramdas Pophale) SiO2 
 PCOD9127318
Probable space group: C 2
;
_chemical_formula_sum "Si O2"
_cell_formula_units_Z 20
_cell_length_a 13.262264
_cell_length_b 4.908125
_cell_length_c 13.933163
_cell_angle_alpha 90.000000
_cell_angle_beta 119.124796
_cell_angle_gamma 90.000000
_cell_volume 792.276129
_symmetry_space_group_name_H-M "C 2"
_symmetry_group_IT_number 5
_symmetry_cell_setting 'monoclinic'
loop_
_space_group_symop_operation_xyz
x,y,z
-x,y,-z
1/2+x,1/2+y,z
1/2-x,1/2+y,-z
loop_
_atom_site_type_symbol
_atom_site_label
_atom_site_fract_x
_atom_site_fract_y
_atom_site_fract_z
Si Si1 0.582539 0.575730 0.119820
Si Si2 0.231949 0.722464 0.927625
Si Si3 0.527998 0.526212 0.745503
Si Si4 0.720813 0.447561 0.349407
Si Si5 0.373952 0.486041 0.406284
O O1 0.666706 0.776701 0.102096
O O2 0.505812 0.692231 0.172959
O O3 0.667239 0.378882 0.218790
O O4 0.500000 0.455012 0.000000
O O5 0.108311 0.785427 0.824287
O O6 0.249018 0.418390 0.972999
O O7 0.399801 0.450462 0.649683
O O8 0.598552 0.619870 0.686090
O O9 0.808111 0.227552 0.429582
O O10 0.787518 0.731057 0.367235
O O11 0.500000 0.401921 0.500000
#
# Coordination Sequence:
#
# PCOD9127318 Si02
#       5
#     4   4   4   4   4
#     4  10  22  45  67 107 136 189 219 277 340 419
#     4  12  25  43  68 101 142 189 226 273 340 412
#     4  10  24  45  68 101 140 180 226 290 332 405
#     4  10  26  44  68 105 135 176 239 277 340 414
#     4  12  26  48  73  99 137 183 233 291 346 395
#
# _framework density 25.243725000000001
#
# number of rings (size 3 to 8) (size 9 to 14) (size 15 to 20)
#    1.200    0.000    4.000    0.600    2.800    6.400 
#    3.600    0.000    0.000    0.000    0.000    0.000 
#    0.000    0.000    0.000    0.000    0.000    0.000 
#
# Total GULP energy -55754.861932 kJ/mol
# GULP energy per Si atom -5575.486193 kJ/mol
# Density = 2.518627 g / cm^3
# Si number density = 25.243725 Si / 1000 Ang^3
#
#
#
# Elastic Constant Matrix: (Units=GPa)
#
#
# Indices 1 2 3 4 5 6 
#
# 1 170.6051 35.7956 44.1823 0.0000 27.8743 0.0000
# 2 35.7956 46.0999 3.3485 -0.0002 12.4770 0.0005
# 3 44.1823 3.3485 87.4975 0.0000 15.8931 0.0000
# 4 0.0000 -0.0002 0.0000 24.4914 0.0000 8.1489
# 5 27.8743 12.4770 15.8931 0.0000 48.4564 0.0000
# 6 0.0000 0.0005 0.0000 8.1489 0.0000 21.5006
#
#
#
# Elastic Compliance Matrix: (Units=1/GPa)
#
#
# Indices 1 2 3 4 5 6 
#
# 1 0.008325 -0.005617 -0.003596 0.000000 -0.002163 0.000000
# 2 -0.005617 0.027111 0.002637 0.000000 -0.004614 -0.000001
# 3 -0.003596 0.002637 0.013708 0.000000 -0.003107 0.000000
# 4 0.000000 0.000000 0.000000 0.046723 0.000000 -0.017708
# 5 -0.002163 -0.004614 -0.003107 0.000000 0.024088 0.000000
# 6 0.000000 -0.000001 0.000000 -0.017708 0.000000 0.053222
#
#
# Mechanical properties :
#
#
# Convention : Reuss Voigt Hill
#
# Bulk Modulus (GPa) = 27.78405 52.31724 40.05065
# Shear Modulus (GPa) = 25.21102 33.61476 29.41289
#
# Velocity S-wave (km/s) = 3.16366 3.65308 3.41714
# Velocity P-wave (km/s) = 4.93712 6.20992 5.60974
#
# Compressibility (1/GPa) = 0.03599187
#
# Stress axis : x y z
#
# Youngs Moduli (GPa) = 120.12442 36.88522 72.95038
#
# Poissons Ratio (x) = 0.20720 0.26231
# Poissons Ratio (y) = 0.67478 -0.19238
# Poissons Ratio (z) = 0.43194 -0.09727
#
# Static dielectric constant tensor:
#      x y z
#    x 2.079870 0.000000 -0.072250 
#    y 0.000000 1.877910 0.000000 
#    z -0.072250 0.000000 2.071160 
# 
# From -- ./inp_files/61021.got.cif
#   From: 2010.05.17/outbox.cif.g08.bks.cpg/sg5_31_cif.got.tgz:61021.got - 2010.06.03 18:56:24.
