data_PCOD9127397
_publ_section_title
;
Structure prediction by ZEFSAII (Michael W. Deem and Ramdas Pophale) SiO2 
 PCOD9127397
Probable space group: C 2
;
_chemical_formula_sum "Si O2"
_cell_formula_units_Z 30
_cell_length_a 22.794924
_cell_length_b 8.851667
_cell_length_c 15.441509
_cell_angle_alpha 90.000000
_cell_angle_beta 22.646009
_cell_angle_gamma 90.000000
_cell_volume 1199.650960
_symmetry_space_group_name_H-M "C 2"
_symmetry_group_IT_number 5
_symmetry_cell_setting 'monoclinic'
loop_
_space_group_symop_operation_xyz
x,y,z
-x,y,-z
1/2+x,1/2+y,z
1/2-x,1/2+y,-z
loop_
_atom_site_type_symbol
_atom_site_label
_atom_site_fract_x
_atom_site_fract_y
_atom_site_fract_z
Si Si1 0.119254 0.233170 0.511220
Si Si2 0.625797 0.458693 0.898478
Si Si3 0.401266 0.193698 0.771044
Si Si4 0.500000 0.712509 0.500000
Si Si5 0.068818 0.444398 0.121995
Si Si6 0.773504 0.924325 0.062223
Si Si7 0.258937 0.282458 0.722300
Si Si8 0.646457 0.009138 0.739579
O O1 0.219454 0.374224 0.340638
O O2 0.979754 0.304415 0.752077
O O3 0.066152 0.140177 0.498041
O O4 0.228354 0.138578 0.424224
O O5 0.602100 0.414199 0.030895
O O6 0.650486 0.636995 0.867334
O O7 0.500000 0.417451 0.000000
O O8 0.569411 0.222717 0.506222
O O9 0.405233 0.089380 0.852779
O O10 0.295990 0.090939 0.853329
O O11 0.337830 0.355440 0.886616
O O12 0.633673 0.818331 0.280944
O O13 0.924050 0.478419 0.257445
O O14 0.204001 0.393556 0.873900
O O15 0.226980 0.367255 0.675469
O O16 0.500000 0.047857 0.000000
#
# Coordination Sequence:
#
# PCOD9127397 Si02
#       8
#     4   4   4   2   4   4   4   4
#     4  11  23  44  75 108 151 201 252 323 377 462
#     4  11  24  44  74 108 149 200 250 315 394 453
#     4  12  27  53  72 114 148 206 259 318 390 469
#     4  10  22  46  68 100 146 190 248 306 382 444
#     4  11  25  45  76 110 158 199 260 314 391 470
#     4  11  27  48  76 104 152 193 257 316 389 464
#     4  11  26  49  74 109 156 200 249 328 382 466
#     4  10  25  44  73 115 151 192 259 315 385 462
#
# _framework density 25.007273000000001
#
# number of rings (size 3 to 8) (size 9 to 14) (size 15 to 20)
#    0.000    1.067    2.667    2.400   13.067    3.200 
#    0.000    1.333    0.000    0.000    0.000    0.000 
#    0.000    0.000    0.000    0.000    0.000    0.000 
#
# Total GULP energy -84043.790301 kJ/mol
# GULP energy per Si atom -5602.919353 kJ/mol
# Density = 2.495036 g / cm^3
# Si number density = 25.007273 Si / 1000 Ang^3
#
#
#
# Elastic Constant Matrix: (Units=GPa)
#
#
# Indices 1 2 3 4 5 6 
#
# 1 178.4552 20.9371 39.7479 0.0000 -13.1911 0.0000
# 2 20.9371 79.8324 30.8658 0.0000 -2.3582 0.0000
# 3 39.7479 30.8658 86.3709 0.0000 -10.9611 0.0000
# 4 0.0000 0.0000 0.0000 40.1586 0.0000 -10.0030
# 5 -13.1911 -2.3582 -10.9611 0.0000 26.3880 0.0000
# 6 0.0000 0.0000 0.0000 -10.0030 0.0000 31.1460
#
#
#
# Elastic Compliance Matrix: (Units=1/GPa)
#
#
# Indices 1 2 3 4 5 6 
#
# 1 0.006380 -0.000672 -0.002427 0.000000 0.002121 0.000000
# 2 -0.000672 0.014626 -0.005061 0.000000 -0.001131 0.000000
# 3 -0.002427 -0.005061 0.015087 0.000000 0.004602 0.000000
# 4 0.000000 0.000000 0.000000 0.027067 0.000000 0.008693
# 5 0.002121 -0.001131 0.004602 0.000000 0.040767 0.000000
# 6 0.000000 0.000000 0.000000 0.008693 0.000000 0.034899
#
#
# Mechanical properties :
#
#
# Convention : Reuss Voigt Hill
#
# Bulk Modulus (GPa) = 50.57311 58.63999 54.60655
# Shear Modulus (GPa) = 30.91467 36.41237 33.66352
#
# Velocity S-wave (km/s) = 3.51982 3.81999 3.67297
# Velocity P-wave (km/s) = 6.06515 6.55412 6.31437
#
# Compressibility (1/GPa) = 0.01977335
#
# Stress axis : x y z
#
# Youngs Moduli (GPa) = 156.74493 68.37199 66.28127
#
# Poissons Ratio (x) = 0.04597 0.16083
# Poissons Ratio (y) = 0.10539 0.33544
# Poissons Ratio (z) = 0.38034 0.34602
#
# Static dielectric constant tensor:
#      x y z
#    x 2.011590 0.000000 -0.001980 
#    y 0.000000 1.943890 0.000000 
#    z -0.001980 0.000000 1.936370 
# 
# From -- ./inp_files/56913.got.cif
#   From: 2010.05.17/outbox.cif.g08.bks.cpg/sg5_29_cif.got.tgz:56913.got - 2010.06.03 18:56:24.
