data_PCOD9127673
_publ_section_title
;
Structure prediction by ZEFSAII (Michael W. Deem and Ramdas Pophale) SiO2 
 PCOD9127673
Probable space group: C 2
;
_chemical_formula_sum "Si O2"
_cell_formula_units_Z 26
_cell_length_a 18.671279
_cell_length_b 7.672293
_cell_length_c 17.664710
_cell_angle_alpha 90.000000
_cell_angle_beta 22.719642
_cell_angle_gamma 90.000000
_cell_volume 977.334177
_symmetry_space_group_name_H-M "C 2"
_symmetry_group_IT_number 5
_symmetry_cell_setting 'monoclinic'
loop_
_space_group_symop_operation_xyz
x,y,z
-x,y,-z
1/2+x,1/2+y,z
1/2-x,1/2+y,-z
loop_
_atom_site_type_symbol
_atom_site_label
_atom_site_fract_x
_atom_site_fract_y
_atom_site_fract_z
Si Si1 0.005774 0.785490 0.130271
Si Si2 0.333602 0.169294 0.818422
Si Si3 0.439853 0.934742 0.834918
Si Si4 0.801634 0.285814 0.211133
Si Si5 0.000000 0.967940 0.000000
Si Si6 0.378016 0.625516 0.547312
Si Si7 0.883404 0.929537 0.401348
O O1 0.805169 0.736506 0.289455
O O2 0.962631 0.920968 0.239551
O O3 0.086547 0.608686 0.087299
O O4 0.108286 0.858365 0.956646
O O5 0.356580 0.980896 0.833887
O O6 0.299184 0.213559 0.765043
O O7 0.529766 0.255019 0.648730
O O8 0.173041 0.279245 0.017345
O O9 0.661592 0.915264 0.616484
O O10 0.686934 0.430625 0.364832
O O11 0.000000 0.377549 0.000000
O O12 0.876998 0.103060 0.170402
O O13 0.500000 0.687092 0.500000
O O14 0.451908 0.585451 0.389736
#
# Coordination Sequence:
#
# PCOD9127673 Si02
#       7
#     4   4   4   4   2   4   4
#     4  10  24  45  68  99 140 184 227 294 353 411
#     4  11  23  42  70 103 134 191 231 284 362 410
#     4  10  25  42  71 101 140 182 236 288 346 430
#     4  10  23  41  65 100 131 182 229 283 349 411
#     4  10  26  40  68  98 138 174 234 290 346 410
#     4  11  22  43  72  97 135 181 232 287 354 420
#     4  10  23  45  67 103 137 181 232 291 342 422
#
# _framework density 26.602978
#
# number of rings (size 3 to 8) (size 9 to 14) (size 15 to 20)
#    0.462    1.231    1.538    1.846    7.538    7.385 
#    2.769    0.000    0.000    0.000    0.000    0.000 
#    0.000    0.000    0.000    0.000    0.000    0.000 
#
# Total GULP energy -72661.612190 kJ/mol
# GULP energy per Si atom -5589.354784 kJ/mol
# Density = 2.654243 g / cm^3
# Si number density = 26.602978 Si / 1000 Ang^3
#
#
#
# Elastic Constant Matrix: (Units=GPa)
#
#
# Indices 1 2 3 4 5 6 
#
# 1 185.4059 25.7790 20.9257 -0.0003 -7.9285 -0.0001
# 2 25.7790 76.7466 25.9951 -0.0012 1.6379 0.0003
# 3 20.9257 25.9951 92.7351 -0.0009 -14.9212 0.0004
# 4 -0.0003 -0.0012 -0.0009 21.6704 0.0004 -8.8370
# 5 -7.9285 1.6379 -14.9212 0.0004 38.7180 -0.0001
# 6 -0.0001 0.0003 0.0004 -8.8370 -0.0001 16.8055
#
#
#
# Elastic Compliance Matrix: (Units=1/GPa)
#
#
# Indices 1 2 3 4 5 6 
#
# 1 0.005751 -0.001732 -0.000651 0.000000 0.001000 0.000000
# 2 -0.001732 0.015115 -0.004271 0.000001 -0.002640 0.000000
# 3 -0.000651 -0.004271 0.012937 0.000000 0.005033 0.000000
# 4 0.000000 0.000001 0.000000 0.058742 -0.000001 0.030889
# 5 0.001000 -0.002640 0.005033 -0.000001 0.028084 0.000000
# 6 0.000000 0.000000 0.000000 0.030889 0.000000 0.075747
#
#
# Mechanical properties :
#
#
# Convention : Reuss Voigt Hill
#
# Bulk Modulus (GPa) = 48.79449 55.58747 52.19098
# Shear Modulus (GPa) = 23.09300 34.25128 28.67214
#
# Velocity S-wave (km/s) = 2.94948 3.59206 3.28652
# Velocity P-wave (km/s) = 5.47548 6.17612 5.83632
#
# Compressibility (1/GPa) = 0.02049412
#
# Stress axis : x y z
#
# Youngs Moduli (GPa) = 173.89178 66.16061 77.29563
#
# Poissons Ratio (x) = 0.11462 0.05033
# Poissons Ratio (y) = 0.30126 0.33011
# Poissons Ratio (z) = 0.11322 0.28256
#
# Static dielectric constant tensor:
#      x y z
#    x 2.129990 0.000000 0.046440 
#    y 0.000000 2.105380 0.000000 
#    z 0.046440 0.000000 2.155280 
# 
# From -- ./inp_files/62160.got.cif
#   From: 2010.05.17/outbox.cif.g08.bks.cpg/sg5_32_cif.got.tgz:62160.got - 2010.06.03 18:56:24.
