data_PCOD9127912
_publ_section_title
;
Structure prediction by ZEFSAII (Michael W. Deem and Ramdas Pophale) SiO2 
 PCOD9127912
Probable space group: C 2
;
_chemical_formula_sum "Si O2"
_cell_formula_units_Z 12
_cell_length_a 7.733985
_cell_length_b 13.751292
_cell_length_c 6.660818
_cell_angle_alpha 90.000000
_cell_angle_beta 60.638226
_cell_angle_gamma 90.000000
_cell_volume 617.393831
_symmetry_space_group_name_H-M "C 2"
_symmetry_group_IT_number 5
_symmetry_cell_setting 'monoclinic'
loop_
_space_group_symop_operation_xyz
x,y,z
-x,y,-z
1/2+x,1/2+y,z
1/2-x,1/2+y,-z
loop_
_atom_site_type_symbol
_atom_site_label
_atom_site_fract_x
_atom_site_fract_y
_atom_site_fract_z
Si Si1 0.000000 0.794760 0.000000
Si Si2 0.000000 0.061527 0.500000
Si Si3 0.268416 0.960481 0.668775
Si Si4 0.192403 0.611561 0.999469
O O1 0.839519 0.864333 0.191306
O O2 0.891297 0.719598 0.909645
O O3 0.869536 0.119044 0.737765
O O4 0.845599 0.996733 0.463178
O O5 0.500000 0.945128 0.500000
O O6 0.249427 0.045822 0.846709
O O7 0.000000 0.563586 0.000000
#
# Coordination Sequence:
#
# PCOD9127912 Si02
#       4
#     2   2   4   4
#     4  10  24  42  70 104 122 182 226 256 346 388
#     4  12  22  44  72  94 138 178 210 282 332 380
#     4  12  23  45  70  97 138 172 220 278 325 394
#     4  10  23  44  64 102 133 168 226 269 324 395
#
# _framework density 19.436540000000001
#
# number of rings (size 3 to 8) (size 9 to 14) (size 15 to 20)
#    1.000    0.000    6.667    0.000    2.333    0.000 
#    9.000    6.667    0.000    0.000    0.000    0.000 
#    0.000    0.000    0.000    0.000    0.000    0.000 
#
# Total GULP energy -33452.888803 kJ/mol
# GULP energy per Si atom -5575.481467 kJ/mol
# Density = 1.939230 g / cm^3
# Si number density = 19.436540 Si / 1000 Ang^3
#
#
#
# Elastic Constant Matrix: (Units=GPa)
#
#
# Indices 1 2 3 4 5 6 
#
# 1 144.2791 50.9620 58.0405 0.0000 -12.0047 0.0000
# 2 50.9620 139.3055 55.9739 0.0000 -3.4856 0.0000
# 3 58.0405 55.9739 103.3959 0.0000 -23.3917 0.0000
# 4 0.0000 0.0000 0.0000 -6.9381 0.0000 -14.4367
# 5 -12.0047 -3.4856 -23.3917 0.0000 51.3357 0.0000
# 6 0.0000 0.0000 0.0000 -14.4367 0.0000 32.0905
#
#
#
# Elastic Compliance Matrix: (Units=1/GPa)
#
#
# Indices 1 2 3 4 5 6 
#
# 1 0.009243 -0.001666 -0.004263 0.000000 0.000106 0.000000
# 2 -0.001666 0.009631 -0.004704 0.000000 -0.001879 0.000000
# 3 -0.004263 -0.004704 0.015958 0.000000 0.005955 0.000000
# 4 0.000000 0.000000 0.000000 -0.074445 0.000000 -0.033491
# 5 0.000106 -0.001879 0.005955 0.000000 0.022090 0.000000
# 6 0.000000 0.000000 0.000000 -0.033491 0.000000 0.016095
#
#
# Mechanical properties :
#
#
# Convention : Reuss Voigt Hill
#
# Bulk Modulus (GPa) = 73.70592 79.65926 76.68259
# Shear Modulus (GPa) = 205.25473 30.09790 117.67631
#
# Velocity S-wave (km/s) = 10.28746 3.93939 7.78943
# Velocity P-wave (km/s) = 13.38330 7.85907 10.97446
#
# Compressibility (1/GPa) = 0.01356743
#
# Stress axis : x y z
#
# Youngs Moduli (GPa) = 108.18930 103.83289 62.66445
#
# Poissons Ratio (x) = 0.17298 0.26712
# Poissons Ratio (y) = 0.18024 0.29475
# Poissons Ratio (z) = 0.46118 0.48839
#
# Static dielectric constant tensor:
#      x y z
#    x 1.698420 0.000000 -0.003010 
#    y 0.000000 1.657220 0.000000 
#    z -0.003010 0.000000 1.700800 
# 
# From -- ./inp_files/1401.got.cif
#   From: 2010.05.17/outbox.cif.g08.bks.cpg/sg5_1_cif.got.tgz:1401.got - 2010.06.03 18:56:24.
