data_PCOD9127566
_publ_section_title
;
Structure prediction by ZEFSAII (Michael W. Deem and Ramdas Pophale) SiO2 
 PCOD9127566
Probable space group: C 2
;
_chemical_formula_sum "Si O2"
_cell_formula_units_Z 24
_cell_length_a 17.499884
_cell_length_b 5.737727
_cell_length_c 25.642970
_cell_angle_alpha 90.000000
_cell_angle_beta 159.974535
_cell_angle_gamma 90.000000
_cell_volume 881.708475
_symmetry_space_group_name_H-M "C 2"
_symmetry_group_IT_number 5
_symmetry_cell_setting 'monoclinic'
loop_
_space_group_symop_operation_xyz
x,y,z
-x,y,-z
1/2+x,1/2+y,z
1/2-x,1/2+y,-z
loop_
_atom_site_type_symbol
_atom_site_label
_atom_site_fract_x
_atom_site_fract_y
_atom_site_fract_z
Si Si1 0.468455 0.173640 0.917375
Si Si2 0.879625 0.717828 0.641388
Si Si3 0.031151 0.574108 0.465068
Si Si4 0.462560 0.820904 0.750503
Si Si5 0.468411 0.586074 0.317366
Si Si6 0.017602 0.170452 0.122661
O O1 0.552545 0.415184 0.945156
O O2 0.197235 0.172551 0.744493
O O3 0.541482 0.923007 0.940728
O O4 0.500000 0.175916 0.000000
O O5 0.707852 0.915660 0.548526
O O6 0.988118 0.597118 0.760781
O O7 0.715805 0.568705 0.500183
O O8 0.071949 0.823585 0.728480
O O9 0.192357 0.794212 0.579277
O O10 0.000000 0.446700 0.500000
O O11 0.788830 0.650695 0.291535
O O12 0.543754 0.727816 0.745492
O O13 0.540731 0.697063 0.853137
#
# Coordination Sequence:
#
# PCOD9127566 Si02
#       6
#     4   4   4   4   4   4
#     4  12  28  49  71  96 130 184 240 288 334 395
#     4  11  20  35  63 102 142 175 217 269 351 413
#     4   9  20  34  59  99 137 176 211 271 339 417
#     4  10  23  38  62 102 139 176 217 275 349 415
#     4  11  23  37  66  99 140 178 220 277 333 415
#     4  11  25  45  69  97 136 178 230 283 341 404
#
# _framework density 27.219881999999998
#
# number of rings (size 3 to 8) (size 9 to 14) (size 15 to 20)
#    0.000    1.333    3.333    1.500   11.667    0.667 
#    0.000    1.667    0.000    0.000    0.000    0.000 
#    0.000    0.000    0.000    0.000    0.000    0.000 
#
# Total GULP energy -66946.161695 kJ/mol
# GULP energy per Si atom -5578.846808 kJ/mol
# Density = 2.715793 g / cm^3
# Si number density = 27.219882 Si / 1000 Ang^3
#
#
#
# Elastic Constant Matrix: (Units=GPa)
#
#
# Indices 1 2 3 4 5 6 
#
# 1 150.4230 67.5425 20.2322 0.0021 -17.1343 -0.0033
# 2 67.5425 172.1003 46.7487 0.0010 -29.8626 -0.0015
# 3 20.2322 46.7487 82.6129 -0.0171 -8.5032 -0.0009
# 4 0.0021 0.0010 -0.0171 28.3432 -0.0021 -14.0042
# 5 -17.1343 -29.8626 -8.5032 -0.0021 46.6100 0.0033
# 6 -0.0033 -0.0015 -0.0009 -14.0042 0.0033 50.9939
#
#
#
# Elastic Compliance Matrix: (Units=1/GPa)
#
#
# Indices 1 2 3 4 5 6 
#
# 1 0.008120 -0.002945 -0.000213 0.000000 0.001059 0.000000
# 2 -0.002945 0.008648 -0.003785 -0.000003 0.003768 -0.000001
# 3 -0.000213 -0.003785 0.014310 0.000010 0.000107 0.000003
# 4 0.000000 -0.000003 0.000010 0.040821 0.000001 0.011210
# 5 0.001059 0.003768 0.000107 0.000001 0.024278 -0.000001
# 6 0.000000 -0.000001 0.000003 0.011210 -0.000001 0.022689
#
#
# Mechanical properties :
#
#
# Convention : Reuss Voigt Hill
#
# Bulk Modulus (GPa) = 58.16703 74.90920 66.53811
# Shear Modulus (GPa) = 36.10614 43.23028 39.66821
#
# Velocity S-wave (km/s) = 3.64601 3.98953 3.82163
# Velocity P-wave (km/s) = 6.25622 6.98581 6.63106
#
# Compressibility (1/GPa) = 0.01719187
#
# Stress axis : x y z
#
# Youngs Moduli (GPa) = 123.15956 115.63101 69.88320
#
# Poissons Ratio (x) = 0.34053 0.01489
# Poissons Ratio (y) = 0.36270 0.26449
# Poissons Ratio (z) = 0.02623 0.43764
#
# Static dielectric constant tensor:
#      x y z
#    x 2.158510 -0.000010 0.014860 
#    y -0.000010 2.396360 0.000020 
#    z 0.014860 0.000020 2.345720 
# 
# From -- ./inp_files/45381.got.cif
#   From: 2010.05.17/outbox.cif.g08.bks.cpg/sg5_23_cif.got.tgz:45381.got - 2010.06.03 18:56:24.
