data_PCOD9127700
_publ_section_title
;
Structure prediction by ZEFSAII (Michael W. Deem and Ramdas Pophale) SiO2 
 PCOD9127700
Probable space group: C 2
;
_chemical_formula_sum "Si O2"
_cell_formula_units_Z 12
_cell_length_a 18.367029
_cell_length_b 5.150455
_cell_length_c 10.799082
_cell_angle_alpha 90.000000
_cell_angle_beta 25.217797
_cell_angle_gamma 90.000000
_cell_volume 435.253670
_symmetry_space_group_name_H-M "C 2"
_symmetry_group_IT_number 5
_symmetry_cell_setting 'monoclinic'
loop_
_space_group_symop_operation_xyz
x,y,z
-x,y,-z
1/2+x,1/2+y,z
1/2-x,1/2+y,-z
loop_
_atom_site_type_symbol
_atom_site_label
_atom_site_fract_x
_atom_site_fract_y
_atom_site_fract_z
Si Si1 0.908572 0.355860 0.510745
Si Si2 0.164457 0.738086 0.068757
Si Si3 0.628792 0.653627 0.686734
O O1 0.030938 0.650947 0.607086
O O2 0.958868 0.198545 0.312302
O O3 0.000000 0.289811 0.500000
O O4 0.714549 0.299309 0.849873
O O5 0.261166 0.471144 0.963071
O O6 0.735583 0.389891 0.521225
O O7 0.500000 0.673414 0.000000
#
# Coordination Sequence:
#
# PCOD9127700 Si02
#       3
#     4   4   4
#     4  10  24  44  73 103 138 183 238 289 344 415
#     4  10  23  41  68 107 141 176 229 296 350 403
#     4  12  28  49  72 104 146 189 232 289 358 422
#
# _framework density 27.570128
#
# number of rings (size 3 to 8) (size 9 to 14) (size 15 to 20)
#    0.000    1.333    0.000    3.000    0.000   33.333 
#    0.000    0.000    0.000    0.000    0.000    0.000 
#    0.000    0.000    0.000    0.000    0.000    0.000 
#
# Total GULP energy -33584.091255 kJ/mol
# GULP energy per Si atom -5597.348543 kJ/mol
# Density = 2.750738 g / cm^3
# Si number density = 27.570128 Si / 1000 Ang^3
#
#
#
# Elastic Constant Matrix: (Units=GPa)
#
#
# Indices 1 2 3 4 5 6 
#
# 1 128.8815 36.4959 47.3530 -0.0004 43.5664 0.0000
# 2 36.4959 182.3983 73.4653 -0.0021 -2.8700 0.0009
# 3 47.3530 73.4653 297.1732 -0.0009 32.8527 0.0007
# 4 -0.0004 -0.0021 -0.0009 74.2915 0.0002 -18.9179
# 5 43.5664 -2.8700 32.8527 0.0002 43.0594 -0.0001
# 6 0.0000 0.0009 0.0007 -18.9179 -0.0001 49.5956
#
#
#
# Elastic Compliance Matrix: (Units=1/GPa)
#
#
# Indices 1 2 3 4 5 6 
#
# 1 0.013113 -0.002886 0.000122 0.000000 -0.013553 0.000000
# 2 -0.002886 0.006840 -0.001752 0.000000 0.004713 0.000000
# 3 0.000122 -0.001752 0.004156 0.000000 -0.003411 0.000000
# 4 0.000000 0.000000 0.000000 0.014909 0.000000 0.005687
# 5 -0.013553 0.004713 -0.003411 0.000000 0.039853 0.000000
# 6 0.000000 0.000000 0.000000 0.005687 0.000000 0.022332
#
#
# Mechanical properties :
#
#
# Convention : Reuss Voigt Hill
#
# Bulk Modulus (GPa) = 66.32800 102.56458 84.44629
# Shear Modulus (GPa) = 43.38032 63.46523 53.42277
#
# Velocity S-wave (km/s) = 3.97098 4.80308 4.40671
# Velocity P-wave (km/s) = 6.71826 8.24873 7.52252
#
# Compressibility (1/GPa) = 0.01507659
#
# Stress axis : x y z
#
# Youngs Moduli (GPa) = 76.26149 146.20250 240.62868
#
# Poissons Ratio (x) = 0.42198 -0.02944
# Poissons Ratio (y) = 0.22011 0.42158
# Poissons Ratio (z) = -0.00933 0.25615
#
# Static dielectric constant tensor:
#      x y z
#    x 2.402070 0.000000 -0.216750 
#    y 0.000000 2.155600 0.000000 
#    z -0.216750 0.000000 2.372480 
# 
# From -- ./inp_files/17736.got.cif
#   From: 2010.05.17/outbox.cif.g08.bks.cpg/sg5_9_cif.got.tgz:17736.got - 2010.06.03 18:56:24.
