data_PCOD9127670
_publ_section_title
;
Structure prediction by ZEFSAII (Michael W. Deem and Ramdas Pophale) SiO2 
 PCOD9127670
Probable space group: C 2
;
_chemical_formula_sum "Si O2"
_cell_formula_units_Z 22
_cell_length_a 10.823993
_cell_length_b 19.411873
_cell_length_c 5.223146
_cell_angle_alpha 90.000000
_cell_angle_beta 76.376397
_cell_angle_gamma 90.000000
_cell_volume 1066.578016
_symmetry_space_group_name_H-M "C 2"
_symmetry_group_IT_number 5
_symmetry_cell_setting 'monoclinic'
loop_
_space_group_symop_operation_xyz
x,y,z
-x,y,-z
1/2+x,1/2+y,z
1/2-x,1/2+y,-z
loop_
_atom_site_type_symbol
_atom_site_label
_atom_site_fract_x
_atom_site_fract_y
_atom_site_fract_z
Si Si1 0.500000 0.043020 0.000000
Si Si2 0.919524 0.996907 0.798219
Si Si3 0.654036 0.751517 0.906639
Si Si4 0.699141 0.979479 0.563647
Si Si5 0.248149 0.599629 0.145558
Si Si6 0.152696 0.336608 0.407514
O O1 0.615338 0.087030 0.062070
O O2 0.437417 0.995511 0.247765
O O3 0.000000 0.002141 0.500000
O O4 0.791452 0.961480 0.756396
O O5 0.864494 0.069733 0.921610
O O6 0.000000 0.968315 0.000000
O O7 0.721725 0.678763 0.825615
O O8 0.689436 0.800783 0.654882
O O9 0.500000 0.741942 0.000000
O O10 0.691009 0.789143 0.151881
O O11 0.701024 0.914701 0.376173
O O12 0.741144 0.049000 0.395336
O O13 0.000000 0.340317 0.500000
#
# Coordination Sequence:
#
# PCOD9127670 Si02
#       6
#     2   4   4   4   4   4
#     4  10  24  38  68 102 128 176 228 278 326 384
#     4  11  23  39  64  99 132 166 215 278 328 388
#     4  10  24  39  65  97 132 172 212 276 336 392
#     4  11  24  41  72  98 136 175 226 280 331 394
#     4  11  23  41  68  97 135 173 227 272 332 394
#     4  10  23  41  64  96 133 168 220 272 335 388
#
# _framework density 20.626712999999999
#
# number of rings (size 3 to 8) (size 9 to 14) (size 15 to 20)
#    0.000    1.455    1.818    2.182   14.000    0.727 
#    0.000    0.000    6.000    0.000    0.000    0.000 
#    0.000    0.000    0.000    0.000    0.000    0.000 
#
# Total GULP energy -61416.042837 kJ/mol
# GULP energy per Si atom -5583.276622 kJ/mol
# Density = 2.057977 g / cm^3
# Si number density = 20.626713 Si / 1000 Ang^3
#
#
#
# Elastic Constant Matrix: (Units=GPa)
#
#
# Indices 1 2 3 4 5 6 
#
# 1 76.3427 28.8013 31.8296 0.0000 14.0256 0.0000
# 2 28.8013 135.0157 57.4077 0.0000 3.6240 0.0000
# 3 31.8296 57.4077 151.5925 0.0000 8.9428 0.0000
# 4 0.0000 0.0000 0.0000 30.8620 0.0000 -0.7262
# 5 14.0256 3.6240 8.9428 0.0000 31.5143 0.0000
# 6 0.0000 0.0000 0.0000 -0.7262 0.0000 13.4273
#
#
#
# Elastic Compliance Matrix: (Units=1/GPa)
#
#
# Indices 1 2 3 4 5 6 
#
# 1 0.016013 -0.002354 -0.002101 0.000000 -0.006260 0.000000
# 2 -0.002354 0.009174 -0.003030 0.000000 0.000853 0.000000
# 3 -0.002101 -0.003030 0.008248 0.000000 -0.001057 0.000000
# 4 0.000000 0.000000 0.000000 0.032444 0.000000 0.001755
# 5 -0.006260 0.000853 -0.001057 0.000000 0.034719 0.000000
# 6 0.000000 0.000000 0.000000 0.001755 0.000000 0.074570
#
#
# Mechanical properties :
#
#
# Convention : Reuss Voigt Hill
#
# Bulk Modulus (GPa) = 54.16168 66.55867 60.36017
# Shear Modulus (GPa) = 25.47190 31.48820 28.48005
#
# Velocity S-wave (km/s) = 3.51792 3.91138 3.71986
# Velocity P-wave (km/s) = 6.54340 7.26201 6.91205
#
# Compressibility (1/GPa) = 0.01846324
#
# Stress axis : x y z
#
# Youngs Moduli (GPa) = 62.44837 108.99966 121.24525
#
# Poissons Ratio (x) = 0.25663 0.25478
# Poissons Ratio (y) = 0.14703 0.36740
# Poissons Ratio (z) = 0.13123 0.33030
#
# Static dielectric constant tensor:
#      x y z
#    x 1.809480 0.000000 0.014770 
#    y 0.000000 1.712770 0.000000 
#    z 0.014770 0.000000 1.765050 
# 
# From -- ./inp_files/5118.got.cif
#   From: 2010.05.17/outbox.cif.g08.bks.cpg/sg5_3_cif.got.tgz:5118.got - 2010.06.03 18:56:24.
