data_PCOD9127248
_publ_section_title
;
Structure prediction by ZEFSAII (Michael W. Deem and Ramdas Pophale) SiO2 
 PCOD9127248
Probable space group: C 2
;
_chemical_formula_sum "Si O2"
_cell_formula_units_Z 18
_cell_length_a 12.644677
_cell_length_b 8.432947
_cell_length_c 9.964102
_cell_angle_alpha 90.000000
_cell_angle_beta 56.738517
_cell_angle_gamma 90.000000
_cell_volume 888.429774
_symmetry_space_group_name_H-M "C 2"
_symmetry_group_IT_number 5
_symmetry_cell_setting 'monoclinic'
loop_
_space_group_symop_operation_xyz
x,y,z
-x,y,-z
1/2+x,1/2+y,z
1/2-x,1/2+y,-z
loop_
_atom_site_type_symbol
_atom_site_label
_atom_site_fract_x
_atom_site_fract_y
_atom_site_fract_z
Si Si1 0.168377 0.185400 0.687531
Si Si2 0.634599 0.912151 0.463964
Si Si3 0.500000 0.475677 0.000000
Si Si4 0.851723 0.405924 0.065424
Si Si5 0.738014 0.264256 0.884788
O O1 0.121267 0.294020 0.598689
O O2 0.215307 0.306313 0.770068
O O3 0.276617 0.062827 0.566035
O O4 0.063207 0.082033 0.839652
O O5 0.500000 0.965903 0.500000
O O6 0.701282 0.815416 0.297879
O O7 0.390844 0.365858 0.014388
O O8 0.795439 0.580336 0.090232
O O9 0.828048 0.313736 0.943947
O O10 0.000000 0.417644 0.000000
#
# Coordination Sequence:
#
# PCOD9127248 Si02
#       5
#     4   4   2   4   4
#     4  11  24  46  67  99 139 173 231 272 339 394
#     4  11  25  44  66  97 140 181 215 280 333 407
#     4  10  22  44  72 104 130 178 232 282 324 416
#     4  12  24  43  70 102 134 178 224 288 327 404
#     4  11  24  43  71 102 136 177 231 274 346 390
#
# _framework density 20.260463000000001
#
# number of rings (size 3 to 8) (size 9 to 14) (size 15 to 20)
#    0.000    0.889    2.222    5.333    3.111    0.000 
#    8.000    1.111    0.000    0.000    0.000    0.000 
#    0.000    0.000    0.000    0.000    0.000    0.000 
#
# Total GULP energy -50345.708162 kJ/mol
# GULP energy per Si atom -5593.967574 kJ/mol
# Density = 2.021435 g / cm^3
# Si number density = 20.260463 Si / 1000 Ang^3
#
#
#
# Elastic Constant Matrix: (Units=GPa)
#
#
# Indices 1 2 3 4 5 6 
#
# 1 101.0621 41.9456 38.4138 0.0000 4.7508 0.0000
# 2 41.9456 125.6277 31.7349 0.0000 -3.4002 0.0000
# 3 38.4138 31.7349 71.7930 0.0000 9.3644 0.0000
# 4 0.0000 0.0000 0.0000 21.8909 0.0000 12.0322
# 5 4.7508 -3.4002 9.3644 0.0000 41.2739 0.0000
# 6 0.0000 0.0000 0.0000 12.0322 0.0000 20.5814
#
#
#
# Elastic Compliance Matrix: (Units=1/GPa)
#
#
# Indices 1 2 3 4 5 6 
#
# 1 0.013356 -0.003020 -0.005748 0.000000 -0.000482 0.000000
# 2 -0.003020 0.009759 -0.002935 0.000000 0.001817 0.000000
# 3 -0.005748 -0.002935 0.018804 0.000000 -0.003846 0.000000
# 4 0.000000 0.000000 0.000000 0.067310 0.000000 -0.039350
# 5 -0.000482 0.001817 -0.003846 0.000000 0.025306 0.000000
# 6 0.000000 0.000000 0.000000 -0.039350 0.000000 0.071592
#
#
# Mechanical properties :
#
#
# Convention : Reuss Voigt Hill
#
# Bulk Modulus (GPa) = 54.01991 58.07460 56.04725
# Shear Modulus (GPa) = 21.21298 29.17516 25.19407
#
# Velocity S-wave (km/s) = 3.23927 3.79886 3.53017
# Velocity P-wave (km/s) = 6.38052 6.92589 6.65879
#
# Compressibility (1/GPa) = 0.01851169
#
# Stress axis : x y z
#
# Youngs Moduli (GPa) = 74.87190 102.46903 53.18119
#
# Poissons Ratio (x) = 0.30950 0.30571
# Poissons Ratio (y) = 0.22614 0.15608
# Poissons Ratio (z) = 0.43039 0.30072
#
# Static dielectric constant tensor:
#      x y z
#    x 1.717030 0.000000 -0.019810 
#    y 0.000000 1.703250 0.000000 
#    z -0.019810 0.000000 1.723370 
# 
# From -- ./inp_files/17982.got.cif
#   From: 2010.05.17/outbox.cif.g08.bks.cpg/sg5_9_cif.got.tgz:17982.got - 2010.06.03 18:56:24.
