data_PCOD9127831
_publ_section_title
;
Structure prediction by ZEFSAII (Michael W. Deem and Ramdas Pophale) SiO2 
 PCOD9127831
Probable space group: C 2
;
_chemical_formula_sum "Si O2"
_cell_formula_units_Z 28
_cell_length_a 23.671019
_cell_length_b 5.175748
_cell_length_c 16.103982
_cell_angle_alpha 90.000000
_cell_angle_beta 146.260686
_cell_angle_gamma 90.000000
_cell_volume 1095.824674
_symmetry_space_group_name_H-M "C 2"
_symmetry_group_IT_number 5
_symmetry_cell_setting 'monoclinic'
loop_
_space_group_symop_operation_xyz
x,y,z
-x,y,-z
1/2+x,1/2+y,z
1/2-x,1/2+y,-z
loop_
_atom_site_type_symbol
_atom_site_label
_atom_site_fract_x
_atom_site_fract_y
_atom_site_fract_z
Si Si1 0.338664 0.982220 0.727925
Si Si2 0.212124 0.424358 0.856667
Si Si3 0.032890 0.979673 0.136432
Si Si4 0.888246 0.057245 0.526724
Si Si5 0.406826 0.707357 0.148257
Si Si6 0.642460 0.091957 0.052392
Si Si7 0.598858 0.062730 0.568185
O O1 0.400716 0.738396 0.769921
O O2 0.484280 0.580349 0.704728
O O3 0.389088 0.243036 0.756901
O O4 0.218850 0.977913 0.564319
O O5 0.117322 0.388548 0.801655
O O6 0.250563 0.164473 0.858783
O O7 0.185122 0.595574 0.743888
O O8 0.306521 0.529889 0.024666
O O9 0.000000 0.006762 0.000000
O O10 0.927461 0.849973 0.041238
O O11 0.649800 0.004253 0.156704
O O12 0.874447 0.331888 0.462731
O O13 0.915834 0.831028 0.496188
O O14 0.406225 0.875299 0.064641
O O15 0.500000 0.985462 0.500000
#
# Coordination Sequence:
#
# PCOD9127831 Si02
#       7
#     4   4   4   4   4   4   4
#     4  11  23  46  75 110 140 193 263 321 376 444
#     4  12  26  45  72 112 157 212 256 309 384 482
#     4  10  23  42  76 112 139 184 261 327 375 445
#     4  12  27  46  74 109 152 203 255 321 379 457
#     4  12  28  44  72 116 161 209 253 311 397 485
#     4  11  25  45  76 111 157 201 248 329 394 462
#     4  12  26  45  73 103 153 204 261 307 369 454
#
# _framework density 25.551532000000002
#
# number of rings (size 3 to 8) (size 9 to 14) (size 15 to 20)
#    0.000    0.571    4.286    3.429   12.000    0.000 
#    0.000    0.000    3.143    0.000    0.000    0.000 
#    0.000    0.000    0.000    0.000    0.000    0.000 
#
# Total GULP energy -78438.451745 kJ/mol
# GULP energy per Si atom -5602.746553 kJ/mol
# Density = 2.549338 g / cm^3
# Si number density = 25.551532 Si / 1000 Ang^3
#
#
#
# Elastic Constant Matrix: (Units=GPa)
#
#
# Indices 1 2 3 4 5 6 
#
# 1 72.5206 19.8546 26.3296 0.0001 11.3961 -0.0001
# 2 19.8546 147.5904 37.3160 0.0009 -2.3222 0.0004
# 3 26.3296 37.3160 150.2507 0.0000 -4.6898 0.0000
# 4 0.0001 0.0009 0.0000 40.2581 0.0000 -2.4722
# 5 11.3961 -2.3222 -4.6898 0.0000 51.2314 -0.0001
# 6 -0.0001 0.0004 0.0000 -2.4722 -0.0001 37.7957
#
#
#
# Elastic Compliance Matrix: (Units=1/GPa)
#
#
# Indices 1 2 3 4 5 6 
#
# 1 0.015711 -0.001544 -0.002488 0.000000 -0.003793 0.000000
# 2 -0.001544 0.007383 -0.001546 0.000000 0.000537 0.000000
# 3 -0.002488 -0.001546 0.007512 0.000000 0.001171 0.000000
# 4 0.000000 0.000000 0.000000 0.024940 0.000000 0.001631
# 5 -0.003793 0.000537 0.001171 0.000000 0.020494 0.000000
# 6 0.000000 0.000000 0.000000 0.001631 0.000000 0.026565
#
#
# Mechanical properties :
#
#
# Convention : Reuss Voigt Hill
#
# Bulk Modulus (GPa) = 51.41618 59.70689 55.56153
# Shear Modulus (GPa) = 41.58177 44.98114 43.28146
#
# Velocity S-wave (km/s) = 4.03844 4.20027 4.12015
# Velocity P-wave (km/s) = 6.47392 6.85135 6.66531
#
# Compressibility (1/GPa) = 0.01944913
#
# Stress axis : x y z
#
# Youngs Moduli (GPa) = 63.64859 135.45351 133.11843
#
# Poissons Ratio (x) = 0.20916 0.33121
# Poissons Ratio (y) = 0.09828 0.20583
# Poissons Ratio (z) = 0.15836 0.20944
#
# Static dielectric constant tensor:
#      x y z
#    x 2.139490 0.000000 -0.013800 
#    y 0.000000 2.003790 0.000000 
#    z -0.013800 0.000000 2.015650 
# 
# From -- ./inp_files/67247.got.cif
#   From: 2010.05.17/outbox.cif.g08.bks.cpg/sg5_34_cif.got.tgz:67247.got - 2010.06.03 18:56:24.
