data_PCOD9127474
_publ_section_title
;
Structure prediction by ZEFSAII (Michael W. Deem and Ramdas Pophale) SiO2 
 PCOD9127474
Probable space group: C 2
;
_chemical_formula_sum "Si O2"
_cell_formula_units_Z 18
_cell_length_a 11.593849
_cell_length_b 9.147050
_cell_length_c 16.628172
_cell_angle_alpha 90.000000
_cell_angle_beta 24.467415
_cell_angle_gamma 90.000000
_cell_volume 730.361347
_symmetry_space_group_name_H-M "C 2"
_symmetry_group_IT_number 5
_symmetry_cell_setting 'monoclinic'
loop_
_space_group_symop_operation_xyz
x,y,z
-x,y,-z
1/2+x,1/2+y,z
1/2-x,1/2+y,-z
loop_
_atom_site_type_symbol
_atom_site_label
_atom_site_fract_x
_atom_site_fract_y
_atom_site_fract_z
Si Si1 0.600350 0.603510 0.679433
Si Si2 0.000000 0.315874 0.000000
Si Si3 0.200749 0.604798 0.076700
Si Si4 0.697155 0.917510 0.582013
Si Si5 0.265117 0.575637 0.743705
O O1 0.770181 0.752955 0.559595
O O2 0.764534 0.465789 0.535796
O O3 0.470833 0.580759 0.849101
O O4 0.334313 0.635750 0.788953
O O5 0.228439 0.219418 0.899081
O O6 0.122517 0.419488 0.853289
O O7 0.090221 0.462020 0.193605
O O8 0.948741 0.656119 0.178109
O O9 0.918638 0.032106 0.478338
#
# Coordination Sequence:
#
# PCOD9127474 Si02
#       5
#     4   2   4   4   4
#     4  10  23  42  75 105 143 190 240 296 369 427
#     4  12  24  44  76 104 146 196 244 290 378 432
#     4  12  23  43  73 105 140 189 240 302 359 432
#     4  10  23  43  72 107 139 190 243 292 371 433
#     4  10  22  47  70 102 147 187 239 302 354 432
#
# _framework density 24.645334999999999
#
# number of rings (size 3 to 8) (size 9 to 14) (size 15 to 20)
#    1.333    0.000    2.222    3.333    0.000    0.000 
#    8.000    3.333    9.778    0.000    0.000    0.000 
#    0.000    0.000    0.000    0.000    0.000    0.000 
#
# Total GULP energy -50135.625522 kJ/mol
# GULP energy per Si atom -5570.625058 kJ/mol
# Density = 2.458924 g / cm^3
# Si number density = 24.645335 Si / 1000 Ang^3
#
#
#
# Elastic Constant Matrix: (Units=GPa)
#
#
# Indices 1 2 3 4 5 6 
#
# 1 86.0168 19.6554 7.3869 -0.0014 -13.7550 0.0002
# 2 19.6554 56.9234 38.3507 -0.0143 14.6436 0.0025
# 3 7.3869 38.3507 122.1156 -0.0246 45.8847 0.0026
# 4 -0.0014 -0.0143 -0.0246 33.9064 0.0056 6.6652
# 5 -13.7550 14.6436 45.8847 0.0056 41.8356 0.0016
# 6 0.0002 0.0025 0.0026 6.6652 0.0016 9.2996
#
#
#
# Elastic Compliance Matrix: (Units=1/GPa)
#
#
# Indices 1 2 3 4 5 6 
#
# 1 0.014784 -0.005763 -0.002839 -0.000007 0.009991 0.000005
# 2 -0.005763 0.024529 -0.005812 0.000009 -0.004106 -0.000010
# 3 -0.002839 -0.005812 0.016623 0.000014 -0.017131 -0.000010
# 4 -0.000007 0.000009 0.000014 0.034330 -0.000025 -0.024604
# 5 0.009991 -0.004106 -0.017131 -0.000025 0.047414 0.000015
# 6 0.000005 -0.000010 -0.000010 -0.024604 0.000015 0.125166
#
#
# Mechanical properties :
#
#
# Convention : Reuss Voigt Hill
#
# Bulk Modulus (GPa) = 36.88798 43.98241 40.43520
# Shear Modulus (GPa) = 16.62741 30.31917 23.47329
#
# Velocity S-wave (km/s) = 2.60025 3.51125 3.08952
# Velocity P-wave (km/s) = 4.90052 5.85862 5.40086
#
# Compressibility (1/GPa) = 0.02710910
#
# Stress axis : x y z
#
# Youngs Moduli (GPa) = 67.64099 40.76770 60.15838
#
# Poissons Ratio (x) = 0.23493 0.17078
# Poissons Ratio (y) = 0.38978 0.34965
# Poissons Ratio (z) = 0.19202 0.23695
#
# Static dielectric constant tensor:
#      x y z
#    x 2.183660 0.000000 0.040630 
#    y 0.000000 1.998330 0.000010 
#    z 0.040630 0.000010 2.250400 
# 
# From -- ./inp_files/65822.got.cif
#   From: 2010.05.17/outbox.cif.g08.bks.cpg/sg5_33_cif.got.tgz:65822.got - 2010.06.03 18:56:24.
