data_PCOD9127778
_publ_section_title
;
Structure prediction by ZEFSAII (Michael W. Deem and Ramdas Pophale) SiO2 
 PCOD9127778
Probable space group: C 2
;
_chemical_formula_sum "Si O2"
_cell_formula_units_Z 26
_cell_length_a 18.010847
_cell_length_b 10.401029
_cell_length_c 7.603911
_cell_angle_alpha 90.000000
_cell_angle_beta 124.198253
_cell_angle_gamma 90.000000
_cell_volume 1178.160041
_symmetry_space_group_name_H-M "C 2"
_symmetry_group_IT_number 5
_symmetry_cell_setting 'monoclinic'
loop_
_space_group_symop_operation_xyz
x,y,z
-x,y,-z
1/2+x,1/2+y,z
1/2-x,1/2+y,-z
loop_
_atom_site_type_symbol
_atom_site_label
_atom_site_fract_x
_atom_site_fract_y
_atom_site_fract_z
Si Si1 0.343283 0.702390 0.568831
Si Si2 0.740780 0.880341 0.804725
Si Si3 0.826791 0.642819 0.120753
Si Si4 0.592627 0.454702 0.224819
Si Si5 0.358264 0.193354 0.562132
Si Si6 0.000000 0.303122 0.000000
Si Si7 0.503754 0.004597 0.716304
O O1 0.339646 0.817885 0.421680
O O2 0.380502 0.558151 0.587586
O O3 0.239558 0.691619 0.483538
O O4 0.408188 0.735838 0.817789
O O5 0.821580 0.938970 0.792622
O O6 0.713565 0.999994 0.892861
O O7 0.773113 0.751681 0.946991
O O8 0.846525 0.700010 0.338209
O O9 0.920018 0.611484 0.150252
O O10 0.585864 0.314310 0.298834
O O11 0.500000 0.485601 0.000000
O O12 0.411664 0.063089 0.666734
O O13 0.974003 0.382272 0.139099
O O14 0.500000 0.986824 0.500000
#
# Coordination Sequence:
#
# PCOD9127778 Si02
#       7
#     4   4   4   4   4   2   4
#     4  11  24  43  65 101 136 175 230 287 352 419
#     4  11  26  42  72 103 139 186 235 292 359 423
#     4  11  24  44  68 103 141 181 236 295 354 419
#     4  11  23  43  68 100 135 178 233 289 353 423
#     4  10  23  42  67  94 132 174 232 283 341 423
#     4  12  26  42  72 100 138 188 226 298 366 412
#     4  10  24  43  70 100 135 180 241 285 345 431
#
# _framework density 22.068307999999998
#
# number of rings (size 3 to 8) (size 9 to 14) (size 15 to 20)
#    0.000    1.231    2.308    2.769   11.846    0.000 
#    0.000    0.000    0.000    0.000    0.000    0.000 
#    0.000    0.000    0.000    0.000    0.000    0.000 
#
# Total GULP energy -72531.800832 kJ/mol
# GULP energy per Si atom -5579.369295 kJ/mol
# Density = 2.201808 g / cm^3
# Si number density = 22.068308 Si / 1000 Ang^3
#
#
#
# Elastic Constant Matrix: (Units=GPa)
#
#
# Indices 1 2 3 4 5 6 
#
# 1 46.6118 25.4660 8.3322 0.0000 12.6400 0.0000
# 2 25.4660 123.7952 45.2858 0.0000 6.8463 0.0000
# 3 8.3322 45.2858 88.9973 0.0000 17.4892 0.0000
# 4 0.0000 0.0000 0.0000 55.9667 0.0000 -2.7532
# 5 12.6400 6.8463 17.4892 0.0000 24.1466 0.0000
# 6 0.0000 0.0000 0.0000 -2.7532 0.0000 23.3277
#
#
#
# Elastic Compliance Matrix: (Units=1/GPa)
#
#
# Indices 1 2 3 4 5 6 
#
# 1 0.028545 -0.006336 0.003655 0.000000 -0.015793 0.000000
# 2 -0.006336 0.011352 -0.006066 0.000000 0.004491 0.000000
# 3 0.003655 -0.006066 0.016345 0.000000 -0.012032 0.000000
# 4 0.000000 0.000000 0.000000 0.017972 0.000000 0.002121
# 5 -0.015793 0.004491 -0.012032 0.000000 0.057122 0.000000
# 6 0.000000 0.000000 0.000000 0.002121 0.000000 0.043118
#
#
# Mechanical properties :
#
#
# Convention : Reuss Voigt Hill
#
# Bulk Modulus (GPa) = 25.80727 46.39691 36.10209
# Shear Modulus (GPa) = 24.40663 32.70955 28.55809
#
# Velocity S-wave (km/s) = 3.32920 3.85411 3.60123
# Velocity P-wave (km/s) = 5.14760 6.39339 5.80401
#
# Compressibility (1/GPa) = 0.03874877
#
# Stress axis : x y z
#
# Youngs Moduli (GPa) = 35.03295 88.09279 61.18055
#
# Poissons Ratio (x) = 0.55811 -0.22361
# Poissons Ratio (y) = 0.22195 0.37110
# Poissons Ratio (z) = -0.12804 0.53434
#
# Static dielectric constant tensor:
#      x y z
#    x 1.813440 0.000000 0.024830 
#    y 0.000000 1.844140 0.000000 
#    z 0.024830 0.000000 1.875260 
# 
# From -- ./inp_files/29136.got.cif
#   From: 2010.05.17/outbox.cif.g08.bks.cpg/sg5_15_cif.got.tgz:29136.got - 2010.06.03 18:56:24.
