data_PCOD9127741
_publ_section_title
;
Structure prediction by ZEFSAII (Michael W. Deem and Ramdas Pophale) SiO2 
 PCOD9127741
Probable space group: C 2
;
_chemical_formula_sum "Si O2"
_cell_formula_units_Z 22
_cell_length_a 30.227202
_cell_length_b 5.073775
_cell_length_c 12.787805
_cell_angle_alpha 90.000000
_cell_angle_beta 26.635435
_cell_angle_gamma 90.000000
_cell_volume 879.236118
_symmetry_space_group_name_H-M "C 2"
_symmetry_group_IT_number 5
_symmetry_cell_setting 'monoclinic'
loop_
_space_group_symop_operation_xyz
x,y,z
-x,y,-z
1/2+x,1/2+y,z
1/2-x,1/2+y,-z
loop_
_atom_site_type_symbol
_atom_site_label
_atom_site_fract_x
_atom_site_fract_y
_atom_site_fract_z
Si Si1 0.807757 0.983180 0.401027
Si Si2 0.553351 0.193846 0.188902
Si Si3 0.700925 0.661721 0.152275
Si Si4 0.500000 0.885070 0.500000
Si Si5 0.935898 0.189146 0.949064
Si Si6 0.865397 0.949944 0.503773
O O1 0.751791 0.753067 0.458111
O O2 0.826132 0.858029 0.475848
O O3 0.898216 0.076999 0.137860
O O4 0.596909 0.480739 0.071755
O O5 0.436350 0.238868 0.410510
O O6 0.554765 0.068552 0.299735
O O7 0.592975 0.980310 0.022659
O O8 0.584472 0.711386 0.376319
O O9 0.709441 0.562770 0.253515
O O10 0.743309 0.432134 0.989587
O O11 0.054267 0.172570 0.697117
#
# Coordination Sequence:
#
# PCOD9127741 Si02
#       6
#     4   4   4   2   4   4
#     4  12  28  45  72 109 148 183 244 310 370 443
#     4  10  23  41  77  97 140 189 247 289 361 442
#     4  12  29  47  77 113 152 201 251 314 371 445
#     4  12  24  52  72 114 150 202 254 302 376 452
#     4  10  23  46  72  99 134 201 227 291 368 437
#     4  10  26  50  70 103 147 188 247 297 374 438
#
# _framework density 25.021723000000001
#
# number of rings (size 3 to 8) (size 9 to 14) (size 15 to 20)
#    1.091    0.000    1.818    2.727    2.545   10.909 
#    3.273    0.000    0.000    0.000    0.000    0.000 
#    0.000    0.000    0.000    0.000    0.000    0.000 
#
# Total GULP energy -61549.538887 kJ/mol
# GULP energy per Si atom -5595.412626 kJ/mol
# Density = 2.496477 g / cm^3
# Si number density = 25.021723 Si / 1000 Ang^3
#
#
#
# Elastic Constant Matrix: (Units=GPa)
#
#
# Indices 1 2 3 4 5 6 
#
# 1 84.4969 -0.0784 17.1509 0.0000 18.5135 0.0000
# 2 -0.0784 116.8566 14.9139 -0.0001 -4.0380 0.0000
# 3 17.1509 14.9139 106.6226 0.0001 21.6978 -0.0001
# 4 0.0000 -0.0001 0.0001 39.3441 0.0000 2.5603
# 5 18.5135 -4.0380 21.6978 0.0000 37.0156 -0.0001
# 6 0.0000 0.0000 -0.0001 2.5603 -0.0001 30.2175
#
#
#
# Elastic Compliance Matrix: (Units=1/GPa)
#
#
# Indices 1 2 3 4 5 6 
#
# 1 0.013367 -0.000092 -0.000880 0.000000 -0.006180 0.000000
# 2 -0.000092 0.008832 -0.001619 0.000000 0.001959 0.000000
# 3 -0.000880 -0.001619 0.011006 0.000000 -0.006188 0.000000
# 4 0.000000 0.000000 0.000000 0.025558 0.000000 -0.002165
# 5 -0.006180 0.001959 -0.006188 0.000000 0.033948 0.000000
# 6 0.000000 0.000000 0.000000 -0.002165 0.000000 0.033277
#
#
# Mechanical properties :
#
#
# Convention : Reuss Voigt Hill
#
# Bulk Modulus (GPa) = 35.68484 41.32765 38.50625
# Shear Modulus (GPa) = 35.58448 39.71475 37.64961
#
# Velocity S-wave (km/s) = 3.77522 3.98830 3.88322
# Velocity P-wave (km/s) = 5.77023 6.14502 5.96057
#
# Compressibility (1/GPa) = 0.02802310
#
# Stress axis : x y z
#
# Youngs Moduli (GPa) = 74.80942 113.22771 90.85825
#
# Poissons Ratio (x) = 0.01045 0.07992
# Poissons Ratio (y) = 0.00691 0.14711
# Poissons Ratio (z) = 0.06581 0.18333
#
# Static dielectric constant tensor:
#      x y z
#    x 2.016580 0.000000 -0.058920 
#    y 0.000000 1.883540 0.000000 
#    z -0.058920 0.000000 1.992120 
# 
# From -- ./inp_files/48210.got.cif
#   From: 2010.05.17/outbox.cif.g08.bks.cpg/sg5_25_cif.got.tgz:48210.got - 2010.06.03 18:56:24.
