data_PCOD9127240
_publ_section_title
;
Structure prediction by ZEFSAII (Michael W. Deem and Ramdas Pophale) SiO2 
 PCOD9127240
Probable space group: C 2
;
_chemical_formula_sum "Si O2"
_cell_formula_units_Z 28
_cell_length_a 13.869286
_cell_length_b 5.615644
_cell_length_c 15.409299
_cell_angle_alpha 90.000000
_cell_angle_beta 69.965064
_cell_angle_gamma 90.000000
_cell_volume 1127.524263
_symmetry_space_group_name_H-M "C 2"
_symmetry_group_IT_number 5
_symmetry_cell_setting 'monoclinic'
loop_
_space_group_symop_operation_xyz
x,y,z
-x,y,-z
1/2+x,1/2+y,z
1/2-x,1/2+y,-z
loop_
_atom_site_type_symbol
_atom_site_label
_atom_site_fract_x
_atom_site_fract_y
_atom_site_fract_z
Si Si1 0.191224 0.208250 0.027582
Si Si2 0.538471 0.095907 0.665510
Si Si3 0.375539 0.919628 0.118951
Si Si4 0.197830 0.735193 0.485882
Si Si5 0.813282 0.706071 0.714919
Si Si6 0.014872 0.209559 0.202809
Si Si7 0.659127 0.322603 0.777874
O O1 0.119385 0.258715 0.966075
O O2 0.244791 0.469703 0.013396
O O3 0.126726 0.154197 0.134185
O O4 0.587061 0.164807 0.559351
O O5 0.429653 0.229309 0.712075
O O6 0.507766 0.822938 0.696505
O O7 0.630436 0.160199 0.703653
O O8 0.272648 0.839183 0.202501
O O9 0.477542 0.912164 0.145833
O O10 0.355544 0.201200 0.123912
O O11 0.236277 0.990949 0.513496
O O12 0.192981 0.768542 0.384161
O O13 0.770637 0.435648 0.734457
O O14 0.929824 0.016078 0.207083
#
# Coordination Sequence:
#
# PCOD9127240 Si02
#       7
#     4   4   4   4   4   4   4
#     4  12  29  46  71 110 146 186 250 305 364 445
#     4  11  24  43  71 106 142 194 246 305 371 448
#     4  10  24  45  70 100 141 195 236 305 367 441
#     4  12  25  48  73 106 154 192 248 307 371 444
#     4  11  24  43  71 106 142 194 246 305 371 448
#     4  10  24  45  70 100 141 195 236 305 367 441
#     4  10  22  44  71  98 144 188 242 299 378 428
#
# _framework density 24.833168000000001
#
# number of rings (size 3 to 8) (size 9 to 14) (size 15 to 20)
#    0.000    1.143    1.429    4.286   12.000    0.000 
#    0.000    1.429    0.000    0.000    0.000    0.000 
#    0.000    0.000    0.000    0.000    0.000    0.000 
#
# Total GULP energy -78081.908396 kJ/mol
# GULP energy per Si atom -5577.279171 kJ/mol
# Density = 2.477665 g / cm^3
# Si number density = 24.833168 Si / 1000 Ang^3
#
#
#
# Elastic Constant Matrix: (Units=GPa)
#
#
# Indices 1 2 3 4 5 6 
#
# 1 98.8846 23.3260 18.4462 0.0000 -14.6300 0.0000
# 2 23.3260 82.9200 19.7504 0.0002 -6.3458 0.0003
# 3 18.4462 19.7504 112.4557 0.0000 -27.5323 0.0000
# 4 0.0000 0.0002 0.0000 32.8840 0.0000 5.0083
# 5 -14.6300 -6.3458 -27.5323 0.0000 45.2210 0.0000
# 6 0.0000 0.0003 0.0000 5.0083 0.0000 35.5658
#
#
#
# Elastic Compliance Matrix: (Units=1/GPa)
#
#
# Indices 1 2 3 4 5 6 
#
# 1 0.011323 -0.002808 -0.000662 0.000000 0.002866 0.000000
# 2 -0.002808 0.013292 -0.001927 0.000000 -0.000216 0.000000
# 3 -0.000662 -0.001927 0.010836 0.000000 0.006113 0.000000
# 4 0.000000 0.000000 0.000000 0.031076 0.000000 -0.004376
# 5 0.002866 -0.000216 0.006113 0.000000 0.026732 0.000000
# 6 0.000000 0.000000 0.000000 -0.004376 0.000000 0.028733
#
#
# Mechanical properties :
#
#
# Convention : Reuss Voigt Hill
#
# Bulk Modulus (GPa) = 40.55785 46.36728 43.46256
# Shear Modulus (GPa) = 35.45949 38.25001 36.85475
#
# Velocity S-wave (km/s) = 3.78287 3.92890 3.85657
# Velocity P-wave (km/s) = 5.95380 6.26847 6.11316
#
# Compressibility (1/GPa) = 0.02465614
#
# Stress axis : x y z
#
# Youngs Moduli (GPa) = 88.31764 75.23246 92.28480
#
# Poissons Ratio (x) = 0.21126 0.06114
# Poissons Ratio (y) = 0.24800 0.17782
# Poissons Ratio (z) = 0.05851 0.14496
#
# Static dielectric constant tensor:
#      x y z
#    x 2.027140 0.000000 0.055890 
#    y 0.000000 2.192390 0.000000 
#    z 0.055890 0.000000 2.013390 
# 
# From -- ./inp_files/61170.got.cif
#   From: 2010.05.17/outbox.cif.g08.bks.cpg/sg5_31_cif.got.tgz:61170.got - 2010.06.03 18:56:24.
