data_PCOD9127307
_publ_section_title
;
Structure prediction by ZEFSAII (Michael W. Deem and Ramdas Pophale) SiO2 
 PCOD9127307
Probable space group: C 2
;
_chemical_formula_sum "Si O2"
_cell_formula_units_Z 22
_cell_length_a 17.813171
_cell_length_b 5.035519
_cell_length_c 10.192001
_cell_angle_alpha 90.000000
_cell_angle_beta 99.089413
_cell_angle_gamma 90.000000
_cell_volume 902.728129
_symmetry_space_group_name_H-M "C 2"
_symmetry_group_IT_number 5
_symmetry_cell_setting 'monoclinic'
loop_
_space_group_symop_operation_xyz
x,y,z
-x,y,-z
1/2+x,1/2+y,z
1/2-x,1/2+y,-z
loop_
_atom_site_type_symbol
_atom_site_label
_atom_site_fract_x
_atom_site_fract_y
_atom_site_fract_z
Si Si1 0.648235 0.343330 0.945592
Si Si2 0.385539 0.740467 0.278403
Si Si3 0.000000 0.136425 0.500000
Si Si4 0.257025 0.508886 0.784077
Si Si5 0.000206 0.617616 0.819270
Si Si6 0.410011 0.652850 0.722014
O O1 0.630183 0.623371 0.870639
O O2 0.703991 0.201182 0.856850
O O3 0.565224 0.214909 0.937247
O O4 0.692338 0.357518 0.093344
O O5 0.435577 0.537334 0.378328
O O6 0.303431 0.824642 0.306876
O O7 0.441625 0.990612 0.275009
O O8 0.061742 0.249185 0.413031
O O9 0.319999 0.644952 0.712088
O O10 0.947140 0.363635 0.831979
O O11 0.947485 0.863022 0.758870
#
# Coordination Sequence:
#
# PCOD9127307 Si02
#       6
#     4   4   2   4   4   4
#     4  11  21  45  68  98 146 183 222 292 346 417
#     4  10  22  46  70  99 135 192 224 285 351 403
#     4  10  22  50  70  98 142 188 234 288 334 418
#     4  11  25  41  71 107 142 180 235 284 358 410
#     4  10  22  45  66 101 136 183 230 278 348 408
#     4  11  25  45  70 106 136 183 235 286 345 410
#
# _framework density 24.370571000000002
#
# number of rings (size 3 to 8) (size 9 to 14) (size 15 to 20)
#    0.000    1.455    5.455    0.000    2.545    3.636 
#    6.545    0.000    0.000    0.000    0.000    0.000 
#    0.000    0.000    0.000    0.000    0.000    0.000 
#
# Total GULP energy -61244.270268 kJ/mol
# GULP energy per Si atom -5567.660933 kJ/mol
# Density = 2.431510 g / cm^3
# Si number density = 24.370571 Si / 1000 Ang^3
#
#
#
# Elastic Constant Matrix: (Units=GPa)
#
#
# Indices 1 2 3 4 5 6 
#
# 1 218.8289 38.8071 37.7853 0.0000 9.1754 0.0000
# 2 38.8071 106.3326 2.6977 0.0000 13.5904 0.0000
# 3 37.7853 2.6977 55.1365 0.0000 9.5452 0.0000
# 4 0.0000 0.0000 0.0000 -17.0688 0.0000 7.4144
# 5 9.1754 13.5904 9.5452 0.0000 45.5868 0.0000
# 6 0.0000 0.0000 0.0000 7.4144 0.0000 44.4385
#
#
#
# Elastic Compliance Matrix: (Units=1/GPa)
#
#
# Indices 1 2 3 4 5 6 
#
# 1 0.005556 -0.001965 -0.003755 0.000000 0.000254 0.000000
# 2 -0.001965 0.010472 0.001355 0.000000 -0.003010 0.000000
# 3 -0.003755 0.001355 0.021357 0.000000 -0.004120 0.000000
# 4 0.000000 0.000000 0.000000 -0.054627 0.000000 0.009114
# 5 0.000254 -0.003010 -0.004120 0.000000 0.023645 0.000000
# 6 0.000000 0.000000 0.000000 0.009114 0.000000 0.020982
#
#
# Mechanical properties :
#
#
# Convention : Reuss Voigt Hill
#
# Bulk Modulus (GPa) = 34.89745 59.87535 47.38640
# Shear Modulus (GPa) = 109.48771 34.65851 72.07311
#
# Velocity S-wave (km/s) = 6.70997 3.77523 5.44408
# Velocity P-wave (km/s) = 8.62451 6.60493 7.68139
#
# Compressibility (1/GPa) = 0.02865539
#
# Stress axis : x y z
#
# Youngs Moduli (GPa) = 179.98447 95.49357 46.82228
#
# Poissons Ratio (x) = 0.18763 0.17584
# Poissons Ratio (y) = 0.35365 -0.06346
# Poissons Ratio (z) = 0.67591 -0.12942
#
# Static dielectric constant tensor:
#      x y z
#    x 1.941290 0.000000 -0.056870 
#    y 0.000000 2.041860 0.000000 
#    z -0.056870 0.000000 2.080550 
# 
# From -- ./inp_files/43646.got.cif
#   From: 2010.05.17/outbox.cif.g08.bks.cpg/sg5_22_cif.got.tgz:43646.got - 2010.06.03 18:56:24.
