data_PCOD9127625
_publ_section_title
;
Structure prediction by ZEFSAII (Michael W. Deem and Ramdas Pophale) SiO2 
 PCOD9127625
Probable space group: C 2
;
_chemical_formula_sum "Si O2"
_cell_formula_units_Z 22
_cell_length_a 15.399032
_cell_length_b 9.921608
_cell_length_c 20.335322
_cell_angle_alpha 90.000000
_cell_angle_beta 161.878525
_cell_angle_gamma 90.000000
_cell_volume 966.345765
_symmetry_space_group_name_H-M "C 2"
_symmetry_group_IT_number 5
_symmetry_cell_setting 'monoclinic'
loop_
_space_group_symop_operation_xyz
x,y,z
-x,y,-z
1/2+x,1/2+y,z
1/2-x,1/2+y,-z
loop_
_atom_site_type_symbol
_atom_site_label
_atom_site_fract_x
_atom_site_fract_y
_atom_site_fract_z
Si Si1 0.974608 0.709600 0.554712
Si Si2 0.500000 0.700140 0.000000
Si Si3 0.034287 0.288691 0.339605
Si Si4 0.164807 0.139322 0.557058
Si Si5 0.245547 0.012724 0.062152
Si Si6 0.776967 0.937015 0.626965
O O1 0.691605 0.733458 0.389619
O O2 0.975818 0.545267 0.551230
O O3 0.000000 0.760645 0.500000
O O4 0.226637 0.771575 0.776993
O O5 0.390280 0.616180 0.983997
O O6 0.992143 0.176067 0.365814
O O7 0.251916 0.390595 0.533162
O O8 0.780926 0.375544 0.129604
O O9 0.446040 0.061913 0.738044
O O10 0.247827 0.291053 0.639988
O O11 0.000000 0.077729 0.500000
O O12 0.048916 0.997690 0.857161
#
# Coordination Sequence:
#
# PCOD9127625 Si02
#       6
#     4   2   4   4   4   4
#     4  12  23  40  68  98 133 169 222 273 325 382
#     4  12  20  40  66 102 124 170 220 274 314 388
#     4  10  24  42  62  97 130 170 210 276 318 389
#     4  10  23  44  64  92 133 168 214 267 323 389
#     4  12  24  39  70  95 131 172 218 268 329 380
#     4  10  23  40  66  96 127 168 221 268 317 388
#
# _framework density 22.766178
#
# number of rings (size 3 to 8) (size 9 to 14) (size 15 to 20)
#    1.091    0.000    5.455    0.545    5.091    2.182 
#    0.000    0.000    0.000    2.182    0.000    0.000 
#    0.000    0.000    0.000    0.000    0.000    0.000 
#
# Total GULP energy -61264.945215 kJ/mol
# GULP energy per Si atom -5569.540474 kJ/mol
# Density = 2.271436 g / cm^3
# Si number density = 22.766178 Si / 1000 Ang^3
#
#
#
# Elastic Constant Matrix: (Units=GPa)
#
#
# Indices 1 2 3 4 5 6 
#
# 1 128.2937 17.4367 18.3645 -0.0629 -0.1971 -0.0251
# 2 17.4367 38.3603 5.0789 0.0122 -8.2316 0.0061
# 3 18.3645 5.0789 82.6552 -0.0512 -30.5134 -0.0198
# 4 -0.0629 0.0122 -0.0512 86.8749 -0.0538 33.0932
# 5 -0.1971 -8.2316 -30.5134 -0.0538 42.8165 -0.0259
# 6 -0.0251 0.0061 -0.0198 33.0932 -0.0259 18.9274
#
#
#
# Elastic Compliance Matrix: (Units=1/GPa)
#
#
# Indices 1 2 3 4 5 6 
#
# 1 0.008743 -0.004193 -0.002670 0.000004 -0.002669 0.000000
# 2 -0.004193 0.029209 0.001632 -0.000001 0.006759 -0.000002
# 3 -0.002670 0.001632 0.017238 0.000012 0.012586 0.000011
# 4 0.000004 -0.000001 0.000012 0.034466 0.000015 -0.060262
# 5 -0.002669 0.006759 0.012586 0.000015 0.033612 0.000027
# 6 0.000000 -0.000002 0.000011 -0.060262 0.000027 0.158197
#
#
# Mechanical properties :
#
#
# Convention : Reuss Voigt Hill
#
# Bulk Modulus (GPa) = 22.35764 36.78550 29.57157
# Shear Modulus (GPa) = 16.29535 43.61903 29.95719
#
# Velocity S-wave (km/s) = 2.67829 4.38191 3.63142
# Velocity P-wave (km/s) = 4.40525 6.46487 5.53176
#
# Compressibility (1/GPa) = 0.04472744
#
# Stress axis : x y z
#
# Youngs Moduli (GPa) = 114.38241 34.23606 58.01229
#
# Poissons Ratio (x) = 0.14356 0.15489
# Poissons Ratio (y) = 0.47962 -0.09469
# Poissons Ratio (z) = 0.30540 -0.05588
#
# Static dielectric constant tensor:
#      x y z
#    x 1.664070 0.000010 -0.155140 
#    y 0.000010 1.943010 -0.000010 
#    z -0.155140 -0.000010 1.707130 
# 
# From -- ./inp_files/69113.got.cif
#   From: 2010.05.17/outbox.cif.g08.bks.cpg/sg5_35_cif.got.tgz:69113.got - 2010.06.03 18:56:24.
