data_PCOD9127567
_publ_section_title
;
Structure prediction by ZEFSAII (Michael W. Deem and Ramdas Pophale) SiO2 
 PCOD9127567
Probable space group: C 2
;
_chemical_formula_sum "Si O2"
_cell_formula_units_Z 24
_cell_length_a 9.367765
_cell_length_b 11.422768
_cell_length_c 23.943868
_cell_angle_alpha 90.000000
_cell_angle_beta 153.265383
_cell_angle_gamma 90.000000
_cell_volume 1152.597710
_symmetry_space_group_name_H-M "C 2"
_symmetry_group_IT_number 5
_symmetry_cell_setting 'monoclinic'
loop_
_space_group_symop_operation_xyz
x,y,z
-x,y,-z
1/2+x,1/2+y,z
1/2-x,1/2+y,-z
loop_
_atom_site_type_symbol
_atom_site_label
_atom_site_fract_x
_atom_site_fract_y
_atom_site_fract_z
Si Si1 0.198840 0.457760 0.855856
Si Si2 0.571253 0.331527 0.668739
Si Si3 0.281901 0.992124 0.532601
Si Si4 0.629150 0.813485 0.723993
Si Si5 0.283910 0.142200 0.370728
Si Si6 0.301372 0.176964 0.675770
O O1 0.282799 0.383269 0.829157
O O2 0.918556 0.391269 0.792950
O O3 0.050720 0.578732 0.782053
O O4 0.500000 0.473983 0.000000
O O5 0.328350 0.429023 0.562674
O O6 0.601956 0.252713 0.624615
O O7 0.435824 0.251376 0.670606
O O8 0.340390 0.901629 0.603846
O O9 0.636908 0.038956 0.643651
O O10 0.024911 0.099342 0.448634
O O11 0.547960 0.685888 0.722447
O O12 0.764963 0.771711 0.712386
O O13 0.500000 0.129149 0.500000
#
# Coordination Sequence:
#
# PCOD9127567 Si02
#       6
#     4   4   4   4   4   4
#     4  10  25  46  63  82 115 161 210 261 306 346
#     4  10  23  38  62  90 123 157 200 244 303 360
#     4  11  22  35  61  91 134 159 190 231 303 365
#     4  11  24  39  61  90 126 162 198 243 296 359
#     4  11  20  36  53  86 131 165 188 227 285 364
#     4  11  24  39  63  96 123 158 202 247 296 362
#
# _framework density 20.822531000000001
#
# number of rings (size 3 to 8) (size 9 to 14) (size 15 to 20)
#    0.000    1.333    3.333    1.000    2.333    8.667 
#    0.000    0.000    0.000    0.000    0.000    0.000 
#    0.000    0.000    0.000    0.000    0.000    0.000 
#
# Total GULP energy -66824.591432 kJ/mol
# GULP energy per Si atom -5568.715953 kJ/mol
# Density = 2.077514 g / cm^3
# Si number density = 20.822531 Si / 1000 Ang^3
#
#
#
# Elastic Constant Matrix: (Units=GPa)
#
#
# Indices 1 2 3 4 5 6 
#
# 1 136.0313 50.5017 29.4921 0.0001 -13.8233 0.0000
# 2 50.5017 102.3351 38.0611 0.0005 -1.2387 0.0000
# 3 29.4921 38.0611 86.7091 0.0051 -15.1579 0.0007
# 4 0.0001 0.0005 0.0051 14.4547 0.0005 -1.3703
# 5 -13.8233 -1.2387 -15.1579 0.0005 18.4521 -0.0002
# 6 0.0000 0.0000 0.0007 -1.3703 -0.0002 34.6342
#
#
#
# Elastic Compliance Matrix: (Units=1/GPa)
#
#
# Indices 1 2 3 4 5 6 
#
# 1 0.009839 -0.004760 -0.000029 0.000000 0.007027 0.000000
# 2 -0.004760 0.014240 -0.005941 0.000002 -0.007490 0.000000
# 3 -0.000029 -0.005941 0.016437 -0.000006 0.013083 -0.000001
# 4 0.000000 0.000002 -0.000006 0.069442 -0.000007 0.002747
# 5 0.007027 -0.007490 0.013083 -0.000007 0.069703 0.000000
# 6 0.000000 0.000000 -0.000001 0.002747 0.000000 0.028982
#
#
# Mechanical properties :
#
#
# Convention : Reuss Voigt Hill
#
# Bulk Modulus (GPa) = 52.47381 62.35392 57.41387
# Shear Modulus (GPa) = 21.14584 27.30959 24.22772
#
# Velocity S-wave (km/s) = 3.19019 3.62545 3.41476
# Velocity P-wave (km/s) = 6.23097 6.89461 6.57117
#
# Compressibility (1/GPa) = 0.01905713
#
# Stress axis : x y z
#
# Youngs Moduli (GPa) = 101.64078 70.22691 60.83705
#
# Poissons Ratio (x) = 0.33425 0.00174
# Poissons Ratio (y) = 0.48376 0.36143
# Poissons Ratio (z) = 0.00291 0.41722
#
# Static dielectric constant tensor:
#      x y z
#    x 1.833340 0.000000 0.069060 
#    y 0.000000 1.830480 0.000000 
#    z 0.069060 0.000000 1.725520 
# 
# From -- ./inp_files/35407.got.cif
#   From: 2010.05.17/outbox.cif.g08.bks.cpg/sg5_18_cif.got.tgz:35407.got - 2010.06.03 18:56:24.
