data_PCOD9127213
_publ_section_title
;
Structure prediction by ZEFSAII (Michael W. Deem and Ramdas Pophale) SiO2 
 PCOD9127213
Probable space group: C 2
;
_chemical_formula_sum "Si O2"
_cell_formula_units_Z 28
_cell_length_a 13.392600
_cell_length_b 10.843810
_cell_length_c 8.940312
_cell_angle_alpha 90.000000
_cell_angle_beta 118.125718
_cell_angle_gamma 90.000000
_cell_volume 1145.055079
_symmetry_space_group_name_H-M "C 2"
_symmetry_group_IT_number 5
_symmetry_cell_setting 'monoclinic'
loop_
_space_group_symop_operation_xyz
x,y,z
-x,y,-z
1/2+x,1/2+y,z
1/2-x,1/2+y,-z
loop_
_atom_site_type_symbol
_atom_site_label
_atom_site_fract_x
_atom_site_fract_y
_atom_site_fract_z
Si Si1 0.864069 0.334800 0.054106
Si Si2 0.694603 0.080071 0.097815
Si Si3 0.000000 0.778309 0.000000
Si Si4 0.186486 0.283251 0.645639
Si Si5 0.773247 0.648192 0.193459
Si Si6 0.000000 0.705396 0.500000
Si Si7 0.907581 0.900498 0.660744
Si Si8 0.427732 0.674056 0.707841
O O1 0.875745 0.453327 0.954987
O O2 0.846896 0.346141 0.221360
O O3 0.967323 0.235516 0.130411
O O4 0.749490 0.280180 0.900063
O O5 0.602951 0.187916 0.041491
O O6 0.751050 0.068513 0.972936
O O7 0.778057 0.140850 0.280059
O O8 0.989148 0.864597 0.852204
O O9 0.284665 0.368721 0.643415
O O10 0.100832 0.265332 0.448872
O O11 0.680413 0.649650 0.259279
O O12 0.902209 0.632272 0.341137
O O13 0.072518 0.797283 0.449051
O O14 0.941176 0.038811 0.645952
#
# Coordination Sequence:
#
# PCOD9127213 Si02
#       8
#     4   4   2   4   4   2   4   4
#     4  11  26  45  72 108 147 185 238 299 369 425
#     4  10  23  45  71  97 146 187 239 292 349 440
#     4  10  22  44  70 100 132 198 242 278 368 424
#     4  10  24  48  69 108 143 197 240 289 366 432
#     4  11  25  46  67 106 137 188 236 285 359 428
#     4  12  24  46  68 102 136 184 244 286 346 428
#     4  11  25  44  73  99 143 187 240 299 347 443
#     4  12  26  45  73 110 145 182 238 304 368 418
#
# _framework density 24.452971000000002
#
# number of rings (size 3 to 8) (size 9 to 14) (size 15 to 20)
#    0.000    1.143    2.857    1.714    8.000    1.143 
#    7.714    0.000    0.000    0.000    0.000    0.000 
#    0.000    0.000    0.000    0.000    0.000    0.000 
#
# Total GULP energy -78000.783005 kJ/mol
# GULP energy per Si atom -5571.484500 kJ/mol
# Density = 2.439732 g / cm^3
# Si number density = 24.452971 Si / 1000 Ang^3
#
#
#
# Elastic Constant Matrix: (Units=GPa)
#
#
# Indices 1 2 3 4 5 6 
#
# 1 89.9830 -5.7975 5.0423 0.0000 1.1199 0.0000
# 2 -5.7975 84.4074 7.6708 0.0000 19.5688 0.0000
# 3 5.0423 7.6708 101.6812 0.0000 18.4385 0.0000
# 4 0.0000 0.0000 0.0000 31.1199 0.0000 -3.2153
# 5 1.1199 19.5688 18.4385 0.0000 41.9271 0.0000
# 6 0.0000 0.0000 0.0000 -3.2153 0.0000 10.9174
#
#
#
# Elastic Compliance Matrix: (Units=1/GPa)
#
#
# Indices 1 2 3 4 5 6 
#
# 1 0.011210 0.000935 -0.000536 0.000000 -0.000500 0.000000
# 2 0.000935 0.013364 0.000088 0.000000 -0.006301 0.000000
# 3 -0.000536 0.000088 0.010714 0.000000 -0.004738 0.000000
# 4 0.000000 0.000000 0.000000 0.033142 0.000000 0.009761
# 5 -0.000500 -0.006301 -0.004738 0.000000 0.028889 0.000000
# 6 0.000000 0.000000 0.000000 0.009761 0.000000 0.094472
#
#
# Mechanical properties :
#
#
# Convention : Reuss Voigt Hill
#
# Bulk Modulus (GPa) = 27.57731 32.21143 29.89437
# Shear Modulus (GPa) = 24.64215 34.73662 29.68939
#
# Velocity S-wave (km/s) = 3.17793 3.77310 3.48823
# Velocity P-wave (km/s) = 4.97673 5.67302 5.33624
#
# Compressibility (1/GPa) = 0.03626170
#
# Stress axis : x y z
#
# Youngs Moduli (GPa) = 89.20877 74.82589 93.33729
#
# Poissons Ratio (x) = -0.06993 0.05000
# Poissons Ratio (y) = -0.08337 -0.00822
# Poissons Ratio (z) = 0.04779 -0.00659
#
# Static dielectric constant tensor:
#      x y z
#    x 2.064950 0.000000 -0.021590 
#    y 0.000000 2.127180 0.000000 
#    z -0.021590 0.000000 2.006020 
# 
# From -- ./inp_files/23818.got.cif
#   From: 2010.05.17/outbox.cif.g08.bks.cpg/sg5_12_cif.got.tgz:23818.got - 2010.06.03 18:56:24.
