data_PCOD9127037
_publ_section_title
;
Structure prediction by ZEFSAII (Michael W. Deem and Ramdas Pophale) SiO2 
 PCOD9127037
Probable space group: C 2
;
_chemical_formula_sum "Si O2"
_cell_formula_units_Z 24
_cell_length_a 13.994207
_cell_length_b 6.094981
_cell_length_c 13.286735
_cell_angle_alpha 90.000000
_cell_angle_beta 54.650987
_cell_angle_gamma 90.000000
_cell_volume 924.355480
_symmetry_space_group_name_H-M "C 2"
_symmetry_group_IT_number 5
_symmetry_cell_setting 'monoclinic'
loop_
_space_group_symop_operation_xyz
x,y,z
-x,y,-z
1/2+x,1/2+y,z
1/2-x,1/2+y,-z
loop_
_atom_site_type_symbol
_atom_site_label
_atom_site_fract_x
_atom_site_fract_y
_atom_site_fract_z
Si Si1 0.808654 0.166990 0.046652
Si Si2 0.000000 0.516908 0.000000
Si Si3 0.825167 0.793840 0.197823
Si Si4 0.142753 0.003349 0.205226
Si Si5 0.920049 0.257356 0.382202
Si Si6 0.000000 0.601245 0.500000
Si Si7 0.248913 0.187763 0.618307
O O1 0.897300 0.360171 0.023223
O O2 0.682066 0.255632 0.160429
O O3 0.832621 0.951216 0.095110
O O4 0.825014 0.121063 0.919857
O O5 0.949068 0.673946 0.118187
O O6 0.722733 0.619165 0.240294
O O7 0.785869 0.962913 0.306428
O O8 0.010598 0.061643 0.313175
O O9 0.973031 0.437310 0.422747
O O10 0.869714 0.334077 0.303382
O O11 0.786988 0.163265 0.478984
O O12 0.879385 0.738455 0.572836
#
# Coordination Sequence:
#
# PCOD9127037 Si02
#       7
#     4   2   4   4   4   2   4
#     4  11  24  40  66 105 130 193 230 283 371 417
#     4  10  26  38  64  96 136 184 228 292 350 416
#     4  11  22  45  64  96 148 179 233 304 346 436
#     4  11  22  43  67  98 142 177 234 297 356 425
#     4  10  22  43  67  95 130 184 232 291 359 419
#     4   8  20  46  60  92 136 164 226 292 340 412
#     4  10  22  44  68  94 135 188 231 291 364 414
#
# _framework density 25.964037000000001
#
# number of rings (size 3 to 8) (size 9 to 14) (size 15 to 20)
#    1.000    0.667    3.333    0.500    4.667    1.333 
#   12.000    0.000    0.000    0.000    0.000    0.000 
#    0.000    0.000    0.000    0.000    0.000    0.000 
#
# Total GULP energy -66836.572459 kJ/mol
# GULP energy per Si atom -5569.714372 kJ/mol
# Density = 2.590494 g / cm^3
# Si number density = 25.964037 Si / 1000 Ang^3
#
#
#
# Elastic Constant Matrix: (Units=GPa)
#
#
# Indices 1 2 3 4 5 6 
#
# 1 182.8146 37.2509 36.1590 -0.0002 -17.5191 0.0000
# 2 37.2509 69.7381 35.1851 -0.0006 -4.0663 0.0003
# 3 36.1590 35.1851 55.3835 0.0000 -0.4276 0.0000
# 4 -0.0002 -0.0006 0.0000 39.4226 0.0000 0.1670
# 5 -17.5191 -4.0663 -0.4276 0.0000 36.1102 0.0000
# 6 0.0000 0.0003 0.0000 0.1670 0.0000 17.4075
#
#
#
# Elastic Compliance Matrix: (Units=1/GPa)
#
#
# Indices 1 2 3 4 5 6 
#
# 1 0.006772 -0.001797 -0.003256 0.000000 0.003045 0.000000
# 2 -0.001797 0.021760 -0.012640 0.000000 0.001429 0.000000
# 3 -0.003256 -0.012640 0.028191 0.000000 -0.002669 0.000000
# 4 0.000000 0.000000 0.000000 0.025367 0.000000 -0.000243
# 5 0.003045 0.001429 -0.002669 0.000000 0.029299 0.000000
# 6 0.000000 0.000000 0.000000 -0.000243 0.000000 0.057449
#
#
# Mechanical properties :
#
#
# Convention : Reuss Voigt Hill
#
# Bulk Modulus (GPa) = 46.86649 58.34736 52.60693
# Shear Modulus (GPa) = 23.65898 31.87748 27.76823
#
# Velocity S-wave (km/s) = 3.02192 3.50773 3.27385
# Velocity P-wave (km/s) = 5.50143 6.23913 5.88186
#
# Compressibility (1/GPa) = 0.02133721
#
# Stress axis : x y z
#
# Youngs Moduli (GPa) = 147.66735 45.95669 35.47201
#
# Poissons Ratio (x) = 0.08258 0.11551
# Poissons Ratio (y) = 0.26534 0.44836
# Poissons Ratio (z) = 0.48084 0.58088
#
# Static dielectric constant tensor:
#      x y z
#    x 1.971490 0.000000 -0.029480 
#    y 0.000000 2.050490 0.000000 
#    z -0.029480 0.000000 2.094750 
# 
# From -- ./inp_files/43808.got.cif
#   From: 2010.05.17/outbox.cif.g08.bks.cpg/sg5_22_cif.got.tgz:43808.got - 2010.06.03 18:56:24.
