data_PCOD9127955
_publ_section_title
;
Structure prediction by ZEFSAII (Michael W. Deem and Ramdas Pophale) SiO2 
 PCOD9127955
Probable space group: C 2
;
_chemical_formula_sum "Si O2"
_cell_formula_units_Z 26
_cell_length_a 12.960094
_cell_length_b 4.794609
_cell_length_c 18.929421
_cell_angle_alpha 90.000000
_cell_angle_beta 122.130415
_cell_angle_gamma 90.000000
_cell_volume 996.093015
_symmetry_space_group_name_H-M "C 2"
_symmetry_group_IT_number 5
_symmetry_cell_setting 'monoclinic'
loop_
_space_group_symop_operation_xyz
x,y,z
-x,y,-z
1/2+x,1/2+y,z
1/2-x,1/2+y,-z
loop_
_atom_site_type_symbol
_atom_site_label
_atom_site_fract_x
_atom_site_fract_y
_atom_site_fract_z
Si Si1 0.381869 0.546420 0.607469
Si Si2 0.744820 0.151159 0.044030
Si Si3 0.916780 0.986706 0.820767
Si Si4 0.642218 0.787593 0.704497
Si Si5 0.000000 0.923160 0.000000
Si Si6 0.280811 0.555665 0.417957
Si Si7 0.538947 0.964366 0.795820
O O1 0.520504 0.604952 0.678360
O O2 0.367041 0.586323 0.517534
O O3 0.273432 0.743543 0.599736
O O4 0.339140 0.239368 0.611355
O O5 0.615816 0.230662 0.028388
O O6 0.850888 0.278749 0.130855
O O7 0.746615 0.826712 0.026085
O O8 0.784846 0.840268 0.774977
O O9 0.925224 0.257453 0.773727
O O10 0.005147 0.746160 0.823535
O O11 0.964992 0.080407 0.915342
O O12 0.658870 0.683838 0.629667
O O13 0.588228 0.034819 0.735265
#
# Coordination Sequence:
#
# PCOD9127955 Si02
#       7
#     4   4   4   4   2   4   4
#     4  10  23  44  69  99 136 164 221 265 316 379
#     4  12  24  44  68  92 126 166 221 273 321 384
#     4  12  28  43  67  95 132 170 225 266 325 384
#     4  12  25  44  68  99 132 179 209 269 326 386
#     4  12  24  46  68  96 120 180 220 268 324 394
#     4  10  23  44  70 100 130 175 211 266 317 394
#     4  12  26  45  62  97 132 169 214 275 321 386
#
# _framework density 26.101982
#
# number of rings (size 3 to 8) (size 9 to 14) (size 15 to 20)
#    0.000    0.615    4.615    2.308    0.000    7.385 
#    0.000    4.615    0.000    0.000    0.000    0.000 
#    0.000    0.000    0.000    0.000    0.000    0.000 
#
# Total GULP energy -72484.662119 kJ/mol
# GULP energy per Si atom -5575.743240 kJ/mol
# Density = 2.604257 g / cm^3
# Si number density = 26.101982 Si / 1000 Ang^3
#
#
#
# Elastic Constant Matrix: (Units=GPa)
#
#
# Indices 1 2 3 4 5 6 
#
# 1 139.0422 14.8341 33.3305 -0.0001 -8.6906 0.0001
# 2 14.8341 68.2346 10.7144 -0.0001 4.1370 0.0004
# 3 33.3305 10.7144 86.4863 -0.0001 -5.3209 0.0001
# 4 -0.0001 -0.0001 -0.0001 19.3505 0.0000 7.0525
# 5 -8.6906 4.1370 -5.3209 0.0000 73.8615 0.0000
# 6 0.0001 0.0004 0.0001 7.0525 0.0000 6.1092
#
#
#
# Elastic Compliance Matrix: (Units=1/GPa)
#
#
# Indices 1 2 3 4 5 6 
#
# 1 0.008082 -0.001352 -0.002897 0.000000 0.000818 0.000000
# 2 -0.001352 0.015242 -0.001436 0.000001 -0.001116 -0.000002
# 3 -0.002897 -0.001436 0.012898 0.000000 0.000669 0.000000
# 4 0.000000 0.000001 0.000000 0.089214 0.000000 -0.102989
# 5 0.000818 -0.001116 0.000669 0.000000 0.013746 0.000000
# 6 0.000000 -0.000002 0.000000 -0.102989 0.000000 0.282580
#
#
# Mechanical properties :
#
#
# Convention : Reuss Voigt Hill
#
# Bulk Modulus (GPa) = 40.23666 45.72457 42.98062
# Shear Modulus (GPa) = 11.32720 35.52317 23.42518
#
# Velocity S-wave (km/s) = 2.08543 3.69309 2.99899
# Velocity P-wave (km/s) = 4.60948 5.97837 5.33799
#
# Compressibility (1/GPa) = 0.02485296
#
# Stress axis : x y z
#
# Youngs Moduli (GPa) = 123.73470 65.60671 77.53163
#
# Poissons Ratio (x) = 0.08868 0.22460
# Poissons Ratio (y) = 0.16725 0.11134
# Poissons Ratio (z) = 0.35844 0.09422
#
# Static dielectric constant tensor:
#      x y z
#    x 2.021350 0.000000 -0.068350 
#    y 0.000000 1.989010 0.000000 
#    z -0.068350 0.000000 2.264310 
# 
# From -- ./inp_files/64912.got.cif
#   From: 2010.05.17/outbox.cif.g08.bks.cpg/sg5_33_cif.got.tgz:64912.got - 2010.06.03 18:56:24.
