data_PCOD9127360
_publ_section_title
;
Structure prediction by ZEFSAII (Michael W. Deem and Ramdas Pophale) SiO2 
 PCOD9127360
Probable space group: C 2
;
_chemical_formula_sum "Si O2"
_cell_formula_units_Z 20
_cell_length_a 8.133015
_cell_length_b 23.133869
_cell_length_c 5.195800
_cell_angle_alpha 90.000000
_cell_angle_beta 121.210973
_cell_angle_gamma 90.000000
_cell_volume 836.089921
_symmetry_space_group_name_H-M "C 2"
_symmetry_group_IT_number 5
_symmetry_cell_setting 'monoclinic'
loop_
_space_group_symop_operation_xyz
x,y,z
-x,y,-z
1/2+x,1/2+y,z
1/2-x,1/2+y,-z
loop_
_atom_site_type_symbol
_atom_site_label
_atom_site_fract_x
_atom_site_fract_y
_atom_site_fract_z
Si Si1 0.225139 0.430100 0.649643
Si Si2 0.780718 0.196360 0.229222
Si Si3 0.000000 0.598607 0.000000
Si Si4 0.500000 0.748607 0.000000
Si Si5 0.697176 0.505344 0.790946
Si Si6 0.327266 0.305990 0.563243
O O1 0.231484 0.468994 0.396972
O O2 0.328481 0.369751 0.678801
O O3 0.000000 0.418081 0.500000
O O4 0.310849 0.463064 0.969358
O O5 0.830144 0.206567 0.968885
O O6 0.683080 0.255485 0.236450
O O7 0.000000 0.191139 0.500000
O O8 0.651895 0.144847 0.235316
O O9 0.847636 0.554572 0.002397
O O10 0.618809 0.793101 0.269761
O O11 0.500000 0.529686 0.500000
O O12 0.500000 0.300064 0.500000
#
# Coordination Sequence:
#
# PCOD9127360 Si02
#       6
#     4   4   2   2   4   4
#     4  12  25  51  79 112 159 206 268 323 392 466
#     4  10  23  46  73 114 151 202 259 323 401 464
#     4  12  24  51  76 106 161 196 274 322 382 484
#     4  10  22  45  72 114 155 196 260 314 402 474
#     4  12  28  52  76 113 152 212 266 324 391 460
#     4  11  25  44  76 114 158 202 256 326 399 472
#
# _framework density 23.920874000000001
#
# number of rings (size 3 to 8) (size 9 to 14) (size 15 to 20)
#    0.000    0.800    2.000    4.800    5.600    0.000 
#   25.200    0.000    0.000    0.000    0.000    0.000 
#    0.000    0.000    0.000    0.000    0.000    0.000 
#
# Total GULP energy -55730.372679 kJ/mol
# GULP energy per Si atom -5573.037268 kJ/mol
# Density = 2.386643 g / cm^3
# Si number density = 23.920874 Si / 1000 Ang^3
#
#
#
# Elastic Constant Matrix: (Units=GPa)
#
#
# Indices 1 2 3 4 5 6 
#
# 1 153.2192 53.3112 35.0637 0.0000 10.4985 0.0000
# 2 53.3112 112.7871 8.7550 0.0000 1.0182 0.0000
# 3 35.0637 8.7550 105.9998 0.0000 15.4731 0.0000
# 4 0.0000 0.0000 0.0000 54.9588 0.0000 -36.8535
# 5 10.4985 1.0182 15.4731 0.0000 52.3221 0.0000
# 6 0.0000 0.0000 0.0000 -36.8535 0.0000 102.1127
#
#
#
# Elastic Compliance Matrix: (Units=1/GPa)
#
#
# Indices 1 2 3 4 5 6 
#
# 1 0.008450 -0.003804 -0.002346 0.000000 -0.000928 0.000000
# 2 -0.003804 0.010636 0.000312 0.000000 0.000464 0.000000
# 3 -0.002346 0.000312 0.010573 0.000000 -0.002662 0.000000
# 4 0.000000 0.000000 0.000000 0.024005 0.000000 0.008664
# 5 -0.000928 0.000464 -0.002662 0.000000 0.020077 0.000000
# 6 0.000000 0.000000 0.000000 0.008664 0.000000 0.012920
#
#
# Mechanical properties :
#
#
# Convention : Reuss Voigt Hill
#
# Bulk Modulus (GPa) = 55.60471 62.91843 59.26157
# Shear Modulus (GPa) = 47.92468 60.20380 54.06424
#
# Velocity S-wave (km/s) = 4.48087 5.02220 4.75924
# Velocity P-wave (km/s) = 7.07578 7.74531 7.41810
#
# Compressibility (1/GPa) = 0.01798409
#
# Stress axis : x y z
#
# Youngs Moduli (GPa) = 118.33627 94.02193 94.58301
#
# Poissons Ratio (x) = 0.35764 0.22186
# Poissons Ratio (y) = 0.45013 -0.02952
# Poissons Ratio (z) = 0.27758 -0.02934
#
# Static dielectric constant tensor:
#      x y z
#    x 1.981760 0.000000 -0.081410 
#    y 0.000000 1.866390 0.000000 
#    z -0.081410 0.000000 2.036400 
# 
# From -- ./inp_files/3090.got.cif
#   From: 2010.05.17/outbox.cif.g08.bks.cpg/sg5_2_cif.got.tgz:3090.got - 2010.06.03 18:56:24.
