data_PCOD9127427
_publ_section_title
;
Structure prediction by ZEFSAII (Michael W. Deem and Ramdas Pophale) SiO2 
 PCOD9127427
Probable space group: C 2
;
_chemical_formula_sum "Si O2"
_cell_formula_units_Z 24
_cell_length_a 14.286724
_cell_length_b 7.219785
_cell_length_c 18.624088
_cell_angle_alpha 90.000000
_cell_angle_beta 31.387038
_cell_angle_gamma 90.000000
_cell_volume 1000.499063
_symmetry_space_group_name_H-M "C 2"
_symmetry_group_IT_number 5
_symmetry_cell_setting 'monoclinic'
loop_
_space_group_symop_operation_xyz
x,y,z
-x,y,-z
1/2+x,1/2+y,z
1/2-x,1/2+y,-z
loop_
_atom_site_type_symbol
_atom_site_label
_atom_site_fract_x
_atom_site_fract_y
_atom_site_fract_z
Si Si1 0.500000 0.110191 0.000000
Si Si2 0.800319 0.870915 0.363573
Si Si3 0.000000 0.107930 0.500000
Si Si4 0.898134 0.782405 0.920757
Si Si5 0.457921 0.081915 0.371285
Si Si6 0.781352 0.851706 0.734959
Si Si7 0.000109 0.382880 0.203784
O O1 0.444730 0.245020 0.972169
O O2 0.659342 0.973772 0.868803
O O3 0.670387 0.737918 0.402532
O O4 0.870449 0.750825 0.384720
O O5 0.974469 0.929762 0.203067
O O6 0.673169 0.028227 0.478325
O O7 0.049478 0.976870 0.400780
O O8 0.961559 0.596999 0.840456
O O9 0.686068 0.796865 0.055237
O O10 0.645519 0.162854 0.278380
O O11 0.476649 0.904366 0.305153
O O12 0.665057 0.825234 0.738414
#
# Coordination Sequence:
#
# PCOD9127427 Si02
#       7
#     2   4   2   4   4   4   4
#     4  10  22  46  72 100 138 190 236 296 378 416
#     4  11  25  46  68 110 140 195 242 299 371 436
#     4  12  22  50  68  98 154 176 254 306 362 430
#     4  10  23  46  71  99 145 185 233 312 354 437
#     4  11  25  46  74 104 146 194 243 299 372 439
#     4  11  25  46  73 102 140 197 236 308 367 430
#     4  10  24  47  68 107 142 185 248 297 368 432
#
# _framework density 23.988026999999999
#
# number of rings (size 3 to 8) (size 9 to 14) (size 15 to 20)
#    0.000    1.333    5.000    1.000   11.667    2.000 
#    6.000    0.000    0.000    0.000    0.000    0.000 
#    0.000    0.000    0.000    0.000    0.000    0.000 
#
# Total GULP energy -67087.386963 kJ/mol
# GULP energy per Si atom -5590.615580 kJ/mol
# Density = 2.393343 g / cm^3
# Si number density = 23.988027 Si / 1000 Ang^3
#
#
#
# Elastic Constant Matrix: (Units=GPa)
#
#
# Indices 1 2 3 4 5 6 
#
# 1 83.5184 16.0477 36.7441 0.0000 -12.0602 0.0000
# 2 16.0477 -8.1819 -6.1237 -0.0002 -9.0272 0.0001
# 3 36.7441 -6.1237 124.8652 -0.0001 -5.9456 0.0000
# 4 0.0000 -0.0002 -0.0001 19.6342 0.0000 -6.1394
# 5 -12.0602 -9.0272 -5.9456 0.0000 40.7866 0.0000
# 6 0.0000 0.0001 0.0000 -6.1394 0.0000 15.5446
#
#
#
# Elastic Compliance Matrix: (Units=1/GPa)
#
#
# Indices 1 2 3 4 5 6 
#
# 1 0.010796 0.015725 -0.002103 0.000000 0.006366 0.000000
# 2 0.015725 -0.071203 -0.008709 -0.000001 -0.012379 0.000000
# 3 -0.002103 -0.008709 0.008135 0.000000 -0.001363 0.000000
# 4 0.000000 -0.000001 0.000000 0.058108 0.000000 0.022950
# 5 0.006366 -0.012379 -0.001363 0.000000 0.023462 0.000000
# 6 0.000000 0.000000 0.000000 0.022950 0.000000 0.073395
#
#
# Mechanical properties :
#
#
# Convention : Reuss Voigt Hill
#
# Bulk Modulus (GPa) = -23.56070 32.61533 4.52732
# Shear Modulus (GPa) = 63.51762 25.42864 44.47313
#
# Velocity S-wave (km/s) = 5.15135 3.25938 4.31045
# Velocity P-wave (km/s) = 5.05358 5.27170 5.16379
#
# Compressibility (1/GPa) = -0.04244356
#
# Stress axis : x y z
#
# Youngs Moduli (GPa) = 92.62474 -14.04443 122.91998
#
# Poissons Ratio (x) = 0.22085 0.25846
# Poissons Ratio (y) = -1.45655 1.07049
# Poissons Ratio (z) = 0.19476 -0.12231
#
# Static dielectric constant tensor:
#      x y z
#    x 1.965420 0.000000 0.030740 
#    y 0.000000 1.973810 0.000000 
#    z 0.030740 0.000000 2.024990 
# 
# From -- ./inp_files/61419.got.cif
#   From: 2010.05.17/outbox.cif.g08.bks.cpg/sg5_31_cif.got.tgz:61419.got - 2010.06.03 18:56:24.
