data_PCOD9127602
_publ_section_title
;
Structure prediction by ZEFSAII (Michael W. Deem and Ramdas Pophale) SiO2 
 PCOD9127602
Probable space group: C 2
;
_chemical_formula_sum "Si O2"
_cell_formula_units_Z 26
_cell_length_a 7.788471
_cell_length_b 22.135456
_cell_length_c 10.386761
_cell_angle_alpha 90.000000
_cell_angle_beta 46.939831
_cell_angle_gamma 90.000000
_cell_volume 1308.345785
_symmetry_space_group_name_H-M "C 2"
_symmetry_group_IT_number 5
_symmetry_cell_setting 'monoclinic'
loop_
_space_group_symop_operation_xyz
x,y,z
-x,y,-z
1/2+x,1/2+y,z
1/2-x,1/2+y,-z
loop_
_atom_site_type_symbol
_atom_site_label
_atom_site_fract_x
_atom_site_fract_y
_atom_site_fract_z
Si Si1 0.122186 0.262500 0.139350
Si Si2 0.921212 0.757681 0.243739
Si Si3 0.768814 0.681176 0.547290
Si Si4 0.571629 0.390768 0.662488
Si Si5 0.889923 0.393581 0.246967
Si Si6 0.000000 0.563735 0.500000
Si Si7 0.738106 0.471840 0.815806
O O1 0.275626 0.271847 0.189762
O O2 0.947809 0.208802 0.265757
O O3 0.985196 0.325024 0.182856
O O4 0.309342 0.245258 0.933686
O O5 0.794291 0.705500 0.389641
O O6 0.920596 0.819007 0.323969
O O7 0.803760 0.609542 0.543435
O O8 0.000000 0.707198 0.500000
O O9 0.745994 0.402163 0.454266
O O10 0.304384 0.407422 0.761686
O O11 0.662673 0.423923 0.743402
O O12 0.110412 0.437350 0.153730
O O13 0.889448 0.522584 0.666974
O O14 0.500000 0.496432 0.000000
#
# Coordination Sequence:
#
# PCOD9127602 Si02
#       7
#     4   4   4   4   4   2   4
#     4  11  22  37  61  96 134 166 204 263 325 387
#     4  11  22  37  61  96 134 166 204 263 325 387
#     4  10  23  40  61  87 116 169 221 253 313 372
#     4  11  22  38  65  99 134 168 206 260 332 393
#     4  11  22  38  65  99 134 168 206 260 332 393
#     4  10  26  46  64  88 124 178 228 260 314 370
#     4  12  24  44  70  96 130 170 217 272 320 383
#
# _framework density 19.872422
#
# number of rings (size 3 to 8) (size 9 to 14) (size 15 to 20)
#    0.462    0.615    4.615    2.308    0.000    5.538 
#    0.000    3.077    0.000    0.000    0.000    0.000 
#    0.000    0.000    0.000    0.000    0.000    0.000 
#
# Total GULP energy -72613.607679 kJ/mol
# GULP energy per Si atom -5585.662129 kJ/mol
# Density = 1.982719 g / cm^3
# Si number density = 19.872422 Si / 1000 Ang^3
#
#
#
# Elastic Constant Matrix: (Units=GPa)
#
#
# Indices 1 2 3 4 5 6 
#
# 1 60.8156 10.7846 0.1046 0.0000 -16.2122 0.0000
# 2 10.7846 100.0414 36.8395 0.0000 -10.8199 0.0000
# 3 0.1046 36.8395 88.6420 0.0000 -17.5849 0.0000
# 4 0.0000 0.0000 0.0000 3.4986 0.0000 -14.9601
# 5 -16.2122 -10.8199 -17.5849 0.0000 34.2359 0.0000
# 6 0.0000 0.0000 0.0000 -14.9601 0.0000 24.7179
#
#
#
# Elastic Compliance Matrix: (Units=1/GPa)
#
#
# Indices 1 2 3 4 5 6 
#
# 1 0.019474 -0.002053 0.002818 0.000000 0.010020 0.000000
# 2 -0.002053 0.012075 -0.004957 0.000000 0.000298 0.000000
# 3 0.002818 -0.004957 0.014800 0.000000 0.007370 0.000000
# 4 0.000000 0.000000 0.000000 -0.179996 0.000000 -0.108939
# 5 0.010020 0.000298 0.007370 0.000000 0.037834 0.000000
# 6 0.000000 0.000000 0.000000 -0.108939 0.000000 -0.025477
#
#
# Mechanical properties :
#
#
# Convention : Reuss Voigt Hill
#
# Bulk Modulus (GPa) = 26.34032 38.32851 32.33441
# Shear Modulus (GPa) = -49.87428 25.94183 -11.96623
#
# Velocity S-wave (km/s) = -5.01515 3.61698 -2.45654
# Velocity P-wave (km/s) = 4.50024 6.06404 2.87406
#
# Compressibility (1/GPa) = 0.03796461
#
# Stress axis : x y z
#
# Youngs Moduli (GPa) = 51.35154 82.81784 67.56732
#
# Poissons Ratio (x) = 0.17005 -0.19042
# Poissons Ratio (y) = 0.10544 0.33491
# Poissons Ratio (z) = -0.14472 0.41051
#
# Static dielectric constant tensor:
#      x y z
#    x 1.735760 0.000000 -0.001720 
#    y 0.000000 1.643430 0.000000 
#    z -0.001720 0.000000 1.745550 
# 
# From -- ./inp_files/37301.got.cif
#   From: 2010.05.17/outbox.cif.g08.bks.cpg/sg5_19_cif.got.tgz:37301.got - 2010.06.03 18:56:24.
