data_PCOD9127366
_publ_section_title
;
Structure prediction by ZEFSAII (Michael W. Deem and Ramdas Pophale) SiO2 
 PCOD9127366
Probable space group: C 2
;
_chemical_formula_sum "Si O2"
_cell_formula_units_Z 20
_cell_length_a 15.927540
_cell_length_b 8.889514
_cell_length_c 11.447903
_cell_angle_alpha 90.000000
_cell_angle_beta 28.433572
_cell_angle_gamma 90.000000
_cell_volume 771.768273
_symmetry_space_group_name_H-M "C 2"
_symmetry_group_IT_number 5
_symmetry_cell_setting 'monoclinic'
loop_
_space_group_symop_operation_xyz
x,y,z
-x,y,-z
1/2+x,1/2+y,z
1/2-x,1/2+y,-z
loop_
_atom_site_type_symbol
_atom_site_label
_atom_site_fract_x
_atom_site_fract_y
_atom_site_fract_z
Si Si1 0.905858 0.929390 0.503316
Si Si2 0.113027 0.400592 0.686408
Si Si3 0.663849 0.640436 0.040609
Si Si4 0.688336 0.479406 0.793186
Si Si5 0.849823 0.655989 0.051065
O O1 0.759390 0.847302 0.601807
O O2 0.000000 0.852544 0.500000
O O3 0.038816 0.010946 0.250633
O O4 0.801936 0.063015 0.697412
O O5 0.205193 0.449707 0.453621
O O6 0.961260 0.279631 0.842815
O O7 0.021543 0.552206 0.845171
O O8 0.765276 0.573088 0.805954
O O9 0.796171 0.680091 0.982187
O O10 0.500000 0.555977 0.000000
O O11 0.642876 0.316859 0.900941
#
# Coordination Sequence:
#
# PCOD9127366 Si02
#       5
#     4   4   4   4   4
#     4  10  22  45  73 104 146 195 243 299 369 437
#     4  12  25  47  78 106 150 198 241 306 373 424
#     4  11  25  46  73 110 147 189 250 302 356 444
#     4  12  25  45  76 105 147 192 247 297 366 440
#     4  11  25  46  75 106 147 198 239 297 375 439
#
# _framework density 25.914514
#
# number of rings (size 3 to 8) (size 9 to 14) (size 15 to 20)
#    0.000    0.800    4.000    3.000    0.000    4.000 
#    3.600    0.000    0.000    0.000    0.000    0.000 
#    0.000    0.000    0.000    0.000    0.000    0.000 
#
# Total GULP energy -56086.697365 kJ/mol
# GULP energy per Si atom -5608.669737 kJ/mol
# Density = 2.585553 g / cm^3
# Si number density = 25.914514 Si / 1000 Ang^3
#
#
#
# Elastic Constant Matrix: (Units=GPa)
#
#
# Indices 1 2 3 4 5 6 
#
# 1 206.4528 46.1562 65.8311 0.0000 18.3178 0.0000
# 2 46.1562 88.5005 59.4417 0.0000 10.2806 0.0000
# 3 65.8311 59.4417 110.9545 0.0000 37.5911 0.0000
# 4 0.0000 0.0000 0.0000 33.5753 0.0000 -9.3344
# 5 18.3178 10.2806 37.5911 0.0000 50.3531 0.0000
# 6 0.0000 0.0000 0.0000 -9.3344 0.0000 49.8495
#
#
#
# Elastic Compliance Matrix: (Units=1/GPa)
#
#
# Indices 1 2 3 4 5 6 
#
# 1 0.006054 -0.001102 -0.003121 0.000000 0.000353 0.000000
# 2 -0.001102 0.018694 -0.010981 0.000000 0.004782 0.000000
# 3 -0.003121 -0.010981 0.020886 0.000000 -0.012215 0.000000
# 4 0.000000 0.000000 0.000000 0.031419 0.000000 0.005883
# 5 0.000353 0.004782 -0.012215 0.000000 0.027874 0.000000
# 6 0.000000 0.000000 0.000000 0.005883 0.000000 0.021162
#
#
# Mechanical properties :
#
#
# Convention : Reuss Voigt Hill
#
# Bulk Modulus (GPa) = 65.68065 83.19619 74.43842
# Shear Modulus (GPa) = 30.94554 42.38748 36.66651
#
# Velocity S-wave (km/s) = 3.45938 4.04872 3.76560
# Velocity P-wave (km/s) = 6.43091 7.35051 6.90603
#
# Compressibility (1/GPa) = 0.01522518
#
# Stress axis : x y z
#
# Youngs Moduli (GPa) = 165.17972 53.49199 47.87919
#
# Poissons Ratio (x) = 0.05896 0.14943
# Poissons Ratio (y) = 0.18205 0.52578
# Poissons Ratio (z) = 0.51552 0.58742
#
# Static dielectric constant tensor:
#      x y z
#    x 1.890760 0.000000 0.055120 
#    y 0.000000 1.980600 0.000000 
#    z 0.055120 0.000000 1.966620 
# 
# From -- ./inp_files/44284.got.cif
#   From: 2010.05.17/outbox.cif.g08.bks.cpg/sg5_23_cif.got.tgz:44284.got - 2010.06.03 18:56:24.
