data_PCOD9127734
_publ_section_title
;
Structure prediction by ZEFSAII (Michael W. Deem and Ramdas Pophale) SiO2 
 PCOD9127734
Probable space group: C 2
;
_chemical_formula_sum "Si O2"
_cell_formula_units_Z 28
_cell_length_a 9.985587
_cell_length_b 13.051947
_cell_length_c 20.596274
_cell_angle_alpha 90.000000
_cell_angle_beta 28.191585
_cell_angle_gamma 90.000000
_cell_volume 1268.139569
_symmetry_space_group_name_H-M "C 2"
_symmetry_group_IT_number 5
_symmetry_cell_setting 'monoclinic'
loop_
_space_group_symop_operation_xyz
x,y,z
-x,y,-z
1/2+x,1/2+y,z
1/2-x,1/2+y,-z
loop_
_atom_site_type_symbol
_atom_site_label
_atom_site_fract_x
_atom_site_fract_y
_atom_site_fract_z
Si Si1 0.192692 0.933840 0.166898
Si Si2 0.558273 0.199715 0.224552
Si Si3 0.370445 0.037704 0.626496
Si Si4 0.192063 0.397408 0.114287
Si Si5 0.312449 0.001133 0.384205
Si Si6 0.467948 0.693853 0.157656
Si Si7 0.463529 0.085908 0.898356
O O1 0.068658 0.820477 0.235475
O O2 0.267528 0.022313 0.188726
O O3 0.500000 0.919143 0.000000
O O4 0.926139 0.977514 0.241286
O O5 0.856121 0.170260 0.132610
O O6 0.503751 0.171406 0.172373
O O7 0.344532 0.121335 0.351087
O O8 0.500000 0.035506 0.500000
O O9 0.270098 0.149849 0.692817
O O10 0.596501 0.993474 0.580496
O O11 0.028800 0.437500 0.247244
O O12 0.017900 0.311958 0.150588
O O13 0.216523 0.495728 0.058109
O O14 0.500000 0.357220 0.000000
O O15 0.000000 0.966629 0.500000
O O16 0.771123 0.638596 0.034841
#
# Coordination Sequence:
#
# PCOD9127734 Si02
#       7
#     4   4   4   4   4   4   4
#     4  12  24  43  70 109 144 188 238 313 375 443
#     4  10  23  41  72 104 143 186 245 296 370 441
#     4  11  27  45  67 100 145 189 247 311 367 440
#     4  11  24  40  72 106 142 192 244 305 376 449
#     4  10  25  50  72  98 143 200 249 301 371 448
#     4  11  22  43  65 105 144 189 241 304 365 451
#     4  11  22  40  69 103 147 185 235 295 378 431
#
# _framework density 22.07959
#
# number of rings (size 3 to 8) (size 9 to 14) (size 15 to 20)
#    0.000    1.143    2.857    3.857    6.000    1.714 
#    0.000    2.857    0.000    0.000    0.000    0.000 
#    0.000    0.000    0.000    0.000    0.000    0.000 
#
# Total GULP energy -78061.590685 kJ/mol
# GULP energy per Si atom -5575.827906 kJ/mol
# Density = 2.202934 g / cm^3
# Si number density = 22.079590 Si / 1000 Ang^3
#
#
#
# Elastic Constant Matrix: (Units=GPa)
#
#
# Indices 1 2 3 4 5 6 
#
# 1 134.5363 30.3253 55.1044 -0.0037 -3.5956 0.0046
# 2 30.3253 85.3114 17.5308 0.0060 2.3104 -0.0050
# 3 55.1044 17.5308 83.9274 0.0215 0.7781 0.0224
# 4 -0.0037 0.0060 0.0215 4.8324 0.0006 -16.7994
# 5 -3.5956 2.3104 0.7781 0.0006 38.7038 -0.0054
# 6 0.0046 -0.0050 0.0224 -16.7994 -0.0054 23.4007
#
#
#
# Elastic Compliance Matrix: (Units=1/GPa)
#
#
# Indices 1 2 3 4 5 6 
#
# 1 0.010698 -0.002499 -0.006514 -0.000036 0.001274 -0.000022
# 2 -0.002499 0.012849 -0.001034 0.000000 -0.000978 0.000004
# 3 -0.006514 -0.001034 0.016416 0.000086 -0.000873 0.000047
# 4 -0.000036 0.000000 0.000086 -0.138353 -0.000017 -0.099324
# 5 0.001274 -0.000978 -0.000873 -0.000017 0.026032 -0.000006
# 6 -0.000022 0.000004 0.000047 -0.099324 -0.000006 -0.028571
#
#
# Mechanical properties :
#
#
# Convention : Reuss Voigt Hill
#
# Bulk Modulus (GPa) = 50.32890 56.63294 53.48092
# Shear Modulus (GPa) = -67.37485 26.77503 -20.29991
#
# Velocity S-wave (km/s) = -5.52999 3.48610 -3.03545
# Velocity P-wave (km/s) = 4.23445 6.47372 3.46255
#
# Compressibility (1/GPa) = 0.01986930
#
# Stress axis : x y z
#
# Youngs Moduli (GPa) = 93.47272 77.82699 60.91582
#
# Poissons Ratio (x) = 0.19447 0.39681
# Poissons Ratio (y) = 0.23357 0.06300
# Poissons Ratio (z) = 0.60889 0.08049
#
# Static dielectric constant tensor:
#      x y z
#    x 1.886490 0.000000 0.029120 
#    y 0.000000 1.834600 0.000000 
#    z 0.029120 0.000000 1.794570 
# 
# From -- ./inp_files/64701.got.cif
#   From: 2010.05.17/outbox.cif.g08.bks.cpg/sg5_33_cif.got.tgz:64701.got - 2010.06.03 18:56:24.
