data_PCOD9127597
_publ_section_title
;
Structure prediction by ZEFSAII (Michael W. Deem and Ramdas Pophale) SiO2 
 PCOD9127597
Probable space group: C 2
;
_chemical_formula_sum "Si O2"
_cell_formula_units_Z 18
_cell_length_a 15.820366
_cell_length_b 7.922172
_cell_length_c 7.329556
_cell_angle_alpha 90.000000
_cell_angle_beta 78.922821
_cell_angle_gamma 90.000000
_cell_volume 901.510760
_symmetry_space_group_name_H-M "C 2"
_symmetry_group_IT_number 5
_symmetry_cell_setting 'monoclinic'
loop_
_space_group_symop_operation_xyz
x,y,z
-x,y,-z
1/2+x,1/2+y,z
1/2-x,1/2+y,-z
loop_
_atom_site_type_symbol
_atom_site_label
_atom_site_fract_x
_atom_site_fract_y
_atom_site_fract_z
Si Si1 0.000000 0.292810 0.000000
Si Si2 0.845883 0.064112 0.101966
Si Si3 0.494200 0.062080 0.297011
Si Si4 0.589852 0.406871 0.558920
Si Si5 0.331762 0.264288 0.826692
O O1 0.032154 0.416521 0.827984
O O2 0.079034 0.174300 0.022662
O O3 0.756716 0.163513 0.137884
O O4 0.876264 0.025572 0.295940
O O5 0.836359 0.891950 0.993242
O O6 0.500000 0.994448 0.500000
O O7 0.566809 0.226044 0.662390
O O8 0.587142 0.136468 0.200503
O O9 0.500000 0.462238 0.500000
O O10 0.655011 0.369040 0.366827
#
# Coordination Sequence:
#
# PCOD9127597 Si02
#       5
#     2   4   4   4   4
#     4  12  22  34  60  88 114 154 196 238 286 346
#     4  12  24  38  61  89 120 157 197 243 292 347
#     4   9  20  39  60  84 116 152 191 237 291 348
#     4   9  21  42  63  84 118 158 194 241 295 349
#     4  10  23  40  59  87 121 156 194 243 295 346
#
# _framework density 19.966484999999999
#
# number of rings (size 3 to 8) (size 9 to 14) (size 15 to 20)
#    0.000    2.222    0.000    5.333    0.000    8.000 
#    0.000    0.000    0.000    0.000    0.000    0.000 
#    0.000    0.000    0.000    0.000    0.000    0.000 
#
# Total GULP energy -50280.636048 kJ/mol
# GULP energy per Si atom -5586.737339 kJ/mol
# Density = 1.992104 g / cm^3
# Si number density = 19.966485 Si / 1000 Ang^3
#
#
#
# Elastic Constant Matrix: (Units=GPa)
#
#
# Indices 1 2 3 4 5 6 
#
# 1 75.1710 36.8812 43.7416 0.0000 -8.2795 0.0000
# 2 36.8812 50.8338 41.0370 0.0000 22.3485 0.0000
# 3 43.7416 41.0370 85.4107 0.0000 9.0766 0.0000
# 4 0.0000 0.0000 0.0000 23.3272 0.0000 19.8734
# 5 -8.2795 22.3485 9.0766 0.0000 28.5275 0.0000
# 6 0.0000 0.0000 0.0000 19.8734 0.0000 20.9913
#
#
#
# Elastic Compliance Matrix: (Units=1/GPa)
#
#
# Indices 1 2 3 4 5 6 
#
# 1 0.061614 -0.077269 -0.002860 0.000000 0.079325 0.000000
# 2 -0.077269 0.148505 -0.017629 0.000000 -0.133155 0.000000
# 3 -0.002860 -0.017629 0.020973 0.000000 0.006308 0.000000
# 4 0.000000 0.000000 0.000000 0.221626 0.000000 -0.209823
# 5 0.079325 -0.133155 0.006308 0.000000 0.160384 0.000000
# 6 0.000000 0.000000 0.000000 -0.209823 0.000000 0.246288
#
#
# Mechanical properties :
#
#
# Convention : Reuss Voigt Hill
#
# Bulk Modulus (GPa) = 28.10843 50.52612 39.31727
# Shear Modulus (GPa) = 4.68708 20.55289 12.61999
#
# Velocity S-wave (km/s) = 1.53381 3.21186 2.51680
# Velocity P-wave (km/s) = 4.15272 6.25421 5.30850
#
# Compressibility (1/GPa) = 0.03557652
#
# Stress axis : x y z
#
# Youngs Moduli (GPa) = 16.22996 6.73380 47.68144
#
# Poissons Ratio (x) = 0.52031 0.13635
# Poissons Ratio (y) = 1.25407 0.84059
# Poissons Ratio (z) = 0.04641 0.11871
#
# Static dielectric constant tensor:
#      x y z
#    x 1.673630 0.000000 0.003510 
#    y 0.000000 1.689760 0.000000 
#    z 0.003510 0.000000 1.716820 
# 
# From -- ./inp_files/7887.got.cif
#   From: 2010.05.17/outbox.cif.g08.bks.cpg/sg5_4_cif.got.tgz:7887.got - 2010.06.03 18:56:24.
