data_PCOD9127680
_publ_section_title
;
Structure prediction by ZEFSAII (Michael W. Deem and Ramdas Pophale) SiO2 
 PCOD9127680
Probable space group: C 2
;
_chemical_formula_sum "Si O2"
_cell_formula_units_Z 20
_cell_length_a 5.456871
_cell_length_b 15.375278
_cell_length_c 10.920854
_cell_angle_alpha 90.000000
_cell_angle_beta 75.275087
_cell_angle_gamma 90.000000
_cell_volume 886.176829
_symmetry_space_group_name_H-M "C 2"
_symmetry_group_IT_number 5
_symmetry_cell_setting 'monoclinic'
loop_
_space_group_symop_operation_xyz
x,y,z
-x,y,-z
1/2+x,1/2+y,z
1/2-x,1/2+y,-z
loop_
_atom_site_type_symbol
_atom_site_label
_atom_site_fract_x
_atom_site_fract_y
_atom_site_fract_z
Si Si1 0.102991 0.158520 0.720818
Si Si2 0.500000 0.087499 0.500000
Si Si3 0.000000 0.244733 0.000000
Si Si4 0.399671 0.456268 0.254857
Si Si5 0.000000 0.265976 0.500000
Si Si6 0.000000 0.853462 0.000000
Si Si7 0.811005 0.426029 0.398098
O O1 0.380213 0.146392 0.621264
O O2 0.954953 0.208170 0.628281
O O3 0.034671 0.058120 0.749480
O O4 0.078345 0.198861 0.859634
O O5 0.292872 0.018099 0.473952
O O6 0.749867 0.297261 0.993604
O O7 0.457796 0.414785 0.119303
O O8 0.600738 0.417432 0.323610
O O9 0.100491 0.436248 0.312970
O O10 0.200618 0.337790 0.521922
#
# Coordination Sequence:
#
# PCOD9127680 Si02
#       7
#     4   2   2   4   2   2   4
#     4  11  24  44  71 108 142 183 234 297 350 411
#     4   9  22  42  70 103 142 184 232 283 352 426
#     4  12  29  48  71 106 144 182 236 296 357 410
#     4  11  23  44  68  96 136 185 232 277 343 420
#     4  11  22  38  66 101 138 174 226 287 340 396
#     4  12  25  46  69  96 140 194 234 282 353 432
#     4  10  23  41  66 100 136 178 228 282 341 414
#
# _framework density 22.568857999999999
#
# number of rings (size 3 to 8) (size 9 to 14) (size 15 to 20)
#    0.000    1.200    0.000    5.400    0.000   14.400 
#    0.000    2.000    0.000    0.000    0.000    0.000 
#    0.000    0.000    0.000    0.000    0.000    0.000 
#
# Total GULP energy -55757.691420 kJ/mol
# GULP energy per Si atom -5575.769142 kJ/mol
# Density = 2.251749 g / cm^3
# Si number density = 22.568858 Si / 1000 Ang^3
#
#
#
# Elastic Constant Matrix: (Units=GPa)
#
#
# Indices 1 2 3 4 5 6 
#
# 1 164.7426 66.7964 94.4018 0.0000 19.8205 0.0000
# 2 66.7964 152.5721 113.4992 0.0000 13.3719 0.0000
# 3 94.4018 113.4992 238.9578 0.0000 16.4079 0.0000
# 4 0.0000 0.0000 0.0000 56.2931 0.0000 11.1410
# 5 19.8205 13.3719 16.4079 0.0000 38.1179 0.0000
# 6 0.0000 0.0000 0.0000 11.1410 0.0000 19.1189
#
#
#
# Elastic Compliance Matrix: (Units=1/GPa)
#
#
# Indices 1 2 3 4 5 6 
#
# 1 0.008434 -0.001720 -0.002324 0.000000 -0.002782 0.000000
# 2 -0.001720 0.010573 -0.004276 0.000000 -0.000974 0.000000
# 3 -0.002324 -0.004276 0.007159 0.000000 -0.000373 0.000000
# 4 0.000000 0.000000 0.000000 0.020080 0.000000 -0.011701
# 5 -0.002782 -0.000974 -0.000373 0.000000 0.028183 0.000000
# 6 0.000000 0.000000 0.000000 -0.011701 0.000000 0.059123
#
#
# Mechanical properties :
#
#
# Convention : Reuss Voigt Hill
#
# Bulk Modulus (GPa) = 104.95794 122.85189 113.90492
# Shear Modulus (GPa) = 32.60145 41.47766 37.03956
#
# Velocity S-wave (km/s) = 3.80482 4.29164 4.05554
# Velocity P-wave (km/s) = 8.11843 8.89438 8.51525
#
# Compressibility (1/GPa) = 0.00952763
#
# Stress axis : x y z
#
# Youngs Moduli (GPa) = 118.57179 94.57731 139.67474
#
# Poissons Ratio (x) = 0.16264 0.32460
# Poissons Ratio (y) = 0.20390 0.59722
# Poissons Ratio (z) = 0.27556 0.40439
#
# Static dielectric constant tensor:
#      x y z
#    x 1.860800 0.000000 -0.033480 
#    y 0.000000 1.867280 0.000000 
#    z -0.033480 0.000000 1.913360 
# 
# From -- ./inp_files/33116.got.cif
#   From: 2010.05.17/outbox.cif.g08.bks.cpg/sg5_17_cif.got.tgz:33116.got - 2010.06.03 18:56:24.
