data_PCOD9127102
_publ_section_title
;
Structure prediction by ZEFSAII (Michael W. Deem and Ramdas Pophale) SiO2 
 PCOD9127102
Probable space group: C 2
;
_chemical_formula_sum "Si O2"
_cell_formula_units_Z 24
_cell_length_a 8.948222
_cell_length_b 13.394096
_cell_length_c 13.272120
_cell_angle_alpha 90.000000
_cell_angle_beta 42.536418
_cell_angle_gamma 90.000000
_cell_volume 1075.411955
_symmetry_space_group_name_H-M "C 2"
_symmetry_group_IT_number 5
_symmetry_cell_setting 'monoclinic'
loop_
_space_group_symop_operation_xyz
x,y,z
-x,y,-z
1/2+x,1/2+y,z
1/2-x,1/2+y,-z
loop_
_atom_site_type_symbol
_atom_site_label
_atom_site_fract_x
_atom_site_fract_y
_atom_site_fract_z
Si Si1 0.682548 0.652190 0.706440
Si Si2 0.164573 0.633548 0.000730
Si Si3 0.891130 0.757899 0.785782
Si Si4 0.235919 0.918108 0.008549
Si Si5 0.792576 0.437242 0.747045
Si Si6 0.634693 0.761010 0.520224
O O1 0.789561 0.729840 0.729996
O O2 0.789704 0.544762 0.688323
O O3 0.695709 0.690347 0.584750
O O4 0.421047 0.658488 0.858467
O O5 0.084933 0.662985 0.151633
O O6 0.178378 0.515998 0.980114
O O7 0.000000 0.680347 0.000000
O O8 0.733807 0.826401 0.931840
O O9 0.133614 0.798964 0.639802
O O10 0.968910 0.913643 0.130650
O O11 0.328245 0.931279 0.850371
O O12 0.971640 0.354553 0.623734
O O13 0.500000 0.702486 0.500000
#
# Coordination Sequence:
#
# PCOD9127102 Si02
#       6
#     4   4   4   4   4   4
#     4  11  25  48  74 106 152 201 251 315 390 457
#     4  11  24  43  70 108 139 189 257 317 373 449
#     4  12  24  44  72 109 145 196 254 312 384 458
#     4  10  22  43  73 104 143 192 253 311 382 441
#     4  10  22  46  72 105 147 199 246 320 383 447
#     4  12  25  44  74 108 148 205 253 303 389 465
#
# _framework density 22.317029999999999
#
# number of rings (size 3 to 8) (size 9 to 14) (size 15 to 20)
#    0.000    1.000    3.333    3.000    2.333    4.000 
#    0.000    0.000    7.333    0.000    0.000    0.000 
#    0.000    0.000    0.000    0.000    0.000    0.000 
#
# Total GULP energy -66862.564545 kJ/mol
# GULP energy per Si atom -5571.880379 kJ/mol
# Density = 2.226624 g / cm^3
# Si number density = 22.317030 Si / 1000 Ang^3
#
#
#
# Elastic Constant Matrix: (Units=GPa)
#
#
# Indices 1 2 3 4 5 6 
#
# 1 167.7534 37.9164 53.5561 -0.0002 12.5536 0.0000
# 2 37.9164 108.9362 47.4129 -0.0007 10.7048 0.0005
# 3 53.5561 47.4129 123.2451 -0.0024 4.0157 0.0015
# 4 -0.0002 -0.0007 -0.0024 23.7525 0.0005 1.6004
# 5 12.5536 10.7048 4.0157 0.0005 42.8440 -0.0001
# 6 0.0000 0.0005 0.0015 1.6004 -0.0001 13.2979
#
#
#
# Elastic Compliance Matrix: (Units=1/GPa)
#
#
# Indices 1 2 3 4 5 6 
#
# 1 0.007183 -0.001214 -0.002604 0.000000 -0.001557 0.000000
# 2 -0.001214 0.011475 -0.003817 0.000000 -0.002154 0.000000
# 3 -0.002604 -0.003817 0.010690 0.000001 0.000715 -0.000001
# 4 0.000000 0.000000 0.000001 0.042445 -0.000001 -0.005108
# 5 -0.001557 -0.002154 0.000715 -0.000001 0.024268 0.000000
# 6 0.000000 0.000000 -0.000001 -0.005108 0.000000 0.075815
#
#
# Mechanical properties :
#
#
# Convention : Reuss Voigt Hill
#
# Bulk Modulus (GPa) = 71.02374 75.30060 73.16217
# Shear Modulus (GPa) = 26.06357 33.38217 29.72287
#
# Velocity S-wave (km/s) = 3.42113 3.87177 3.65341
# Velocity P-wave (km/s) = 6.89199 7.33499 7.11694
#
# Compressibility (1/GPa) = 0.01407980
#
# Stress axis : x y z
#
# Youngs Moduli (GPa) = 139.21141 87.14552 93.54161
#
# Poissons Ratio (x) = 0.10579 0.24356
# Poissons Ratio (y) = 0.16899 0.35703
# Poissons Ratio (z) = 0.36247 0.33262
#
# Static dielectric constant tensor:
#      x y z
#    x 1.903980 0.000000 0.017800 
#    y 0.000000 1.908000 0.000000 
#    z 0.017800 0.000000 1.832890 
# 
# From -- ./inp_files/50824.got.cif
#   From: 2010.05.17/outbox.cif.g08.bks.cpg/sg5_26_cif.got.tgz:50824.got - 2010.06.03 18:56:24.
