data_PCOD9127075
_publ_section_title
;
Structure prediction by ZEFSAII (Michael W. Deem and Ramdas Pophale) SiO2 
 PCOD9127075
Probable space group: C 2
;
_chemical_formula_sum "Si O2"
_cell_formula_units_Z 24
_cell_length_a 8.281108
_cell_length_b 14.014885
_cell_length_c 14.265012
_cell_angle_alpha 90.000000
_cell_angle_beta 42.669286
_cell_angle_gamma 90.000000
_cell_volume 1122.095084
_symmetry_space_group_name_H-M "C 2"
_symmetry_group_IT_number 5
_symmetry_cell_setting 'monoclinic'
loop_
_space_group_symop_operation_xyz
x,y,z
-x,y,-z
1/2+x,1/2+y,z
1/2-x,1/2+y,-z
loop_
_atom_site_type_symbol
_atom_site_label
_atom_site_fract_x
_atom_site_fract_y
_atom_site_fract_z
Si Si1 0.142313 0.122930 0.843087
Si Si2 0.770164 0.196734 0.847061
Si Si3 0.938529 0.737702 0.418156
Si Si4 0.192016 0.904502 0.834742
Si Si5 0.024160 0.091969 0.591204
Si Si6 0.285000 0.416145 0.383400
O O1 0.351867 0.196684 0.735033
O O2 0.947214 0.146127 0.845368
O O3 0.263409 0.016566 0.793545
O O4 0.000000 0.135312 0.000000
O O5 0.840192 0.308633 0.798225
O O6 0.795061 0.136741 0.740331
O O7 0.500000 0.195645 0.000000
O O8 0.700019 0.679866 0.498889
O O9 0.890600 0.846160 0.415026
O O10 0.000000 0.722275 0.500000
O O11 0.109580 0.887043 0.762989
O O12 0.000000 0.908350 0.000000
O O13 0.000000 0.044839 0.500000
O O14 0.146654 0.020895 0.612149
O O15 0.000000 0.407402 0.500000
#
# Coordination Sequence:
#
# PCOD9127075 Si02
#       6
#     4   4   4   4   4   4
#     4  11  25  45  71 103 139 185 234 293 354 418
#     4  11  24  45  72 102 140 188 235 286 354 426
#     4  12  24  44  70 101 139 183 236 293 353 425
#     4  10  22  43  70  94 134 183 230 279 354 405
#     4  12  25  45  69 102 136 185 238 294 354 424
#     4  12  25  45  68 102 139 185 235 295 357 426
#
# _framework density 21.388563000000001
#
# number of rings (size 3 to 8) (size 9 to 14) (size 15 to 20)
#    0.000    0.667    3.333    4.500    7.000    0.000 
#    3.000    2.500    0.000    0.000    0.000    0.000 
#    0.000    0.000    0.000    0.000    0.000    0.000 
#
# Total GULP energy -66967.804202 kJ/mol
# GULP energy per Si atom -5580.650350 kJ/mol
# Density = 2.133988 g / cm^3
# Si number density = 21.388563 Si / 1000 Ang^3
#
#
#
# Elastic Constant Matrix: (Units=GPa)
#
#
# Indices 1 2 3 4 5 6 
#
# 1 65.9397 22.1610 37.5400 -0.0001 20.7754 0.0001
# 2 22.1610 112.2931 36.8203 -0.0003 1.0736 0.0001
# 3 37.5400 36.8203 108.1299 0.0002 9.7067 0.0000
# 4 -0.0001 -0.0003 0.0002 9.7515 -0.0002 14.4947
# 5 20.7754 1.0736 9.7067 -0.0002 39.1023 0.0002
# 6 0.0001 0.0001 0.0000 14.4947 0.0002 34.8329
#
#
#
# Elastic Compliance Matrix: (Units=1/GPa)
#
#
# Indices 1 2 3 4 5 6 
#
# 1 0.022780 -0.002377 -0.006156 0.000000 -0.010510 0.000000
# 2 -0.002377 0.010286 -0.002828 0.000001 0.001682 -0.000001
# 3 -0.006156 -0.002828 0.012322 -0.000001 0.000289 0.000001
# 4 0.000000 0.000001 -0.000001 0.268822 0.000002 -0.111863
# 5 -0.010510 0.001682 0.000289 0.000002 0.031040 -0.000001
# 6 0.000000 -0.000001 0.000001 -0.111863 -0.000001 0.075257
#
#
# Mechanical properties :
#
#
# Convention : Reuss Voigt Hill
#
# Bulk Modulus (GPa) = 44.11851 53.26725 48.69288
# Shear Modulus (GPa) = 11.09178 29.39344 20.24261
#
# Velocity S-wave (km/s) = 2.27972 3.71112 3.07973
# Velocity P-wave (km/s) = 5.25370 6.58193 5.95497
#
# Compressibility (1/GPa) = 0.02266622
#
# Stress axis : x y z
#
# Youngs Moduli (GPa) = 43.89819 97.22316 81.15281
#
# Poissons Ratio (x) = 0.23107 0.49957
# Poissons Ratio (y) = 0.10433 0.22953
# Poissons Ratio (z) = 0.27023 0.27498
#
# Static dielectric constant tensor:
#      x y z
#    x 1.781420 0.000000 0.031670 
#    y 0.000000 1.761630 0.000000 
#    z 0.031670 0.000000 1.772950 
# 
# From -- ./inp_files/50806.got.cif
#   From: 2010.05.17/outbox.cif.g08.bks.cpg/sg5_26_cif.got.tgz:50806.got - 2010.06.03 18:56:24.
