data_PCOD9127178
_publ_section_title
;
Structure prediction by ZEFSAII (Michael W. Deem and Ramdas Pophale) SiO2 
 PCOD9127178
Probable space group: C 2
;
_chemical_formula_sum "Si O2"
_cell_formula_units_Z 22
_cell_length_a 11.841932
_cell_length_b 13.324452
_cell_length_c 11.210972
_cell_angle_alpha 90.000000
_cell_angle_beta 143.555375
_cell_angle_gamma 90.000000
_cell_volume 1050.836070
_symmetry_space_group_name_H-M "C 2"
_symmetry_group_IT_number 5
_symmetry_cell_setting 'monoclinic'
loop_
_space_group_symop_operation_xyz
x,y,z
-x,y,-z
1/2+x,1/2+y,z
1/2-x,1/2+y,-z
loop_
_atom_site_type_symbol
_atom_site_label
_atom_site_fract_x
_atom_site_fract_y
_atom_site_fract_z
Si Si1 0.752910 0.557730 0.390199
Si Si2 0.000000 0.382929 0.500000
Si Si3 0.248502 0.828431 0.891095
Si Si4 0.000000 0.178474 0.000000
Si Si5 0.913518 0.040542 0.292723
Si Si6 0.000000 0.712857 0.500000
Si Si7 0.802308 0.749850 0.900577
O O1 0.594268 0.546397 0.356411
O O2 0.865923 0.455427 0.464835
O O3 0.914452 0.643974 0.533723
O O4 0.650890 0.600867 0.184076
O O5 0.142427 0.317081 0.699705
O O6 0.437012 0.758121 0.048878
O O7 0.149708 0.784065 0.689957
O O8 0.225259 0.947037 0.856179
O O9 0.154346 0.798349 0.934742
O O10 0.789894 0.140177 0.171238
O O11 0.000000 0.033257 0.500000
O O12 0.000000 0.746567 0.000000
#
# Coordination Sequence:
#
# PCOD9127178 Si02
#       7
#     4   2   4   2   4   2   4
#     4  10  23  43  72  99 139 185 246 289 363 424
#     4  11  26  47  74 106 142 195 242 307 358 428
#     4  11  24  44  70  99 140 191 238 293 359 422
#     4  10  22  44  68 102 138 184 248 292 348 442
#     4  12  26  44  69 108 149 191 235 303 364 426
#     4   9  22  43  68 100 134 191 234 305 340 436
#     4  12  28  47  71 107 153 192 242 295 368 435
#
# _framework density 20.935711000000001
#
# number of rings (size 3 to 8) (size 9 to 14) (size 15 to 20)
#    0.000    1.091    3.636    1.091    7.636    4.364 
#    0.000    0.000    0.000    0.000    0.000    0.000 
#    0.000    0.000    0.000    0.000    0.000    0.000 
#
# Total GULP energy -61331.068249 kJ/mol
# GULP energy per Si atom -5575.551659 kJ/mol
# Density = 2.088806 g / cm^3
# Si number density = 20.935711 Si / 1000 Ang^3
#
#
#
# Elastic Constant Matrix: (Units=GPa)
#
#
# Indices 1 2 3 4 5 6 
#
# 1 130.2632 53.9689 27.1188 0.0000 13.9568 0.0000
# 2 53.9689 179.2051 52.6727 0.0000 9.5043 0.0000
# 3 27.1188 52.6727 66.6949 0.0000 9.9084 0.0000
# 4 0.0000 0.0000 0.0000 16.2472 0.0000 -7.2597
# 5 13.9568 9.5043 9.9084 0.0000 31.2332 0.0000
# 6 0.0000 0.0000 0.0000 -7.2597 0.0000 6.3416
#
#
#
# Elastic Compliance Matrix: (Units=1/GPa)
#
#
# Indices 1 2 3 4 5 6 
#
# 1 0.009218 -0.002145 -0.001616 0.000000 -0.002954 0.000000
# 2 -0.002145 0.007771 -0.005306 0.000000 0.000277 0.000000
# 3 -0.001616 -0.005306 0.020458 0.000000 -0.004154 0.000000
# 4 0.000000 0.000000 0.000000 0.126001 0.000000 0.144243
# 5 -0.002954 0.000277 -0.004154 0.000000 0.034571 0.000000
# 6 0.000000 0.000000 0.000000 0.144243 0.000000 0.322814
#
#
# Mechanical properties :
#
#
# Convention : Reuss Voigt Hill
#
# Bulk Modulus (GPa) = 51.77482 71.52044 61.64763
# Shear Modulus (GPa) = 9.16750 26.92459 18.04605
#
# Velocity S-wave (km/s) = 2.09485 3.59006 2.93913
# Velocity P-wave (km/s) = 5.53491 7.17083 6.40531
#
# Compressibility (1/GPa) = 0.01931441
#
# Stress axis : x y z
#
# Youngs Moduli (GPa) = 108.48194 128.68312 48.87971
#
# Poissons Ratio (x) = 0.27597 0.07897
# Poissons Ratio (y) = 0.23265 0.25937
# Poissons Ratio (z) = 0.17527 0.68284
#
# Static dielectric constant tensor:
#      x y z
#    x 1.876210 0.000000 0.156180 
#    y 0.000000 1.740830 0.000000 
#    z 0.156180 0.000000 1.928810 
# 
# From -- ./inp_files/19044.got.cif
#   From: 2010.05.17/outbox.cif.g08.bks.cpg/sg5_10_cif.got.tgz:19044.got - 2010.06.03 18:56:24.
