data_PCOD9127415
_publ_section_title
;
Structure prediction by ZEFSAII (Michael W. Deem and Ramdas Pophale) SiO2 
 PCOD9127415
Probable space group: C 2
;
_chemical_formula_sum "Si O2"
_cell_formula_units_Z 20
_cell_length_a 17.856689
_cell_length_b 8.039053
_cell_length_c 9.324621
_cell_angle_alpha 90.000000
_cell_angle_beta 39.537760
_cell_angle_gamma 90.000000
_cell_volume 852.107751
_symmetry_space_group_name_H-M "C 2"
_symmetry_group_IT_number 5
_symmetry_cell_setting 'monoclinic'
loop_
_space_group_symop_operation_xyz
x,y,z
-x,y,-z
1/2+x,1/2+y,z
1/2-x,1/2+y,-z
loop_
_atom_site_type_symbol
_atom_site_label
_atom_site_fract_x
_atom_site_fract_y
_atom_site_fract_z
Si Si1 0.000000 0.043031 0.500000
Si Si2 0.633439 0.733966 0.555025
Si Si3 0.690339 0.289688 0.096690
Si Si4 0.500000 0.554227 0.000000
Si Si5 0.634511 0.001119 0.344903
Si Si6 0.111261 0.717174 0.917556
O O1 0.058194 0.149278 0.539365
O O2 0.101287 0.930171 0.280622
O O3 0.574228 0.670325 0.785837
O O4 0.768751 0.678293 0.341399
O O5 0.636030 0.926376 0.502112
O O6 0.706793 0.168925 0.207268
O O7 0.803965 0.367320 0.852836
O O8 0.630387 0.182243 0.056638
O O9 0.584794 0.417915 0.952846
O O10 0.500000 0.031565 0.500000
O O11 0.000000 0.641719 0.000000
#
# Coordination Sequence:
#
# PCOD9127415 Si02
#       6
#     2   4   4   2   4   4
#     4  12  20  42  78 104 146 180 232 304 352 406
#     4  11  23  43  74 105 138 189 235 285 358 414
#     4  11  22  42  70 105 144 183 229 301 348 410
#     4  10  22  46  70 100 144 194 222 298 340 426
#     4  11  24  42  68 106 139 180 235 286 353 409
#     4   9  21  45  67  99 142 188 232 280 348 423
#
# _framework density 23.471209999999999
#
# number of rings (size 3 to 8) (size 9 to 14) (size 15 to 20)
#    0.600    0.800    4.000    2.400    0.000    0.000 
#    7.200    8.000    0.000    1.200    0.000    0.000 
#    0.000    0.000    0.000    0.000    0.000    0.000 
#
# Total GULP energy -55878.735316 kJ/mol
# GULP energy per Si atom -5587.873532 kJ/mol
# Density = 2.341779 g / cm^3
# Si number density = 23.471210 Si / 1000 Ang^3
#
#
#
# Elastic Constant Matrix: (Units=GPa)
#
#
# Indices 1 2 3 4 5 6 
#
# 1 65.0214 4.0682 25.3754 0.0000 -5.7288 0.0000
# 2 4.0682 63.6850 37.1014 0.0000 3.4531 0.0000
# 3 25.3754 37.1014 158.5569 0.0000 -0.1749 0.0000
# 4 0.0000 0.0000 0.0000 48.5655 0.0000 0.3262
# 5 -5.7288 3.4531 -0.1749 0.0000 32.8575 0.0000
# 6 0.0000 0.0000 0.0000 0.3262 0.0000 18.5856
#
#
#
# Elastic Compliance Matrix: (Units=1/GPa)
#
#
# Indices 1 2 3 4 5 6 
#
# 1 0.016683 0.000386 -0.002757 0.000000 0.002853 0.000000
# 2 0.000386 0.018313 -0.004349 0.000000 -0.001880 0.000000
# 3 -0.002757 -0.004349 0.007766 0.000000 0.000018 0.000000
# 4 0.000000 0.000000 0.000000 0.020593 0.000000 -0.000361
# 5 0.002853 -0.001880 0.000018 0.000000 0.031130 0.000000
# 6 0.000000 0.000000 0.000000 -0.000361 0.000000 0.053811
#
#
# Mechanical properties :
#
#
# Convention : Reuss Voigt Hill
#
# Bulk Modulus (GPa) = 34.10496 46.70594 40.40545
# Shear Modulus (GPa) = 29.15277 34.71627 31.93452
#
# Velocity S-wave (km/s) = 3.52812 3.85008 3.69261
# Velocity P-wave (km/s) = 5.58202 6.30132 5.95254
#
# Compressibility (1/GPa) = 0.02932125
#
# Stress axis : x y z
#
# Youngs Moduli (GPa) = 59.94203 54.60536 128.77006
#
# Poissons Ratio (x) = -0.02106 0.35502
# Poissons Ratio (y) = -0.02312 0.56002
# Poissons Ratio (z) = 0.16526 0.23748
#
# Static dielectric constant tensor:
#      x y z
#    x 1.890440 0.000000 -0.002450 
#    y 0.000000 1.942540 0.000000 
#    z -0.002450 0.000000 1.849890 
# 
# From -- ./inp_files/28857.got.cif
#   From: 2010.05.17/outbox.cif.g08.bks.cpg/sg5_15_cif.got.tgz:28857.got - 2010.06.03 18:56:24.
