data_PCOD9127788
_publ_section_title
;
Structure prediction by ZEFSAII (Michael W. Deem and Ramdas Pophale) SiO2 
 PCOD9127788
Probable space group: C 2
;
_chemical_formula_sum "Si O2"
_cell_formula_units_Z 28
_cell_length_a 20.777229
_cell_length_b 11.426307
_cell_length_c 5.724156
_cell_angle_alpha 90.000000
_cell_angle_beta 55.276034
_cell_angle_gamma 90.000000
_cell_volume 1116.932804
_symmetry_space_group_name_H-M "C 2"
_symmetry_group_IT_number 5
_symmetry_cell_setting 'monoclinic'
loop_
_space_group_symop_operation_xyz
x,y,z
-x,y,-z
1/2+x,1/2+y,z
1/2-x,1/2+y,-z
loop_
_atom_site_type_symbol
_atom_site_label
_atom_site_fract_x
_atom_site_fract_y
_atom_site_fract_z
Si Si1 0.181606 0.179170 0.099162
Si Si2 0.365714 0.316821 0.589573
Si Si3 0.793376 0.385196 0.256139
Si Si4 0.426424 0.763946 0.288646
Si Si5 0.500000 0.340179 0.000000
Si Si6 0.074476 0.014109 0.210007
Si Si7 0.000000 0.446879 0.500000
Si Si8 0.341828 0.095620 0.915906
O O1 0.128191 0.180886 0.439374
O O2 0.129310 0.117458 0.011494
O O3 0.191745 0.316463 0.021881
O O4 0.260936 0.103845 0.932269
O O5 0.296001 0.339631 0.544721
O O6 0.381218 0.439512 0.682110
O O7 0.360338 0.230852 0.825784
O O8 0.439606 0.271767 0.287320
O O9 0.859962 0.335472 0.284693
O O10 0.807000 0.523858 0.207986
O O11 0.474190 0.860125 0.345095
O O12 0.500000 0.706473 0.000000
O O13 0.451908 0.425614 0.931625
O O14 0.000000 0.063396 0.500000
O O15 0.077334 0.526394 0.297379
#
# Coordination Sequence:
#
# PCOD9127788 Si02
#       8
#     4   4   4   4   2   4   2   4
#     4  11  25  47  71 102 152 190 234 308 367 431
#     4  10  24  47  70 105 148 187 242 300 363 434
#     4  11  24  47  71 107 137 196 245 296 371 441
#     4  12  25  47  75 109 145 184 253 309 368 442
#     4  10  24  46  70 108 140 190 244 292 362 446
#     4  10  23  42  68 100 140 185 234 290 359 433
#     4  12  26  50  74 108 148 190 248 316 368 422
#     4  11  24  48  73 100 147 191 236 301 368 429
#
# _framework density 25.068652
#
# number of rings (size 3 to 8) (size 9 to 14) (size 15 to 20)
#    0.000    1.143    4.286    0.000    6.000    5.714 
#   10.286    0.000    0.000    0.000    0.000    0.000 
#    0.000    0.000    0.000    0.000    0.000    0.000 
#
# Total GULP energy -77956.213232 kJ/mol
# GULP energy per Si atom -5568.300945 kJ/mol
# Density = 2.501159 g / cm^3
# Si number density = 25.068652 Si / 1000 Ang^3
#
#
#
# Elastic Constant Matrix: (Units=GPa)
#
#
# Indices 1 2 3 4 5 6 
#
# 1 160.5466 43.9006 29.1202 0.0000 -17.0427 0.0000
# 2 43.9006 78.6725 11.0127 0.0000 -17.2673 0.0000
# 3 29.1202 11.0127 55.4832 0.0000 -15.3867 0.0000
# 4 0.0000 0.0000 0.0000 27.2631 0.0000 -8.6871
# 5 -17.0427 -17.2673 -15.3867 0.0000 34.9659 0.0000
# 6 0.0000 0.0000 0.0000 -8.6871 0.0000 15.5297
#
#
#
# Elastic Compliance Matrix: (Units=1/GPa)
#
#
# Indices 1 2 3 4 5 6 
#
# 1 0.007928 -0.003852 -0.003249 0.000000 0.000532 0.000000
# 2 -0.003852 0.016177 0.000576 0.000000 0.006364 0.000000
# 3 -0.003249 0.000576 0.021930 0.000000 0.008351 0.000000
# 4 0.000000 0.000000 0.000000 0.044635 0.000000 0.024968
# 5 0.000532 0.006364 0.008351 0.000000 0.035677 0.000000
# 6 0.000000 0.000000 0.000000 0.024968 0.000000 0.078359
#
#
# Mechanical properties :
#
#
# Convention : Reuss Voigt Hill
#
# Bulk Modulus (GPa) = 30.31696 51.41882 40.86789
# Shear Modulus (GPa) = 21.85779 29.59634 25.72706
#
# Velocity S-wave (km/s) = 2.95603 3.43973 3.20701
# Velocity P-wave (km/s) = 4.87551 6.02755 5.48188
#
# Compressibility (1/GPa) = 0.03298484
#
# Stress axis : x y z
#
# Youngs Moduli (GPa) = 126.13731 61.81673 45.59915
#
# Poissons Ratio (x) = 0.23814 0.14814
# Poissons Ratio (y) = 0.48592 -0.02626
# Poissons Ratio (z) = 0.40978 -0.03561
#
# Static dielectric constant tensor:
#      x y z
#    x 2.062450 0.000000 -0.046650 
#    y 0.000000 1.994570 0.000000 
#    z -0.046650 0.000000 2.077630 
# 
# From -- ./inp_files/9539.got.cif
#   From: 2010.05.17/outbox.cif.g08.bks.cpg/sg5_5_cif.got.tgz:9539.got - 2010.06.03 18:56:24.
