data_PCOD9127661
_publ_section_title
;
Structure prediction by ZEFSAII (Michael W. Deem and Ramdas Pophale) SiO2 
 PCOD9127661
Probable space group: C 2
;
_chemical_formula_sum "Si O2"
_cell_formula_units_Z 18
_cell_length_a 7.710277
_cell_length_b 7.356298
_cell_length_c 12.002597
_cell_angle_alpha 90.000000
_cell_angle_beta 106.801030
_cell_angle_gamma 90.000000
_cell_volume 651.717025
_symmetry_space_group_name_H-M "C 2"
_symmetry_group_IT_number 5
_symmetry_cell_setting 'monoclinic'
loop_
_space_group_symop_operation_xyz
x,y,z
-x,y,-z
1/2+x,1/2+y,z
1/2-x,1/2+y,-z
loop_
_atom_site_type_symbol
_atom_site_label
_atom_site_fract_x
_atom_site_fract_y
_atom_site_fract_z
Si Si1 0.674571 0.765540 0.482763
Si Si2 0.710547 0.979263 0.140175
Si Si3 0.313283 0.569608 0.920045
Si Si4 0.111498 0.829015 0.251315
Si Si5 0.500000 0.096448 0.500000
O O1 0.500000 0.658089 0.500000
O O2 0.804392 0.813527 0.610830
O O3 0.821892 0.695935 0.424128
O O4 0.584562 0.952852 0.428601
O O5 0.612924 0.126083 0.200197
O O6 0.644525 0.771458 0.116274
O O7 0.702404 0.063635 0.013593
O O8 0.921163 0.939463 0.216747
O O9 0.259199 0.441536 0.808528
O O10 0.500000 0.484333 0.000000
#
# Coordination Sequence:
#
# PCOD9127661 Si02
#       5
#     4   4   4   4   2
#     4  10  27  49  77 108 148 192 247 310 371 445
#     4  11  24  41  70  96 148 185 245 289 362 432
#     4  10  23  41  63 100 143 190 233 296 357 432
#     4  11  26  42  68 108 138 194 243 298 365 439
#     4  10  26  46  78  98 152 186 248 304 382 420
#
# _framework density 27.619349
#
# number of rings (size 3 to 8) (size 9 to 14) (size 15 to 20)
#    0.667    0.889    2.222    0.000   10.889    0.000 
#    0.000    0.000    0.000    0.000    0.000    0.000 
#    0.000    0.000    0.000    0.000    0.000    0.000 
#
# Total GULP energy -50251.088149 kJ/mol
# GULP energy per Si atom -5583.454239 kJ/mol
# Density = 2.755649 g / cm^3
# Si number density = 27.619349 Si / 1000 Ang^3
#
#
#
# Elastic Constant Matrix: (Units=GPa)
#
#
# Indices 1 2 3 4 5 6 
#
# 1 169.2789 34.9971 -3.6770 0.0000 17.9168 0.0000
# 2 34.9971 154.4286 26.9344 0.0000 -13.2192 0.0000
# 3 -3.6770 26.9344 132.1648 0.0000 13.1122 0.0000
# 4 0.0000 0.0000 0.0000 31.4395 0.0000 -0.0284
# 5 17.9168 -13.2192 13.1122 0.0000 34.0659 0.0000
# 6 0.0000 0.0000 0.0000 -0.0284 0.0000 58.4350
#
#
#
# Elastic Compliance Matrix: (Units=1/GPa)
#
#
# Indices 1 2 3 4 5 6 
#
# 1 0.006902 -0.002180 0.001123 0.000000 -0.004909 0.000000
# 2 -0.002180 0.007769 -0.002139 0.000000 0.004985 0.000000
# 3 0.001123 -0.002139 0.008499 0.000000 -0.004692 0.000000
# 4 0.000000 0.000000 0.000000 0.031807 0.000000 0.000015
# 5 -0.004909 0.004985 -0.004692 0.000000 0.035677 0.000000
# 6 0.000000 0.000000 0.000000 0.000015 0.000000 0.017113
#
#
# Mechanical properties :
#
#
# Convention : Reuss Voigt Hill
#
# Bulk Modulus (GPa) = 59.59720 63.59791 61.59756
# Shear Modulus (GPa) = 41.75323 51.29592 46.52458
#
# Velocity S-wave (km/s) = 3.89233 4.31425 4.10871
# Velocity P-wave (km/s) = 6.46724 6.92052 6.69772
#
# Compressibility (1/GPa) = 0.01677931
#
# Stress axis : x y z
#
# Youngs Moduli (GPa) = 144.88342 128.71229 117.66263
#
# Poissons Ratio (x) = 0.28063 -0.13217
# Poissons Ratio (y) = 0.31589 0.25162
# Poissons Ratio (z) = -0.16275 0.27525
#
# Static dielectric constant tensor:
#      x y z
#    x 2.433220 0.000000 -0.021840 
#    y 0.000000 2.272660 0.000000 
#    z -0.021840 0.000000 2.110070 
# 
# From -- ./inp_files/34668.got.cif
#   From: 2010.05.17/outbox.cif.g08.bks.cpg/sg5_18_cif.got.tgz:34668.got - 2010.06.03 18:56:24.
