data_PCOD9127572
_publ_section_title
;
Structure prediction by ZEFSAII (Michael W. Deem and Ramdas Pophale) SiO2 
 PCOD9127572
Probable space group: C 2
;
_chemical_formula_sum "Si O2"
_cell_formula_units_Z 24
_cell_length_a 23.707374
_cell_length_b 5.020433
_cell_length_c 23.673607
_cell_angle_alpha 90.000000
_cell_angle_beta 21.333037
_cell_angle_gamma 90.000000
_cell_volume 1025.033105
_symmetry_space_group_name_H-M "C 2"
_symmetry_group_IT_number 5
_symmetry_cell_setting 'monoclinic'
loop_
_space_group_symop_operation_xyz
x,y,z
-x,y,-z
1/2+x,1/2+y,z
1/2-x,1/2+y,-z
loop_
_atom_site_type_symbol
_atom_site_label
_atom_site_fract_x
_atom_site_fract_y
_atom_site_fract_z
Si Si1 0.435186 0.397500 0.199675
Si Si2 0.795066 0.173833 0.988875
Si Si3 0.350185 0.697241 0.660148
Si Si4 0.128276 0.033522 0.914036
Si Si5 0.880806 0.877365 0.736969
Si Si6 0.281444 0.393217 0.611927
O O1 0.541441 0.528412 0.150039
O O2 0.311589 0.622065 0.299556
O O3 0.339001 0.124205 0.296416
O O4 0.561449 0.391925 0.031636
O O5 0.809358 0.419511 0.931906
O O6 0.712058 0.327884 0.118730
O O7 0.500000 0.861515 0.500000
O O8 0.183243 0.827315 0.815872
O O9 0.372007 0.641464 0.706589
O O10 0.341439 0.476857 0.618604
O O11 0.280658 0.192390 0.788501
O O12 0.000000 0.204855 0.000000
O O13 0.065197 0.842875 0.568967
#
# Coordination Sequence:
#
# PCOD9127572 Si02
#       6
#     4   4   4   4   4   4
#     4  11  25  43  71 102 140 179 241 291 352 417
#     4  11  26  48  75 104 135 183 248 307 357 409
#     4  10  23  38  64 103 149 191 226 273 355 433
#     4  11  22  36  66  99 145 189 237 274 344 422
#     4  10  26  41  71  98 148 186 237 284 366 411
#     4  11  24  45  68 107 147 187 222 286 354 443
#
# _framework density 23.413875999999998
#
# number of rings (size 3 to 8) (size 9 to 14) (size 15 to 20)
#    0.000    1.333    1.667    2.000   14.000    1.333 
#    0.000    3.333    0.000    0.000    0.000    0.000 
#    0.000    0.000    0.000    0.000    0.000    0.000 
#
# Total GULP energy -66865.629982 kJ/mol
# GULP energy per Si atom -5572.135832 kJ/mol
# Density = 2.336058 g / cm^3
# Si number density = 23.413876 Si / 1000 Ang^3
#
#
#
# Elastic Constant Matrix: (Units=GPa)
#
#
# Indices 1 2 3 4 5 6 
#
# 1 56.2029 9.9598 3.5280 0.0127 -6.9613 -0.0003
# 2 9.9598 80.5391 28.3232 0.0178 0.4223 0.0050
# 3 3.5280 28.3232 109.0654 0.0430 -16.0775 -0.0244
# 4 0.0127 0.0178 0.0430 39.1260 -0.0068 -10.9448
# 5 -6.9613 0.4223 -16.0775 -0.0068 15.8523 -0.0063
# 6 -0.0003 0.0050 -0.0244 -10.9448 -0.0063 33.2049
#
#
#
# Elastic Compliance Matrix: (Units=1/GPa)
#
#
# Indices 1 2 3 4 5 6 
#
# 1 0.019513 -0.003063 0.001692 -0.000004 0.010367 0.000002
# 2 -0.003063 0.014444 -0.004594 -0.000004 -0.006389 -0.000008
# 3 0.001692 -0.004594 0.012269 -0.000007 0.013309 0.000010
# 4 -0.000004 -0.000004 -0.000007 0.028154 0.000007 0.009280
# 5 0.010367 -0.006389 0.013309 0.000007 0.081303 0.000029
# 6 0.000002 -0.000008 0.000010 0.009280 0.000029 0.033175
#
#
# Mechanical properties :
#
#
# Convention : Reuss Voigt Hill
#
# Bulk Modulus (GPa) = 29.15601 36.60330 32.87965
# Shear Modulus (GPa) = 23.56057 31.23639 27.39848
#
# Velocity S-wave (km/s) = 3.17561 3.65649 3.42450
# Velocity P-wave (km/s) = 5.09171 5.78737 5.45065
#
# Compressibility (1/GPa) = 0.03429825
#
# Stress axis : x y z
#
# Youngs Moduli (GPa) = 51.24727 69.23287 81.50723
#
# Poissons Ratio (x) = 0.21203 -0.13794
# Poissons Ratio (y) = 0.15695 0.37442
# Poissons Ratio (z) = -0.08673 0.31803
#
# Static dielectric constant tensor:
#      x y z
#    x 1.973980 -0.000010 -0.080900 
#    y -0.000010 2.008020 0.000070 
#    z -0.080900 0.000070 2.004150 
# 
# From -- ./inp_files/69552.got.cif
#   From: 2010.05.17/outbox.cif.g08.bks.cpg/sg5_35_cif.got.tgz:69552.got - 2010.06.03 18:56:24.
