data_PCOD9127834
_publ_section_title
;
Structure prediction by ZEFSAII (Michael W. Deem and Ramdas Pophale) SiO2 
 PCOD9127834
Probable space group: C 2
;
_chemical_formula_sum "Si O2"
_cell_formula_units_Z 26
_cell_length_a 15.343544
_cell_length_b 12.232822
_cell_length_c 15.412698
_cell_angle_alpha 90.000000
_cell_angle_beta 153.612035
_cell_angle_gamma 90.000000
_cell_volume 1285.733654
_symmetry_space_group_name_H-M "C 2"
_symmetry_group_IT_number 5
_symmetry_cell_setting 'monoclinic'
loop_
_space_group_symop_operation_xyz
x,y,z
-x,y,-z
1/2+x,1/2+y,z
1/2-x,1/2+y,-z
loop_
_atom_site_type_symbol
_atom_site_label
_atom_site_fract_x
_atom_site_fract_y
_atom_site_fract_z
Si Si1 0.582470 0.611600 0.434303
Si Si2 0.836239 0.239315 0.075560
Si Si3 0.709801 0.927218 0.826292
Si Si4 0.000000 0.930067 0.500000
Si Si5 0.000000 0.071591 0.000000
Si Si6 0.041538 0.626461 0.343654
Si Si7 0.500000 0.792085 0.500000
Si Si8 0.208894 0.248668 0.289671
O O1 0.435372 0.648386 0.226819
O O2 0.509261 0.508155 0.424062
O O3 0.794722 0.596763 0.581484
O O4 0.592416 0.713290 0.509857
O O5 0.786777 0.342107 0.092273
O O6 0.001144 0.270647 0.151635
O O7 0.642646 0.190081 0.860588
O O8 0.659954 0.863969 0.692892
O O9 0.908233 0.995591 0.991930
O O10 0.537540 0.014220 0.687122
O O11 0.810240 0.851843 0.335248
O O12 0.832648 0.150676 0.814054
O O13 0.144596 0.702985 0.506640
#
# Coordination Sequence:
#
# PCOD9127834 Si02
#       8
#     4   4   4   2   2   4   2   4
#     4   9  22  42  65  92 128 158 212 254 308 376
#     4  10  23  43  62  94 125 165 210 254 305 388
#     4  11  22  38  65  89 124 164 205 252 314 355
#     4  11  22  43  66  94 128 171 198 267 324 354
#     4  12  24  42  60  94 120 162 214 260 298 372
#     4  11  22  43  63  89 127 167 205 259 307 377
#     4   9  20  41  62  96 120 159 208 259 302 368
#     4  11  24  43  63  90 129 160 212 259 310 372
#
# _framework density 20.221917000000001
#
# number of rings (size 3 to 8) (size 9 to 14) (size 15 to 20)
#    0.000    1.538    1.538    2.769    2.154    1.231 
#    5.538    0.000    0.000    0.000    0.000    0.000 
#    0.000    0.000    0.000    0.000    0.000    0.000 
#
# Total GULP energy -72692.161132 kJ/mol
# GULP energy per Si atom -5591.704702 kJ/mol
# Density = 2.017589 g / cm^3
# Si number density = 20.221917 Si / 1000 Ang^3
#
#
#
# Elastic Constant Matrix: (Units=GPa)
#
#
# Indices 1 2 3 4 5 6 
#
# 1 112.3155 57.1730 49.8767 0.0008 18.3975 0.0014
# 2 57.1730 114.1397 47.7965 0.0020 11.9070 0.0045
# 3 49.8767 47.7965 110.3960 0.0017 7.4172 0.0059
# 4 0.0008 0.0020 0.0017 19.5844 0.0003 6.6291
# 5 18.3975 11.9070 7.4172 0.0003 24.4268 0.0018
# 6 0.0014 0.0045 0.0059 6.6291 0.0018 22.9215
#
#
#
# Elastic Compliance Matrix: (Units=1/GPa)
#
#
# Indices 1 2 3 4 5 6 
#
# 1 0.014229 -0.004746 -0.003889 0.000000 -0.007223 0.000002
# 2 -0.004746 0.012659 -0.003228 0.000000 -0.001616 -0.000001
# 3 -0.003889 -0.003228 0.012158 0.000000 0.000811 -0.000002
# 4 0.000000 0.000000 0.000000 0.056602 0.000001 -0.016370
# 5 -0.007223 -0.001616 0.000811 0.000001 0.046920 -0.000003
# 6 0.000002 -0.000001 -0.000002 -0.016370 -0.000003 0.048362
#
#
# Mechanical properties :
#
#
# Convention : Reuss Voigt Hill
#
# Bulk Modulus (GPa) = 65.26792 71.83818 68.55305
# Shear Modulus (GPa) = 22.75186 25.52019 24.13602
#
# Velocity S-wave (km/s) = 3.35790 3.55633 3.45854
# Velocity P-wave (km/s) = 6.88331 7.24329 7.06559
#
# Compressibility (1/GPa) = 0.01532146
#
# Stress axis : x y z
#
# Youngs Moduli (GPa) = 70.27788 78.99794 82.24770
#
# Poissons Ratio (x) = 0.37488 0.31985
# Poissons Ratio (y) = 0.33350 0.26549
# Poissons Ratio (z) = 0.27330 0.25500
#
# Static dielectric constant tensor:
#      x y z
#    x 1.733230 0.000000 0.008570 
#    y 0.000000 1.703760 0.000000 
#    z 0.008570 0.000000 1.690600 
# 
# From -- ./inp_files/9509.got.cif
#   From: 2010.05.17/outbox.cif.g08.bks.cpg/sg5_5_cif.got.tgz:9509.got - 2010.06.03 18:56:24.
