data_PCOD9127071
_publ_section_title
;
Structure prediction by ZEFSAII (Michael W. Deem and Ramdas Pophale) SiO2 
 PCOD9127071
Probable space group: C 2
;
_chemical_formula_sum "Si O2"
_cell_formula_units_Z 12
_cell_length_a 6.685425
_cell_length_b 8.687911
_cell_length_c 8.212802
_cell_angle_alpha 90.000000
_cell_angle_beta 82.823249
_cell_angle_gamma 90.000000
_cell_volume 473.281848
_symmetry_space_group_name_H-M "C 2"
_symmetry_group_IT_number 5
_symmetry_cell_setting 'monoclinic'
loop_
_space_group_symop_operation_xyz
x,y,z
-x,y,-z
1/2+x,1/2+y,z
1/2-x,1/2+y,-z
loop_
_atom_site_type_symbol
_atom_site_label
_atom_site_fract_x
_atom_site_fract_y
_atom_site_fract_z
Si Si1 0.309591 0.023400 0.439883
Si Si2 0.163569 0.319085 0.854247
Si Si3 0.018709 0.015836 0.758282
O O1 0.500000 0.107621 0.500000
O O2 0.163979 0.103496 0.322133
O O3 0.169869 0.966361 0.600965
O O4 0.386794 0.882247 0.321368
O O5 0.390344 0.380583 0.853690
O O6 0.141098 0.135867 0.853403
O O7 0.000000 0.378595 0.000000
#
# Coordination Sequence:
#
# PCOD9127071 Si02
#       3
#     4   4   4
#     4   9  21  40  72 101 136 188 237 288 344 430
#     4  10  22  43  70 102 147 180 241 291 368 408
#     4   9  22  42  67 104 138 189 233 293 348 432
#
# _framework density 25.354869999999998
#
# number of rings (size 3 to 8) (size 9 to 14) (size 15 to 20)
#    2.000    0.667    0.000    0.000    4.667    5.333 
#    0.000    0.000    0.000    0.000    0.000    0.000 
#    0.000    0.000    0.000    0.000    0.000    0.000 
#
# Total GULP energy -33417.613466 kJ/mol
# GULP energy per Si atom -5569.602244 kJ/mol
# Density = 2.529716 g / cm^3
# Si number density = 25.354870 Si / 1000 Ang^3
#
#
#
# Elastic Constant Matrix: (Units=GPa)
#
#
# Indices 1 2 3 4 5 6 
#
# 1 135.2419 42.4629 36.7283 0.0000 -6.9592 0.0000
# 2 42.4629 91.7105 37.9826 0.0000 -11.3914 0.0000
# 3 36.7283 37.9826 161.0380 0.0000 -51.2660 0.0000
# 4 0.0000 0.0000 0.0000 13.5798 0.0000 6.9839
# 5 -6.9592 -11.3914 -51.2660 0.0000 47.5914 0.0000
# 6 0.0000 0.0000 0.0000 6.9839 0.0000 42.5115
#
#
#
# Elastic Compliance Matrix: (Units=1/GPa)
#
#
# Indices 1 2 3 4 5 6 
#
# 1 0.008895 -0.003622 -0.001577 0.000000 -0.001265 0.000000
# 2 -0.003622 0.013562 -0.002295 0.000000 0.000245 0.000000
# 3 -0.001577 -0.002295 0.010444 0.000000 0.010470 0.000000
# 4 0.000000 0.000000 0.000000 0.080434 0.000000 -0.013214
# 5 -0.001265 0.000245 0.010470 0.000000 0.032165 0.000000
# 6 0.000000 0.000000 0.000000 -0.013214 0.000000 0.025694
#
#
# Mechanical properties :
#
#
# Convention : Reuss Voigt Hill
#
# Bulk Modulus (GPa) = 55.82784 69.14867 62.48825
# Shear Modulus (GPa) = 26.02109 38.79098 32.40604
#
# Velocity S-wave (km/s) = 3.20703 3.91567 3.57893
# Velocity P-wave (km/s) = 5.98162 6.91193 6.46354
#
# Compressibility (1/GPa) = 0.01791221
#
# Stress axis : x y z
#
# Youngs Moduli (GPa) = 112.42691 73.73650 95.75032
#
# Poissons Ratio (x) = 0.26710 0.15100
# Poissons Ratio (y) = 0.40725 0.21972
# Poissons Ratio (z) = 0.17730 0.16920
#
# Static dielectric constant tensor:
#      x y z
#    x 2.013120 0.000000 0.031580 
#    y 0.000000 1.984350 0.000000 
#    z 0.031580 0.000000 2.010700 
# 
# From -- ./inp_files/11398.got.cif
#   From: 2010.05.17/outbox.cif.g08.bks.cpg/sg5_6_cif.got.tgz:11398.got - 2010.06.03 18:56:24.
