data_PCOD9127667
_publ_section_title
;
Structure prediction by ZEFSAII (Michael W. Deem and Ramdas Pophale) SiO2 
 PCOD9127667
Probable space group: C 2
;
_chemical_formula_sum "Si O2"
_cell_formula_units_Z 16
_cell_length_a 9.086321
_cell_length_b 5.184883
_cell_length_c 16.145795
_cell_angle_alpha 90.000000
_cell_angle_beta 126.151587
_cell_angle_gamma 90.000000
_cell_volume 614.196002
_symmetry_space_group_name_H-M "C 2"
_symmetry_group_IT_number 5
_symmetry_cell_setting 'monoclinic'
loop_
_space_group_symop_operation_xyz
x,y,z
-x,y,-z
1/2+x,1/2+y,z
1/2-x,1/2+y,-z
loop_
_atom_site_type_symbol
_atom_site_label
_atom_site_fract_x
_atom_site_fract_y
_atom_site_fract_z
Si Si1 0.423966 0.547470 0.381786
Si Si2 0.515167 0.042331 0.305163
Si Si3 0.302538 0.588296 0.070569
Si Si4 0.355602 0.707763 0.879170
O O1 0.500000 0.549554 0.500000
O O2 0.486645 0.289033 0.355726
O O3 0.204845 0.561245 0.319623
O O4 0.501655 0.788215 0.356408
O O5 0.333572 0.060629 0.188199
O O6 0.515996 0.642431 0.155540
O O7 0.278859 0.324267 0.008632
O O8 0.804117 0.504302 0.882017
O O9 0.500000 0.643179 0.000000
#
# Coordination Sequence:
#
# PCOD9127667 Si02
#       4
#     4   4   4   4
#     4  12  26  49  73 102 136 176 229 293 346 402
#     4  12  26  44  73 105 136 181 229 276 346 412
#     4  10  23  41  64  92 133 188 230 271 326 386
#     4  10  24  42  66  99 142 181 224 274 330 404
#
# _framework density 26.050317
#
# number of rings (size 3 to 8) (size 9 to 14) (size 15 to 20)
#    0.000    1.000    0.000    5.250    0.000   25.000 
#    0.000    0.000    0.000    0.000    0.000    0.000 
#    0.000    0.000    0.000    0.000    0.000    0.000 
#
# Total GULP energy -44811.506245 kJ/mol
# GULP energy per Si atom -5601.438281 kJ/mol
# Density = 2.599103 g / cm^3
# Si number density = 26.050317 Si / 1000 Ang^3
#
#
#
# Elastic Constant Matrix: (Units=GPa)
#
#
# Indices 1 2 3 4 5 6 
#
# 1 151.9659 71.8305 9.4082 0.0000 31.6646 0.0000
# 2 71.8305 196.2068 11.6210 0.0000 -1.9962 0.0000
# 3 9.4082 11.6210 96.5229 0.0000 -4.3509 0.0000
# 4 0.0000 0.0000 0.0000 29.6567 0.0000 -10.5226
# 5 31.6646 -1.9962 -4.3509 0.0000 64.8953 0.0000
# 6 0.0000 0.0000 0.0000 -10.5226 0.0000 67.4466
#
#
#
# Elastic Compliance Matrix: (Units=1/GPa)
#
#
# Indices 1 2 3 4 5 6 
#
# 1 0.009179 -0.003366 -0.000698 0.000000 -0.004629 0.000000
# 2 -0.003366 0.006369 -0.000357 0.000000 0.001815 0.000000
# 3 -0.000698 -0.000357 0.010518 0.000000 0.001035 0.000000
# 4 0.000000 0.000000 0.000000 0.035695 0.000000 0.005569
# 5 -0.004629 0.001815 0.001035 0.000000 0.017793 0.000000
# 6 0.000000 0.000000 0.000000 0.005569 0.000000 0.015695
#
#
# Mechanical properties :
#
#
# Convention : Reuss Voigt Hill
#
# Bulk Modulus (GPa) = 58.06045 70.04610 64.05327
# Shear Modulus (GPa) = 45.52343 55.85544 50.68944
#
# Velocity S-wave (km/s) = 4.18487 4.63551 4.41594
# Velocity P-wave (km/s) = 6.75922 7.45639 7.11634
#
# Compressibility (1/GPa) = 0.01722343
#
# Stress axis : x y z
#
# Youngs Moduli (GPa) = 108.93968 157.01926 95.07612
#
# Poissons Ratio (x) = 0.52857 0.06637
# Poissons Ratio (y) = 0.36672 0.03393
# Poissons Ratio (z) = 0.07605 0.05603
#
# Static dielectric constant tensor:
#      x y z
#    x 2.360880 0.000000 -0.058760 
#    y 0.000000 2.064020 0.000000 
#    z -0.058760 0.000000 2.087730 
# 
# From -- ./inp_files/68174.got.cif
#   From: 2010.05.17/outbox.cif.g08.bks.cpg/sg5_35_cif.got.tgz:68174.got - 2010.06.03 18:56:24.
