data_PCOD9127636
_publ_section_title
;
Structure prediction by ZEFSAII (Michael W. Deem and Ramdas Pophale) SiO2 
 PCOD9127636
Probable space group: C 2
;
_chemical_formula_sum "Si O2"
_cell_formula_units_Z 24
_cell_length_a 12.439466
_cell_length_b 14.646008
_cell_length_c 9.317227
_cell_angle_alpha 90.000000
_cell_angle_beta 38.164360
_cell_angle_gamma 90.000000
_cell_volume 1048.913181
_symmetry_space_group_name_H-M "C 2"
_symmetry_group_IT_number 5
_symmetry_cell_setting 'monoclinic'
loop_
_space_group_symop_operation_xyz
x,y,z
-x,y,-z
1/2+x,1/2+y,z
1/2-x,1/2+y,-z
loop_
_atom_site_type_symbol
_atom_site_label
_atom_site_fract_x
_atom_site_fract_y
_atom_site_fract_z
Si Si1 0.194032 0.261540 0.812510
Si Si2 0.164552 0.088906 0.049623
Si Si3 0.500000 0.684311 0.500000
Si Si4 0.000000 0.887408 0.500000
Si Si5 0.188011 0.752368 0.640007
Si Si6 0.478650 0.056280 0.188267
Si Si7 0.633707 0.458834 0.650120
O O1 0.189370 0.171181 0.912548
O O2 0.342389 0.325491 0.723821
O O3 0.249794 0.244781 0.590351
O O4 0.000000 0.301064 0.000000
O O5 0.345885 0.043729 0.905141
O O6 0.086880 0.127964 0.279969
O O7 0.021952 0.021770 0.133619
O O8 0.346222 0.738578 0.583546
O O9 0.915553 0.944938 0.464859
O O10 0.060592 0.665403 0.785350
O O11 0.128902 0.857029 0.719051
O O12 0.320353 0.008432 0.441102
O O13 0.500000 0.023550 0.000000
#
# Coordination Sequence:
#
# PCOD9127636 Si02
#       7
#     4   4   2   2   4   4   4
#     4  11  22  42  70  99 130 183 228 281 346 407
#     4  12  23  42  74  99 137 185 234 279 351 415
#     4  12  21  46  76  99 138 190 231 284 350 417
#     4  10  23  40  68 101 136 178 241 282 328 427
#     4  11  25  46  72 102 144 177 237 294 344 410
#     4  12  23  44  72 102 137 193 233 281 353 421
#     4  11  24  44  66 109 141 177 235 298 331 418
#
# _framework density 22.880825000000002
#
# number of rings (size 3 to 8) (size 9 to 14) (size 15 to 20)
#    0.000    0.667    5.000    3.500    0.000    5.333 
#    3.000    5.833    0.000    0.000    0.000    0.000 
#    0.000    0.000    0.000    0.000    0.000    0.000 
#
# Total GULP energy -67130.587335 kJ/mol
# GULP energy per Si atom -5594.215611 kJ/mol
# Density = 2.282875 g / cm^3
# Si number density = 22.880825 Si / 1000 Ang^3
#
#
#
# Elastic Constant Matrix: (Units=GPa)
#
#
# Indices 1 2 3 4 5 6 
#
# 1 111.9954 35.8259 48.9453 -0.0001 -11.9064 0.0000
# 2 35.8259 102.2843 42.2718 0.0000 2.6122 0.0000
# 3 48.9453 42.2718 103.9868 -0.0003 -22.6835 0.0002
# 4 -0.0001 0.0000 -0.0003 30.4319 0.0002 -12.0724
# 5 -11.9064 2.6122 -22.6835 0.0002 37.9336 -0.0001
# 6 0.0000 0.0000 0.0002 -12.0724 -0.0001 38.8172
#
#
#
# Elastic Compliance Matrix: (Units=1/GPa)
#
#
# Indices 1 2 3 4 5 6 
#
# 1 0.011683 -0.002365 -0.004257 0.000000 0.001284 0.000000
# 2 -0.002365 0.012847 -0.005134 0.000000 -0.004697 0.000000
# 3 -0.004257 -0.005134 0.015517 0.000000 0.008296 0.000000
# 4 0.000000 0.000000 0.000000 0.037485 0.000000 0.011658
# 5 0.001284 -0.004697 0.008296 0.000000 0.032049 0.000000
# 6 0.000000 0.000000 0.000000 0.011658 0.000000 0.029388
#
#
# Mechanical properties :
#
#
# Convention : Reuss Voigt Hill
#
# Bulk Modulus (GPa) = 60.48118 63.59471 62.03794
# Shear Modulus (GPa) = 29.76338 34.18477 31.97407
#
# Velocity S-wave (km/s) = 3.61057 3.86947 3.74226
# Velocity P-wave (km/s) = 6.62361 6.91505 6.77090
#
# Compressibility (1/GPa) = 0.01653407
#
# Stress axis : x y z
#
# Youngs Moduli (GPa) = 85.59722 77.84112 64.44550
#
# Poissons Ratio (x) = 0.18412 0.27436
# Poissons Ratio (y) = 0.20246 0.33083
# Poissons Ratio (z) = 0.36441 0.39960
#
# Static dielectric constant tensor:
#      x y z
#    x 1.701020 0.000000 0.094070 
#    y 0.000000 1.914790 0.000000 
#    z 0.094070 0.000000 1.790020 
# 
# From -- ./inp_files/43028.got.cif
#   From: 2010.05.17/outbox.cif.g08.bks.cpg/sg5_22_cif.got.tgz:43028.got - 2010.06.03 18:56:24.
