data_PCOD9127805
_publ_section_title
;
Structure prediction by ZEFSAII (Michael W. Deem and Ramdas Pophale) SiO2 
 PCOD9127805
Probable space group: C 2
;
_chemical_formula_sum "Si O2"
_cell_formula_units_Z 28
_cell_length_a 14.059583
_cell_length_b 8.072363
_cell_length_c 19.600986
_cell_angle_alpha 90.000000
_cell_angle_beta 33.198490
_cell_angle_gamma 90.000000
_cell_volume 1218.057589
_symmetry_space_group_name_H-M "C 2"
_symmetry_group_IT_number 5
_symmetry_cell_setting 'monoclinic'
loop_
_space_group_symop_operation_xyz
x,y,z
-x,y,-z
1/2+x,1/2+y,z
1/2-x,1/2+y,-z
loop_
_atom_site_type_symbol
_atom_site_label
_atom_site_fract_x
_atom_site_fract_y
_atom_site_fract_z
Si Si1 0.312471 0.382290 0.385562
Si Si2 0.976670 0.689078 0.853134
Si Si3 0.458856 0.778743 0.602026
Si Si4 0.138751 0.325342 0.113594
Si Si5 0.256231 0.726203 0.347898
Si Si6 0.164023 0.815325 0.867200
Si Si7 0.006807 0.899753 0.403050
O O1 0.385433 0.273793 0.279571
O O2 0.248189 0.558397 0.395894
O O3 0.464374 0.393164 0.349369
O O4 0.147256 0.300631 0.522333
O O5 0.917072 0.515701 0.858322
O O6 0.061877 0.686188 0.878491
O O7 0.800169 0.794648 0.966740
O O8 0.500000 0.825042 0.500000
O O9 0.307896 0.883062 0.728354
O O10 0.419463 0.583029 0.627222
O O11 0.212807 0.269503 0.143040
O O12 0.958041 0.235587 0.207257
O O13 0.136857 0.759703 0.353373
O O14 0.172148 0.868699 0.447286
O O15 0.000000 0.910751 0.000000
#
# Coordination Sequence:
#
# PCOD9127805 Si02
#       7
#     4   4   4   4   4   4   4
#     4  12  25  40  68 103 137 178 235 290 356 415
#     4  11  24  43  68 103 138 186 234 291 348 428
#     4  12  22  43  70  97 135 186 234 286 355 417
#     4  11  23  44  70  97 142 186 233 287 358 419
#     4  11  24  42  64  98 138 179 230 295 345 421
#     4  10  23  42  69  99 137 182 228 283 349 416
#     4  11  24  43  65  97 140 178 229 294 354 414
#
# _framework density 22.987418999999999
#
# number of rings (size 3 to 8) (size 9 to 14) (size 15 to 20)
#    0.000    0.857    2.857    5.143    2.000    3.429 
#    0.000    2.143    0.000    0.000    0.000    0.000 
#    0.000    0.000    0.000    0.000    0.000    0.000 
#
# Total GULP energy -78079.215320 kJ/mol
# GULP energy per Si atom -5577.086809 kJ/mol
# Density = 2.293510 g / cm^3
# Si number density = 22.987419 Si / 1000 Ang^3
#
#
#
# Elastic Constant Matrix: (Units=GPa)
#
#
# Indices 1 2 3 4 5 6 
#
# 1 157.1375 27.7627 26.5801 0.0000 -9.3343 0.0000
# 2 27.7627 81.9636 24.9839 0.0000 0.5937 0.0000
# 3 26.5801 24.9839 164.3250 0.0000 -18.3013 0.0000
# 4 0.0000 0.0000 0.0000 29.9049 0.0000 -12.2066
# 5 -9.3343 0.5937 -18.3013 0.0000 33.9140 0.0000
# 6 0.0000 0.0000 0.0000 -12.2066 0.0000 20.6892
#
#
#
# Elastic Compliance Matrix: (Units=1/GPa)
#
#
# Indices 1 2 3 4 5 6 
#
# 1 0.006949 -0.002179 -0.000612 0.000000 0.001620 0.000000
# 2 -0.002179 0.013535 -0.001914 0.000000 -0.001869 0.000000
# 3 -0.000612 -0.001914 0.006874 0.000000 0.003574 0.000000
# 4 0.000000 0.000000 0.000000 0.044047 0.000000 0.025988
# 5 0.001620 -0.001869 0.003574 0.000000 0.031894 0.000000
# 6 0.000000 0.000000 0.000000 0.025988 0.000000 0.063667
#
#
# Mechanical properties :
#
#
# Convention : Reuss Voigt Hill
#
# Bulk Modulus (GPa) = 55.71593 62.45328 59.08461
# Shear Modulus (GPa) = 27.41869 38.50825 32.96347
#
# Velocity S-wave (km/s) = 3.45740 4.09735 3.79090
# Velocity P-wave (km/s) = 6.34258 7.04356 6.70224
#
# Compressibility (1/GPa) = 0.01794819
#
# Stress axis : x y z
#
# Youngs Moduli (GPa) = 143.91399 73.88043 145.48500
#
# Poissons Ratio (x) = 0.16097 0.08907
# Poissons Ratio (y) = 0.31355 0.27841
# Poissons Ratio (z) = 0.08811 0.14138
#
# Static dielectric constant tensor:
#      x y z
#    x 1.961420 0.000000 -0.025760 
#    y 0.000000 1.890050 0.000000 
#    z -0.025760 0.000000 1.916620 
# 
# From -- ./inp_files/65953.got.cif
#   From: 2010.05.17/outbox.cif.g08.bks.cpg/sg5_33_cif.got.tgz:65953.got - 2010.06.03 18:56:24.
