data_PCOD9127232
_publ_section_title
;
Structure prediction by ZEFSAII (Michael W. Deem and Ramdas Pophale) SiO2 
 PCOD9127232
Probable space group: C 2
;
_chemical_formula_sum "Si O2"
_cell_formula_units_Z 30
_cell_length_a 10.657815
_cell_length_b 9.175877
_cell_length_c 17.462373
_cell_angle_alpha 90.000000
_cell_angle_beta 58.998771
_cell_angle_gamma 90.000000
_cell_volume 1463.790819
_symmetry_space_group_name_H-M "C 2"
_symmetry_group_IT_number 5
_symmetry_cell_setting 'monoclinic'
loop_
_space_group_symop_operation_xyz
x,y,z
-x,y,-z
1/2+x,1/2+y,z
1/2-x,1/2+y,-z
loop_
_atom_site_type_symbol
_atom_site_label
_atom_site_fract_x
_atom_site_fract_y
_atom_site_fract_z
Si Si1 0.670943 0.646370 0.550696
Si Si2 0.000000 0.978233 0.500000
Si Si3 0.368047 0.965325 0.732534
Si Si4 0.152667 0.272155 0.109154
Si Si5 0.314472 0.895966 0.346774
Si Si6 0.189635 0.264558 0.811121
Si Si7 0.169910 0.374955 0.427941
Si Si8 0.825576 0.469251 0.042573
O O1 0.522855 0.573952 0.567668
O O2 0.630911 0.745219 0.634414
O O3 0.774822 0.521310 0.548908
O O4 0.731396 0.737987 0.458163
O O5 0.842597 0.907796 0.562059
O O6 0.341139 0.853335 0.810817
O O7 0.544943 0.995948 0.679135
O O8 0.317607 0.895015 0.667135
O O9 0.282177 0.117053 0.771860
O O10 0.984213 0.233093 0.140806
O O11 0.245552 0.124011 0.076214
O O12 0.200182 0.391980 0.031024
O O13 0.283820 0.875645 0.267577
O O14 0.222265 0.351456 0.878420
O O15 0.000000 0.365723 0.500000
O O16 0.000000 0.491146 0.000000
#
# Coordination Sequence:
#
# PCOD9127232 Si02
#       8
#     4   2   4   4   4   4   4   4
#     4  12  23  40  60  87 119 169 222 274 326 382
#     4  12  24  40  64  88 126 174 230 282 334 382
#     4  11  22  44  67  95 138 172 225 281 325 389
#     4  10  23  42  70 102 136 172 214 267 330 398
#     4  11  24  40  62  93 128 172 226 277 329 385
#     4  10  23  42  65  97 134 171 219 271 325 396
#     4  12  24  42  63  88 128 174 225 274 326 380
#     4  10  22  44  71 102 137 170 212 264 328 403
#
# _framework density 20.494730000000001
#
# number of rings (size 3 to 8) (size 9 to 14) (size 15 to 20)
#    0.000    1.067    4.667    0.800    0.933    5.333 
#    0.000    1.333    0.000    0.000    0.000    0.000 
#    0.000    0.000    0.000    0.000    0.000    0.000 
#
# Total GULP energy -83644.708234 kJ/mol
# GULP energy per Si atom -5576.313882 kJ/mol
# Density = 2.044808 g / cm^3
# Si number density = 20.494730 Si / 1000 Ang^3
#
#
#
# Elastic Constant Matrix: (Units=GPa)
#
#
# Indices 1 2 3 4 5 6 
#
# 1 87.7682 61.7364 57.3682 0.0000 13.3559 0.0000
# 2 61.7364 93.4453 45.0712 0.0000 10.0237 0.0000
# 3 57.3682 45.0712 125.2523 0.0000 34.9948 0.0000
# 4 0.0000 0.0000 0.0000 37.2920 0.0000 -2.0474
# 5 13.3559 10.0237 34.9948 0.0000 41.0135 0.0000
# 6 0.0000 0.0000 0.0000 -2.0474 0.0000 35.1807
#
#
#
# Elastic Compliance Matrix: (Units=1/GPa)
#
#
# Indices 1 2 3 4 5 6 
#
# 1 0.025270 -0.013411 -0.007044 0.000000 0.001059 0.000000
# 2 -0.013411 0.020102 -0.001232 0.000000 0.000506 0.000000
# 3 -0.007044 -0.001232 0.014350 0.000000 -0.009649 0.000000
# 4 0.000000 0.000000 0.000000 0.026901 0.000000 0.001566
# 5 0.001059 0.000506 -0.009649 0.000000 0.032146 0.000000
# 6 0.000000 0.000000 0.000000 0.001566 0.000000 0.028516
#
#
# Mechanical properties :
#
#
# Convention : Reuss Voigt Hill
#
# Bulk Modulus (GPa) = 61.17628 70.53526 65.85577
# Shear Modulus (GPa) = 25.49590 32.18325 28.83957
#
# Velocity S-wave (km/s) = 3.53090 3.96702 3.75530
# Velocity P-wave (km/s) = 6.82184 7.44809 7.14183
#
# Compressibility (1/GPa) = 0.01634621
#
# Stress axis : x y z
#
# Youngs Moduli (GPa) = 39.57190 49.74635 69.68877
#
# Poissons Ratio (x) = 0.66717 0.49091
# Poissons Ratio (y) = 0.53071 0.08587
# Poissons Ratio (z) = 0.27876 0.06130
#
# Static dielectric constant tensor:
#      x y z
#    x 1.810510 0.000000 -0.017290 
#    y 0.000000 1.770290 0.000000 
#    z -0.017290 0.000000 1.775240 
# 
# From -- ./inp_files/60303.got.cif
#   From: 2010.05.17/outbox.cif.g08.bks.cpg/sg5_31_cif.got.tgz:60303.got - 2010.06.03 18:56:24.
