data_PCOD9127549
_publ_section_title
;
Structure prediction by ZEFSAII (Michael W. Deem and Ramdas Pophale) SiO2 
 PCOD9127549
Probable space group: C 2
;
_chemical_formula_sum "Si O2"
_cell_formula_units_Z 20
_cell_length_a 12.198574
_cell_length_b 8.633353
_cell_length_c 16.536435
_cell_angle_alpha 90.000000
_cell_angle_beta 26.772137
_cell_angle_gamma 90.000000
_cell_volume 784.459815
_symmetry_space_group_name_H-M "C 2"
_symmetry_group_IT_number 5
_symmetry_cell_setting 'monoclinic'
loop_
_space_group_symop_operation_xyz
x,y,z
-x,y,-z
1/2+x,1/2+y,z
1/2-x,1/2+y,-z
loop_
_atom_site_type_symbol
_atom_site_label
_atom_site_fract_x
_atom_site_fract_y
_atom_site_fract_z
Si Si1 0.962932 0.522730 0.885503
Si Si2 0.000000 0.105307 0.500000
Si Si3 0.117106 0.692059 0.511091
Si Si4 0.734159 0.720242 0.897663
Si Si5 0.528272 0.850455 0.621702
Si Si6 0.500000 0.272629 0.000000
O O1 0.837831 0.586541 0.886960
O O2 0.256221 0.513821 0.683143
O O3 0.926941 0.658170 0.975452
O O4 0.841986 0.368168 0.999155
O O5 0.926849 0.217096 0.474204
O O6 0.363750 0.785551 0.365641
O O7 0.000000 0.698566 0.500000
O O8 0.937732 0.760973 0.697375
O O9 0.143527 0.511008 0.516812
O O10 0.500000 0.675388 0.000000
O O11 0.237463 0.865412 0.816719
#
# Coordination Sequence:
#
# PCOD9127549 Si02
#       6
#     4   2   4   4   4   2
#     4  11  26  52  82 117 171 211 274 339 413 490
#     4  10  22  52  86 118 166 212 270 342 420 478
#     4  12  30  52  85 119 165 217 284 336 408 489
#     4  12  30  51  81 123 162 216 277 336 407 489
#     4  11  26  51  82 119 162 218 267 343 409 482
#     4  10  26  46  84 116 172 212 262 342 416 482
#
# _framework density 25.495253000000002
#
# number of rings (size 3 to 8) (size 9 to 14) (size 15 to 20)
#    0.000    0.800    4.000    0.000    9.800    1.600 
#    3.600    0.000    0.000    0.000    0.000    0.000 
#    0.000    0.000    0.000    0.000    0.000    0.000 
#
# Total GULP energy -56147.052888 kJ/mol
# GULP energy per Si atom -5614.705289 kJ/mol
# Density = 2.543722 g / cm^3
# Si number density = 25.495253 Si / 1000 Ang^3
#
#
#
# Elastic Constant Matrix: (Units=GPa)
#
#
# Indices 1 2 3 4 5 6 
#
# 1 201.2320 75.6267 26.0154 -0.0025 -7.5441 0.0002
# 2 75.6267 165.1591 45.9366 0.0011 -11.1057 0.0004
# 3 26.0154 45.9366 114.4871 -0.0017 -4.9921 0.0013
# 4 -0.0025 0.0011 -0.0017 36.3830 0.0020 10.5314
# 5 -7.5441 -11.1057 -4.9921 0.0020 42.1571 -0.0005
# 6 0.0002 0.0004 0.0013 10.5314 -0.0005 49.7278
#
#
#
# Elastic Compliance Matrix: (Units=1/GPa)
#
#
# Indices 1 2 3 4 5 6 
#
# 1 0.006016 -0.002651 -0.000288 0.000000 0.000344 0.000000
# 2 -0.002651 0.008077 -0.002580 -0.000001 0.001348 0.000000
# 3 -0.000288 -0.002580 0.009854 0.000001 0.000436 0.000000
# 4 0.000000 -0.000001 0.000001 0.029280 -0.000002 -0.006201
# 5 0.000344 0.001348 0.000436 -0.000002 0.024189 0.000001
# 6 0.000000 0.000000 0.000000 -0.006201 0.000001 0.021423
#
#
# Mechanical properties :
#
#
# Convention : Reuss Voigt Hill
#
# Bulk Modulus (GPa) = 77.46677 86.22617 81.84647
# Shear Modulus (GPa) = 43.79037 47.87354 45.83196
#
# Velocity S-wave (km/s) = 4.14888 4.33799 4.24449
# Velocity P-wave (km/s) = 7.30764 7.68016 7.49622
#
# Compressibility (1/GPa) = 0.01290876
#
# Stress axis : x y z
#
# Youngs Moduli (GPa) = 166.22326 123.80899 101.48069
#
# Poissons Ratio (x) = 0.32827 0.02924
# Poissons Ratio (y) = 0.44073 0.26177
# Poissons Ratio (z) = 0.04790 0.31937
#
# Static dielectric constant tensor:
#      x y z
#    x 2.010290 0.000000 -0.009670 
#    y 0.000000 1.991300 0.000000 
#    z -0.009670 0.000000 2.032110 
# 
# From -- ./inp_files/60286.got.cif
#   From: 2010.05.17/outbox.cif.g08.bks.cpg/sg5_31_cif.got.tgz:60286.got - 2010.06.03 18:56:24.
