data_PCOD9127126
_publ_section_title
;
Structure prediction by ZEFSAII (Michael W. Deem and Ramdas Pophale) SiO2 
 PCOD9127126
Probable space group: C 2
;
_chemical_formula_sum "Si O2"
_cell_formula_units_Z 22
_cell_length_a 7.561761
_cell_length_b 14.338093
_cell_length_c 11.691926
_cell_angle_alpha 90.000000
_cell_angle_beta 53.664813
_cell_angle_gamma 90.000000
_cell_volume 1021.176350
_symmetry_space_group_name_H-M "C 2"
_symmetry_group_IT_number 5
_symmetry_cell_setting 'monoclinic'
loop_
_space_group_symop_operation_xyz
x,y,z
-x,y,-z
1/2+x,1/2+y,z
1/2-x,1/2+y,-z
loop_
_atom_site_type_symbol
_atom_site_label
_atom_site_fract_x
_atom_site_fract_y
_atom_site_fract_z
Si Si1 0.097366 0.500000 0.129876
Si Si2 0.571211 0.470425 0.342317
Si Si3 0.804110 0.564894 0.658034
Si Si4 0.796256 0.298301 0.943282
Si Si5 0.500000 0.157694 0.000000
Si Si6 0.305005 0.268677 0.757934
O O1 0.176877 0.515778 0.227244
O O2 0.229065 0.409348 0.038059
O O3 0.831853 0.488788 0.229815
O O4 0.125377 0.587809 0.036679
O O5 0.500000 0.488920 0.500000
O O6 0.422115 0.534790 0.317015
O O7 0.547998 0.358991 0.326871
O O8 0.850964 0.673071 0.673869
O O9 0.000000 0.533480 0.500000
O O10 0.680756 0.234338 0.892432
O O11 0.053028 0.289469 0.823772
O O12 0.714057 0.260278 0.097240
#
# Coordination Sequence:
#
# PCOD9127126 Si02
#       6
#     4   4   4   4   2   4
#     4  11  24  43  66  99 135 169 226 271 334 401
#     4  11  23  43  66  91 136 179 215 279 330 387
#     4  12  24  42  70  99 128 178 226 269 332 400
#     4  10  23  41  66  97 130 175 218 273 340 392
#     4  12  22  44  68  98 136 172 216 290 332 388
#     4  10  22  44  63  96 134 169 223 276 330 395
#
# _framework density 21.543780999999999
#
# number of rings (size 3 to 8) (size 9 to 14) (size 15 to 20)
#    0.000    1.091    3.636    3.818    2.545    0.000 
#    0.000    0.000    0.000    0.000    0.000    0.000 
#    0.000    0.000    0.000    0.000    0.000    0.000 
#
# Total GULP energy -61329.191422 kJ/mol
# GULP energy per Si atom -5575.381038 kJ/mol
# Density = 2.149475 g / cm^3
# Si number density = 21.543781 Si / 1000 Ang^3
#
#
#
# Elastic Constant Matrix: (Units=GPa)
#
#
# Indices 1 2 3 4 5 6 
#
# 1 81.4876 38.2763 21.7051 0.0000 10.0844 0.0000
# 2 38.2763 146.8582 25.0063 0.0000 13.7315 0.0000
# 3 21.7051 25.0063 56.8649 0.0000 11.5071 0.0000
# 4 0.0000 0.0000 0.0000 22.3683 0.0000 -7.3507
# 5 10.0844 13.7315 11.5071 0.0000 16.2691 0.0000
# 6 0.0000 0.0000 0.0000 -7.3507 0.0000 49.2167
#
#
#
# Elastic Compliance Matrix: (Units=1/GPa)
#
#
# Indices 1 2 3 4 5 6 
#
# 1 0.015148 -0.002925 -0.003612 0.000000 -0.004366 0.000000
# 2 -0.002925 0.008229 -0.001708 0.000000 -0.003925 0.000000
# 3 -0.003612 -0.001708 0.022139 0.000000 -0.011978 0.000000
# 4 0.000000 0.000000 0.000000 0.047014 0.000000 0.007022
# 5 -0.004366 -0.003925 -0.011978 0.000000 0.075957 0.000000
# 6 0.000000 0.000000 0.000000 0.007022 0.000000 0.021367
#
#
# Mechanical properties :
#
#
# Convention : Reuss Voigt Hill
#
# Bulk Modulus (GPa) = 34.45166 50.57623 42.51394
# Shear Modulus (GPa) = 23.14590 30.91902 27.03246
#
# Velocity S-wave (km/s) = 3.28131 3.79248 3.54611
# Velocity P-wave (km/s) = 5.51200 6.53484 6.04509
#
# Compressibility (1/GPa) = 0.02902618
#
# Stress axis : x y z
#
# Youngs Moduli (GPa) = 66.01473 121.51494 45.16817
#
# Poissons Ratio (x) = 0.35541 0.16316
# Poissons Ratio (y) = 0.19308 0.07716
# Poissons Ratio (z) = 0.23847 0.20759
#
# Static dielectric constant tensor:
#      x y z
#    x 1.808860 0.000000 0.079100 
#    y 0.000000 1.884390 0.000000 
#    z 0.079100 0.000000 1.712840 
# 
# From -- ./inp_files/35770.got.cif
#   From: 2010.05.17/outbox.cif.g08.bks.cpg/sg5_18_cif.got.tgz:35770.got - 2010.06.03 18:56:24.
