data_PCOD9127642
_publ_section_title
;
Structure prediction by ZEFSAII (Michael W. Deem and Ramdas Pophale) SiO2 
 PCOD9127642
Probable space group: C 2
;
_chemical_formula_sum "Si O2"
_cell_formula_units_Z 28
_cell_length_a 7.313023
_cell_length_b 7.537740
_cell_length_c 20.809875
_cell_angle_alpha 90.000000
_cell_angle_beta 87.424118
_cell_angle_gamma 90.000000
_cell_volume 1145.957525
_symmetry_space_group_name_H-M "C 2"
_symmetry_group_IT_number 5
_symmetry_cell_setting 'monoclinic'
loop_
_space_group_symop_operation_xyz
x,y,z
-x,y,-z
1/2+x,1/2+y,z
1/2-x,1/2+y,-z
loop_
_atom_site_type_symbol
_atom_site_label
_atom_site_fract_x
_atom_site_fract_y
_atom_site_fract_z
Si Si1 0.592543 0.156490 0.708269
Si Si2 0.211060 0.184436 0.517201
Si Si3 0.836795 0.468990 0.043908
Si Si4 0.308590 0.382256 0.398106
Si Si5 0.305257 0.364926 0.641454
Si Si6 0.159761 0.067325 0.920126
Si Si7 0.539806 0.213012 0.858311
O O1 0.734377 0.286883 0.667774
O O2 0.397799 0.197212 0.676691
O O3 0.577347 0.199751 0.782605
O O4 0.669502 0.964510 0.690638
O O5 0.325794 0.230171 0.452124
O O6 0.217317 0.328859 0.574045
O O7 0.000000 0.153920 0.500000
O O8 0.294487 0.021218 0.556327
O O9 0.897642 0.272181 0.064875
O O10 0.811061 0.599569 0.103879
O O11 0.689462 0.476391 0.989721
O O12 0.000000 0.554603 0.000000
O O13 0.505441 0.468515 0.377654
O O14 0.349350 0.112355 0.878539
O O15 0.050582 0.916954 0.882106
#
# Coordination Sequence:
#
# PCOD9127642 Si02
#       7
#     4   4   4   4   4   4   4
#     4  10  25  49  68 101 147 198 248 304 379 452
#     4  12  23  39  73 107 139 190 249 313 375 438
#     4  10  23  40  70 110 148 195 253 318 380 440
#     4  10  24  42  65 101 144 184 253 301 381 434
#     4  10  25  48  68  99 145 188 246 302 370 446
#     4  11  24  44  74 110 147 200 251 319 377 447
#     4  11  26  46  72 108 151 200 257 307 384 458
#
# _framework density 24.433714999999999
#
# number of rings (size 3 to 8) (size 9 to 14) (size 15 to 20)
#    0.857    0.571    1.429    3.000    6.000    1.143 
#    2.571    0.000    0.000    0.000    0.000    0.000 
#    0.000    0.000    0.000    0.000    0.000    0.000 
#
# Total GULP energy -78024.302531 kJ/mol
# GULP energy per Si atom -5573.164467 kJ/mol
# Density = 2.437810 g / cm^3
# Si number density = 24.433715 Si / 1000 Ang^3
#
#
#
# Elastic Constant Matrix: (Units=GPa)
#
#
# Indices 1 2 3 4 5 6 
#
# 1 82.0555 26.4536 30.9504 0.0000 -7.0790 0.0000
# 2 26.4536 119.8541 43.5107 0.0000 -6.0955 0.0000
# 3 30.9504 43.5107 219.0461 0.0000 -1.4503 0.0000
# 4 0.0000 0.0000 0.0000 38.5969 0.0000 -8.4628
# 5 -7.0790 -6.0955 -1.4503 0.0000 18.6636 0.0000
# 6 0.0000 0.0000 0.0000 -8.4628 0.0000 34.1994
#
#
#
# Elastic Compliance Matrix: (Units=1/GPa)
#
#
# Indices 1 2 3 4 5 6 
#
# 1 0.013863 -0.002302 -0.001473 0.000000 0.004392 0.000000
# 2 -0.002302 0.009523 -0.001552 0.000000 0.002116 0.000000
# 3 -0.001473 -0.001552 0.005077 0.000000 -0.000671 0.000000
# 4 0.000000 0.000000 0.000000 0.027395 0.000000 0.006779
# 5 0.004392 0.002116 -0.000671 0.000000 0.055885 0.000000
# 6 0.000000 0.000000 0.000000 0.006779 0.000000 0.030918
#
#
# Mechanical properties :
#
#
# Convention : Reuss Voigt Hill
#
# Bulk Modulus (GPa) = 56.14892 69.19836 62.67364
# Shear Modulus (GPa) = 31.39691 39.62804 35.51248
#
# Velocity S-wave (km/s) = 3.58855 4.03160 3.81651
# Velocity P-wave (km/s) = 6.34037 7.07489 6.71768
#
# Compressibility (1/GPa) = 0.01780978
#
# Stress axis : x y z
#
# Youngs Moduli (GPa) = 72.13291 105.01212 196.95849
#
# Poissons Ratio (x) = 0.24173 0.29002
# Poissons Ratio (y) = 0.16604 0.30574
# Poissons Ratio (z) = 0.10622 0.16301
#
# Static dielectric constant tensor:
#      x y z
#    x 2.082630 0.000000 0.005670 
#    y 0.000000 2.126530 0.000000 
#    z 0.005670 0.000000 1.906140 
# 
# From -- ./inp_files/59313.got.cif
#   From: 2010.05.17/outbox.cif.g08.bks.cpg/sg5_30_cif.got.tgz:59313.got - 2010.06.03 18:56:24.
