data_PCOD9127866
_publ_section_title
;
Structure prediction by ZEFSAII (Michael W. Deem and Ramdas Pophale) SiO2 
 PCOD9127866
Probable space group: C 2
;
_chemical_formula_sum "Si O2"
_cell_formula_units_Z 20
_cell_length_a 25.290933
_cell_length_b 5.435971
_cell_length_c 7.582419
_cell_angle_alpha 90.000000
_cell_angle_beta 126.842204
_cell_angle_gamma 90.000000
_cell_volume 834.251709
_symmetry_space_group_name_H-M "C 2"
_symmetry_group_IT_number 5
_symmetry_cell_setting 'monoclinic'
loop_
_space_group_symop_operation_xyz
x,y,z
-x,y,-z
1/2+x,1/2+y,z
1/2-x,1/2+y,-z
loop_
_atom_site_type_symbol
_atom_site_label
_atom_site_fract_x
_atom_site_fract_y
_atom_site_fract_z
Si Si1 0.210740 0.372490 0.965318
Si Si2 0.521504 0.173386 0.841896
Si Si3 0.789260 0.474151 0.622359
Si Si4 0.102263 0.423317 0.454525
Si Si5 0.978497 0.173242 0.255882
O O1 0.147369 0.356605 0.709992
O O2 0.251205 0.612309 0.977755
O O3 0.199831 0.423330 0.149661
O O4 0.556305 0.423315 0.862611
O O5 0.450405 0.138599 0.600320
O O6 0.557495 0.923314 0.864989
O O7 0.500000 0.175983 0.000000
O O8 0.748797 0.234324 0.472948
O O9 0.852632 0.490033 0.620519
O O10 0.049596 0.208032 0.298704
O O11 0.000000 0.170644 0.500000
#
# Coordination Sequence:
#
# PCOD9127866 Si02
#       5
#     4   4   4   4   4
#     4  12  24  43  69  98 137 176 218 274 324 397
#     4  10  23  43  68  93 132 168 223 277 327 389
#     4  12  24  43  69  98 137 176 218 274 324 397
#     4  10  26  42  72  96 138 172 232 254 352 384
#     4  10  23  43  68  93 132 168 223 277 327 389
#
# _framework density 23.973580999999999
#
# number of rings (size 3 to 8) (size 9 to 14) (size 15 to 20)
#    1.200    0.000    4.000    1.200    5.600    1.600 
#    0.000    0.000    0.000    0.000    0.000    0.000 
#    0.000    0.000    0.000    0.000    0.000    0.000 
#
# Total GULP energy -55856.088288 kJ/mol
# GULP energy per Si atom -5585.608829 kJ/mol
# Density = 2.391902 g / cm^3
# Si number density = 23.973581 Si / 1000 Ang^3
#
#
#
# Elastic Constant Matrix: (Units=GPa)
#
#
# Indices 1 2 3 4 5 6 
#
# 1 88.5954 11.6507 7.9706 0.0000 2.0139 0.0000
# 2 11.6507 194.9759 11.7702 0.0000 -0.2499 0.0000
# 3 7.9706 11.7702 89.0039 0.0000 -2.8782 0.0000
# 4 0.0000 0.0000 0.0000 22.4396 0.0000 -20.9850
# 5 2.0139 -0.2499 -2.8782 0.0000 50.3358 0.0000
# 6 0.0000 0.0000 0.0000 -20.9850 0.0000 12.6508
#
#
#
# Elastic Compliance Matrix: (Units=1/GPa)
#
#
# Indices 1 2 3 4 5 6 
#
# 1 0.011468 -0.000628 -0.000961 0.000000 -0.000517 0.000000
# 2 -0.000628 0.005205 -0.000632 0.000000 0.000015 0.000000
# 3 -0.000961 -0.000632 0.011427 0.000000 0.000689 0.000000
# 4 0.000000 0.000000 0.000000 -0.080840 0.000000 -0.134097
# 5 -0.000517 0.000015 0.000689 0.000000 0.019927 0.000000
# 6 0.000000 0.000000 0.000000 -0.134097 0.000000 -0.143392
#
#
# Mechanical properties :
#
#
# Convention : Reuss Voigt Hill
#
# Bulk Modulus (GPa) = 42.26634 48.37314 45.31974
# Shear Modulus (GPa) = -30.51026 39.83083 4.66028
#
# Velocity S-wave (km/s) = -3.57131 4.08051 1.39576
# Velocity P-wave (km/s) = 0.81425 6.51323 4.64140
#
# Compressibility (1/GPa) = 0.02365949
#
# Stress axis : x y z
#
# Youngs Moduli (GPa) = 87.19895 192.14120 87.50988
#
# Poissons Ratio (x) = 0.12065 0.08407
# Poissons Ratio (y) = 0.05476 0.05527
# Poissons Ratio (z) = 0.08377 0.12135
#
# Static dielectric constant tensor:
#      x y z
#    x 1.899090 0.000000 0.003410 
#    y 0.000000 2.053470 0.000000 
#    z 0.003410 0.000000 1.897500 
# 
# From -- ./inp_files/32082.got.cif
#   From: 2010.05.17/outbox.cif.g08.bks.cpg/sg5_17_cif.got.tgz:32082.got - 2010.06.03 18:56:24.
