data_PCOD9127262
_publ_section_title
;
Structure prediction by ZEFSAII (Michael W. Deem and Ramdas Pophale) SiO2 
 PCOD9127262
Probable space group: C 2
;
_chemical_formula_sum "Si O2"
_cell_formula_units_Z 28
_cell_length_a 19.787993
_cell_length_b 7.144740
_cell_length_c 23.312281
_cell_angle_alpha 90.000000
_cell_angle_beta 157.200214
_cell_angle_gamma 90.000000
_cell_volume 1277.198098
_symmetry_space_group_name_H-M "C 2"
_symmetry_group_IT_number 5
_symmetry_cell_setting 'monoclinic'
loop_
_space_group_symop_operation_xyz
x,y,z
-x,y,-z
1/2+x,1/2+y,z
1/2-x,1/2+y,-z
loop_
_atom_site_type_symbol
_atom_site_label
_atom_site_fract_x
_atom_site_fract_y
_atom_site_fract_z
Si Si1 0.479983 0.589580 0.141617
Si Si2 0.517890 0.883359 0.081002
Si Si3 0.430203 0.931393 0.655506
Si Si4 0.604855 0.253655 0.860162
Si Si5 0.833091 0.077199 0.183621
Si Si6 0.406219 0.482213 0.372722
Si Si7 0.332902 0.207612 0.481958
O O1 0.481017 0.682843 0.080455
O O2 0.462557 0.370386 0.138677
O O3 0.658463 0.650339 0.311560
O O4 0.299947 0.680263 0.024337
O O5 0.715189 0.937931 0.247325
O O6 0.500000 0.860132 0.000000
O O7 0.374387 0.039178 0.985533
O O8 0.570188 0.765399 0.759627
O O9 0.245308 0.852186 0.532170
O O10 0.409889 0.037410 0.579193
O O11 0.493677 0.077579 0.753141
O O12 0.599945 0.402576 0.803165
O O13 0.876174 0.066933 0.285608
O O14 0.500000 0.582974 0.500000
O O15 0.526184 0.303082 0.449354
#
# Coordination Sequence:
#
# PCOD9127262 Si02
#       7
#     4   4   4   4   4   4   4
#     4  11  22  40  66 107 138 185 237 292 359 420
#     4   9  21  42  73  97 146 195 243 286 345 422
#     4  12  24  45  70 107 145 181 237 297 375 430
#     4  11  23  43  69 106 142 178 239 301 360 423
#     4  10  22  44  72  99 135 190 236 293 355 415
#     4  11  21  42  70  99 142 190 235 296 347 422
#     4  12  23  39  69 105 143 184 227 297 365 424
#
# _framework density 21.922989000000001
#
# number of rings (size 3 to 8) (size 9 to 14) (size 15 to 20)
#    0.000    1.143    4.286    2.571    0.000    0.000 
#    0.000    2.143   22.000    0.000    0.000    0.000 
#    0.000    0.000    0.000    0.000    0.000    0.000 
#
# Total GULP energy -78165.139632 kJ/mol
# GULP energy per Si atom -5583.224259 kJ/mol
# Density = 2.187309 g / cm^3
# Si number density = 21.922989 Si / 1000 Ang^3
#
#
#
# Elastic Constant Matrix: (Units=GPa)
#
#
# Indices 1 2 3 4 5 6 
#
# 1 64.8938 42.5746 32.3467 0.0007 10.5847 -0.0002
# 2 42.5746 121.6057 56.2995 0.0010 4.7701 -0.0003
# 3 32.3467 56.2995 148.5622 0.0035 10.8741 -0.0009
# 4 0.0007 0.0010 0.0035 37.6411 0.0002 -8.2555
# 5 10.5847 4.7701 10.8741 0.0002 39.1412 -0.0002
# 6 -0.0002 -0.0003 -0.0009 -8.2555 -0.0002 31.1857
#
#
#
# Elastic Compliance Matrix: (Units=1/GPa)
#
#
# Indices 1 2 3 4 5 6 
#
# 1 0.021273 -0.006403 -0.001880 0.000000 -0.004450 0.000000
# 2 -0.006403 0.011901 -0.003202 0.000000 0.001171 0.000000
# 3 -0.001880 -0.003202 0.008460 -0.000001 -0.001452 0.000000
# 4 0.000000 0.000000 -0.000001 0.028204 0.000000 0.007466
# 5 -0.004450 0.001171 -0.001452 0.000000 0.027013 0.000000
# 6 0.000000 0.000000 0.000000 0.007466 0.000000 0.034042
#
#
# Mechanical properties :
#
#
# Convention : Reuss Voigt Hill
#
# Bulk Modulus (GPa) = 53.57338 66.38925 59.98131
# Shear Modulus (GPa) = 31.23337 35.18300 33.20819
#
# Velocity S-wave (km/s) = 3.77860 4.01040 3.89622
# Velocity P-wave (km/s) = 6.59751 7.19674 6.90363
#
# Compressibility (1/GPa) = 0.01866599
#
# Stress axis : x y z
#
# Youngs Moduli (GPa) = 47.00690 84.02348 118.20279
#
# Poissons Ratio (x) = 0.53802 0.22218
# Poissons Ratio (y) = 0.30099 0.37845
# Poissons Ratio (z) = 0.08835 0.26902
#
# Static dielectric constant tensor:
#      x y z
#    x 1.835960 0.000000 -0.022800 
#    y 0.000000 1.789380 0.000000 
#    z -0.022800 0.000000 1.839830 
# 
# From -- ./inp_files/67331.got.cif
#   From: 2010.05.17/outbox.cif.g08.bks.cpg/sg5_34_cif.got.tgz:67331.got - 2010.06.03 18:56:24.
