data_PCOD9127639
_publ_section_title
;
Structure prediction by ZEFSAII (Michael W. Deem and Ramdas Pophale) SiO2 
 PCOD9127639
Probable space group: C 2
;
_chemical_formula_sum "Si O2"
_cell_formula_units_Z 30
_cell_length_a 9.540271
_cell_length_b 27.047546
_cell_length_c 5.832509
_cell_angle_alpha 90.000000
_cell_angle_beta 70.600215
_cell_angle_gamma 90.000000
_cell_volume 1419.576482
_symmetry_space_group_name_H-M "C 2"
_symmetry_group_IT_number 5
_symmetry_cell_setting 'monoclinic'
loop_
_space_group_symop_operation_xyz
x,y,z
-x,y,-z
1/2+x,1/2+y,z
1/2-x,1/2+y,-z
loop_
_atom_site_type_symbol
_atom_site_label
_atom_site_fract_x
_atom_site_fract_y
_atom_site_fract_z
Si Si1 0.842152 0.168500 0.451869
Si Si2 0.637007 0.476160 0.553597
Si Si3 0.500000 0.735030 0.000000
Si Si4 0.090168 0.743905 0.703613
Si Si5 0.850515 0.308230 0.734474
Si Si6 0.855304 0.419036 0.739840
Si Si7 0.658703 0.016408 0.953323
Si Si8 0.639121 0.573219 0.804357
O O1 0.702879 0.196733 0.639290
O O2 0.797577 0.113105 0.404637
O O3 0.000000 0.165497 0.500000
O O4 0.890121 0.201970 0.210720
O O5 0.500000 0.452472 0.500000
O O6 0.716197 0.436181 0.664811
O O7 0.755157 0.501867 0.322064
O O8 0.575572 0.523545 0.723149
O O9 0.392700 0.769332 0.906562
O O10 0.207022 0.789786 0.670071
O O11 0.000000 0.745398 0.500000
O O12 0.000000 0.743084 0.000000
O O13 0.832369 0.363679 0.840771
O O14 0.000000 0.308709 0.500000
O O15 0.000000 0.419649 0.500000
O O16 0.868458 0.463331 0.911605
O O17 0.500000 0.039903 0.000000
O O18 0.747869 0.052369 0.071614
O O19 0.500000 0.599065 0.000000
#
# Coordination Sequence:
#
# PCOD9127639 Si02
#       8
#     4   4   2   4   4   4   4   4
#     4  12  25  46  75 101 133 192 245 300 358 447
#     4  11  22  42  66  95 138 177 227 288 351 429
#     4  12  20  42  78  98 140 176 264 302 354 432
#     4  12  27  50  72 108 159 190 235 310 388 439
#     4  11  24  44  72 104 135 192 249 300 356 451
#     4  10  23  40  68 102 132 179 241 287 358 422
#     4  11  23  44  66  94 139 183 223 290 360 432
#     4  11  24  41  69 102 130 174 242 293 353 423
#
# _framework density 21.133065999999999
#
# number of rings (size 3 to 8) (size 9 to 14) (size 15 to 20)
#    0.000    0.800    6.000    1.200    0.933    0.533 
#    4.800    0.000    0.000    0.000    0.000    0.000 
#    0.000    0.000    0.000    0.000    0.000    0.000 
#
# Total GULP energy -83708.689321 kJ/mol
# GULP energy per Si atom -5580.579288 kJ/mol
# Density = 2.108497 g / cm^3
# Si number density = 21.133066 Si / 1000 Ang^3
#
#
#
# Elastic Constant Matrix: (Units=GPa)
#
#
# Indices 1 2 3 4 5 6 
#
# 1 131.9943 27.5128 26.7325 0.0000 13.5639 0.0000
# 2 27.5128 110.7714 17.8434 0.0000 3.7457 0.0000
# 3 26.7325 17.8434 80.4296 0.0000 -6.7767 0.0000
# 4 0.0000 0.0000 0.0000 37.4224 0.0000 2.8835
# 5 13.5639 3.7457 -6.7767 0.0000 36.7020 0.0000
# 6 0.0000 0.0000 0.0000 2.8835 0.0000 16.5883
#
#
#
# Elastic Compliance Matrix: (Units=1/GPa)
#
#
# Indices 1 2 3 4 5 6 
#
# 1 0.008875 -0.001614 -0.002899 0.000000 -0.003650 0.000000
# 2 -0.001614 0.009723 -0.001680 0.000000 -0.000706 0.000000
# 3 -0.002899 -0.001680 0.014094 0.000000 0.003845 0.000000
# 4 0.000000 0.000000 0.000000 0.027085 0.000000 -0.004708
# 5 -0.003650 -0.000706 0.003845 0.000000 0.029378 0.000000
# 6 0.000000 0.000000 0.000000 -0.004708 0.000000 0.061102
#
#
# Mechanical properties :
#
#
# Convention : Reuss Voigt Hill
#
# Bulk Modulus (GPa) = 49.24929 51.93028 50.58979
# Shear Modulus (GPa) = 29.51415 34.88298 32.19856
#
# Velocity S-wave (km/s) = 3.74115 4.06721 3.90758
# Velocity P-wave (km/s) = 6.48202 6.83247 6.65955
#
# Compressibility (1/GPa) = 0.02030486
#
# Stress axis : x y z
#
# Youngs Moduli (GPa) = 112.67890 102.84943 70.95420
#
# Poissons Ratio (x) = 0.16598 0.20572
# Poissons Ratio (y) = 0.18184 0.11921
# Poissons Ratio (z) = 0.32669 0.17280
#
# Static dielectric constant tensor:
#      x y z
#    x 1.768980 0.000000 0.046150 
#    y 0.000000 1.730430 0.000000 
#    z 0.046150 0.000000 1.854450 
# 
# From -- ./inp_files/3939.got.cif
#   From: 2010.05.17/outbox.cif.g08.bks.cpg/sg5_2_cif.got.tgz:3939.got - 2010.06.03 18:56:24.
