data_PCOD9127730
_publ_section_title
;
Structure prediction by ZEFSAII (Michael W. Deem and Ramdas Pophale) SiO2 
 PCOD9127730
Probable space group: C 2
;
_chemical_formula_sum "Si O2"
_cell_formula_units_Z 26
_cell_length_a 26.326470
_cell_length_b 8.376991
_cell_length_c 9.807611
_cell_angle_alpha 90.000000
_cell_angle_beta 146.342279
_cell_angle_gamma 90.000000
_cell_volume 1198.765490
_symmetry_space_group_name_H-M "C 2"
_symmetry_group_IT_number 5
_symmetry_cell_setting 'monoclinic'
loop_
_space_group_symop_operation_xyz
x,y,z
-x,y,-z
1/2+x,1/2+y,z
1/2-x,1/2+y,-z
loop_
_atom_site_type_symbol
_atom_site_label
_atom_site_fract_x
_atom_site_fract_y
_atom_site_fract_z
Si Si1 0.002705 0.725400 0.748017
Si Si2 0.500000 0.992051 0.500000
Si Si3 0.335932 0.637574 0.756830
Si Si4 0.179978 0.517810 0.211712
Si Si5 0.000000 0.974784 0.500000
Si Si6 0.306042 0.559937 0.991817
Si Si7 0.000000 0.929022 0.000000
Si Si8 0.298386 0.900774 0.017647
O O1 0.965685 0.594492 0.554976
O O2 0.015051 0.867818 0.667365
O O3 0.091569 0.630690 0.001499
O O4 0.964064 0.812956 0.796898
O O5 0.408930 0.898797 0.255442
O O6 0.248183 0.597709 0.469992
O O7 0.342578 0.830642 0.799293
O O8 0.323377 0.545824 0.871848
O O9 0.421695 0.548682 0.879379
O O10 0.225796 0.514834 0.162748
O O11 0.097470 0.062352 0.710457
O O12 0.257908 0.730042 0.895443
O O13 0.240277 0.441178 0.922114
#
# Coordination Sequence:
#
# PCOD9127730 Si02
#       8
#     4   2   4   4   2   4   2   4
#     4  10  23  41  71  92 134 170 228 271 339 384
#     4   9  21  44  66  99 133 176 216 287 327 406
#     4  11  25  44  67  97 140 174 228 274 336 398
#     4  10  24  46  66  96 134 177 222 281 329 409
#     4  11  23  44  68  95 141 170 224 279 329 408
#     4  11  25  42  66 101 131 180 219 279 330 403
#     4  12  24  42  66 100 128 186 220 276 340 392
#     4  10  24  41  70  97 135 172 227 268 347 388
#
# _framework density 21.688979
#
# number of rings (size 3 to 8) (size 9 to 14) (size 15 to 20)
#    0.000    1.538    1.538    1.385    8.615    3.077 
#    0.000    0.000    0.000    0.000    0.000    0.000 
#    0.000    0.000    0.000    0.000    0.000    0.000 
#
# Total GULP energy -72395.935860 kJ/mol
# GULP energy per Si atom -5568.918143 kJ/mol
# Density = 2.163961 g / cm^3
# Si number density = 21.688979 Si / 1000 Ang^3
#
#
#
# Elastic Constant Matrix: (Units=GPa)
#
#
# Indices 1 2 3 4 5 6 
#
# 1 120.4097 42.4658 29.2604 0.0000 -21.1179 0.0000
# 2 42.4658 59.0756 20.8201 0.0000 -19.0866 0.0000
# 3 29.2604 20.8201 111.4569 0.0000 -18.5412 0.0000
# 4 0.0000 0.0000 0.0000 23.1691 0.0000 -33.1089
# 5 -21.1179 -19.0866 -18.5412 0.0000 29.2514 0.0000
# 6 0.0000 0.0000 0.0000 -33.1089 0.0000 161.0816
#
#
#
# Elastic Compliance Matrix: (Units=1/GPa)
#
#
# Indices 1 2 3 4 5 6 
#
# 1 0.011576 -0.006891 -0.001240 0.000000 0.003075 0.000000
# 2 -0.006891 0.025908 -0.001169 0.000000 0.011189 0.000000
# 3 -0.001240 -0.001169 0.010329 0.000000 0.004889 0.000000
# 4 0.000000 0.000000 0.000000 0.061110 0.000000 0.012561
# 5 0.003075 0.011189 0.004889 0.000000 0.046806 0.000000
# 6 0.000000 0.000000 0.000000 0.012561 0.000000 0.008790
#
#
# Mechanical properties :
#
#
# Convention : Reuss Voigt Hill
#
# Bulk Modulus (GPa) = 34.23166 52.89276 43.56221
# Shear Modulus (GPa) = 25.92593 55.92679 40.92636
#
# Velocity S-wave (km/s) = 3.46113 5.08348 4.34863
# Velocity P-wave (km/s) = 5.63825 7.67435 6.73370
#
# Compressibility (1/GPa) = 0.02921273
#
# Stress axis : x y z
#
# Youngs Moduli (GPa) = 86.38699 38.59835 96.81106
#
# Poissons Ratio (x) = 0.26597 0.12007
# Poissons Ratio (y) = 0.59526 0.11320
# Poissons Ratio (z) = 0.10715 0.04513
#
# Static dielectric constant tensor:
#      x y z
#    x 1.561820 0.000000 0.017050 
#    y 0.000000 1.810300 0.000000 
#    z 0.017050 0.000000 1.816680 
# 
# From -- ./inp_files/31701.got.cif
#   From: 2010.05.17/outbox.cif.g08.bks.cpg/sg5_16_cif.got.tgz:31701.got - 2010.06.03 18:56:24.
