data_PCOD9127574
_publ_section_title
;
Structure prediction by ZEFSAII (Michael W. Deem and Ramdas Pophale) SiO2 
 PCOD9127574
Probable space group: C 2
;
_chemical_formula_sum "Si O2"
_cell_formula_units_Z 32
_cell_length_a 11.726887
_cell_length_b 11.011776
_cell_length_c 10.879138
_cell_angle_alpha 90.000000
_cell_angle_beta 101.373460
_cell_angle_gamma 90.000000
_cell_volume 1377.277146
_symmetry_space_group_name_H-M "C 2"
_symmetry_group_IT_number 5
_symmetry_cell_setting 'monoclinic'
loop_
_space_group_symop_operation_xyz
x,y,z
-x,y,-z
1/2+x,1/2+y,z
1/2-x,1/2+y,-z
loop_
_atom_site_type_symbol
_atom_site_label
_atom_site_fract_x
_atom_site_fract_y
_atom_site_fract_z
Si Si1 0.926964 0.397030 0.109217
Si Si2 0.365771 0.165310 0.137993
Si Si3 0.675841 0.375438 0.574363
Si Si4 0.131829 0.036726 0.340988
Si Si5 0.580246 0.423632 0.827790
Si Si6 0.392038 0.110433 0.406823
Si Si7 0.633032 0.654643 0.985858
Si Si8 0.440198 0.812871 0.621359
O O1 0.885122 0.534455 0.083219
O O2 0.845602 0.277519 0.087612
O O3 0.990130 0.379380 0.253910
O O4 0.000000 0.378878 0.000000
O O5 0.407529 0.295665 0.099035
O O6 0.430610 0.152453 0.280845
O O7 0.225002 0.169726 0.115455
O O8 0.618953 0.467840 0.467781
O O9 0.639460 0.404201 0.706362
O O10 0.640089 0.237129 0.533641
O O11 0.814721 0.376953 0.590047
O O12 0.272115 0.039481 0.356430
O O13 0.083646 0.173552 0.340807
O O14 0.052668 0.965098 0.226172
O O15 0.646460 0.532646 0.909957
O O16 0.500000 0.052712 0.500000
O O17 0.500000 0.645664 0.000000
O O18 0.500000 0.804710 0.500000
#
# Coordination Sequence:
#
# PCOD9127574 Si02
#       8
#     4   4   4   4   4   4   4   4
#     4  11  27  46  71 100 149 192 242 294 375 431
#     4  11  25  42  71  99 142 189 243 299 364 434
#     4  10  23  38  70  99 144 184 240 303 371 427
#     4  11  22  42  71 105 140 188 247 303 362 439
#     4  11  22  43  72 102 139 186 248 302 368 434
#     4  10  23  42  65 102 145 191 236 302 374 433
#     4  11  24  44  72 100 136 193 248 300 362 439
#     4  11  25  45  70 107 143 193 247 308 362 444
#
# _framework density 23.234249999999999
#
# number of rings (size 3 to 8) (size 9 to 14) (size 15 to 20)
#    0.000    1.250    1.250    4.125   14.000    0.500 
#    0.000    1.250    0.000    0.000    0.000    0.000 
#    0.000    0.000    0.000    0.000    0.000    0.000 
#
# Total GULP energy -89299.734926 kJ/mol
# GULP energy per Si atom -5581.233433 kJ/mol
# Density = 2.318137 g / cm^3
# Si number density = 23.234250 Si / 1000 Ang^3
#
#
#
# Elastic Constant Matrix: (Units=GPa)
#
#
# Indices 1 2 3 4 5 6 
#
# 1 102.0031 27.4276 37.0254 0.0000 24.0997 0.0000
# 2 27.4276 187.8687 35.5653 0.0000 16.2062 0.0000
# 3 37.0254 35.5653 103.9215 0.0000 25.6221 0.0000
# 4 0.0000 0.0000 0.0000 -25.8345 0.0000 -42.9924
# 5 24.0997 16.2062 25.6221 0.0000 41.5649 0.0000
# 6 0.0000 0.0000 0.0000 -42.9924 0.0000 -5.7166
#
#
#
# Elastic Compliance Matrix: (Units=1/GPa)
#
#
# Indices 1 2 3 4 5 6 
#
# 1 0.012243 -0.000815 -0.002843 0.000000 -0.005028 0.000000
# 2 -0.000815 0.005797 -0.001477 0.000000 -0.000877 0.000000
# 3 -0.002843 -0.001477 0.012491 0.000000 -0.005476 0.000000
# 4 0.000000 0.000000 0.000000 0.003361 0.000000 -0.025280
# 5 -0.005028 -0.000877 -0.005476 0.000000 0.030691 0.000000
# 6 0.000000 0.000000 0.000000 -0.025280 0.000000 0.015191
#
#
# Mechanical properties :
#
#
# Convention : Reuss Voigt Hill
#
# Bulk Modulus (GPa) = 49.35959 65.98113 57.67036
# Shear Modulus (GPa) = 51.65308 21.58777 36.62042
#
# Velocity S-wave (km/s) = 4.72014 3.05148 3.97437
# Velocity P-wave (km/s) = 7.14120 6.39337 6.77761
#
# Compressibility (1/GPa) = 0.02025949
#
# Stress axis : x y z
#
# Youngs Moduli (GPa) = 81.68050 172.49652 80.05634
#
# Poissons Ratio (x) = 0.14065 0.22762
# Poissons Ratio (y) = 0.06660 0.11827
# Poissons Ratio (z) = 0.23223 0.25482
#
# Static dielectric constant tensor:
#      x y z
#    x 1.911260 0.000000 0.019730 
#    y 0.000000 1.977930 0.000000 
#    z 0.019730 0.000000 1.875970 
# 
# From -- ./inp_files/39443.got.cif
#   From: 2010.05.17/outbox.cif.g08.bks.cpg/sg5_20_cif.got.tgz:39443.got - 2010.06.03 18:56:24.
