data_PCOD9127601
_publ_section_title
;
Structure prediction by ZEFSAII (Michael W. Deem and Ramdas Pophale) SiO2 
 PCOD9127601
Probable space group: C 2
;
_chemical_formula_sum "Si O2"
_cell_formula_units_Z 30
_cell_length_a 22.335701
_cell_length_b 5.231855
_cell_length_c 13.118013
_cell_angle_alpha 90.000000
_cell_angle_beta 119.933893
_cell_angle_gamma 90.000000
_cell_volume 1328.442893
_symmetry_space_group_name_H-M "C 2"
_symmetry_group_IT_number 5
_symmetry_cell_setting 'monoclinic'
loop_
_space_group_symop_operation_xyz
x,y,z
-x,y,-z
1/2+x,1/2+y,z
1/2-x,1/2+y,-z
loop_
_atom_site_type_symbol
_atom_site_label
_atom_site_fract_x
_atom_site_fract_y
_atom_site_fract_z
Si Si1 0.500000 0.956521 0.500000
Si Si2 0.744974 0.491807 0.243395
Si Si3 0.129111 0.815174 0.661289
Si Si4 0.659472 0.793071 0.311423
Si Si5 0.487850 0.899518 0.725154
Si Si6 0.426704 0.420707 0.181028
Si Si7 0.217873 0.731315 0.021255
Si Si8 0.294688 0.627028 0.439161
O O1 0.482860 0.835503 0.598025
O O2 0.567699 0.125228 0.580609
O O3 0.801918 0.673991 0.241525
O O4 0.676230 0.635113 0.223053
O O5 0.732152 0.264253 0.154095
O O6 0.785641 0.401829 0.379476
O O7 0.103386 0.984591 0.732476
O O8 0.151993 0.975691 0.584710
O O9 0.584651 0.896835 0.276510
O O10 0.678636 0.619376 0.424686
O O11 0.718735 0.007482 0.365018
O O12 0.534261 0.677933 0.816239
O O13 0.522153 0.178839 0.764003
O O14 0.360942 0.321694 0.062498
O O15 0.235431 0.449001 0.995525
#
# Coordination Sequence:
#
# PCOD9127601 Si02
#       8
#     2   4   4   4   4   4   4   4
#     4  10  24  38  64  98 138 184 220 276 350 422
#     4  11  24  43  70  99 134 179 235 287 341 407
#     4  10  23  40  61 104 132 176 226 279 347 411
#     4  11  25  41  65 100 139 189 227 279 343 411
#     4  11  27  43  67  96 145 181 225 275 345 414
#     4  11  25  45  68 102 137 174 225 288 342 408
#     4  12  25  46  77 105 135 176 230 298 349 398
#     4  11  23  40  67  96 140 177 234 285 334 415
#
# _framework density 22.582830000000001
#
# number of rings (size 3 to 8) (size 9 to 14) (size 15 to 20)
#    0.000    1.067    2.667    2.400   16.800    0.533 
#    0.000    0.667    0.000    0.000    0.000    0.000 
#    0.000    0.000    0.000    0.000    0.000    0.000 
#
# Total GULP energy -83821.212470 kJ/mol
# GULP energy per Si atom -5588.080831 kJ/mol
# Density = 2.253143 g / cm^3
# Si number density = 22.582830 Si / 1000 Ang^3
#
#
#
# Elastic Constant Matrix: (Units=GPa)
#
#
# Indices 1 2 3 4 5 6 
#
# 1 152.5285 26.8117 14.2792 0.0000 17.5436 0.0000
# 2 26.8117 57.8259 -10.0325 0.0000 2.3432 0.0000
# 3 14.2792 -10.0325 48.2440 0.0000 1.1946 0.0000
# 4 0.0000 0.0000 0.0000 29.3596 0.0000 -0.0475
# 5 17.5436 2.3432 1.1946 0.0000 18.7672 0.0000
# 6 0.0000 0.0000 0.0000 -0.0475 0.0000 39.0395
#
#
#
# Elastic Compliance Matrix: (Units=1/GPa)
#
#
# Indices 1 2 3 4 5 6 
#
# 1 0.008405 -0.004159 -0.003176 0.000000 -0.007136 0.000000
# 2 -0.004159 0.020115 0.005388 0.000000 0.001034 0.000000
# 3 -0.003176 0.005388 0.022768 0.000000 0.000847 0.000000
# 4 0.000000 0.000000 0.000000 0.034061 0.000000 0.000041
# 5 -0.007136 0.001034 0.000847 0.000000 0.059772 0.000000
# 6 0.000000 0.000000 0.000000 0.000041 0.000000 0.025615
#
#
# Mechanical properties :
#
#
# Convention : Reuss Voigt Hill
#
# Bulk Modulus (GPa) = 21.09969 35.63502 28.36735
# Shear Modulus (GPa) = 26.25679 32.60258 29.42969
#
# Velocity S-wave (km/s) = 3.41352 3.80371 3.61389
# Velocity P-wave (km/s) = 4.98996 5.92494 5.47744
#
# Compressibility (1/GPa) = 0.04739407
#
# Stress axis : x y z
#
# Youngs Moduli (GPa) = 118.97202 49.71486 43.92210
#
# Poissons Ratio (x) = 0.20677 0.13950
# Poissons Ratio (y) = 0.49482 -0.23667
# Poissons Ratio (z) = 0.37786 -0.26788
#
# Static dielectric constant tensor:
#      x y z
#    x 1.842820 0.000000 -0.027840 
#    y 0.000000 1.878380 0.000000 
#    z -0.027840 0.000000 1.896490 
# 
# From -- ./inp_files/56563.got.cif
#   From: 2010.05.17/outbox.cif.g08.bks.cpg/sg5_29_cif.got.tgz:56563.got - 2010.06.03 18:56:24.
