data_PCOD9127446
_publ_section_title
;
Structure prediction by ZEFSAII (Michael W. Deem and Ramdas Pophale) SiO2 
 PCOD9127446
Probable space group: C 2
;
_chemical_formula_sum "Si O2"
_cell_formula_units_Z 20
_cell_length_a 8.427366
_cell_length_b 10.533714
_cell_length_c 16.975942
_cell_angle_alpha 90.000000
_cell_angle_beta 32.022062
_cell_angle_gamma 90.000000
_cell_volume 799.069352
_symmetry_space_group_name_H-M "C 2"
_symmetry_group_IT_number 5
_symmetry_cell_setting 'monoclinic'
loop_
_space_group_symop_operation_xyz
x,y,z
-x,y,-z
1/2+x,1/2+y,z
1/2-x,1/2+y,-z
loop_
_atom_site_type_symbol
_atom_site_label
_atom_site_fract_x
_atom_site_fract_y
_atom_site_fract_z
Si Si1 0.551291 0.233730 0.367522
Si Si2 0.675556 0.093575 0.165852
Si Si3 0.339329 0.067943 0.152178
Si Si4 0.679753 0.824596 0.180864
Si Si5 0.264026 0.964690 0.542199
O O1 0.557384 0.203645 0.271422
O O2 0.398625 0.103743 0.463554
O O3 0.353373 0.358372 0.469664
O O4 0.890348 0.267395 0.254867
O O5 0.533000 0.034663 0.146462
O O6 0.659136 0.964848 0.224875
O O7 0.000000 0.134034 0.000000
O O8 0.254005 0.212649 0.209229
O O9 0.035100 0.992366 0.282010
O O10 0.500000 0.058633 0.000000
O O11 0.000000 0.831872 0.000000
O O12 0.500000 0.900726 0.500000
#
# Coordination Sequence:
#
# PCOD9127446 Si02
#       5
#     4   4   4   4   4
#     4  12  28  49  75 115 150 203 251 305 379 447
#     4  11  25  45  77 113 147 194 253 316 371 439
#     4  11  24  49  73 104 150 194 250 307 367 437
#     4  10  22  46  74 110 145 195 245 309 373 429
#     4  12  29  47  76 109 153 205 244 310 376 448
#
# _framework density 25.029115999999998
#
# number of rings (size 3 to 8) (size 9 to 14) (size 15 to 20)
#    0.000    0.800    4.000    2.400    5.600    0.800 
#    7.200    0.000    0.000    0.000    0.000    0.000 
#    0.000    0.000    0.000    0.000    0.000    0.000 
#
# Total GULP energy -55744.251905 kJ/mol
# GULP energy per Si atom -5574.425191 kJ/mol
# Density = 2.497215 g / cm^3
# Si number density = 25.029116 Si / 1000 Ang^3
#
#
#
# Elastic Constant Matrix: (Units=GPa)
#
#
# Indices 1 2 3 4 5 6 
#
# 1 65.9896 -5.4819 61.6874 -0.0057 -11.2362 0.0019
# 2 -5.4819 148.9903 45.9152 -0.0064 0.6449 0.0021
# 3 61.6874 45.9152 146.3517 -0.0240 -14.6824 0.0069
# 4 -0.0057 -0.0064 -0.0240 42.4454 0.0082 -2.9796
# 5 -11.2362 0.6449 -14.6824 0.0082 42.5586 -0.0032
# 6 0.0019 0.0021 0.0069 -2.9796 -0.0032 23.7967
#
#
#
# Elastic Compliance Matrix: (Units=1/GPa)
#
#
# Indices 1 2 3 4 5 6 
#
# 1 0.028573 0.005161 -0.013377 -0.000003 0.002851 0.000001
# 2 0.005161 0.008400 -0.004855 -0.000001 -0.000439 0.000000
# 3 -0.013377 -0.004855 0.014137 0.000005 0.001419 -0.000002
# 4 -0.000003 -0.000001 0.000005 0.023769 -0.000004 0.002976
# 5 0.002851 -0.000439 0.001419 -0.000004 0.024746 0.000002
# 6 0.000001 0.000000 -0.000002 0.002976 0.000002 0.042395
#
#
# Mechanical properties :
#
#
# Convention : Reuss Voigt Hill
#
# Bulk Modulus (GPa) = 40.05034 62.84145 51.44590
# Shear Modulus (GPa) = 28.33148 39.04086 33.68617
#
# Velocity S-wave (km/s) = 3.36808 3.95374 3.67260
# Velocity P-wave (km/s) = 5.58225 6.78267 6.21153
#
# Compressibility (1/GPa) = 0.02496857
#
# Stress axis : x y z
#
# Youngs Moduli (GPa) = 34.99851 119.05034 70.73822
#
# Poissons Ratio (x) = -0.61446 0.94624
# Poissons Ratio (y) = -0.18064 0.34343
# Poissons Ratio (z) = 0.46816 0.57798
#
# Static dielectric constant tensor:
#      x y z
#    x 2.030980 0.000000 0.056670 
#    y 0.000000 2.012890 0.000000 
#    z 0.056670 0.000000 2.046340 
# 
# From -- ./inp_files/14305.got.cif
#   From: 2010.05.17/outbox.cif.g08.bks.cpg/sg5_8_cif.got.tgz:14305.got - 2010.06.03 18:56:24.
