data_PCOD9127299
_publ_section_title
;
Structure prediction by ZEFSAII (Michael W. Deem and Ramdas Pophale) SiO2 
 PCOD9127299
Probable space group: C 2
;
_chemical_formula_sum "Si O2"
_cell_formula_units_Z 30
_cell_length_a 16.094780
_cell_length_b 8.889374
_cell_length_c 11.732162
_cell_angle_alpha 90.000000
_cell_angle_beta 126.134700
_cell_angle_gamma 90.000000
_cell_volume 1355.652181
_symmetry_space_group_name_H-M "C 2"
_symmetry_group_IT_number 5
_symmetry_cell_setting 'monoclinic'
loop_
_space_group_symop_operation_xyz
x,y,z
-x,y,-z
1/2+x,1/2+y,z
1/2-x,1/2+y,-z
loop_
_atom_site_type_symbol
_atom_site_label
_atom_site_fract_x
_atom_site_fract_y
_atom_site_fract_z
Si Si1 0.529914 0.312950 0.895084
Si Si2 0.728162 0.471698 0.128597
Si Si3 0.374186 0.869739 0.603681
Si Si4 0.837217 0.699245 0.626976
Si Si5 0.000000 0.219339 0.500000
Si Si6 0.608844 0.746161 0.126071
Si Si7 0.715593 0.661733 0.739318
Si Si8 0.148054 0.514761 0.981990
O O1 0.431071 0.313353 0.732672
O O2 0.500000 0.346105 0.000000
O O3 0.634303 0.410577 0.971038
O O4 0.559364 0.137078 0.917569
O O5 0.693340 0.617500 0.170403
O O6 0.761289 0.339275 0.239541
O O7 0.826550 0.486210 0.127494
O O8 0.261441 0.792811 0.495295
O O9 0.453754 0.808031 0.572137
O O10 0.401855 0.811612 0.754493
O O11 0.369642 0.050758 0.583595
O O12 0.795038 0.613783 0.706777
O O13 0.098814 0.125983 0.619841
O O14 0.629152 0.875731 0.048988
O O15 0.500000 0.678158 0.000000
O O16 0.751551 0.598088 0.887426
#
# Coordination Sequence:
#
# PCOD9127299 Si02
#       8
#     4   4   4   4   2   4   4   4
#     4  11  20  42  67  91 129 177 215 263 338 386
#     4  11  25  38  66 100 135 169 214 276 326 394
#     4  11  26  45  70  97 134 175 227 274 330 395
#     4  11  23  44  69  94 128 178 219 274 329 394
#     4  10  26  44  68  92 130 184 214 268 332 402
#     4  12  25  40  67 105 131 166 227 274 324 391
#     4  10  22  45  63  89 134 174 216 264 338 384
#     4  11  22  42  65  96 136 170 216 273 330 388
#
# _framework density 22.129570000000001
#
# number of rings (size 3 to 8) (size 9 to 14) (size 15 to 20)
#    0.000    1.067    4.000    3.200    9.333    0.000 
#    2.400    0.000    0.000    0.800    0.000    0.000 
#    0.000    0.000    0.000    0.000    0.000    0.000 
#
# Total GULP energy -83675.911743 kJ/mol
# GULP energy per Si atom -5578.394116 kJ/mol
# Density = 2.207920 g / cm^3
# Si number density = 22.129570 Si / 1000 Ang^3
#
#
#
# Elastic Constant Matrix: (Units=GPa)
#
#
# Indices 1 2 3 4 5 6 
#
# 1 72.4106 18.5167 15.8653 0.0000 -12.4920 0.0000
# 2 18.5167 62.1659 0.6338 0.0000 -8.6073 0.0000
# 3 15.8653 0.6338 81.6138 0.0000 13.1623 0.0000
# 4 0.0000 0.0000 0.0000 13.6511 0.0000 -6.3048
# 5 -12.4920 -8.6073 13.1623 0.0000 38.9887 0.0000
# 6 0.0000 0.0000 0.0000 -6.3048 0.0000 25.0986
#
#
#
# Elastic Compliance Matrix: (Units=1/GPa)
#
#
# Indices 1 2 3 4 5 6 
#
# 1 0.016801 -0.004148 -0.004182 0.000000 0.005879 0.000000
# 2 -0.004148 0.017662 0.000269 0.000000 0.002479 0.000000
# 3 -0.004182 0.000269 0.014034 0.000000 -0.006018 0.000000
# 4 0.000000 0.000000 0.000000 0.082869 0.000000 0.020817
# 5 0.005879 0.002479 -0.006018 0.000000 0.030111 0.000000
# 6 0.000000 0.000000 0.000000 0.020817 0.000000 0.045072
#
#
# Mechanical properties :
#
#
# Convention : Reuss Voigt Hill
#
# Bulk Modulus (GPa) = 30.88653 31.80243 31.34448
# Shear Modulus (GPa) = 21.41669 27.62598 24.52134
#
# Velocity S-wave (km/s) = 3.11430 3.53707 3.33239
# Velocity P-wave (km/s) = 5.18838 5.57524 5.38528
#
# Compressibility (1/GPa) = 0.03237657
#
# Stress axis : x y z
#
# Youngs Moduli (GPa) = 59.51891 56.61885 71.25378
#
# Poissons Ratio (x) = 0.23484 0.29799
# Poissons Ratio (y) = 0.24687 -0.01919
# Poissons Ratio (z) = 0.24891 -0.01525
#
# Static dielectric constant tensor:
#      x y z
#    x 1.906440 0.000000 0.029140 
#    y 0.000000 1.837370 0.000000 
#    z 0.029140 0.000000 1.851090 
# 
# From -- ./inp_files/42046.got.cif
#   From: 2010.05.17/outbox.cif.g08.bks.cpg/sg5_22_cif.got.tgz:42046.got - 2010.06.03 18:56:24.
