data_PCOD9127627
_publ_section_title
;
Structure prediction by ZEFSAII (Michael W. Deem and Ramdas Pophale) SiO2 
 PCOD9127627
Probable space group: C 2
;
_chemical_formula_sum "Si O2"
_cell_formula_units_Z 20
_cell_length_a 9.087954
_cell_length_b 18.220079
_cell_length_c 5.247332
_cell_angle_alpha 90.000000
_cell_angle_beta 84.402898
_cell_angle_gamma 90.000000
_cell_volume 864.727750
_symmetry_space_group_name_H-M "C 2"
_symmetry_group_IT_number 5
_symmetry_cell_setting 'monoclinic'
loop_
_space_group_symop_operation_xyz
x,y,z
-x,y,-z
1/2+x,1/2+y,z
1/2-x,1/2+y,-z
loop_
_atom_site_type_symbol
_atom_site_label
_atom_site_fract_x
_atom_site_fract_y
_atom_site_fract_z
Si Si1 0.178137 0.306850 0.446943
Si Si2 0.500000 0.148182 0.000000
Si Si3 0.178928 0.394147 0.942743
Si Si4 0.000000 0.132857 0.000000
Si Si5 0.262931 0.552973 0.727060
Si Si6 0.271706 0.170076 0.647137
O O1 0.223075 0.337656 0.714175
O O2 0.245341 0.225454 0.417149
O O3 0.000000 0.303033 0.500000
O O4 0.223156 0.360801 0.209619
O O5 0.369710 0.095889 0.115297
O O6 0.580013 0.187052 0.222915
O O7 0.243199 0.470034 0.821430
O O8 0.000000 0.402394 0.000000
O O9 0.127242 0.180217 0.847198
O O10 0.917699 0.083335 0.804990
O O11 0.238614 0.584793 0.444846
#
# Coordination Sequence:
#
# PCOD9127627 Si02
#       6
#     4   2   4   2   4   4
#     4  10  23  40  67 100 140 180 231 287 350 415
#     4  10  24  38  70 100 136 176 242 284 356 414
#     4  10  23  40  67 101 137 182 232 287 348 416
#     4  10  24  38  68 100 134 178 240 280 356 414
#     4  11  22  42  68  99 136 183 233 293 343 418
#     4  11  24  42  69 103 140 182 235 294 351 418
#
# _framework density 23.128665999999999
#
# number of rings (size 3 to 8) (size 9 to 14) (size 15 to 20)
#    0.000    1.600    1.000    2.400   15.400    1.600 
#    0.000    1.000    0.000    0.000    0.000    0.000 
#    0.000    0.000    0.000    0.000    0.000    0.000 
#
# Total GULP energy -55836.847283 kJ/mol
# GULP energy per Si atom -5583.684728 kJ/mol
# Density = 2.307602 g / cm^3
# Si number density = 23.128666 Si / 1000 Ang^3
#
#
#
# Elastic Constant Matrix: (Units=GPa)
#
#
# Indices 1 2 3 4 5 6 
#
# 1 86.4832 24.0613 35.2984 0.0000 12.0580 0.0000
# 2 24.0613 137.5362 48.1324 0.0000 3.3660 0.0000
# 3 35.2984 48.1324 134.3833 0.0000 10.1943 0.0000
# 4 0.0000 0.0000 0.0000 18.6185 0.0000 -2.3505
# 5 12.0580 3.3660 10.1943 0.0000 27.6185 0.0000
# 6 0.0000 0.0000 0.0000 -2.3505 0.0000 16.6430
#
#
#
# Elastic Compliance Matrix: (Units=1/GPa)
#
#
# Indices 1 2 3 4 5 6 
#
# 1 0.013730 -0.001315 -0.002771 0.000000 -0.004812 0.000000
# 2 -0.001315 0.008439 -0.002719 0.000000 0.000549 0.000000
# 3 -0.002771 -0.002719 0.009286 0.000000 -0.001887 0.000000
# 4 0.000000 0.000000 0.000000 0.054685 0.000000 0.007723
# 5 -0.004812 0.000549 -0.001887 0.000000 0.038938 0.000000
# 6 0.000000 0.000000 0.000000 0.007723 0.000000 0.061176
#
#
# Mechanical properties :
#
#
# Convention : Reuss Voigt Hill
#
# Bulk Modulus (GPa) = 56.03207 63.70968 59.87087
# Shear Modulus (GPa) = 24.29402 29.30336 26.79869
#
# Velocity S-wave (km/s) = 3.24448 3.56332 3.40763
# Velocity P-wave (km/s) = 6.18986 6.67347 6.43621
#
# Compressibility (1/GPa) = 0.01784692
#
# Stress axis : x y z
#
# Youngs Moduli (GPa) = 72.83089 118.49908 107.68759
#
# Poissons Ratio (x) = 0.15579 0.29837
# Poissons Ratio (y) = 0.09575 0.29279
# Poissons Ratio (z) = 0.20179 0.32219
#
# Static dielectric constant tensor:
#      x y z
#    x 1.827370 0.000000 0.033760 
#    y 0.000000 1.884040 0.000000 
#    z 0.033760 0.000000 2.027140 
# 
# From -- ./inp_files/2383.got.cif
#   From: 2010.05.17/outbox.cif.g08.bks.cpg/sg5_2_cif.got.tgz:2383.got - 2010.06.03 18:56:24.
