data_PCOD9127895
_publ_section_title
;
Structure prediction by ZEFSAII (Michael W. Deem and Ramdas Pophale) SiO2 
 PCOD9127895
Probable space group: C 2
;
_chemical_formula_sum "Si O2"
_cell_formula_units_Z 30
_cell_length_a 11.699230
_cell_length_b 17.444703
_cell_length_c 11.217753
_cell_angle_alpha 90.000000
_cell_angle_beta 141.928749
_cell_angle_gamma 90.000000
_cell_volume 1411.754199
_symmetry_space_group_name_H-M "C 2"
_symmetry_group_IT_number 5
_symmetry_cell_setting 'monoclinic'
loop_
_space_group_symop_operation_xyz
x,y,z
-x,y,-z
1/2+x,1/2+y,z
1/2-x,1/2+y,-z
loop_
_atom_site_type_symbol
_atom_site_label
_atom_site_fract_x
_atom_site_fract_y
_atom_site_fract_z
Si Si1 0.341864 0.944360 0.180588
Si Si2 0.205710 0.807874 0.211361
Si Si3 0.282378 0.238907 0.517577
Si Si4 0.151109 0.210862 0.880107
Si Si5 0.000000 0.835179 0.500000
Si Si6 0.183413 0.345009 0.073685
Si Si7 0.469210 0.566209 0.103072
Si Si8 0.114272 0.577369 0.473406
O O1 0.329946 0.880135 0.273736
O O2 0.503848 0.005622 0.330694
O O3 0.359957 0.900384 0.071405
O O4 0.149282 0.990939 0.018813
O O5 0.207929 0.784072 0.350230
O O6 0.266218 0.736297 0.178057
O O7 0.000000 0.827829 0.000000
O O8 0.380176 0.284191 0.491848
O O9 0.369467 0.153544 0.593454
O O10 0.067373 0.229931 0.306077
O O11 0.153529 0.122232 0.916295
O O12 0.237752 0.264570 0.054324
O O13 0.150157 0.876254 0.707532
O O14 0.000000 0.333251 0.000000
O O15 0.674308 0.553937 0.322520
O O16 0.500000 0.606383 0.000000
O O17 0.000000 0.597862 0.500000
#
# Coordination Sequence:
#
# PCOD9127895 Si02
#       8
#     4   4   4   4   2   4   4   4
#     4  11  26  45  68 101 142 183 231 289 359 421
#     4  11  25  44  68 107 144 187 237 291 362 422
#     4  11  23  43  71 105 134 179 240 292 349 419
#     4  10  23  43  71  99 138 182 234 294 346 416
#     4  12  24  40  74 100 138 176 240 286 342 430
#     4  11  24  45  66 101 135 186 228 287 354 414
#     4  11  23  41  67 100 136 179 237 289 344 424
#     4  11  24  41  70 100 134 183 233 288 355 413
#
# _framework density 21.250159
#
# number of rings (size 3 to 8) (size 9 to 14) (size 15 to 20)
#    0.000    1.067    3.333    2.800    5.600    3.200 
#    2.400    0.000    0.000    0.000    0.000    0.000 
#    0.000    0.000    0.000    0.000    0.000    0.000 
#
# Total GULP energy -83904.142235 kJ/mol
# GULP energy per Si atom -5593.609482 kJ/mol
# Density = 2.120179 g / cm^3
# Si number density = 21.250159 Si / 1000 Ang^3
#
#
#
# Elastic Constant Matrix: (Units=GPa)
#
#
# Indices 1 2 3 4 5 6 
#
# 1 103.8323 43.4100 29.3534 0.0000 -23.7728 0.0000
# 2 43.4100 106.7141 42.7616 0.0000 -18.0940 0.0000
# 3 29.3534 42.7616 109.1284 0.0000 -5.6830 0.0000
# 4 0.0000 0.0000 0.0000 21.5721 0.0000 7.0043
# 5 -23.7728 -18.0940 -5.6830 0.0000 32.1837 0.0000
# 6 0.0000 0.0000 0.0000 7.0043 0.0000 30.6716
#
#
#
# Elastic Compliance Matrix: (Units=1/GPa)
#
#
# Indices 1 2 3 4 5 6 
#
# 1 0.013311 -0.003380 -0.001860 0.000000 0.007603 0.000000
# 2 -0.003380 0.013044 -0.003987 0.000000 0.004133 0.000000
# 3 -0.001860 -0.003987 0.011140 0.000000 -0.001648 0.000000
# 4 0.000000 0.000000 0.000000 0.050069 0.000000 -0.011434
# 5 0.007603 0.004133 -0.001648 0.000000 0.038720 0.000000
# 6 0.000000 0.000000 0.000000 -0.011434 0.000000 0.035215
#
#
# Mechanical properties :
#
#
# Convention : Reuss Voigt Hill
#
# Bulk Modulus (GPa) = 52.51768 61.19164 56.85466
# Shear Modulus (GPa) = 26.83849 30.49547 28.66698
#
# Velocity S-wave (km/s) = 3.55770 3.79234 3.67689
# Velocity P-wave (km/s) = 6.45321 6.93067 6.69620
#
# Compressibility (1/GPa) = 0.01904121
#
# Stress axis : x y z
#
# Youngs Moduli (GPa) = 75.12773 76.66250 89.76494
#
# Poissons Ratio (x) = 0.25913 0.16695
# Poissons Ratio (y) = 0.25394 0.35788
# Poissons Ratio (z) = 0.13973 0.30565
#
# Static dielectric constant tensor:
#      x y z
#    x 1.755420 0.000000 0.012260 
#    y 0.000000 1.777200 0.000000 
#    z 0.012260 0.000000 1.809050 
# 
# From -- ./inp_files/40471.got.cif
#   From: 2010.05.17/outbox.cif.g08.bks.cpg/sg5_21_cif.got.tgz:40471.got - 2010.06.03 18:56:24.
