data_PCOD9127829
_publ_section_title
;
Structure prediction by ZEFSAII (Michael W. Deem and Ramdas Pophale) SiO2 
 PCOD9127829
Probable space group: C 2
;
_chemical_formula_sum "Si O2"
_cell_formula_units_Z 32
_cell_length_a 30.275781
_cell_length_b 5.044614
_cell_length_c 18.060823
_cell_angle_alpha 90.000000
_cell_angle_beta 154.059899
_cell_angle_gamma 90.000000
_cell_volume 1206.620403
_symmetry_space_group_name_H-M "C 2"
_symmetry_group_IT_number 5
_symmetry_cell_setting 'monoclinic'
loop_
_space_group_symop_operation_xyz
x,y,z
-x,y,-z
1/2+x,1/2+y,z
1/2-x,1/2+y,-z
loop_
_atom_site_type_symbol
_atom_site_label
_atom_site_fract_x
_atom_site_fract_y
_atom_site_fract_z
Si Si1 0.737111 0.606910 0.354337
Si Si2 0.039118 0.907963 0.983241
Si Si3 0.788317 0.246479 0.144692
Si Si4 0.441872 0.855902 0.487440
Si Si5 0.144767 0.259258 0.362391
Si Si6 0.074522 0.848157 0.443863
Si Si7 0.532799 0.087667 0.849452
Si Si8 0.163143 0.243697 0.942592
O O1 0.785347 0.325497 0.458554
O O2 0.719181 0.764954 0.404516
O O3 0.816746 0.749804 0.420797
O O4 0.628909 0.591530 0.150595
O O5 0.941320 0.040280 0.794011
O O6 0.094851 0.725878 0.007173
O O7 0.000000 0.772082 0.000000
O O8 0.830110 0.341913 0.284934
O O9 0.758761 0.939046 0.101860
O O10 0.693393 0.438757 0.989588
O O11 0.857280 0.299515 0.175574
O O12 0.500000 0.776234 0.500000
O O13 0.439370 0.643945 0.549225
O O14 0.460236 0.150672 0.543382
O O15 0.065926 0.494462 0.255776
O O16 0.004145 0.788036 0.268463
O O17 0.585376 0.848933 0.885515
#
# Coordination Sequence:
#
# PCOD9127829 Si02
#       8
#     4   4   4   4   4   4   4   4
#     4  10  25  48  76 108 156 202 258 328 390 474
#     4  10  25  48  71 110 148 200 263 315 394 468
#     4  10  23  44  67 107 142 198 251 313 390 463
#     4  12  26  48  74 107 153 198 255 320 389 472
#     4  10  25  46  71 108 148 199 252 320 394 461
#     4  11  28  45  78 114 149 206 259 317 400 465
#     4  11  26  45  76 106 149 200 255 328 383 478
#     4  10  23  42  74 102 148 193 251 319 388 458
#
# _framework density 26.520354000000001
#
# number of rings (size 3 to 8) (size 9 to 14) (size 15 to 20)
#    0.000    1.500    0.000    1.875   14.000    5.500 
#    0.000    0.000    0.000    0.000    0.000    0.000 
#    0.000    0.000    0.000    0.000    0.000    0.000 
#
# Total GULP energy -89382.269120 kJ/mol
# GULP energy per Si atom -5586.391820 kJ/mol
# Density = 2.645999 g / cm^3
# Si number density = 26.520354 Si / 1000 Ang^3
#
#
#
# Elastic Constant Matrix: (Units=GPa)
#
#
# Indices 1 2 3 4 5 6 
#
# 1 143.1286 34.2854 39.0277 -0.0002 14.6178 -0.0001
# 2 34.2854 55.3714 5.0686 0.0005 -2.3811 -0.0001
# 3 39.0277 5.0686 34.4673 -0.0001 2.6368 0.0000
# 4 -0.0002 0.0005 -0.0001 13.7932 0.0002 1.3008
# 5 14.6178 -2.3811 2.6368 0.0002 46.4207 -0.0001
# 6 -0.0001 -0.0001 0.0000 1.3008 -0.0001 42.8825
#
#
#
# Elastic Compliance Matrix: (Units=1/GPa)
#
#
# Indices 1 2 3 4 5 6 
#
# 1 0.012452 -0.006686 -0.012846 0.000000 -0.003534 0.000000
# 2 -0.006686 0.021952 0.004113 -0.000001 0.002998 0.000000
# 3 -0.012846 0.004113 0.042814 0.000000 0.001824 0.000000
# 4 0.000000 -0.000001 0.000000 0.072707 -0.000001 -0.002206
# 5 -0.003534 0.002998 0.001824 -0.000001 0.022705 0.000000
# 6 0.000000 0.000000 0.000000 -0.002206 0.000000 0.023386
#
#
# Mechanical properties :
#
#
# Convention : Reuss Voigt Hill
#
# Bulk Modulus (GPa) = 21.56060 43.30339 32.43200
# Shear Modulus (GPa) = 20.63423 30.92499 25.77961
#
# Velocity S-wave (km/s) = 2.79239 3.41850 3.12118
# Velocity P-wave (km/s) = 4.30628 5.65202 5.02441
#
# Compressibility (1/GPa) = 0.04638090
#
# Stress axis : x y z
#
# Youngs Moduli (GPa) = 80.30736 45.55323 23.35673
#
# Poissons Ratio (x) = 0.30458 0.30004
# Poissons Ratio (y) = 0.53696 -0.09608
# Poissons Ratio (z) = 1.03163 -0.18738
#
# Static dielectric constant tensor:
#      x y z
#    x 2.060540 0.000000 0.055130 
#    y 0.000000 2.048400 0.000000 
#    z 0.055130 0.000000 2.242920 
# 
# From -- ./inp_files/63751.got.cif
#   From: 2010.05.17/outbox.cif.g08.bks.cpg/sg5_32_cif.got.tgz:63751.got - 2010.06.03 18:56:24.
