data_PCOD9127245
_publ_section_title
;
Structure prediction by ZEFSAII (Michael W. Deem and Ramdas Pophale) SiO2 
 PCOD9127245
Probable space group: C 2
;
_chemical_formula_sum "Si O2"
_cell_formula_units_Z 20
_cell_length_a 6.747774
_cell_length_b 16.052913
_cell_length_c 9.157678
_cell_angle_alpha 90.000000
_cell_angle_beta 51.520756
_cell_angle_gamma 90.000000
_cell_volume 776.549630
_symmetry_space_group_name_H-M "C 2"
_symmetry_group_IT_number 5
_symmetry_cell_setting 'monoclinic'
loop_
_space_group_symop_operation_xyz
x,y,z
-x,y,-z
1/2+x,1/2+y,z
1/2-x,1/2+y,-z
loop_
_atom_site_type_symbol
_atom_site_label
_atom_site_fract_x
_atom_site_fract_y
_atom_site_fract_z
Si Si1 0.000000 0.695530 0.000000
Si Si2 0.595258 0.838028 0.119610
Si Si3 0.264453 0.354360 0.464935
Si Si4 0.696598 0.532583 0.617706
Si Si5 0.904775 0.673486 0.369804
Si Si6 0.500000 0.484484 0.000000
O O1 0.010728 0.646714 0.836710
O O2 0.756675 0.757122 0.094057
O O3 0.500000 0.832441 0.000000
O O4 0.335646 0.842652 0.327889
O O5 0.767497 0.920387 0.072941
O O6 0.400821 0.441908 0.383750
O O7 0.389153 0.271626 0.348614
O O8 0.000000 0.356784 0.500000
O O9 0.684576 0.608464 0.513119
O O10 0.000000 0.520317 0.500000
O O11 0.573952 0.543513 0.831564
O O12 0.000000 0.677880 0.500000
#
# Coordination Sequence:
#
# PCOD9127245 Si02
#       6
#     2   4   4   4   4   2
#     4  11  22  44  72 103 146 194 238 301 372 427
#     4  11  22  39  75 111 137 187 248 300 369 438
#     4  11  19  43  66  92 149 179 226 312 353 408
#     4  10  22  44  72 102 145 189 237 306 357 427
#     4  11  24  44  72 104 143 193 243 299 367 431
#     4  11  20  44  76  99 144 196 234 299 376 425
#
# _framework density 25.754954999999999
#
# number of rings (size 3 to 8) (size 9 to 14) (size 15 to 20)
#    0.000    1.200    6.000    2.400    0.000    0.000 
#   10.800    3.000    0.000    0.000    0.000    0.000 
#    0.000    0.000    0.000    0.000    0.000    0.000 
#
# Total GULP energy -55687.340802 kJ/mol
# GULP energy per Si atom -5568.734080 kJ/mol
# Density = 2.569634 g / cm^3
# Si number density = 25.754955 Si / 1000 Ang^3
#
#
#
# Elastic Constant Matrix: (Units=GPa)
#
#
# Indices 1 2 3 4 5 6 
#
# 1 108.2041 14.9536 15.7614 0.0000 39.9360 0.0000
# 2 14.9536 121.2444 37.1944 0.0000 8.8095 0.0000
# 3 15.7614 37.1944 242.6299 0.0000 44.4176 0.0000
# 4 0.0000 0.0000 0.0000 51.2445 0.0000 5.2865
# 5 39.9360 8.8095 44.4176 0.0000 49.9672 0.0000
# 6 0.0000 0.0000 0.0000 5.2865 0.0000 -7.8150
#
#
#
# Elastic Compliance Matrix: (Units=1/GPa)
#
#
# Indices 1 2 3 4 5 6 
#
# 1 0.013631 -0.001271 0.001508 0.000000 -0.012011 0.000000
# 2 -0.001271 0.008781 -0.001393 0.000000 0.000706 0.000000
# 3 0.001508 -0.001393 0.005270 0.000000 -0.005645 0.000000
# 4 0.000000 0.000000 0.000000 0.018241 0.000000 0.012340
# 5 -0.012011 0.000706 -0.005645 0.000000 0.034506 0.000000
# 6 0.000000 0.000000 0.000000 0.012340 0.000000 -0.119612
#
#
# Mechanical properties :
#
#
# Convention : Reuss Voigt Hill
#
# Bulk Modulus (GPa) = 39.41585 67.54413 53.47999
# Shear Modulus (GPa) = -175.96210 45.62395 -65.16908
#
# Velocity S-wave (km/s) = -8.27466 4.21344 -5.03572
# Velocity P-wave (km/s) = 8.71527 7.06777 3.60572
#
# Compressibility (1/GPa) = 0.02537051
#
# Stress axis : x y z
#
# Youngs Moduli (GPa) = 73.36359 113.88844 189.73788
#
# Poissons Ratio (x) = 0.14476 -0.28616
# Poissons Ratio (y) = 0.09325 0.26424
# Poissons Ratio (z) = -0.11065 0.15861
#
# Static dielectric constant tensor:
#      x y z
#    x 2.374630 0.000000 0.230240 
#    y 0.000000 2.091420 0.000000 
#    z 0.230240 0.000000 2.330870 
# 
# From -- ./inp_files/16014.got.cif
#   From: 2010.05.17/outbox.cif.g08.bks.cpg/sg5_9_cif.got.tgz:16014.got - 2010.06.03 18:56:24.
