data_PCOD9127291
_publ_section_title
;
Structure prediction by ZEFSAII (Michael W. Deem and Ramdas Pophale) SiO2 
 PCOD9127291
Probable space group: C 2
;
_chemical_formula_sum "Si O2"
_cell_formula_units_Z 28
_cell_length_a 11.658098
_cell_length_b 8.664686
_cell_length_c 14.074523
_cell_angle_alpha 90.000000
_cell_angle_beta 113.685652
_cell_angle_gamma 90.000000
_cell_volume 1301.959314
_symmetry_space_group_name_H-M "C 2"
_symmetry_group_IT_number 5
_symmetry_cell_setting 'monoclinic'
loop_
_space_group_symop_operation_xyz
x,y,z
-x,y,-z
1/2+x,1/2+y,z
1/2-x,1/2+y,-z
loop_
_atom_site_type_symbol
_atom_site_label
_atom_site_fract_x
_atom_site_fract_y
_atom_site_fract_z
Si Si1 0.996918 0.430620 0.259381
Si Si2 0.851678 0.209065 0.326578
Si Si3 0.565494 0.282432 0.818769
Si Si4 0.952707 0.949215 0.624435
Si Si5 0.000000 0.699090 0.500000
Si Si6 0.171749 0.431748 0.502653
Si Si7 0.000000 0.670093 0.000000
Si Si8 0.186917 0.459066 0.170824
O O1 0.078840 0.375134 0.196607
O O2 0.876952 0.330610 0.250193
O O3 0.956457 0.607048 0.225755
O O4 0.088586 0.415843 0.381244
O O5 0.837436 0.298803 0.420742
O O6 0.744747 0.087687 0.262554
O O7 0.975603 0.104945 0.369833
O O8 0.461670 0.395784 0.736322
O O9 0.542192 0.269169 0.923230
O O10 0.699765 0.355373 0.832294
O O11 0.817254 0.952168 0.533315
O O12 0.022295 0.809887 0.595293
O O13 0.118098 0.588440 0.529417
O O14 0.885183 0.558063 0.932448
#
# Coordination Sequence:
#
# PCOD9127291 Si02
#       8
#     4   4   4   4   2   4   2   4
#     4  11  23  39  62  91 133 174 218 260 320 380
#     4  11  25  41  61  96 133 175 222 267 317 384
#     4  10  22  48  66  98 133 168 215 279 334 386
#     4  11  27  39  64  93 135 177 222 269 317 381
#     4  12  26  38  58  92 130 182 222 264 314 366
#     4  12  24  38  61  91 131 185 224 258 308 379
#     4  10  22  44  76  98 122 166 216 278 348 394
#     4  10  25  45  70  96 131 167 215 282 332 392
#
# _framework density 21.506049000000001
#
# number of rings (size 3 to 8) (size 9 to 14) (size 15 to 20)
#    0.000    1.143    2.857    1.714    8.000    3.429 
#    0.000    4.286    0.000    1.714    0.000    0.000 
#    0.000    0.000    0.000    0.000    0.000    0.000 
#
# Total GULP energy -78251.130188 kJ/mol
# GULP energy per Si atom -5589.366442 kJ/mol
# Density = 2.145710 g / cm^3
# Si number density = 21.506049 Si / 1000 Ang^3
#
#
#
# Elastic Constant Matrix: (Units=GPa)
#
#
# Indices 1 2 3 4 5 6 
#
# 1 57.9996 25.0233 19.5809 0.0000 -6.8024 0.0000
# 2 25.0233 93.7462 31.2931 0.0000 -6.7158 0.0000
# 3 19.5809 31.2931 105.4949 0.0000 -11.6834 0.0000
# 4 0.0000 0.0000 0.0000 25.5376 0.0000 2.0190
# 5 -6.8024 -6.7158 -11.6834 0.0000 30.5937 0.0000
# 6 0.0000 0.0000 0.0000 2.0190 0.0000 31.8501
#
#
#
# Elastic Compliance Matrix: (Units=1/GPa)
#
#
# Indices 1 2 3 4 5 6 
#
# 1 0.020213 -0.004494 -0.002120 0.000000 0.002698 0.000000
# 2 -0.004494 0.012890 -0.002910 0.000000 0.000719 0.000000
# 3 -0.002120 -0.002910 0.011081 0.000000 0.003122 0.000000
# 4 0.000000 0.000000 0.000000 0.039355 0.000000 -0.002495
# 5 0.002698 0.000719 0.003122 0.000000 0.034636 0.000000
# 6 0.000000 0.000000 0.000000 -0.002495 0.000000 0.031555
#
#
# Mechanical properties :
#
#
# Convention : Reuss Voigt Hill
#
# Bulk Modulus (GPa) = 39.78335 45.44838 42.61587
# Shear Modulus (GPa) = 28.22363 29.68583 28.95473
#
# Velocity S-wave (km/s) = 3.62658 3.71933 3.67325
# Velocity P-wave (km/s) = 6.00624 6.29470 6.15216
#
# Compressibility (1/GPa) = 0.02513614
#
# Stress axis : x y z
#
# Youngs Moduli (GPa) = 49.47405 77.58236 90.24142
#
# Poissons Ratio (x) = 0.34869 0.19128
# Poissons Ratio (y) = 0.22236 0.26257
# Poissons Ratio (z) = 0.10487 0.22573
#
# Static dielectric constant tensor:
#      x y z
#    x 1.811170 0.000000 -0.019610 
#    y 0.000000 1.772260 0.000000 
#    z -0.019610 0.000000 1.825010 
# 
# From -- ./inp_files/52143.got.cif
#   From: 2010.05.17/outbox.cif.g08.bks.cpg/sg5_27_cif.got.tgz:52143.got - 2010.06.03 18:56:24.
