data_PCOD9127006
_publ_section_title
;
Structure prediction by ZEFSAII (Michael W. Deem and Ramdas Pophale) SiO2 
 PCOD9127006
Probable space group: C 2
;
_chemical_formula_sum "Si O2"
_cell_formula_units_Z 30
_cell_length_a 18.511919
_cell_length_b 5.218826
_cell_length_c 14.473862
_cell_angle_alpha 90.000000
_cell_angle_beta 115.652941
_cell_angle_gamma 90.000000
_cell_volume 1260.497792
_symmetry_space_group_name_H-M "C 2"
_symmetry_group_IT_number 5
_symmetry_cell_setting 'monoclinic'
loop_
_space_group_symop_operation_xyz
x,y,z
-x,y,-z
1/2+x,1/2+y,z
1/2-x,1/2+y,-z
loop_
_atom_site_type_symbol
_atom_site_label
_atom_site_fract_x
_atom_site_fract_y
_atom_site_fract_z
Si Si1 0.939287 0.905450 0.152841
Si Si2 0.232554 0.725800 0.930460
Si Si3 0.305264 0.243215 0.620271
Si Si4 0.918246 0.555908 0.826968
Si Si5 0.354046 0.985930 0.469422
Si Si6 0.500000 0.257811 0.500000
Si Si7 0.883216 0.065793 0.920237
Si Si8 0.054710 0.099815 0.356933
O O1 0.856476 0.801038 0.147081
O O2 0.999868 0.668391 0.169950
O O3 0.983847 0.103833 0.244258
O O4 0.917125 0.029895 0.042173
O O5 0.291183 0.648366 0.880715
O O6 0.232095 0.478237 0.998147
O O7 0.349568 0.041671 0.710896
O O8 0.215975 0.302422 0.605251
O O9 0.369063 0.475638 0.653180
O O10 0.303933 0.169442 0.510893
O O11 0.923886 0.292709 0.885281
O O12 0.891795 0.789002 0.879094
O O13 0.414967 0.848086 0.573937
O O14 0.417000 0.106573 0.433739
O O15 0.524485 0.419481 0.423814
#
# Coordination Sequence:
#
# PCOD9127006 Si02
#       8
#     4   4   4   4   4   2   4   4
#     4  10  24  44  69  97 132 187 222 288 340 420
#     4  10  22  43  65  90 130 177 225 273 341 405
#     4  10  23  40  71  98 132 186 222 283 353 413
#     4  11  26  43  67 105 137 177 236 283 343 409
#     4  11  21  44  69  96 138 178 225 293 341 427
#     4  10  24  42  66 102 140 168 234 286 350 408
#     4  11  24  45  66  99 141 176 229 290 338 410
#     4  10  22  45  66 100 133 175 233 274 356 416
#
# _framework density 23.800122000000002
#
# number of rings (size 3 to 8) (size 9 to 14) (size 15 to 20)
#    0.000    1.600    1.333    2.400    3.733    6.400 
#   19.200    0.000    0.000    0.000    0.000    0.000 
#    0.000    0.000    0.000    0.000    0.000    0.000 
#
# Total GULP energy -83893.141243 kJ/mol
# GULP energy per Si atom -5592.876083 kJ/mol
# Density = 2.374595 g / cm^3
# Si number density = 23.800122 Si / 1000 Ang^3
#
#
#
# Elastic Constant Matrix: (Units=GPa)
#
#
# Indices 1 2 3 4 5 6 
#
# 1 160.4086 22.2464 31.3817 0.0000 23.7090 0.0000
# 2 22.2464 87.6781 14.3025 0.0000 -2.7384 0.0000
# 3 31.3817 14.3025 87.3832 0.0000 15.5029 0.0000
# 4 0.0000 0.0000 0.0000 17.2452 0.0000 -7.8297
# 5 23.7090 -2.7384 15.5029 0.0000 28.6176 0.0000
# 6 0.0000 0.0000 0.0000 -7.8297 0.0000 29.7882
#
#
#
# Elastic Compliance Matrix: (Units=1/GPa)
#
#
# Indices 1 2 3 4 5 6 
#
# 1 0.007618 -0.001881 -0.001412 0.000000 -0.005726 0.000000
# 2 -0.001881 0.012333 -0.002023 0.000000 0.003835 0.000000
# 3 -0.001412 -0.002023 0.013396 0.000000 -0.006281 0.000000
# 4 0.000000 0.000000 0.000000 0.065845 0.000000 0.017307
# 5 -0.005726 0.003835 -0.006281 0.000000 0.043457 0.000000
# 6 0.000000 0.000000 0.000000 0.017307 0.000000 0.038119
#
#
# Mechanical properties :
#
#
# Convention : Reuss Voigt Hill
#
# Bulk Modulus (GPa) = 44.02640 52.37012 48.19826
# Shear Modulus (GPa) = 25.12917 32.96614 29.04765
#
# Velocity S-wave (km/s) = 3.25290 3.72576 3.49733
# Velocity P-wave (km/s) = 5.71376 6.36870 6.05010
#
# Compressibility (1/GPa) = 0.02271364
#
# Stress axis : x y z
#
# Youngs Moduli (GPa) = 131.27581 81.08654 74.64701
#
# Poissons Ratio (x) = 0.15255 0.10539
# Poissons Ratio (y) = 0.24697 0.15103
# Poissons Ratio (z) = 0.18534 0.16406
#
# Static dielectric constant tensor:
#      x y z
#    x 1.915520 0.000000 -0.004640 
#    y 0.000000 1.953140 0.000000 
#    z -0.004640 0.000000 1.932780 
# 
# From -- ./inp_files/56561.got.cif
#   From: 2010.05.17/outbox.cif.g08.bks.cpg/sg5_29_cif.got.tgz:56561.got - 2010.06.03 18:56:24.
