data_PCOD9127622
_publ_section_title
;
Structure prediction by ZEFSAII (Michael W. Deem and Ramdas Pophale) SiO2 
 PCOD9127622
Probable space group: C 2
;
_chemical_formula_sum "Si O2"
_cell_formula_units_Z 16
_cell_length_a 13.363792
_cell_length_b 5.073114
_cell_length_c 11.858218
_cell_angle_alpha 90.000000
_cell_angle_beta 129.167281
_cell_angle_gamma 90.000000
_cell_volume 623.299106
_symmetry_space_group_name_H-M "C 2"
_symmetry_group_IT_number 5
_symmetry_cell_setting 'monoclinic'
loop_
_space_group_symop_operation_xyz
x,y,z
-x,y,-z
1/2+x,1/2+y,z
1/2-x,1/2+y,-z
loop_
_atom_site_type_symbol
_atom_site_label
_atom_site_fract_x
_atom_site_fract_y
_atom_site_fract_z
Si Si1 0.534126 0.990840 0.200761
Si Si2 0.263057 0.359297 0.589702
Si Si3 0.797648 0.324589 0.876415
Si Si4 0.357113 0.828579 0.259196
O O1 0.642700 0.835683 0.206921
O O2 0.489005 0.902091 0.291940
O O3 0.597145 0.279854 0.256181
O O4 0.407234 0.942740 0.035012
O O5 0.263770 0.607059 0.508697
O O6 0.162478 0.371926 0.621732
O O7 0.679628 0.528477 0.793031
O O8 0.749502 0.032468 0.867951
#
# Coordination Sequence:
#
# PCOD9127622 Si02
#       4
#     4   4   4   4
#     4  10  23  42  68  94 129 169 203 265 328 368
#     4  11  25  45  63  91 132 173 222 261 299 376
#     4  10  23  40  66 102 129 153 208 267 324 391
#     4  11  23  42  67  96 126 165 211 262 323 382
#
# _framework density 25.669855999999999
#
# number of rings (size 3 to 8) (size 9 to 14) (size 15 to 20)
#    0.000    1.500    0.000    4.500    0.000   17.000 
#    0.000    7.500    0.000    0.000    0.000    0.000 
#    0.000    0.000    0.000    0.000    0.000    0.000 
#
# Total GULP energy -44785.022978 kJ/mol
# GULP energy per Si atom -5598.127872 kJ/mol
# Density = 2.561143 g / cm^3
# Si number density = 25.669856 Si / 1000 Ang^3
#
#
#
# Elastic Constant Matrix: (Units=GPa)
#
#
# Indices 1 2 3 4 5 6 
#
# 1 209.5875 39.4927 23.3605 0.0000 -37.4033 0.0000
# 2 39.4927 123.9551 22.9164 0.0000 -7.5437 0.0000
# 3 23.3605 22.9164 111.2811 0.0000 -23.1803 0.0000
# 4 0.0000 0.0000 0.0000 26.3811 0.0000 12.6120
# 5 -37.4033 -7.5437 -23.1803 0.0000 41.2553 0.0000
# 6 0.0000 0.0000 0.0000 12.6120 0.0000 36.4743
#
#
#
# Elastic Compliance Matrix: (Units=1/GPa)
#
#
# Indices 1 2 3 4 5 6 
#
# 1 0.005991 -0.001621 0.000165 0.000000 0.005228 0.000000
# 2 -0.001621 0.008840 -0.001642 0.000000 -0.000776 0.000000
# 3 0.000165 -0.001642 0.010486 0.000000 0.005741 0.000000
# 4 0.000000 0.000000 0.000000 0.045413 0.000000 -0.015703
# 5 0.005228 -0.000776 0.005741 0.000000 0.032063 0.000000
# 6 0.000000 0.000000 0.000000 -0.015703 0.000000 0.032846
#
#
# Mechanical properties :
#
#
# Convention : Reuss Voigt Hill
#
# Bulk Modulus (GPa) = 52.29670 68.48477 60.39073
# Shear Modulus (GPa) = 33.73604 44.75907 39.24755
#
# Velocity S-wave (km/s) = 3.62916 4.18023 3.91440
# Velocity P-wave (km/s) = 6.16264 7.07361 6.63378
#
# Compressibility (1/GPa) = 0.01912167
#
# Stress axis : x y z
#
# Youngs Moduli (GPa) = 166.90536 113.11849 95.36904
#
# Poissons Ratio (x) = 0.18339 -0.01576
# Poissons Ratio (y) = 0.27060 0.15658
# Poissons Ratio (z) = -0.02758 0.18572
#
# Static dielectric constant tensor:
#      x y z
#    x 1.961820 0.000000 0.000330 
#    y 0.000000 1.962770 0.000000 
#    z 0.000330 0.000000 2.152170 
# 
# From -- ./inp_files/37804.got.cif
#   From: 2010.05.17/outbox.cif.g08.bks.cpg/sg5_19_cif.got.tgz:37804.got - 2010.06.03 18:56:24.
