data_PCOD9127944
_publ_section_title
;
Structure prediction by ZEFSAII (Michael W. Deem and Ramdas Pophale) SiO2 
 PCOD9127944
Probable space group: C 2
;
_chemical_formula_sum "Si O2"
_cell_formula_units_Z 28
_cell_length_a 18.900473
_cell_length_b 14.470778
_cell_length_c 8.253460
_cell_angle_alpha 90.000000
_cell_angle_beta 33.164083
_cell_angle_gamma 90.000000
_cell_volume 1234.862368
_symmetry_space_group_name_H-M "C 2"
_symmetry_group_IT_number 5
_symmetry_cell_setting 'monoclinic'
loop_
_space_group_symop_operation_xyz
x,y,z
-x,y,-z
1/2+x,1/2+y,z
1/2-x,1/2+y,-z
loop_
_atom_site_type_symbol
_atom_site_label
_atom_site_fract_x
_atom_site_fract_y
_atom_site_fract_z
Si Si1 0.880110 0.480530 0.837409
Si Si2 0.140155 0.577579 0.790362
Si Si3 0.140555 0.262495 0.161663
Si Si4 0.509620 0.666784 0.169354
Si Si5 0.105053 0.987949 0.422938
Si Si6 0.652202 0.432231 0.678048
Si Si7 0.738035 0.765468 0.316981
O O1 0.875404 0.370303 0.840379
O O2 0.000000 0.513027 0.500000
O O3 0.896833 0.514217 0.986389
O O4 0.734449 0.513664 0.075112
O O5 0.245664 0.516384 0.490076
O O6 0.207764 0.670592 0.717552
O O7 0.000000 0.605238 0.000000
O O8 0.244460 0.259614 0.108144
O O9 0.000000 0.229548 0.500000
O O10 0.144509 0.201139 0.990867
O O11 0.453523 0.578907 0.376817
O O12 0.415440 0.756985 0.357162
O O13 0.500000 0.642057 0.000000
O O14 0.148930 0.921396 0.486889
O O15 0.000000 0.949784 0.500000
O O16 0.700110 0.350139 0.704020
O O17 0.500000 0.446241 0.000000
#
# Coordination Sequence:
#
# PCOD9127944 Si02
#       7
#     4   4   4   4   4   4   4
#     4  10  23  44  68 103 134 188 240 289 363 416
#     4  11  26  45  72 102 145 188 240 299 353 439
#     4   9  22  40  71 100 138 190 238 296 347 435
#     4  11  23  41  73 106 143 188 242 296 363 431
#     4  11  24  44  71 106 142 184 248 303 352 432
#     4  11  26  44  73 106 143 191 238 296 370 421
#     4  11  23  46  68 104 151 184 236 301 364 426
#
# _framework density 22.674589999999998
#
# number of rings (size 3 to 8) (size 9 to 14) (size 15 to 20)
#    0.000    1.429    2.857    2.143   12.000    0.000 
#    0.000    0.000    6.286    0.000    0.000    0.000 
#    0.000    0.000    0.000    0.000    0.000    0.000 
#
# Total GULP energy -78011.694888 kJ/mol
# GULP energy per Si atom -5572.263921 kJ/mol
# Density = 2.262298 g / cm^3
# Si number density = 22.674590 Si / 1000 Ang^3
#
#
#
# Elastic Constant Matrix: (Units=GPa)
#
#
# Indices 1 2 3 4 5 6 
#
# 1 163.8413 62.7641 26.3216 0.0000 -10.1820 0.0000
# 2 62.7641 109.5784 7.4453 0.0000 13.2154 0.0000
# 3 26.3216 7.4453 95.0028 0.0000 3.2289 0.0000
# 4 0.0000 0.0000 0.0000 36.4328 0.0000 7.7649
# 5 -10.1820 13.2154 3.2289 0.0000 23.5033 0.0000
# 6 0.0000 0.0000 0.0000 7.7649 0.0000 40.6567
#
#
#
# Elastic Compliance Matrix: (Units=1/GPa)
#
#
# Indices 1 2 3 4 5 6 
#
# 1 0.009309 -0.006111 -0.002365 0.000000 0.007794 0.000000
# 2 -0.006111 0.013834 0.000968 0.000000 -0.010559 0.000000
# 3 -0.002365 0.000968 0.011211 0.000000 -0.003109 0.000000
# 4 0.000000 0.000000 0.000000 0.028612 0.000000 -0.005465
# 5 0.007794 -0.010559 -0.003109 0.000000 0.052288 0.000000
# 6 0.000000 0.000000 0.000000 -0.005465 0.000000 0.025640
#
#
# Mechanical properties :
#
#
# Convention : Reuss Voigt Hill
#
# Bulk Modulus (GPa) = 51.71408 62.38718 57.05063
# Shear Modulus (GPa) = 30.79646 38.24466 34.52056
#
# Velocity S-wave (km/s) = 3.68936 4.11137 3.90607
# Velocity P-wave (km/s) = 6.40352 7.07896 6.74970
#
# Compressibility (1/GPa) = 0.01933709
#
# Stress axis : x y z
#
# Youngs Moduli (GPa) = 107.42506 72.28639 89.19741
#
# Poissons Ratio (x) = 0.44175 0.21096
# Poissons Ratio (y) = 0.65649 -0.08633
# Poissons Ratio (z) = 0.25407 -0.06996
#
# Static dielectric constant tensor:
#      x y z
#    x 1.860230 0.000000 0.103850 
#    y 0.000000 1.826220 0.000000 
#    z 0.103850 0.000000 1.983360 
# 
# From -- ./inp_files/29898.got.cif
#   From: 2010.05.17/outbox.cif.g08.bks.cpg/sg5_15_cif.got.tgz:29898.got - 2010.06.03 18:56:24.
