data_PCOD9127140
_publ_section_title
;
Structure prediction by ZEFSAII (Michael W. Deem and Ramdas Pophale) SiO2 
 PCOD9127140
Probable space group: C 2
;
_chemical_formula_sum "Si O2"
_cell_formula_units_Z 30
_cell_length_a 18.752243
_cell_length_b 13.466592
_cell_length_c 12.138710
_cell_angle_alpha 90.000000
_cell_angle_beta 152.297521
_cell_angle_gamma 90.000000
_cell_volume 1425.032119
_symmetry_space_group_name_H-M "C 2"
_symmetry_group_IT_number 5
_symmetry_cell_setting 'monoclinic'
loop_
_space_group_symop_operation_xyz
x,y,z
-x,y,-z
1/2+x,1/2+y,z
1/2-x,1/2+y,-z
loop_
_atom_site_type_symbol
_atom_site_label
_atom_site_fract_x
_atom_site_fract_y
_atom_site_fract_z
Si Si1 0.855435 0.040710 0.914603
Si Si2 0.680705 0.851336 0.716953
Si Si3 0.000000 0.022720 0.500000
Si Si4 0.452706 0.022652 0.131909
Si Si5 0.862441 0.640530 0.229507
Si Si6 0.701776 0.574035 0.394999
Si Si7 0.232149 0.866043 0.913870
Si Si8 0.267658 0.642763 0.324507
O O1 0.790050 0.087633 0.935704
O O2 0.816158 0.112041 0.756015
O O3 0.752009 0.944266 0.750516
O O4 0.036050 0.019222 0.175320
O O5 0.500000 0.854708 0.500000
O O6 0.731213 0.752226 0.724283
O O7 0.754518 0.858706 0.937719
O O8 0.114090 0.949806 0.717518
O O9 0.085594 0.090206 0.529203
O O10 0.406637 0.097047 0.170537
O O11 0.635750 0.018551 0.373270
O O12 0.371041 0.074805 0.914621
O O13 0.386070 0.913268 0.070222
O O14 0.826646 0.756683 0.196140
O O15 0.000000 0.612326 0.500000
O O16 0.713675 0.644497 0.518165
#
# Coordination Sequence:
#
# PCOD9127140 Si02
#       8
#     4   4   2   4   4   4   4   4
#     4  11  25  45  70  99 141 187 230 282 344 416
#     4  12  23  40  70 112 132 175 237 294 336 406
#     4  10  22  44  66 102 134 184 224 298 330 412
#     4  11  23  45  70 100 141 182 226 292 345 411
#     4  12  22  43  74 103 133 180 240 288 338 409
#     4  11  25  47  64  96 144 191 218 277 358 409
#     4  11  23  39  71 105 133 173 238 285 345 396
#     4  11  24  41  71 100 143 177 231 283 356 403
#
# _framework density 21.052157000000001
#
# number of rings (size 3 to 8) (size 9 to 14) (size 15 to 20)
#    0.000    0.800    5.333    2.400    3.733    0.000 
#    4.800    2.667    5.867    0.000    0.000    0.000 
#    0.000    0.000    0.000    0.000    0.000    0.000 
#
# Total GULP energy -83664.592016 kJ/mol
# GULP energy per Si atom -5577.639468 kJ/mol
# Density = 2.100424 g / cm^3
# Si number density = 21.052157 Si / 1000 Ang^3
#
#
#
# Elastic Constant Matrix: (Units=GPa)
#
#
# Indices 1 2 3 4 5 6 
#
# 1 93.2234 21.9882 45.9271 0.0000 -5.0415 0.0000
# 2 21.9882 84.0838 2.5532 0.0000 -6.1577 0.0000
# 3 45.9271 2.5532 97.4726 0.0000 0.7315 0.0000
# 4 0.0000 0.0000 0.0000 11.4689 0.0000 -7.2658
# 5 -5.0415 -6.1577 0.7315 0.0000 40.8632 0.0000
# 6 0.0000 0.0000 0.0000 -7.2658 0.0000 -26.7673
#
#
#
# Elastic Compliance Matrix: (Units=1/GPa)
#
#
# Indices 1 2 3 4 5 6 
#
# 1 0.015135 -0.003638 -0.007047 0.000000 0.001445 0.000000
# 2 -0.003638 0.012911 0.001365 0.000000 0.001472 0.000000
# 3 -0.007047 0.001365 0.013551 0.000000 -0.000906 0.000000
# 4 0.000000 0.000000 0.000000 0.074398 0.000000 -0.020195
# 5 0.001445 0.001472 -0.000906 0.000000 0.024888 0.000000
# 6 0.000000 0.000000 0.000000 -0.020195 0.000000 -0.031877
#
#
# Mechanical properties :
#
#
# Convention : Reuss Voigt Hill
#
# Bulk Modulus (GPa) = 43.56087 46.19075 44.87581
# Shear Modulus (GPa) = 36.95574 18.73372 27.84473
#
# Velocity S-wave (km/s) = 4.19434 2.98631 3.64078
# Velocity P-wave (km/s) = 6.64781 5.82061 6.24791
#
# Compressibility (1/GPa) = 0.02295638
#
# Stress axis : x y z
#
# Youngs Moduli (GPa) = 66.07299 77.45560 73.79733
#
# Poissons Ratio (x) = 0.28178 0.52003
# Poissons Ratio (y) = 0.24037 -0.10073
# Poissons Ratio (z) = 0.46560 -0.10572
#
# Static dielectric constant tensor:
#      x y z
#    x 1.859790 0.000000 0.065100 
#    y 0.000000 1.779590 0.000000 
#    z 0.065100 0.000000 1.835140 
# 
# From -- ./inp_files/44910.got.cif
#   From: 2010.05.17/outbox.cif.g08.bks.cpg/sg5_23_cif.got.tgz:44910.got - 2010.06.03 18:56:24.
