data_PCOD9127835
_publ_section_title
;
Structure prediction by ZEFSAII (Michael W. Deem and Ramdas Pophale) SiO2 
 PCOD9127835
Probable space group: C 2
;
_chemical_formula_sum "Si O2"
_cell_formula_units_Z 20
_cell_length_a 15.583946
_cell_length_b 10.222688
_cell_length_c 18.794751
_cell_angle_alpha 90.000000
_cell_angle_beta 159.110054
_cell_angle_gamma 90.000000
_cell_volume 1067.649911
_symmetry_space_group_name_H-M "C 2"
_symmetry_group_IT_number 5
_symmetry_cell_setting 'monoclinic'
loop_
_space_group_symop_operation_xyz
x,y,z
-x,y,-z
1/2+x,1/2+y,z
1/2-x,1/2+y,-z
loop_
_atom_site_type_symbol
_atom_site_label
_atom_site_fract_x
_atom_site_fract_y
_atom_site_fract_z
Si Si1 0.625975 0.473450 0.290170
Si Si2 0.580063 0.053279 0.347895
Si Si3 0.583631 0.951089 0.915149
Si Si4 0.756404 0.183327 0.354660
Si Si5 0.058250 0.176423 0.963352
O O1 0.822946 0.508503 0.501793
O O2 0.678958 0.333721 0.295733
O O3 0.598477 0.583709 0.208956
O O4 0.369128 0.466221 0.131263
O O5 0.769650 0.136816 0.447721
O O6 0.509263 0.935783 0.238821
O O7 0.337241 0.138272 0.166194
O O8 0.518542 0.826385 0.910897
O O9 0.449794 0.084703 0.834182
O O10 0.000000 0.165127 0.500000
O O11 0.000000 0.153865 0.000000
#
# Coordination Sequence:
#
# PCOD9127835 Si02
#       5
#     4   4   4   4   4
#     4  11  21  43  69  90 136 171 220 271 326 391
#     4   9  23  40  67  95 126 175 215 275 323 387
#     4   9  21  44  64  88 132 167 222 262 326 388
#     4  10  23  43  63 100 126 168 222 263 332 383
#     4  11  24  41  64  98 130 175 222 266 327 390
#
# _framework density 18.732734000000001
#
# number of rings (size 3 to 8) (size 9 to 14) (size 15 to 20)
#    1.200    0.800    2.000    0.000    5.600    1.600 
#    3.600    1.000    0.000    0.000    0.000    0.000 
#    0.000    0.000    0.000    0.000    0.000    0.000 
#
# Total GULP energy -55716.246316 kJ/mol
# GULP energy per Si atom -5571.624632 kJ/mol
# Density = 1.869010 g / cm^3
# Si number density = 18.732734 Si / 1000 Ang^3
#
#
#
# Elastic Constant Matrix: (Units=GPa)
#
#
# Indices 1 2 3 4 5 6 
#
# 1 76.1165 10.8092 24.8038 -0.0002 14.6173 0.0027
# 2 10.8092 81.6755 25.5968 0.0064 -0.9551 -0.0003
# 3 24.8038 25.5968 79.8611 0.0056 -8.8217 -0.0006
# 4 -0.0002 0.0064 0.0056 13.2038 0.0019 0.7864
# 5 14.6173 -0.9551 -8.8217 0.0019 32.0358 0.0001
# 6 0.0027 -0.0003 -0.0006 0.7864 0.0001 11.7772
#
#
#
# Elastic Compliance Matrix: (Units=1/GPa)
#
#
# Indices 1 2 3 4 5 6 
#
# 1 0.017045 -0.000421 -0.006208 0.000005 -0.009499 -0.000004
# 2 -0.000421 0.013642 -0.004307 -0.000005 -0.000587 0.000001
# 3 -0.006208 -0.004307 0.016635 -0.000006 0.007285 0.000003
# 4 0.000005 -0.000005 -0.000006 0.076038 -0.000008 -0.005077
# 5 -0.009499 -0.000587 0.007285 -0.000008 0.037538 0.000003
# 6 -0.000004 0.000001 0.000003 -0.005077 0.000003 0.085249
#
#
# Mechanical properties :
#
#
# Convention : Reuss Voigt Hill
#
# Bulk Modulus (GPa) = 39.29272 40.00805 39.65039
# Shear Modulus (GPa) = 18.08304 23.16626 20.62465
#
# Velocity S-wave (km/s) = 3.11033 3.52045 3.32172
# Velocity P-wave (km/s) = 5.82407 6.15861 5.99367
#
# Compressibility (1/GPa) = 0.02545000
#
# Stress axis : x y z
#
# Youngs Moduli (GPa) = 58.66863 73.30245 60.11428
#
# Poissons Ratio (x) = 0.03088 0.37320
# Poissons Ratio (y) = 0.02471 0.25888
# Poissons Ratio (z) = 0.36423 0.31568
#
# Static dielectric constant tensor:
#      x y z
#    x 1.641980 0.000000 -0.000980 
#    y 0.000000 1.642190 0.000000 
#    z -0.000980 0.000000 1.646960 
# 
# From -- ./inp_files/55876.got.cif
#   From: 2010.05.17/outbox.cif.g08.bks.cpg/sg5_28_cif.got.tgz:55876.got - 2010.06.03 18:56:24.
