data_PCOD9127693
_publ_section_title
;
Structure prediction by ZEFSAII (Michael W. Deem and Ramdas Pophale) SiO2 
 PCOD9127693
Probable space group: C 2
;
_chemical_formula_sum "Si O2"
_cell_formula_units_Z 22
_cell_length_a 13.268183
_cell_length_b 4.786160
_cell_length_c 13.949105
_cell_angle_alpha 90.000000
_cell_angle_beta 116.861475
_cell_angle_gamma 90.000000
_cell_volume 790.240526
_symmetry_space_group_name_H-M "C 2"
_symmetry_group_IT_number 5
_symmetry_cell_setting 'monoclinic'
loop_
_space_group_symop_operation_xyz
x,y,z
-x,y,-z
1/2+x,1/2+y,z
1/2-x,1/2+y,-z
loop_
_atom_site_type_symbol
_atom_site_label
_atom_site_fract_x
_atom_site_fract_y
_atom_site_fract_z
Si Si1 0.615615 0.487920 0.224604
Si Si2 0.362031 0.013289 0.257056
Si Si3 0.318004 0.153934 0.906825
Si Si4 0.375550 0.481085 0.111808
Si Si5 0.000000 0.622943 0.500000
Si Si6 0.322602 0.479457 0.534531
O O1 0.738819 0.611690 0.244963
O O2 0.626616 0.195406 0.170927
O O3 0.499612 0.643250 0.155276
O O4 0.624458 0.449380 0.340054
O O5 0.409230 0.241366 0.206063
O O6 0.445419 0.963899 0.383347
O O7 0.319815 0.744811 0.172491
O O8 0.270541 0.899516 0.945034
O O9 0.380503 0.352092 0.005224
O O10 0.900872 0.833436 0.490882
O O11 0.292863 0.801005 0.507682
#
# Coordination Sequence:
#
# PCOD9127693 Si02
#       6
#     4   4   4   4   2   4
#     4  10  24  43  64 101 132 176 232 281 348 420
#     4  10  24  44  63 102 132 175 231 277 351 419
#     4  10  23  41  67  97 130 173 229 277 344 426
#     4  12  21  45  66  95 138 176 220 292 348 407
#     4  12  24  48  70 102 142 186 238 298 354 424
#     4  12  27  46  71 103 142 189 242 298 355 427
#
# _framework density 27.839625999999999
#
# number of rings (size 3 to 8) (size 9 to 14) (size 15 to 20)
#    1.091    0.000    5.455    0.545    2.545    2.182 
#    3.273    0.000    0.000    0.000    0.000    0.000 
#    0.000    0.000    0.000    0.000    0.000    0.000 
#
# Total GULP energy -61257.755612 kJ/mol
# GULP energy per Si atom -5568.886874 kJ/mol
# Density = 2.777626 g / cm^3
# Si number density = 27.839626 Si / 1000 Ang^3
#
#
#
# Elastic Constant Matrix: (Units=GPa)
#
#
# Indices 1 2 3 4 5 6 
#
# 1 332.0916 29.3291 85.2542 0.0002 -47.2287 0.0001
# 2 29.3291 80.0842 19.1301 -0.0001 -9.8920 0.0001
# 3 85.2542 19.1301 169.9625 0.0002 -26.0002 0.0000
# 4 0.0002 -0.0001 0.0002 -6.0062 0.0000 -8.0418
# 5 -47.2287 -9.8920 -26.0002 0.0000 74.0445 -0.0001
# 6 0.0001 0.0001 0.0000 -8.0418 -0.0001 37.3712
#
#
#
# Elastic Compliance Matrix: (Units=1/GPa)
#
#
# Indices 1 2 3 4 5 6 
#
# 1 0.003715 -0.000786 -0.001510 0.000000 0.001734 0.000000
# 2 -0.000786 0.013113 -0.000941 0.000000 0.000920 0.000000
# 3 -0.001510 -0.000941 0.006954 0.000000 0.001353 0.000000
# 4 0.000000 0.000000 0.000000 -0.129254 0.000000 -0.027814
# 5 0.001734 0.000920 0.001353 0.000000 0.015210 0.000000
# 6 0.000000 0.000000 0.000000 -0.027814 0.000000 0.020773
#
#
# Mechanical properties :
#
#
# Convention : Reuss Voigt Hill
#
# Bulk Modulus (GPa) = 57.77337 94.39612 76.08474
# Shear Modulus (GPa) = -87.34155 50.97688 -18.18233
#
# Velocity S-wave (km/s) = -5.60725 4.28377 -2.55837
# Velocity P-wave (km/s) = 4.59612 7.64515 4.31995
#
# Compressibility (1/GPa) = 0.01730901
#
# Stress axis : x y z
#
# Youngs Moduli (GPa) = 269.19275 76.25995 143.80606
#
# Poissons Ratio (x) = 0.05991 0.21709
# Poissons Ratio (y) = 0.21148 0.13533
# Poissons Ratio (z) = 0.40638 0.07177
#
# Static dielectric constant tensor:
#      x y z
#    x 2.276710 0.000000 0.107280 
#    y 0.000000 1.852560 0.000000 
#    z 0.107280 0.000000 2.120600 
# 
# From -- ./inp_files/53900.got.cif
#   From: 2010.05.17/outbox.cif.g08.bks.cpg/sg5_27_cif.got.tgz:53900.got - 2010.06.03 18:56:24.
