data_PCOD9127141
_publ_section_title
;
Structure prediction by ZEFSAII (Michael W. Deem and Ramdas Pophale) SiO2 
 PCOD9127141
Probable space group: C 2
;
_chemical_formula_sum "Si O2"
_cell_formula_units_Z 24
_cell_length_a 13.087028
_cell_length_b 11.277259
_cell_length_c 13.751149
_cell_angle_alpha 90.000000
_cell_angle_beta 148.483482
_cell_angle_gamma 90.000000
_cell_volume 1060.896276
_symmetry_space_group_name_H-M "C 2"
_symmetry_group_IT_number 5
_symmetry_cell_setting 'monoclinic'
loop_
_space_group_symop_operation_xyz
x,y,z
-x,y,-z
1/2+x,1/2+y,z
1/2-x,1/2+y,-z
loop_
_atom_site_type_symbol
_atom_site_label
_atom_site_fract_x
_atom_site_fract_y
_atom_site_fract_z
Si Si1 0.399657 0.146090 0.114314
Si Si2 0.390371 0.926164 0.998263
Si Si3 0.779330 0.954514 0.788030
Si Si4 0.183855 0.230451 0.585163
Si Si5 0.057886 0.317376 0.773463
Si Si6 0.351226 0.212125 0.294250
O O1 0.616730 0.158344 0.247169
O O2 0.427977 0.162198 0.252581
O O3 0.255552 0.248535 0.961426
O O4 0.295503 0.027029 0.989188
O O5 0.271342 0.824860 0.844425
O O6 0.500000 0.989724 0.000000
O O7 0.520524 0.864147 0.187407
O O8 0.733298 0.863633 0.663489
O O9 0.631224 0.912360 0.753162
O O10 0.757652 0.094793 0.751648
O O11 0.000000 0.932942 0.000000
O O12 0.000000 0.186161 0.500000
O O13 0.101863 0.239056 0.410058
O O14 0.500000 0.247541 0.500000
#
# Coordination Sequence:
#
# PCOD9127141 Si02
#       6
#     4   4   4   4   4   4
#     4  11  24  46  71  96 142 184 228 292 341 404
#     4  11  26  44  66  96 148 179 223 288 354 402
#     4  11  20  41  75 100 131 179 235 289 332 404
#     4  10  23  39  74 104 128 176 248 283 329 407
#     4  10  22  44  66 105 128 181 233 288 333 418
#     4  11  25  47  69 104 141 184 229 280 351 422
#
# _framework density 22.622381000000001
#
# number of rings (size 3 to 8) (size 9 to 14) (size 15 to 20)
#    0.000    1.333    3.333    2.000    7.000    0.000 
#    3.000    0.000    0.000    0.000    0.000    0.000 
#    0.000    0.000    0.000    0.000    0.000    0.000 
#
# Total GULP energy -66883.355104 kJ/mol
# GULP energy per Si atom -5573.612925 kJ/mol
# Density = 2.257089 g / cm^3
# Si number density = 22.622381 Si / 1000 Ang^3
#
#
#
# Elastic Constant Matrix: (Units=GPa)
#
#
# Indices 1 2 3 4 5 6 
#
# 1 59.5643 17.2239 36.1713 -0.0003 -21.8138 -0.0002
# 2 17.2239 60.1890 23.1564 -0.0001 -12.3339 0.0000
# 3 36.1713 23.1564 133.9093 -0.0004 -24.9711 -0.0003
# 4 -0.0003 -0.0001 -0.0004 28.2743 -0.0003 -9.3323
# 5 -21.8138 -12.3339 -24.9711 -0.0003 45.3419 -0.0002
# 6 -0.0002 0.0000 -0.0003 -9.3323 -0.0002 18.8971
#
#
#
# Elastic Compliance Matrix: (Units=1/GPa)
#
#
# Indices 1 2 3 4 5 6 
#
# 1 0.023234 -0.003404 -0.004208 0.000000 0.007934 0.000000
# 2 -0.003404 0.018812 -0.001878 0.000000 0.002446 0.000000
# 3 -0.004208 -0.001878 0.009424 0.000000 0.002655 0.000000
# 4 0.000000 0.000000 0.000000 0.042255 0.000001 0.020868
# 5 0.007934 0.002446 0.002655 0.000001 0.027999 0.000001
# 6 0.000000 0.000000 0.000000 0.020868 0.000001 0.063224
#
#
# Mechanical properties :
#
#
# Convention : Reuss Voigt Hill
#
# Bulk Modulus (GPa) = 30.77725 45.19621 37.98673
# Shear Modulus (GPa) = 23.28209 30.31004 26.79607
#
# Velocity S-wave (km/s) = 3.21154 3.66433 3.44538
# Velocity P-wave (km/s) = 5.23319 6.15833 5.71451
#
# Compressibility (1/GPa) = 0.03249153
#
# Stress axis : x y z
#
# Youngs Moduli (GPa) = 43.04068 53.15779 106.11098
#
# Poissons Ratio (x) = 0.18095 0.44648
# Poissons Ratio (y) = 0.14651 0.19923
# Poissons Ratio (z) = 0.18110 0.09981
#
# Static dielectric constant tensor:
#      x y z
#    x 1.896260 0.000000 0.002750 
#    y 0.000000 1.923790 0.000000 
#    z 0.002750 0.000000 1.823050 
# 
# From -- ./inp_files/54497.got.cif
#   From: 2010.05.17/outbox.cif.g08.bks.cpg/sg5_28_cif.got.tgz:54497.got - 2010.06.03 18:56:24.
