data_PCOD9127323
_publ_section_title
;
Structure prediction by ZEFSAII (Michael W. Deem and Ramdas Pophale) SiO2 
 PCOD9127323
Probable space group: C 2
;
_chemical_formula_sum "Si O2"
_cell_formula_units_Z 24
_cell_length_a 8.492214
_cell_length_b 7.345947
_cell_length_c 14.844134
_cell_angle_alpha 90.000000
_cell_angle_beta 100.487523
_cell_angle_gamma 90.000000
_cell_volume 910.557187
_symmetry_space_group_name_H-M "C 2"
_symmetry_group_IT_number 5
_symmetry_cell_setting 'monoclinic'
loop_
_space_group_symop_operation_xyz
x,y,z
-x,y,-z
1/2+x,1/2+y,z
1/2-x,1/2+y,-z
loop_
_atom_site_type_symbol
_atom_site_label
_atom_site_fract_x
_atom_site_fract_y
_atom_site_fract_z
Si Si1 0.883650 0.030520 0.611977
Si Si2 0.132910 0.609986 0.444062
Si Si3 0.735525 0.552366 0.719709
Si Si4 0.888209 0.945599 0.111018
Si Si5 0.871963 0.540598 0.052517
Si Si6 0.279087 0.453073 0.785405
O O1 0.797942 0.116922 0.517598
O O2 0.058800 0.093143 0.660690
O O3 0.905219 0.816364 0.589512
O O4 0.764843 0.045279 0.686286
O O5 0.158862 0.495555 0.355175
O O6 0.000000 0.541563 0.500000
O O7 0.709148 0.429928 0.804830
O O8 0.803644 0.741357 0.764522
O O9 0.919933 0.746452 0.076787
O O10 0.057905 0.030448 0.154347
O O11 0.788066 0.045771 0.024313
O O12 0.850036 0.458762 0.149224
O O13 0.000000 0.448947 0.000000
#
# Coordination Sequence:
#
# PCOD9127323 Si02
#       6
#     4   4   4   4   4   4
#     4  10  24  42  66  95 131 172 213 264 320 379
#     4  11  23  41  66  98 132 169 214 267 319 376
#     4  10  22  45  68  92 131 173 213 263 321 379
#     4  11  24  44  66  95 133 169 214 266 319 382
#     4  12  25  41  67  98 128 168 214 266 324 381
#     4  10  24  45  65  94 131 169 216 266 317 381
#
# _framework density 26.357488
#
# number of rings (size 3 to 8) (size 9 to 14) (size 15 to 20)
#    0.000    1.333    0.000    5.000    0.000   13.333 
#    0.000    4.167    0.000    0.000    0.000    0.000 
#    0.000    0.000    0.000    0.000    0.000    0.000 
#
# Total GULP energy -67221.549198 kJ/mol
# GULP energy per Si atom -5601.795767 kJ/mol
# Density = 2.629750 g / cm^3
# Si number density = 26.357488 Si / 1000 Ang^3
#
#
#
# Elastic Constant Matrix: (Units=GPa)
#
#
# Indices 1 2 3 4 5 6 
#
# 1 81.6298 8.1144 66.5945 0.0000 -31.2581 0.0000
# 2 8.1144 25.1416 25.6086 0.0000 -3.9809 0.0000
# 3 66.5945 25.6086 212.1370 0.0000 -49.7128 0.0000
# 4 0.0000 0.0000 0.0000 39.3202 0.0000 -0.1599
# 5 -31.2581 -3.9809 -49.7128 0.0000 86.4656 0.0000
# 6 0.0000 0.0000 0.0000 -0.1599 0.0000 24.8678
#
#
#
# Elastic Compliance Matrix: (Units=1/GPa)
#
#
# Indices 1 2 3 4 5 6 
#
# 1 0.017410 -0.000394 -0.004562 0.000000 0.003653 0.000000
# 2 -0.000394 0.045472 -0.005673 0.000000 -0.001310 0.000000
# 3 -0.004562 -0.005673 0.007377 0.000000 0.002331 0.000000
# 4 0.000000 0.000000 0.000000 0.025433 0.000000 0.000164
# 5 0.003653 -0.001310 0.002331 0.000000 0.014166 0.000000
# 6 0.000000 0.000000 0.000000 0.000164 0.000000 0.040214
#
#
# Mechanical properties :
#
#
# Convention : Reuss Voigt Hill
#
# Bulk Modulus (GPa) = 20.40719 57.72705 39.06712
# Shear Modulus (GPa) = 26.64351 44.70345 35.67348
#
# Velocity S-wave (km/s) = 3.18284 4.12277 3.68291
# Velocity P-wave (km/s) = 4.61157 6.67923 5.73928
#
# Compressibility (1/GPa) = 0.04900234
#
# Stress axis : x y z
#
# Youngs Moduli (GPa) = 57.43846 21.99135 135.55599
#
# Poissons Ratio (x) = 0.00867 0.61837
# Poissons Ratio (y) = 0.02264 0.76896
# Poissons Ratio (z) = 0.26202 0.12475
#
# Static dielectric constant tensor:
#      x y z
#    x 2.115170 0.000000 -0.064660 
#    y 0.000000 1.999330 0.000000 
#    z -0.064660 0.000000 2.009000 
# 
# From -- ./inp_files/49928.got.cif
#   From: 2010.05.17/outbox.cif.g08.bks.cpg/sg5_25_cif.got.tgz:49928.got - 2010.06.03 18:56:24.
