data_PCOD9127138
_publ_section_title
;
Structure prediction by ZEFSAII (Michael W. Deem and Ramdas Pophale) SiO2 
 PCOD9127138
Probable space group: C 2
;
_chemical_formula_sum "Si O2"
_cell_formula_units_Z 20
_cell_length_a 13.657150
_cell_length_b 5.928274
_cell_length_c 19.460198
_cell_angle_alpha 90.000000
_cell_angle_beta 32.822742
_cell_angle_gamma 90.000000
_cell_volume 854.020680
_symmetry_space_group_name_H-M "C 2"
_symmetry_group_IT_number 5
_symmetry_cell_setting 'monoclinic'
loop_
_space_group_symop_operation_xyz
x,y,z
-x,y,-z
1/2+x,1/2+y,z
1/2-x,1/2+y,-z
loop_
_atom_site_type_symbol
_atom_site_label
_atom_site_fract_x
_atom_site_fract_y
_atom_site_fract_z
Si Si1 0.194164 0.890070 0.773911
Si Si2 0.777124 0.580097 0.449238
Si Si3 0.000000 0.214180 0.500000
Si Si4 0.562654 0.104517 0.176870
Si Si5 0.549705 0.767909 0.078910
Si Si6 0.000000 0.633344 0.000000
O O1 0.379919 0.856992 0.624685
O O2 0.044672 0.787334 0.807626
O O3 0.133773 0.139906 0.828561
O O4 0.158232 0.762167 0.866562
O O5 0.764105 0.327067 0.490337
O O6 0.640229 0.575961 0.464385
O O7 0.979605 0.616118 0.300814
O O8 0.522188 0.857398 0.171257
O O9 0.774571 0.123420 0.039109
O O10 0.581037 0.978261 0.011131
#
# Coordination Sequence:
#
# PCOD9127138 Si02
#       6
#     4   4   2   4   4   2
#     4  10  22  44  65  99 137 183 226 293 368 421
#     4  11  28  48  75 111 146 201 248 298 375 446
#     4  10  26  50  72 104 152 190 246 312 362 450
#     4  10  23  40  70  97 137 179 236 297 357 432
#     4  11  21  41  68  97 133 178 231 299 354 428
#     4  10  24  36  64 104 126 176 230 280 364 428
#
# _framework density 23.418637
#
# number of rings (size 3 to 8) (size 9 to 14) (size 15 to 20)
#    0.000    1.600    2.000    0.600    8.400    4.000 
#    3.600    0.000    0.000    0.000    0.000    0.000 
#    0.000    0.000    0.000    0.000    0.000    0.000 
#
# Total GULP energy -55761.722606 kJ/mol
# GULP energy per Si atom -5576.172261 kJ/mol
# Density = 2.336534 g / cm^3
# Si number density = 23.418637 Si / 1000 Ang^3
#
#
#
# Elastic Constant Matrix: (Units=GPa)
#
#
# Indices 1 2 3 4 5 6 
#
# 1 60.0682 19.5906 19.5228 -0.0001 5.6400 -0.0002
# 2 19.5906 97.0294 41.7555 -0.0003 20.9734 -0.0006
# 3 19.5228 41.7555 182.8020 -0.0005 19.9083 -0.0004
# 4 -0.0001 -0.0003 -0.0005 21.8908 0.0001 5.3128
# 5 5.6400 20.9734 19.9083 0.0001 38.0160 0.0003
# 6 -0.0002 -0.0006 -0.0004 5.3128 0.0003 -10.7719
#
#
#
# Elastic Compliance Matrix: (Units=1/GPa)
#
#
# Indices 1 2 3 4 5 6 
#
# 1 0.018066 -0.003055 -0.001191 0.000000 -0.000371 0.000000
# 2 -0.003055 0.013022 -0.002031 0.000000 -0.005667 -0.000001
# 3 -0.001191 -0.002031 0.006278 0.000000 -0.001991 0.000000
# 4 0.000000 0.000000 0.000000 0.040798 -0.000001 0.020122
# 5 -0.000371 -0.005667 -0.001991 -0.000001 0.030529 0.000001
# 6 0.000000 -0.000001 0.000000 0.020122 0.000001 -0.082910
#
#
# Mechanical properties :
#
#
# Convention : Reuss Voigt Hill
#
# Bulk Modulus (GPa) = 40.30249 55.73749 48.01999
# Shear Modulus (GPa) = 107.27851 27.09569 67.18710
#
# Velocity S-wave (km/s) = 6.77558 3.40518 5.36208
# Velocity P-wave (km/s) = 8.85767 6.26997 7.67368
#
# Compressibility (1/GPa) = 0.02481236
#
# Stress axis : x y z
#
# Youngs Moduli (GPa) = 55.35255 76.79323 159.27790
#
# Poissons Ratio (x) = 0.23458 0.18974
# Poissons Ratio (y) = 0.16909 0.32350
# Poissons Ratio (z) = 0.06594 0.15597
#
# Static dielectric constant tensor:
#      x y z
#    x 1.975360 0.000000 0.066490 
#    y 0.000000 1.954810 0.000000 
#    z 0.066490 0.000000 2.033510 
# 
# From -- ./inp_files/25878.got.cif
#   From: 2010.05.17/outbox.cif.g08.bks.cpg/sg5_13_cif.got.tgz:25878.got - 2010.06.03 18:56:24.
