data_PCOD9127432
_publ_section_title
;
Structure prediction by ZEFSAII (Michael W. Deem and Ramdas Pophale) SiO2 
 PCOD9127432
Probable space group: C 2
;
_chemical_formula_sum "Si O2"
_cell_formula_units_Z 14
_cell_length_a 7.270400
_cell_length_b 23.891814
_cell_length_c 5.113258
_cell_angle_alpha 90.000000
_cell_angle_beta 134.685902
_cell_angle_gamma 90.000000
_cell_volume 631.477610
_symmetry_space_group_name_H-M "C 2"
_symmetry_group_IT_number 5
_symmetry_cell_setting 'monoclinic'
loop_
_space_group_symop_operation_xyz
x,y,z
-x,y,-z
1/2+x,1/2+y,z
1/2-x,1/2+y,-z
loop_
_atom_site_type_symbol
_atom_site_label
_atom_site_fract_x
_atom_site_fract_y
_atom_site_fract_z
Si Si1 0.500000 0.912400 0.000000
Si Si2 0.000000 0.834600 0.500000
Si Si3 0.500000 0.988881 0.500000
Si Si4 0.500000 0.254651 0.000000
Si Si5 0.331779 0.096448 0.560199
Si Si6 0.500000 0.676093 0.500000
O O1 0.250770 0.873404 0.713535
O O2 0.562197 0.950249 0.808629
O O3 0.009879 0.794530 0.759779
O O4 0.294009 0.033680 0.411910
O O5 0.248737 0.215326 0.767544
O O6 0.500000 0.124991 0.500000
O O7 0.078126 0.132007 0.355240
O O8 0.500000 0.093273 0.000000
#
# Coordination Sequence:
#
# PCOD9127432 Si02
#       6
#     2   2   2   2   4   2
#     4  12  24  49  74 100 142 191 234 306 360 406
#     4  12  28  50  70 106 136 184 260 302 342 424
#     4  10  22  46  72 110 142 192 226 290 366 430
#     4  12  28  47  74 104 140 195 240 302 358 412
#     4  10  23  45  67 112 149 183 234 282 344 460
#     4  12  26  48  76 106 152 192 230 294 368 422
#
# _framework density 22.170226
#
# number of rings (size 3 to 8) (size 9 to 14) (size 15 to 20)
#    0.857    0.000    2.857    3.429    2.000    4.571 
#    5.143    0.000    0.000    0.000    0.000    0.000 
#    0.000    0.000    0.000    0.000    0.000    0.000 
#
# Total GULP energy -39096.451325 kJ/mol
# GULP energy per Si atom -5585.207332 kJ/mol
# Density = 2.211977 g / cm^3
# Si number density = 22.170226 Si / 1000 Ang^3
#
#
#
# Elastic Constant Matrix: (Units=GPa)
#
#
# Indices 1 2 3 4 5 6 
#
# 1 172.8833 74.6366 66.1745 0.0000 -18.6977 0.0000
# 2 74.6366 171.9599 67.1693 0.0000 1.4178 0.0000
# 3 66.1745 67.1693 105.9937 0.0000 11.5111 0.0000
# 4 0.0000 0.0000 0.0000 -20.6230 0.0000 97.2823
# 5 -18.6977 1.4178 11.5111 0.0000 59.7840 0.0000
# 6 0.0000 0.0000 0.0000 97.2823 0.0000 59.3276
#
#
#
# Elastic Compliance Matrix: (Units=1/GPa)
#
#
# Indices 1 2 3 4 5 6 
#
# 1 0.008843 -0.002067 -0.004613 0.000000 0.003703 0.000000
# 2 -0.002067 0.008247 -0.003926 0.000000 -0.000086 0.000000
# 3 -0.004613 -0.003926 0.015269 0.000000 -0.004290 0.000000
# 4 0.000000 0.000000 0.000000 -0.005551 0.000000 0.009103
# 5 0.003703 -0.000086 -0.004290 0.000000 0.018713 0.000000
# 6 0.000000 0.000000 0.000000 0.009103 0.000000 0.001930
#
#
# Mechanical properties :
#
#
# Convention : Reuss Voigt Hill
#
# Bulk Modulus (GPa) = 89.72151 96.31088 93.01620
# Shear Modulus (GPa) = 69.08226 35.88814 52.48520
#
# Velocity S-wave (km/s) = 5.58816 4.02774 4.87084
# Velocity P-wave (km/s) = 9.06609 8.07255 8.58371
#
# Compressibility (1/GPa) = 0.01114560
#
# Stress axis : x y z
#
# Youngs Moduli (GPa) = 113.08742 121.26045 65.49303
#
# Poissons Ratio (x) = 0.25060 0.30214
# Poissons Ratio (y) = 0.23371 0.25716
# Poissons Ratio (z) = 0.52170 0.47613
#
# Static dielectric constant tensor:
#      x y z
#    x 1.743650 0.000000 -0.067390 
#    y 0.000000 1.799650 0.000000 
#    z -0.067390 0.000000 1.853480 
# 
# From -- ./inp_files/1221.got.cif
#   From: 2010.05.17/outbox.cif.g08.bks.cpg/sg5_1_cif.got.tgz:1221.got - 2010.06.03 18:56:24.
