data_PCOD9127961
_publ_section_title
;
Structure prediction by ZEFSAII (Michael W. Deem and Ramdas Pophale) SiO2 
 PCOD9127961
Probable space group: C 2
;
_chemical_formula_sum "Si O2"
_cell_formula_units_Z 22
_cell_length_a 10.372858
_cell_length_b 9.186250
_cell_length_c 10.964291
_cell_angle_alpha 90.000000
_cell_angle_beta 117.518297
_cell_angle_gamma 90.000000
_cell_volume 926.560849
_symmetry_space_group_name_H-M "C 2"
_symmetry_group_IT_number 5
_symmetry_cell_setting 'monoclinic'
loop_
_space_group_symop_operation_xyz
x,y,z
-x,y,-z
1/2+x,1/2+y,z
1/2-x,1/2+y,-z
loop_
_atom_site_type_symbol
_atom_site_label
_atom_site_fract_x
_atom_site_fract_y
_atom_site_fract_z
Si Si1 0.850041 0.173360 0.584619
Si Si2 0.923745 0.496075 0.622352
Si Si3 0.175012 0.711623 0.715231
Si Si4 0.350636 0.226940 0.006812
Si Si5 0.500000 0.447861 0.500000
Si Si6 0.082833 0.406136 0.923958
O O1 0.886688 0.335829 0.557305
O O2 0.827364 0.170534 0.720682
O O3 0.704483 0.110664 0.456428
O O4 0.965326 0.054838 0.595066
O O5 0.072109 0.572810 0.645581
O O6 0.960103 0.466979 0.779818
O O7 0.152289 0.750737 0.846391
O O8 0.123576 0.841852 0.604684
O O9 0.339738 0.052142 0.990417
O O10 0.500000 0.269090 0.000000
O O11 0.203569 0.311702 0.906080
O O12 0.000000 0.331444 0.000000
#
# Coordination Sequence:
#
# PCOD9127961 Si02
#       6
#     4   4   4   4   2   4
#     4  12  24  42  64 103 138 194 232 290 358 429
#     4  11  23  43  70  97 146 187 239 289 361 429
#     4  11  23  45  66  97 147 183 235 304 348 429
#     4  10  24  45  72 104 141 189 244 296 362 426
#     4  12  26  38  68 100 140 186 240 290 362 420
#     4  10  23  44  70 104 141 188 237 301 353 433
#
# _framework density 23.743718999999999
#
# number of rings (size 3 to 8) (size 9 to 14) (size 15 to 20)
#    0.000    1.091    3.636    1.091    2.545    5.091 
#    6.545    0.000    0.000    0.000    0.000    0.000 
#    0.000    0.000    0.000    0.000    0.000    0.000 
#
# Total GULP energy -61397.143358 kJ/mol
# GULP energy per Si atom -5581.558487 kJ/mol
# Density = 2.368968 g / cm^3
# Si number density = 23.743719 Si / 1000 Ang^3
#
#
#
# Elastic Constant Matrix: (Units=GPa)
#
#
# Indices 1 2 3 4 5 6 
#
# 1 113.2016 48.6621 22.4438 0.0000 -33.7076 0.0000
# 2 48.6621 147.1802 24.0259 0.0000 -1.2459 0.0000
# 3 22.4438 24.0259 88.7579 0.0000 -20.9221 0.0000
# 4 0.0000 0.0000 0.0000 29.3902 0.0000 6.8747
# 5 -33.7076 -1.2459 -20.9221 0.0000 37.6066 0.0000
# 6 0.0000 0.0000 0.0000 6.8747 0.0000 38.4310
#
#
#
# Elastic Compliance Matrix: (Units=1/GPa)
#
#
# Indices 1 2 3 4 5 6 
#
# 1 0.014832 -0.004916 0.000777 0.000000 0.013564 0.000000
# 2 -0.004916 0.008768 -0.002418 0.000000 -0.005461 0.000000
# 3 0.000777 -0.002418 0.013661 0.000000 0.008217 0.000000
# 4 0.000000 0.000000 0.000000 0.035511 0.000000 -0.006352
# 5 0.013564 -0.005461 0.008217 0.000000 0.043139 0.000000
# 6 0.000000 0.000000 0.000000 -0.006352 0.000000 0.027157
#
#
# Mechanical properties :
#
#
# Convention : Reuss Voigt Hill
#
# Bulk Modulus (GPa) = 41.40923 59.93371 50.67147
# Shear Modulus (GPa) = 30.44512 38.01940 34.23226
#
# Velocity S-wave (km/s) = 3.58472 4.00589 3.80114
# Velocity P-wave (km/s) = 5.88316 6.83322 6.37591
#
# Compressibility (1/GPa) = 0.02414921
#
# Stress axis : x y z
#
# Youngs Moduli (GPa) = 67.42347 114.04914 73.19900
#
# Poissons Ratio (x) = 0.56065 -0.05691
# Poissons Ratio (y) = 0.33145 0.17697
# Poissons Ratio (z) = -0.05242 0.27573
#
# Static dielectric constant tensor:
#      x y z
#    x 1.969220 0.000000 -0.004990 
#    y 0.000000 1.913770 0.000000 
#    z -0.004990 0.000000 1.991730 
# 
# From -- ./inp_files/38121.got.cif
#   From: 2010.05.17/outbox.cif.g08.bks.cpg/sg5_20_cif.got.tgz:38121.got - 2010.06.03 18:56:24.
