data_PCOD9127211
_publ_section_title
;
Structure prediction by ZEFSAII (Michael W. Deem and Ramdas Pophale) SiO2 
 PCOD9127211
Probable space group: C 2
;
_chemical_formula_sum "Si O2"
_cell_formula_units_Z 32
_cell_length_a 25.454675
_cell_length_b 8.512514
_cell_length_c 14.410558
_cell_angle_alpha 90.000000
_cell_angle_beta 26.886326
_cell_angle_gamma 90.000000
_cell_volume 1412.074949
_symmetry_space_group_name_H-M "C 2"
_symmetry_group_IT_number 5
_symmetry_cell_setting 'monoclinic'
loop_
_space_group_symop_operation_xyz
x,y,z
-x,y,-z
1/2+x,1/2+y,z
1/2-x,1/2+y,-z
loop_
_atom_site_type_symbol
_atom_site_label
_atom_site_fract_x
_atom_site_fract_y
_atom_site_fract_z
Si Si1 0.132991 0.260870 0.321158
Si Si2 0.385032 0.851912 0.954255
Si Si3 0.574428 0.272828 0.620500
Si Si4 0.861718 0.648460 0.874727
Si Si5 0.704401 0.095835 0.576904
Si Si6 0.673045 0.129454 0.273863
Si Si7 0.772552 0.066377 0.662133
Si Si8 0.580072 0.770068 0.784176
O O1 0.165823 0.443111 0.276710
O O2 0.159516 0.182341 0.378036
O O3 0.000000 0.241108 0.500000
O O4 0.225611 0.174243 0.108262
O O5 0.299936 0.707281 0.070827
O O6 0.320074 0.964991 0.132151
O O7 0.501096 0.785811 0.817617
O O8 0.396875 0.969717 0.848069
O O9 0.436422 0.260729 0.824423
O O10 0.618054 0.182308 0.642728
O O11 0.619933 0.185113 0.455203
O O12 0.633692 0.441972 0.524368
O O13 0.885269 0.686438 0.730575
O O14 0.708510 0.150268 0.677671
O O15 0.835994 0.122072 0.336086
O O16 0.666906 0.916537 0.642255
O O17 0.500000 0.785289 0.000000
#
# Coordination Sequence:
#
# PCOD9127211 Si02
#       8
#     4   4   4   4   4   4   4   4
#     4  11  26  44  66 101 141 181 236 300 354 427
#     4  10  22  44  69  96 139 187 228 298 360 428
#     4  11  23  42  65  99 137 181 237 287 352 433
#     4  11  23  41  70  96 134 188 232 285 366 422
#     4  12  24  43  74 103 139 193 236 296 368 427
#     4  11  24  42  66  99 134 180 240 288 358 427
#     4  10  24  44  68 102 137 186 237 294 360 432
#     4  12  24  47  74 103 149 189 239 298 365 434
#
# _framework density 22.661688000000002
#
# number of rings (size 3 to 8) (size 9 to 14) (size 15 to 20)
#    0.000    1.000    3.750    2.625    1.750    7.000 
#    0.000    1.250    0.000    0.000    0.000    0.000 
#    0.000    0.000    0.000    0.000    0.000    0.000 
#
# Total GULP energy -89494.459497 kJ/mol
# GULP energy per Si atom -5593.403719 kJ/mol
# Density = 2.261011 g / cm^3
# Si number density = 22.661688 Si / 1000 Ang^3
#
#
#
# Elastic Constant Matrix: (Units=GPa)
#
#
# Indices 1 2 3 4 5 6 
#
# 1 186.8515 41.4589 56.3134 0.0000 -12.3772 0.0000
# 2 41.4589 42.9086 35.6806 0.0000 3.5167 0.0000
# 3 56.3134 35.6806 102.8889 0.0000 -22.0868 0.0000
# 4 0.0000 0.0000 0.0000 24.7846 0.0000 -2.3994
# 5 -12.3772 3.5167 -22.0868 0.0000 35.9437 0.0000
# 6 0.0000 0.0000 0.0000 -2.3994 0.0000 31.1036
#
#
#
# Elastic Compliance Matrix: (Units=1/GPa)
#
#
# Indices 1 2 3 4 5 6 
#
# 1 0.007261 -0.006030 -0.001405 0.000000 0.002227 0.000000
# 2 -0.006030 0.042698 -0.014802 0.000000 -0.015349 0.000000
# 3 -0.001405 -0.014802 0.018233 0.000000 0.012169 0.000000
# 4 0.000000 0.000000 0.000000 0.040651 0.000000 0.003136
# 5 0.002227 -0.015349 0.012169 0.000000 0.037567 0.000000
# 6 0.000000 0.000000 0.000000 0.003136 0.000000 0.032392
#
#
# Mechanical properties :
#
#
# Convention : Reuss Voigt Hill
#
# Bulk Modulus (GPa) = 42.16024 66.61721 54.38872
# Shear Modulus (GPa) = 21.62802 31.64613 26.63707
#
# Velocity S-wave (km/s) = 3.09267 3.74098 3.43216
# Velocity P-wave (km/s) = 5.60333 6.93687 6.30545
#
# Compressibility (1/GPa) = 0.02371903
#
# Stress axis : x y z
#
# Youngs Moduli (GPa) = 137.72953 23.42050 54.84435
#
# Poissons Ratio (x) = 0.14122 0.07705
# Poissons Ratio (y) = 0.83045 0.81180
# Poissons Ratio (z) = 0.19349 0.34667
#
# Static dielectric constant tensor:
#      x y z
#    x 1.870820 0.000000 0.025790 
#    y 0.000000 1.819240 0.000000 
#    z 0.025790 0.000000 1.893100 
# 
# From -- ./inp_files/57700.got.cif
#   From: 2010.05.17/outbox.cif.g08.bks.cpg/sg5_29_cif.got.tgz:57700.got - 2010.06.03 18:56:24.
