data_PCOD9127290
_publ_section_title
;
Structure prediction by ZEFSAII (Michael W. Deem and Ramdas Pophale) SiO2 
 PCOD9127290
Probable space group: C 2
;
_chemical_formula_sum "Si O2"
_cell_formula_units_Z 28
_cell_length_a 23.267727
_cell_length_b 7.814429
_cell_length_c 16.306979
_cell_angle_alpha 90.000000
_cell_angle_beta 154.553368
_cell_angle_gamma 90.000000
_cell_volume 1273.972210
_symmetry_space_group_name_H-M "C 2"
_symmetry_group_IT_number 5
_symmetry_cell_setting 'monoclinic'
loop_
_space_group_symop_operation_xyz
x,y,z
-x,y,-z
1/2+x,1/2+y,z
1/2-x,1/2+y,-z
loop_
_atom_site_type_symbol
_atom_site_label
_atom_site_fract_x
_atom_site_fract_y
_atom_site_fract_z
Si Si1 0.696844 0.682310 0.833014
Si Si2 0.120403 0.749116 0.261294
Si Si3 0.500000 0.809084 0.000000
Si Si4 0.000000 0.924552 0.500000
Si Si5 0.129789 0.356150 0.321713
Si Si6 0.761745 0.257424 0.791805
Si Si7 0.676769 0.365904 0.154035
Si Si8 0.383002 0.883006 0.112005
O O1 0.582295 0.543513 0.668149
O O2 0.726830 0.774308 0.786087
O O3 0.651053 0.813360 0.843037
O O4 0.828120 0.575602 0.030106
O O5 0.111826 0.545165 0.261161
O O6 0.220146 0.817168 0.459406
O O7 0.180413 0.790367 0.249577
O O8 0.973708 0.831799 0.072625
O O9 0.427606 0.733314 0.824611
O O10 0.365975 0.876522 0.874769
O O11 0.109177 0.814708 0.591238
O O12 0.035151 0.356082 0.279511
O O13 0.789033 0.065865 0.798489
O O14 0.802520 0.275469 0.939344
#
# Coordination Sequence:
#
# PCOD9127290 Si02
#       8
#     4   4   2   2   4   4   4   4
#     4  11  23  46  69 101 139 192 234 292 358 429
#     4  11  26  44  70 107 138 184 243 297 362 423
#     4  10  22  44  76  92 148 176 238 298 370 418
#     4  10  26  44  70 104 138 184 240 290 360 428
#     4  11  25  43  69 105 135 184 238 297 357 430
#     4  10  23  45  70 104 134 189 231 295 363 422
#     4  11  24  46  73  97 149 187 237 297 363 422
#     4  10  23  44  69  98 144 185 230 290 359 425
#
# _framework density 21.978501999999999
#
# number of rings (size 3 to 8) (size 9 to 14) (size 15 to 20)
#    0.000    1.429    1.429    2.571   12.000    0.571 
#   10.286    0.000    0.000    0.000    0.000    0.000 
#    0.000    0.000    0.000    0.000    0.000    0.000 
#
# Total GULP energy -78171.024474 kJ/mol
# GULP energy per Si atom -5583.644605 kJ/mol
# Density = 2.192848 g / cm^3
# Si number density = 21.978502 Si / 1000 Ang^3
#
#
#
# Elastic Constant Matrix: (Units=GPa)
#
#
# Indices 1 2 3 4 5 6 
#
# 1 136.9180 34.7789 30.8865 0.0000 15.3664 0.0000
# 2 34.7789 101.7882 16.8121 0.0000 10.8193 0.0000
# 3 30.8865 16.8121 113.3600 0.0000 15.9224 0.0000
# 4 0.0000 0.0000 0.0000 30.3514 0.0000 0.6983
# 5 15.3664 10.8193 15.9224 0.0000 20.8108 0.0000
# 6 0.0000 0.0000 0.0000 0.6983 0.0000 41.0592
#
#
#
# Elastic Compliance Matrix: (Units=1/GPa)
#
#
# Indices 1 2 3 4 5 6 
#
# 1 0.008672 -0.002288 -0.001447 0.000000 -0.004107 0.000000
# 2 -0.002288 0.011081 -0.000502 0.000000 -0.003688 0.000000
# 3 -0.001447 -0.000502 0.010199 0.000000 -0.006474 0.000000
# 4 0.000000 0.000000 0.000000 0.032960 0.000000 -0.000561
# 5 -0.004107 -0.003688 -0.006474 0.000000 0.057955 0.000000
# 6 0.000000 0.000000 0.000000 -0.000561 0.000000 0.024365
#
#
# Mechanical properties :
#
#
# Convention : Reuss Voigt Hill
#
# Bulk Modulus (GPa) = 46.55582 57.44681 52.00131
# Shear Modulus (GPa) = 31.08193 36.41685 33.74939
#
# Velocity S-wave (km/s) = 3.76466 4.07496 3.92288
# Velocity P-wave (km/s) = 6.33445 6.95233 6.65057
#
# Compressibility (1/GPa) = 0.02147959
#
# Stress axis : x y z
#
# Youngs Moduli (GPa) = 115.31361 90.24607 98.04426
#
# Poissons Ratio (x) = 0.20644 0.14184
# Poissons Ratio (y) = 0.26378 0.04923
# Poissons Ratio (z) = 0.16682 0.04532
#
# Static dielectric constant tensor:
#      x y z
#    x 1.793980 0.000000 0.006080 
#    y 0.000000 1.860260 0.000000 
#    z 0.006080 0.000000 1.826880 
# 
# From -- ./inp_files/29175.got.cif
#   From: 2010.05.17/outbox.cif.g08.bks.cpg/sg5_15_cif.got.tgz:29175.got - 2010.06.03 18:56:24.
