data_PCOD9127137
_publ_section_title
;
Structure prediction by ZEFSAII (Michael W. Deem and Ramdas Pophale) SiO2 
 PCOD9127137
Probable space group: C 2
;
_chemical_formula_sum "Si O2"
_cell_formula_units_Z 24
_cell_length_a 24.517613
_cell_length_b 4.976379
_cell_length_c 13.087561
_cell_angle_alpha 90.000000
_cell_angle_beta 147.625734
_cell_angle_gamma 90.000000
_cell_volume 855.002259
_symmetry_space_group_name_H-M "C 2"
_symmetry_group_IT_number 5
_symmetry_cell_setting 'monoclinic'
loop_
_space_group_symop_operation_xyz
x,y,z
-x,y,-z
1/2+x,1/2+y,z
1/2-x,1/2+y,-z
loop_
_atom_site_type_symbol
_atom_site_label
_atom_site_fract_x
_atom_site_fract_y
_atom_site_fract_z
Si Si1 0.500000 0.598250 0.000000
Si Si2 0.396311 0.348879 0.525506
Si Si3 0.274036 0.581880 0.606923
Si Si4 0.785616 0.198472 0.926616
Si Si5 0.801020 0.204961 0.186122
Si Si6 0.000000 0.563435 0.500000
Si Si7 0.491865 0.868827 0.770981
O O1 0.613868 0.475210 0.183656
O O2 0.500356 0.775091 0.101838
O O3 0.287055 0.221862 0.395570
O O4 0.474128 0.245409 0.556479
O O5 0.420806 0.663453 0.590630
O O6 0.459749 0.176387 0.713860
O O7 0.221107 0.326947 0.468139
O O8 0.699022 0.417460 0.756775
O O9 0.772939 0.898410 0.867930
O O10 0.766515 0.137743 0.017166
O O11 0.893650 0.328679 0.088858
O O12 0.904748 0.364181 0.341962
#
# Coordination Sequence:
#
# PCOD9127137 Si02
#       7
#     2   4   4   4   4   2   4
#     4  12  28  50  86 114 158 212 268 334 428 460
#     4  12  27  50  75 113 165 205 263 335 388 488
#     4  12  26  54  79 117 160 209 274 342 396 479
#     4  10  22  44  65  98 141 198 242 315 361 453
#     4  10  23  41  67  97 144 193 256 295 369 459
#     4  12  28  46  74 116 156 220 250 318 416 462
#     4  12  26  49  76 111 151 206 263 328 404 472
#
# _framework density 28.070104000000001
#
# number of rings (size 3 to 8) (size 9 to 14) (size 15 to 20)
#    0.000    0.667    5.000    1.000    7.000    5.333 
#    3.000    0.000    0.000    0.000    0.000    0.000 
#    0.000    0.000    0.000    0.000    0.000    0.000 
#
# Total GULP energy -67063.280759 kJ/mol
# GULP energy per Si atom -5588.606730 kJ/mol
# Density = 2.800622 g / cm^3
# Si number density = 28.070104 Si / 1000 Ang^3
#
#
#
# Elastic Constant Matrix: (Units=GPa)
#
#
# Indices 1 2 3 4 5 6 
#
# 1 156.4123 15.4078 19.2129 -0.0002 -7.3250 0.0000
# 2 15.4078 110.6067 -5.9926 0.0004 11.2922 0.0000
# 3 19.2129 -5.9926 79.8486 -0.0002 41.5004 0.0000
# 4 -0.0002 0.0004 -0.0002 69.5726 0.0000 13.9152
# 5 -7.3250 11.2922 41.5004 0.0000 51.4150 0.0000
# 6 0.0000 0.0000 0.0000 13.9152 0.0000 27.6378
#
#
#
# Elastic Compliance Matrix: (Units=1/GPa)
#
#
# Indices 1 2 3 4 5 6 
#
# 1 0.007375 -0.001801 -0.004585 0.000000 0.005147 0.000000
# 2 -0.001801 0.010130 0.004278 0.000000 -0.005934 0.000000
# 3 -0.004585 0.004278 0.025454 0.000000 -0.022138 0.000000
# 4 0.000000 0.000000 0.000000 0.015983 0.000000 -0.008047
# 5 0.005147 -0.005934 -0.022138 0.000000 0.039356 0.000000
# 6 0.000000 0.000000 0.000000 -0.008047 0.000000 0.040234
#
#
# Mechanical properties :
#
#
# Convention : Reuss Voigt Hill
#
# Bulk Modulus (GPa) = 25.81146 44.90264 35.35705
# Shear Modulus (GPa) = 32.12097 50.94107 41.53102
#
# Velocity S-wave (km/s) = 3.38644 4.26465 3.85066
# Velocity P-wave (km/s) = 4.95035 6.34673 5.69152
#
# Compressibility (1/GPa) = 0.03874248
#
# Stress axis : x y z
#
# Youngs Moduli (GPa) = 135.59296 98.72063 39.28637
#
# Poissons Ratio (x) = 0.17782 0.18012
# Poissons Ratio (y) = 0.24424 -0.16807
# Poissons Ratio (z) = 0.62167 -0.42232
#
# Static dielectric constant tensor:
#      x y z
#    x -0.514920 0.000000 4.117520 
#    y 0.000000 2.246110 0.000000 
#    z 4.117520 0.000000 -3.974670 
# 
# From -- ./inp_files/58023.got.cif
#   From: 2010.05.17/outbox.cif.g08.bks.cpg/sg5_30_cif.got.tgz:58023.got - 2010.06.03 18:56:24.
