data_PCOD9127260
_publ_section_title
;
Structure prediction by ZEFSAII (Michael W. Deem and Ramdas Pophale) SiO2 
 PCOD9127260
Probable space group: C 2
;
_chemical_formula_sum "Si O2"
_cell_formula_units_Z 20
_cell_length_a 23.851246
_cell_length_b 4.837849
_cell_length_c 10.820694
_cell_angle_alpha 90.000000
_cell_angle_beta 36.780430
_cell_angle_gamma 90.000000
_cell_volume 747.591010
_symmetry_space_group_name_H-M "C 2"
_symmetry_group_IT_number 5
_symmetry_cell_setting 'monoclinic'
loop_
_space_group_symop_operation_xyz
x,y,z
-x,y,-z
1/2+x,1/2+y,z
1/2-x,1/2+y,-z
loop_
_atom_site_type_symbol
_atom_site_label
_atom_site_fract_x
_atom_site_fract_y
_atom_site_fract_z
Si Si1 0.000000 0.146430 0.000000
Si Si2 0.000000 0.213754 0.500000
Si Si3 0.436443 0.685225 0.358911
Si Si4 0.601043 0.037585 0.984618
Si Si5 0.243219 0.867362 0.600660
Si Si6 0.306421 0.839799 0.939244
O O1 0.036654 0.007609 0.810672
O O2 0.082218 0.355173 0.896110
O O3 0.027748 0.055635 0.576807
O O4 0.094880 0.380377 0.304383
O O5 0.329679 0.771533 0.534127
O O6 0.502403 0.958992 0.225607
O O7 0.648918 0.314673 0.847759
O O8 0.675276 0.915020 0.951173
O O9 0.238767 0.664352 0.489722
O O10 0.274085 0.526995 0.977441
#
# Coordination Sequence:
#
# PCOD9127260 Si02
#       6
#     2   2   4   4   4   4
#     4   8  16  42  62  96 140 170 222 280 336 390
#     4  10  22  44  72  98 140 180 228 276 340 402
#     4   9  19  41  66  98 135 178 221 278 336 397
#     4   9  20  42  65  98 136 172 225 279 333 396
#     4  12  23  41  69 101 134 177 228 275 337 405
#     4  11  25  46  70 100 136 180 226 279 337 404
#
# _framework density 26.752593999999998
#
# number of rings (size 3 to 8) (size 9 to 14) (size 15 to 20)
#    1.200    0.800    2.000    1.200    0.000    4.000 
#    0.000   21.000    0.000    0.000    0.000    0.000 
#    0.000    0.000    0.000    0.000    0.000    0.000 
#
# Total GULP energy -55835.373434 kJ/mol
# GULP energy per Si atom -5583.537343 kJ/mol
# Density = 2.669170 g / cm^3
# Si number density = 26.752594 Si / 1000 Ang^3
#
#
#
# Elastic Constant Matrix: (Units=GPa)
#
#
# Indices 1 2 3 4 5 6 
#
# 1 180.5030 8.4183 34.6077 -0.0059 20.6303 0.0019
# 2 8.4183 52.1158 13.9557 -0.0300 0.5768 -0.0070
# 3 34.6077 13.9557 142.2346 -0.0221 -23.3330 -0.0012
# 4 -0.0059 -0.0300 -0.0221 22.2381 0.0005 1.7140
# 5 20.6303 0.5768 -23.3330 0.0005 57.2974 0.0030
# 6 0.0019 -0.0070 -0.0012 1.7140 0.0030 12.2172
#
#
#
# Elastic Compliance Matrix: (Units=1/GPa)
#
#
# Indices 1 2 3 4 5 6 
#
# 1 0.006294 -0.000449 -0.001991 -0.000001 -0.003073 -0.000001
# 2 -0.000449 0.019798 -0.001971 0.000024 -0.000840 0.000008
# 3 -0.001991 -0.001971 0.008390 0.000005 0.004153 -0.000002
# 4 -0.000001 0.000024 0.000005 0.045459 0.000002 -0.006378
# 5 -0.003073 -0.000840 0.004153 0.000002 0.020259 -0.000005
# 6 -0.000001 0.000008 -0.000002 -0.006378 -0.000005 0.082747
#
#
# Mechanical properties :
#
#
# Convention : Reuss Voigt Hill
#
# Bulk Modulus (GPa) = 38.97398 54.31298 46.64348
# Shear Modulus (GPa) = 24.95966 39.54196 32.25081
#
# Velocity S-wave (km/s) = 3.05779 3.84873 3.47583
# Velocity P-wave (km/s) = 5.20256 6.33216 5.79495
#
# Compressibility (1/GPa) = 0.02565814
#
# Stress axis : x y z
#
# Youngs Moduli (GPa) = 158.88097 50.51080 119.19072
#
# Poissons Ratio (x) = 0.02270 0.23735
# Poissons Ratio (y) = 0.07140 0.23492
# Poissons Ratio (z) = 0.31639 0.09956
#
# Static dielectric constant tensor:
#      x y z
#    x 2.108900 0.000000 0.043110 
#    y 0.000000 1.996580 0.000010 
#    z 0.043110 0.000010 2.178280 
# 
# From -- ./inp_files/46749.got.cif
#   From: 2010.05.17/outbox.cif.g08.bks.cpg/sg5_24_cif.got.tgz:46749.got - 2010.06.03 18:56:24.
