data_PCOD9127543
_publ_section_title
;
Structure prediction by ZEFSAII (Michael W. Deem and Ramdas Pophale) SiO2 
 PCOD9127543
Probable space group: C 2
;
_chemical_formula_sum "Si O2"
_cell_formula_units_Z 28
_cell_length_a 21.393488
_cell_length_b 5.589663
_cell_length_c 9.772685
_cell_angle_alpha 90.000000
_cell_angle_beta 113.470303
_cell_angle_gamma 90.000000
_cell_volume 1071.955400
_symmetry_space_group_name_H-M "C 2"
_symmetry_group_IT_number 5
_symmetry_cell_setting 'monoclinic'
loop_
_space_group_symop_operation_xyz
x,y,z
-x,y,-z
1/2+x,1/2+y,z
1/2-x,1/2+y,-z
loop_
_atom_site_type_symbol
_atom_site_label
_atom_site_fract_x
_atom_site_fract_y
_atom_site_fract_z
Si Si1 0.248294 0.995090 0.831623
Si Si2 0.396340 0.035102 0.993805
Si Si3 0.398280 0.348090 0.734543
Si Si4 0.603661 0.035109 0.506197
Si Si5 0.500000 0.659919 0.000000
Si Si6 0.000000 0.159925 0.500000
Si Si7 0.751707 0.995095 0.668387
Si Si8 0.898281 0.848093 0.234541
O O1 0.251612 0.758996 0.736973
O O2 0.176485 0.964732 0.844544
O O3 0.319468 0.979492 0.974619
O O4 0.248389 0.258996 0.763039
O O5 0.392031 0.122485 0.833155
O O6 0.421141 0.252513 0.108599
O O7 0.449461 0.823917 0.045510
O O8 0.323514 0.464734 0.655463
O O9 0.549934 0.518687 0.643555
O O10 0.450065 0.518683 0.856446
O O11 0.578862 0.252517 0.391401
O O12 0.680534 0.979496 0.525390
O O13 0.607968 0.122494 0.666845
O O14 0.550539 0.823925 0.454492
#
# Coordination Sequence:
#
# PCOD9127543 Si02
#       8
#     4   4   4   4   2   2   4   4
#     4  10  22  50  80 124 160 216 276 340 406 490
#     4  11  27  48  81 116 162 212 272 334 411 489
#     4  11  27  48  81 116 162 212 272 334 411 489
#     4  11  27  48  81 116 162 212 272 334 411 489
#     4  12  26  54  80 120 164 216 262 350 410 502
#     4  12  26  54  80 120 164 216 262 350 410 502
#     4  10  22  50  80 124 160 216 276 340 406 490
#     4  11  27  48  81 116 162 212 272 334 411 489
#
# _framework density 26.120491999999999
#
# number of rings (size 3 to 8) (size 9 to 14) (size 15 to 20)
#    0.000    1.143    2.857    0.857    0.000   18.286 
#    0.000    0.000    0.000    0.000    0.000    0.000 
#    0.000    0.000    0.000    0.000    0.000    0.000 
#
# Total GULP energy -78528.124150 kJ/mol
# GULP energy per Si atom -5609.151725 kJ/mol
# Density = 2.606104 g / cm^3
# Si number density = 26.120492 Si / 1000 Ang^3
#
#
#
# Elastic Constant Matrix: (Units=GPa)
#
#
# Indices 1 2 3 4 5 6 
#
# 1 136.2506 57.2582 67.7913 0.0000 57.8177 0.0000
# 2 57.2582 129.4418 46.0911 0.0000 21.8719 0.0000
# 3 67.7913 46.0911 86.0036 0.0000 10.5367 0.0000
# 4 0.0000 0.0000 0.0000 47.4186 0.0000 5.5519
# 5 57.8177 21.8719 10.5367 0.0000 54.4550 0.0000
# 6 0.0000 0.0000 0.0000 5.5519 0.0000 53.4059
#
#
#
# Elastic Compliance Matrix: (Units=1/GPa)
#
#
# Indices 1 2 3 4 5 6 
#
# 1 0.027499 -0.001603 -0.017739 0.000000 -0.025121 0.000000
# 2 -0.001603 0.010115 -0.003962 0.000000 -0.001594 0.000000
# 3 -0.017739 -0.003962 0.025844 0.000000 0.015425 0.000000
# 4 0.000000 0.000000 0.000000 0.021349 0.000000 -0.002219
# 5 -0.025121 -0.001594 0.015425 0.000000 0.042692 0.000000
# 6 0.000000 0.000000 0.000000 -0.002219 0.000000 0.018955
#
#
# Mechanical properties :
#
#
# Convention : Reuss Voigt Hill
#
# Bulk Modulus (GPa) = 59.34925 77.10858 68.22891
# Shear Modulus (GPa) = 25.16644 43.09294 34.12969
#
# Velocity S-wave (km/s) = 3.10736 4.06615 3.61865
# Velocity P-wave (km/s) = 5.97033 7.18534 6.60583
#
# Compressibility (1/GPa) = 0.01684941
#
# Stress axis : x y z
#
# Youngs Moduli (GPa) = 36.36463 98.86707 38.69442
#
# Poissons Ratio (x) = 0.15848 0.68641
# Poissons Ratio (y) = 0.05829 0.15330
# Poissons Ratio (z) = 0.64508 0.39169
#
# Static dielectric constant tensor:
#      x y z
#    x 2.060110 0.000000 -0.023870 
#    y 0.000000 2.059600 0.000000 
#    z -0.023870 0.000000 2.017170 
# 
# From -- ./inp_files/55345.got.cif
#   From: 2010.05.17/outbox.cif.g08.bks.cpg/sg5_28_cif.got.tgz:55345.got - 2010.06.03 18:56:24.
