data_PCOD9127083
_publ_section_title
;
Structure prediction by ZEFSAII (Michael W. Deem and Ramdas Pophale) SiO2 
 PCOD9127083
Probable space group: C 2
;
_chemical_formula_sum "Si O2"
_cell_formula_units_Z 24
_cell_length_a 10.317302
_cell_length_b 10.271749
_cell_length_c 9.331999
_cell_angle_alpha 90.000000
_cell_angle_beta 91.068886
_cell_angle_gamma 90.000000
_cell_volume 988.802707
_symmetry_space_group_name_H-M "C 2"
_symmetry_group_IT_number 5
_symmetry_cell_setting 'monoclinic'
loop_
_space_group_symop_operation_xyz
x,y,z
-x,y,-z
1/2+x,1/2+y,z
1/2-x,1/2+y,-z
loop_
_atom_site_type_symbol
_atom_site_label
_atom_site_fract_x
_atom_site_fract_y
_atom_site_fract_z
Si Si1 0.500000 0.504920 0.000000
Si Si2 0.268717 0.792864 0.621679
Si Si3 0.789817 0.787223 0.044281
Si Si4 0.000000 0.236961 0.500000
Si Si5 0.619210 0.037124 0.290131
Si Si6 0.000000 0.733039 0.500000
Si Si7 0.120095 0.191731 0.793659
Si Si8 0.500000 0.063530 0.000000
O O1 0.624218 0.411195 0.999051
O O2 0.513980 0.595305 0.860907
O O3 0.248666 0.793375 0.790933
O O4 0.363460 0.680473 0.565239
O O5 0.433523 0.769824 0.342809
O O6 0.132172 0.805205 0.540902
O O7 0.880973 0.660283 0.033370
O O8 0.674991 0.773854 0.928008
O O9 0.854625 0.421957 0.597227
O O10 0.530864 0.144537 0.363362
O O11 0.756684 0.103984 0.254179
O O12 0.548868 0.992323 0.143040
#
# Coordination Sequence:
#
# PCOD9127083 Si02
#       8
#     2   4   4   2   4   2   4   2
#     4  11  22  46  75 104 136 193 244 292 367 424
#     4  12  25  46  73 106 143 197 243 292 375 430
#     4  10  22  43  71 104 136 189 245 295 354 431
#     4  12  27  47  66 108 156 186 235 317 360 434
#     4  11  23  44  71 104 137 190 245 292 362 430
#     4  12  25  49  72 102 152 190 231 311 358 440
#     4  11  24  45  68 105 147 179 243 304 356 425
#     4   9  20  40  71  98 140 179 242 308 341 412
#
# _framework density 24.271778999999999
#
# number of rings (size 3 to 8) (size 9 to 14) (size 15 to 20)
#    0.000    1.000    5.000    1.500    0.000    2.000 
#    3.000    0.000    0.000    0.000    0.000    0.000 
#    0.000    0.000    0.000    0.000    0.000    0.000 
#
# Total GULP energy -66976.971855 kJ/mol
# GULP energy per Si atom -5581.414321 kJ/mol
# Density = 2.421654 g / cm^3
# Si number density = 24.271779 Si / 1000 Ang^3
#
#
#
# Elastic Constant Matrix: (Units=GPa)
#
#
# Indices 1 2 3 4 5 6 
#
# 1 165.9584 34.9841 70.6950 0.0000 29.8317 0.0000
# 2 34.9841 48.8757 23.4676 0.0000 12.4924 0.0000
# 3 70.6950 23.4676 152.8201 0.0000 26.4219 0.0000
# 4 0.0000 0.0000 0.0000 15.0941 0.0000 1.4992
# 5 29.8317 12.4924 26.4219 0.0000 65.3651 0.0000
# 6 0.0000 0.0000 0.0000 1.4992 0.0000 25.5254
#
#
#
# Elastic Compliance Matrix: (Units=1/GPa)
#
#
# Indices 1 2 3 4 5 6 
#
# 1 0.008511 -0.004185 -0.002969 0.000000 -0.001885 0.000000
# 2 -0.004185 0.024733 -0.001478 0.000000 -0.002219 0.000000
# 3 -0.002969 -0.001478 0.008452 0.000000 -0.001779 0.000000
# 4 0.000000 0.000000 0.000000 0.066640 0.000000 -0.003914
# 5 -0.001885 -0.002219 -0.001779 0.000000 0.017302 0.000000
# 6 0.000000 0.000000 0.000000 -0.003914 0.000000 0.039407
#
#
# Mechanical properties :
#
#
# Convention : Reuss Voigt Hill
#
# Bulk Modulus (GPa) = 40.93136 69.54975 55.24055
# Shear Modulus (GPa) = 26.25335 37.09742 31.67538
#
# Velocity S-wave (km/s) = 3.29240 3.91374 3.61644
# Velocity P-wave (km/s) = 5.59942 7.00999 6.34403
#
# Compressibility (1/GPa) = 0.02443115
#
# Stress axis : x y z
#
# Youngs Moduli (GPa) = 117.49210 40.43241 118.32083
#
# Poissons Ratio (x) = 0.16921 0.35127
# Poissons Ratio (y) = 0.49170 0.17492
# Poissons Ratio (z) = 0.34881 0.05977
#
# Static dielectric constant tensor:
#      x y z
#    x 1.971930 0.000000 -0.077570 
#    y 0.000000 2.094090 0.000000 
#    z -0.077570 0.000000 1.931890 
# 
# From -- ./inp_files/19313.got.cif
#   From: 2010.05.17/outbox.cif.g08.bks.cpg/sg5_10_cif.got.tgz:19313.got - 2010.06.03 18:56:24.
