data_PCOD9127238
_publ_section_title
;
Structure prediction by ZEFSAII (Michael W. Deem and Ramdas Pophale) SiO2 
 PCOD9127238
Probable space group: C 2
;
_chemical_formula_sum "Si O2"
_cell_formula_units_Z 20
_cell_length_a 10.298576
_cell_length_b 9.775957
_cell_length_c 14.931680
_cell_angle_alpha 90.000000
_cell_angle_beta 152.331527
_cell_angle_gamma 90.000000
_cell_volume 698.063712
_symmetry_space_group_name_H-M "C 2"
_symmetry_group_IT_number 5
_symmetry_cell_setting 'monoclinic'
loop_
_space_group_symop_operation_xyz
x,y,z
-x,y,-z
1/2+x,1/2+y,z
1/2-x,1/2+y,-z
loop_
_atom_site_type_symbol
_atom_site_label
_atom_site_fract_x
_atom_site_fract_y
_atom_site_fract_z
Si Si1 0.730662 0.386610 0.771499
Si Si2 0.804264 0.650126 0.685401
Si Si3 0.595515 0.932543 0.398764
Si Si4 0.757548 0.708670 0.924974
Si Si5 0.625299 0.584997 0.179170
O O1 0.412353 0.392056 0.612788
O O2 0.763165 0.515644 0.724611
O O3 0.760467 0.239314 0.743415
O O4 0.000000 0.390545 0.000000
O O5 0.500000 0.715045 0.500000
O O6 0.133791 0.474683 0.669353
O O7 0.876157 0.577043 0.637116
O O8 0.051036 0.745385 0.872390
O O9 0.447109 0.817906 0.245362
O O10 0.590373 0.583908 0.869299
O O11 0.000000 0.683755 0.000000
O O12 0.500000 0.568747 0.000000
#
# Coordination Sequence:
#
# PCOD9127238 Si02
#       5
#     4   4   4   4   4
#     4  10  23  44  75 113 161 217 264 333 419 483
#     4  10  22  44  71 108 161 215 263 331 402 484
#     4  11  24  46  80 117 161 212 276 338 399 489
#     4  12  26  45  78 120 159 216 274 333 408 478
#     4  11  23  46  80 111 162 218 265 343 405 480
#
# _framework density 28.650679
#
# number of rings (size 3 to 8) (size 9 to 14) (size 15 to 20)
#    0.000    1.200    4.000    1.200    0.000    4.800 
#    0.000    0.000    0.000   16.800    0.000    0.000 
#    0.000    0.000    0.000    0.000    0.000    0.000 
#
# Total GULP energy -56007.266386 kJ/mol
# GULP energy per Si atom -5600.726639 kJ/mol
# Density = 2.858547 g / cm^3
# Si number density = 28.650679 Si / 1000 Ang^3
#
#
#
# Elastic Constant Matrix: (Units=GPa)
#
#
# Indices 1 2 3 4 5 6 
#
# 1 154.8493 63.1153 92.6103 0.0025 37.1449 0.0007
# 2 63.1153 134.7628 83.8048 0.0048 -4.1000 0.0014
# 3 92.6103 83.8048 241.9118 0.0167 28.7910 0.0069
# 4 0.0025 0.0048 0.0167 49.0373 0.0047 -10.4924
# 5 37.1449 -4.1000 28.7910 0.0047 65.4667 0.0007
# 6 0.0007 0.0014 0.0069 -10.4924 0.0007 43.1197
#
#
#
# Elastic Compliance Matrix: (Units=1/GPa)
#
#
# Indices 1 2 3 4 5 6 
#
# 1 0.010518 -0.003791 -0.002084 0.000001 -0.005289 0.000001
# 2 -0.003791 0.011119 -0.002891 0.000000 0.004119 0.000000
# 3 -0.002084 -0.002891 0.006135 -0.000002 -0.001697 -0.000001
# 4 0.000001 0.000000 -0.000002 0.021513 -0.000001 0.005235
# 5 -0.005289 0.004119 -0.001697 -0.000001 0.019280 0.000000
# 6 0.000001 0.000000 -0.000001 0.005235 0.000000 0.024465
#
#
# Mechanical properties :
#
#
# Convention : Reuss Voigt Hill
#
# Bulk Modulus (GPa) = 97.65134 112.28719 104.96927
# Shear Modulus (GPa) = 43.86957 50.99098 47.43027
#
# Velocity S-wave (km/s) = 3.91728 4.22328 4.07316
# Velocity P-wave (km/s) = 7.39037 7.94093 7.67059
#
# Compressibility (1/GPa) = 0.01024051
#
# Stress axis : x y z
#
# Youngs Moduli (GPa) = 95.07482 89.93648 163.00350
#
# Poissons Ratio (x) = 0.34096 0.33967
# Poissons Ratio (y) = 0.36044 0.47120
# Poissons Ratio (z) = 0.19812 0.25998
#
# Static dielectric constant tensor:
#      x y z
#    x 2.385440 0.000000 0.028140 
#    y 0.000000 2.154690 0.000000 
#    z 0.028140 0.000000 2.409840 
# 
# From -- ./inp_files/60666.got.cif
#   From: 2010.05.17/outbox.cif.g08.bks.cpg/sg5_31_cif.got.tgz:60666.got - 2010.06.03 18:56:24.
