data_PCOD9127479
_publ_section_title
;
Structure prediction by ZEFSAII (Michael W. Deem and Ramdas Pophale) SiO2 
 PCOD9127479
Probable space group: C 2
;
_chemical_formula_sum "Si O2"
_cell_formula_units_Z 26
_cell_length_a 9.343735
_cell_length_b 7.134545
_cell_length_c 22.371368
_cell_angle_alpha 90.000000
_cell_angle_beta 136.497794
_cell_angle_gamma 90.000000
_cell_volume 1026.618674
_symmetry_space_group_name_H-M "C 2"
_symmetry_group_IT_number 5
_symmetry_cell_setting 'monoclinic'
loop_
_space_group_symop_operation_xyz
x,y,z
-x,y,-z
1/2+x,1/2+y,z
1/2-x,1/2+y,-z
loop_
_atom_site_type_symbol
_atom_site_label
_atom_site_fract_x
_atom_site_fract_y
_atom_site_fract_z
Si Si1 0.376089 0.067830 0.689446
Si Si2 0.061994 0.171225 0.892888
Si Si3 0.759193 0.947507 0.872525
Si Si4 0.613861 0.481911 0.277340
Si Si5 0.075998 0.488232 0.424450
Si Si6 0.964281 0.055961 0.620514
Si Si7 0.500000 0.138213 0.000000
O O1 0.395128 0.258433 0.733516
O O2 0.155509 0.981359 0.639069
O O3 0.579292 0.952492 0.768627
O O4 0.368423 0.110813 0.616881
O O5 0.132751 0.383338 0.894855
O O6 0.282073 0.056589 0.957048
O O7 0.911668 0.124166 0.903400
O O8 0.940105 0.091959 0.798250
O O9 0.918964 0.773595 0.921573
O O10 0.474852 0.516885 0.293032
O O11 0.841905 0.537590 0.370316
O O12 0.057929 0.278001 0.394501
O O13 0.248274 0.487278 0.527068
#
# Coordination Sequence:
#
# PCOD9127479 Si02
#       7
#     4   4   4   4   4   4   2
#     4  11  24  40  66  99 135 187 241 301 369 452
#     4  10  22  47  71 103 144 186 244 301 375 451
#     4  10  22  47  71 105 141 191 241 304 372 458
#     4  11  24  40  66  98 136 188 238 304 368 452
#     4  11  23  43  60  95 139 183 244 302 367 442
#     4  11  25  39  64  97 136 187 243 302 369 444
#     4   8  24  44  70 100 140 184 244 314 380 458
#
# _framework density 25.325859999999999
#
# number of rings (size 3 to 8) (size 9 to 14) (size 15 to 20)
#    0.923    0.615    1.538    2.769    4.308    7.385 
#    8.308    0.000    0.000    0.000    0.000    0.000 
#    0.000    0.000    0.000    0.000    0.000    0.000 
#
# Total GULP energy -72454.118175 kJ/mol
# GULP energy per Si atom -5573.393706 kJ/mol
# Density = 2.526822 g / cm^3
# Si number density = 25.325860 Si / 1000 Ang^3
#
#
#
# Elastic Constant Matrix: (Units=GPa)
#
#
# Indices 1 2 3 4 5 6 
#
# 1 106.9006 17.2021 51.1845 0.0000 4.9323 0.0000
# 2 17.2021 68.9534 18.6200 0.0000 -3.0125 0.0000
# 3 51.1845 18.6200 132.2434 0.0000 17.2452 0.0000
# 4 0.0000 0.0000 0.0000 29.3383 0.0000 -6.8348
# 5 4.9323 -3.0125 17.2452 0.0000 45.7823 0.0000
# 6 0.0000 0.0000 0.0000 -6.8348 0.0000 29.3676
#
#
#
# Elastic Compliance Matrix: (Units=1/GPa)
#
#
# Indices 1 2 3 4 5 6 
#
# 1 0.011687 -0.001741 -0.004311 0.000000 0.000250 0.000000
# 2 -0.001741 0.015491 -0.001751 0.000000 0.001866 0.000000
# 3 -0.004311 -0.001751 0.009919 0.000000 -0.003387 0.000000
# 4 0.000000 0.000000 0.000000 0.036039 0.000000 0.008387
# 5 0.000250 0.001866 -0.003387 0.000000 0.023214 0.000000
# 6 0.000000 0.000000 0.000000 0.008387 0.000000 0.036003
#
#
# Mechanical properties :
#
#
# Convention : Reuss Voigt Hill
#
# Bulk Modulus (GPa) = 46.52915 53.56784 50.04850
# Shear Modulus (GPa) = 32.23264 35.63702 33.93483
#
# Velocity S-wave (km/s) = 3.57139 3.75526 3.66447
# Velocity P-wave (km/s) = 5.95134 6.32455 6.14078
#
# Compressibility (1/GPa) = 0.02149190
#
# Stress axis : x y z
#
# Youngs Moduli (GPa) = 85.56382 64.55317 100.82079
#
# Poissons Ratio (x) = 0.11236 0.43464
# Poissons Ratio (y) = 0.14893 0.17652
# Poissons Ratio (z) = 0.36887 0.11302
#
# Static dielectric constant tensor:
#      x y z
#    x 2.035740 0.000000 0.018800 
#    y 0.000000 2.070820 0.000000 
#    z 0.018800 0.000000 1.929100 
# 
# From -- ./inp_files/59341.got.cif
#   From: 2010.05.17/outbox.cif.g08.bks.cpg/sg5_30_cif.got.tgz:59341.got - 2010.06.03 18:56:24.
