data_PCOD9127714
_publ_section_title
;
Structure prediction by ZEFSAII (Michael W. Deem and Ramdas Pophale) SiO2 
 PCOD9127714
Probable space group: C 2
;
_chemical_formula_sum "Si O2"
_cell_formula_units_Z 28
_cell_length_a 11.371121
_cell_length_b 14.950412
_cell_length_c 8.816506
_cell_angle_alpha 90.000000
_cell_angle_beta 62.376947
_cell_angle_gamma 90.000000
_cell_volume 1327.990759
_symmetry_space_group_name_H-M "C 2"
_symmetry_group_IT_number 5
_symmetry_cell_setting 'monoclinic'
loop_
_space_group_symop_operation_xyz
x,y,z
-x,y,-z
1/2+x,1/2+y,z
1/2-x,1/2+y,-z
loop_
_atom_site_type_symbol
_atom_site_label
_atom_site_fract_x
_atom_site_fract_y
_atom_site_fract_z
Si Si1 0.263055 0.211700 0.983398
Si Si2 0.428609 0.441672 0.258314
Si Si3 0.225330 0.191887 0.341373
Si Si4 0.500000 0.550072 0.500000
Si Si5 0.305799 0.517352 0.051953
Si Si6 0.034732 0.746014 0.652987
Si Si7 0.418709 0.889834 0.890785
Si Si8 0.000000 0.338884 0.500000
O O1 0.185136 0.123550 0.973062
O O2 0.397745 0.216074 0.809287
O O3 0.298761 0.202125 0.138171
O O4 0.173525 0.301083 0.032975
O O5 0.432718 0.488949 0.415886
O O6 0.316873 0.483575 0.218144
O O7 0.421395 0.336665 0.287792
O O8 0.570079 0.468497 0.101104
O O9 0.338817 0.181159 0.399846
O O10 0.119629 0.113283 0.375723
O O11 0.130436 0.276063 0.434209
O O12 0.172914 0.477620 0.061244
O O13 0.000000 0.764187 0.500000
O O14 0.485554 0.882805 0.679836
O O15 0.500000 0.893776 0.000000
#
# Coordination Sequence:
#
# PCOD9127714 Si02
#       8
#     4   4   4   2   4   4   4   2
#     4  11  24  45  67  99 135 183 230 280 354 411
#     4  11  23  44  70  94 137 173 238 281 338 426
#     4  10  23  41  69  97 134 173 230 287 344 409
#     4  11  22  44  70 101 126 180 232 289 342 413
#     4  11  25  44  68 102 132 183 228 289 350 411
#     4  12  26  42  67 100 139 183 227 286 353 417
#     4  11  25  45  73  99 142 184 233 289 356 422
#     4   9  22  42  66 103 130 180 228 285 340 415
#
# _framework density 21.084482999999999
#
# number of rings (size 3 to 8) (size 9 to 14) (size 15 to 20)
#    0.000    1.143    3.571    2.143    8.000    1.143 
#    3.857    0.000    0.000    0.000    0.000    0.000 
#    0.000    0.000    0.000    0.000    0.000    0.000 
#
# Total GULP energy -78119.569629 kJ/mol
# GULP energy per Si atom -5579.969259 kJ/mol
# Density = 2.103649 g / cm^3
# Si number density = 21.084483 Si / 1000 Ang^3
#
#
#
# Elastic Constant Matrix: (Units=GPa)
#
#
# Indices 1 2 3 4 5 6 
#
# 1 99.5257 7.6681 26.2546 0.0000 16.1182 0.0000
# 2 7.6681 48.3965 5.5379 0.0000 0.4607 0.0000
# 3 26.2546 5.5379 88.3437 0.0000 -3.4152 0.0000
# 4 0.0000 0.0000 0.0000 19.5011 0.0000 15.4318
# 5 16.1182 0.4607 -3.4152 0.0000 36.7316 0.0000
# 6 0.0000 0.0000 0.0000 15.4318 0.0000 28.2401
#
#
#
# Elastic Compliance Matrix: (Units=1/GPa)
#
#
# Indices 1 2 3 4 5 6 
#
# 1 0.012045 -0.001431 -0.003707 0.000000 -0.005612 0.000000
# 2 -0.001431 0.020987 -0.000879 0.000000 0.000283 0.000000
# 3 -0.003707 -0.000879 0.012585 0.000000 0.002808 0.000000
# 4 0.000000 0.000000 0.000000 0.090347 0.000000 -0.049370
# 5 -0.005612 0.000283 0.002808 0.000000 0.029945 0.000000
# 6 0.000000 0.000000 0.000000 -0.049370 0.000000 0.062389
#
#
# Mechanical properties :
#
#
# Convention : Reuss Voigt Hill
#
# Bulk Modulus (GPa) = 29.77739 35.02081 32.39910
# Shear Modulus (GPa) = 19.87873 30.01492 24.94682
#
# Velocity S-wave (km/s) = 3.07386 3.77710 3.44348
# Velocity P-wave (km/s) = 5.17220 5.97225 5.58657
#
# Compressibility (1/GPa) = 0.03358253
#
# Stress axis : x y z
#
# Youngs Moduli (GPa) = 83.02488 47.64787 79.46155
#
# Poissons Ratio (x) = 0.06817 0.29454
# Poissons Ratio (y) = 0.11879 0.06988
# Poissons Ratio (z) = 0.30775 0.04190
#
# Static dielectric constant tensor:
#      x y z
#    x 1.449560 0.000000 -0.074580 
#    y 0.000000 1.765580 0.000000 
#    z -0.074580 0.000000 1.770890 
# 
# From -- ./inp_files/20571.got.cif
#   From: 2010.05.17/outbox.cif.g08.bks.cpg/sg5_11_cif.got.tgz:20571.got - 2010.06.03 18:56:24.
