data_PCOD9127620
_publ_section_title
;
Structure prediction by ZEFSAII (Michael W. Deem and Ramdas Pophale) SiO2 
 PCOD9127620
Probable space group: C 2
;
_chemical_formula_sum "Si O2"
_cell_formula_units_Z 28
_cell_length_a 12.336186
_cell_length_b 7.755717
_cell_length_c 27.500758
_cell_angle_alpha 90.000000
_cell_angle_beta 154.120850
_cell_angle_gamma 90.000000
_cell_volume 1148.434717
_symmetry_space_group_name_H-M "C 2"
_symmetry_group_IT_number 5
_symmetry_cell_setting 'monoclinic'
loop_
_space_group_symop_operation_xyz
x,y,z
-x,y,-z
1/2+x,1/2+y,z
1/2-x,1/2+y,-z
loop_
_atom_site_type_symbol
_atom_site_label
_atom_site_fract_x
_atom_site_fract_y
_atom_site_fract_z
Si Si1 0.498856 0.345060 0.945453
Si Si2 0.251457 0.880756 0.797887
Si Si3 0.528066 0.011704 0.717222
Si Si4 0.305079 0.735174 0.979841
Si Si5 0.340595 0.131516 0.744348
Si Si6 0.694494 0.798216 0.452862
Si Si7 0.238104 0.460125 0.569521
O O1 0.227170 0.363282 0.811610
O O2 0.681096 0.247908 0.982892
O O3 0.500000 0.273053 0.000000
O O4 0.591567 0.543640 0.987206
O O5 0.182589 0.679361 0.762729
O O6 0.983520 0.964548 0.701535
O O7 0.344426 0.982829 0.787607
O O8 0.467664 0.869029 0.925396
O O9 0.348076 0.952209 0.601921
O O10 0.383288 0.057215 0.708101
O O11 0.075372 0.755237 0.850557
O O12 0.080277 0.227493 0.644883
O O13 0.831881 0.646738 0.479836
O O14 0.811025 0.857287 0.550195
O O15 0.000000 0.384375 0.500000
#
# Coordination Sequence:
#
# PCOD9127620 Si02
#       7
#     4   4   4   4   4   4   4
#     4  11  21  38  61  89 135 173 212 265 324 394
#     4  10  23  40  65  96 132 174 223 269 327 399
#     4  11  22  39  66  95 127 178 219 264 337 392
#     4  11  20  38  64  96 133 175 218 269 327 402
#     4  11  22  42  65  97 137 172 220 279 331 398
#     4  11  25  42  70  97 131 173 224 281 337 396
#     4  11  25  47  68  99 135 174 229 283 333 395
#
# _framework density 24.381012999999999
#
# number of rings (size 3 to 8) (size 9 to 14) (size 15 to 20)
#    0.000    1.143    4.286    1.714    0.000    3.429 
#    0.000    2.857    0.000    0.000    0.000    0.000 
#    0.000    0.000    0.000    0.000    0.000    0.000 
#
# Total GULP energy -78336.408693 kJ/mol
# GULP energy per Si atom -5595.457764 kJ/mol
# Density = 2.432552 g / cm^3
# Si number density = 24.381013 Si / 1000 Ang^3
#
#
#
# Elastic Constant Matrix: (Units=GPa)
#
#
# Indices 1 2 3 4 5 6 
#
# 1 135.8079 14.5888 34.6576 -0.0001 0.2031 0.0000
# 2 14.5888 57.6238 9.4161 0.0000 -11.0900 0.0000
# 3 34.6576 9.4161 88.1105 0.0000 -0.4775 -0.0001
# 4 -0.0001 0.0000 0.0000 28.4077 -0.0003 3.1379
# 5 0.2031 -11.0900 -0.4775 -0.0003 21.2386 0.0001
# 6 0.0000 0.0000 -0.0001 3.1379 0.0001 32.2159
#
#
#
# Elastic Compliance Matrix: (Units=1/GPa)
#
#
# Indices 1 2 3 4 5 6 
#
# 1 0.008351 -0.001820 -0.003096 0.000000 -0.001100 0.000000
# 2 -0.001820 0.020051 -0.001370 0.000000 0.010457 0.000000
# 3 -0.003096 -0.001370 0.012711 0.000000 -0.000400 0.000000
# 4 0.000000 0.000000 0.000000 0.035585 0.000001 -0.003466
# 5 -0.001100 0.010457 -0.000400 0.000001 0.052546 0.000000
# 6 0.000000 0.000000 0.000000 -0.003466 0.000000 0.031378
#
#
# Mechanical properties :
#
#
# Convention : Reuss Voigt Hill
#
# Bulk Modulus (GPa) = 35.03787 44.31857 39.67822
# Shear Modulus (GPa) = 27.36613 31.23108 29.29861
#
# Velocity S-wave (km/s) = 3.35391 3.58293 3.47031
# Velocity P-wave (km/s) = 5.42222 5.94420 5.68920
#
# Compressibility (1/GPa) = 0.02854055
#
# Stress axis : x y z
#
# Youngs Moduli (GPa) = 119.75189 49.87277 78.66899
#
# Poissons Ratio (x) = 0.09076 0.24357
# Poissons Ratio (y) = 0.21793 0.10780
# Poissons Ratio (z) = 0.37077 0.06834
#
# Static dielectric constant tensor:
#      x y z
#    x 1.893500 0.000000 0.000580 
#    y 0.000000 1.964490 0.000000 
#    z 0.000580 0.000000 1.977320 
# 
# From -- ./inp_files/70367.got.cif
#   From: 2010.05.17/outbox.cif.g08.bks.cpg/sg5_36_cif.got.tgz:70367.got - 2010.06.03 18:56:24.
