data_PCOD9127763
_publ_section_title
;
Structure prediction by ZEFSAII (Michael W. Deem and Ramdas Pophale) SiO2 
 PCOD9127763
Probable space group: C 2
;
_chemical_formula_sum "Si O2"
_cell_formula_units_Z 28
_cell_length_a 26.930615
_cell_length_b 8.655016
_cell_length_c 5.157223
_cell_angle_alpha 90.000000
_cell_angle_beta 76.121070
_cell_angle_gamma 90.000000
_cell_volume 1166.976077
_symmetry_space_group_name_H-M "C 2"
_symmetry_group_IT_number 5
_symmetry_cell_setting 'monoclinic'
loop_
_space_group_symop_operation_xyz
x,y,z
-x,y,-z
1/2+x,1/2+y,z
1/2-x,1/2+y,-z
loop_
_atom_site_type_symbol
_atom_site_label
_atom_site_fract_x
_atom_site_fract_y
_atom_site_fract_z
Si Si1 0.781882 0.323080 0.932169
Si Si2 0.500000 0.364431 0.500000
Si Si3 0.788432 0.627464 0.632912
Si Si4 0.857077 0.085393 0.869636
Si Si5 0.000000 0.084101 0.000000
Si Si6 0.392299 0.240474 0.747112
Si Si7 0.602042 0.721826 0.674905
Si Si8 0.854852 0.520107 0.174927
O O1 0.743372 0.266139 0.203558
O O2 0.832192 0.401582 0.992108
O O3 0.766508 0.459707 0.753831
O O4 0.805541 0.159369 0.809375
O O5 0.493327 0.471251 0.762012
O O6 0.447436 0.266486 0.550971
O O7 0.847682 0.658018 0.640010
O O8 0.801916 0.610689 0.314074
O O9 0.897887 0.158104 0.616367
O O10 0.867235 0.905293 0.839992
O O11 0.861735 0.126683 0.168748
O O12 0.047687 0.191601 0.873082
O O13 0.394777 0.137942 0.003357
O O14 0.620206 0.898153 0.659731
#
# Coordination Sequence:
#
# PCOD9127763 Si02
#       8
#     4   2   4   4   2   4   4   4
#     4  10  23  42  66 100 135 182 236 287 358 430
#     4  12  26  44  70 106 138 178 244 294 356 426
#     4  11  23  44  66  95 140 182 236 292 358 429
#     4  11  22  42  70 100 137 179 228 294 350 413
#     4  12  22  44  72 102 132 186 246 288 352 430
#     4  11  25  44  67 102 137 185 234 299 355 423
#     4  11  22  44  69  96 139 182 233 293 344 422
#     4  10  25  44  64 101 144 181 236 297 363 425
#
# _framework density 23.993639999999999
#
# number of rings (size 3 to 8) (size 9 to 14) (size 15 to 20)
#    0.000    1.143    4.286    0.857    4.000    3.429 
#    5.143    0.000    0.000    0.000    0.000    0.000 
#    0.000    0.000    0.000    0.000    0.000    0.000 
#
# Total GULP energy -78051.054385 kJ/mol
# GULP energy per Si atom -5575.075313 kJ/mol
# Density = 2.393903 g / cm^3
# Si number density = 23.993640 Si / 1000 Ang^3
#
#
#
# Elastic Constant Matrix: (Units=GPa)
#
#
# Indices 1 2 3 4 5 6 
#
# 1 67.8978 33.0236 18.5742 0.0000 -20.1053 0.0000
# 2 33.0236 125.2047 41.5640 0.0000 -18.3881 0.0000
# 3 18.5742 41.5640 114.7258 0.0000 -16.1214 0.0000
# 4 0.0000 0.0000 0.0000 50.1991 0.0000 -18.8885
# 5 -20.1053 -18.3881 -16.1214 0.0000 37.5402 0.0000
# 6 0.0000 0.0000 0.0000 -18.8885 0.0000 23.6398
#
#
#
# Elastic Compliance Matrix: (Units=1/GPa)
#
#
# Indices 1 2 3 4 5 6 
#
# 1 0.019083 -0.003624 -0.000628 0.000000 0.008176 0.000000
# 2 -0.003624 0.010151 -0.002836 0.000000 0.001813 0.000000
# 3 -0.000628 -0.002836 0.010220 0.000000 0.002664 0.000000
# 4 0.000000 0.000000 0.000000 0.028484 0.000000 0.022759
# 5 0.008176 0.001813 0.002664 0.000000 0.033049 0.000000
# 6 0.000000 0.000000 0.000000 0.022759 0.000000 0.060486
#
#
# Mechanical properties :
#
#
# Convention : Reuss Voigt Hill
#
# Bulk Modulus (GPa) = 39.56024 54.90578 47.23301
# Shear Modulus (GPa) = 27.16287 36.58692 31.87489
#
# Velocity S-wave (km/s) = 3.36830 3.90918 3.64878
# Velocity P-wave (km/s) = 5.62591 6.58094 6.12207
#
# Compressibility (1/GPa) = 0.02527790
#
# Stress axis : x y z
#
# Youngs Moduli (GPa) = 52.40155 98.51682 97.84960
#
# Poissons Ratio (x) = 0.35705 0.06142
# Poissons Ratio (y) = 0.18992 0.27749
# Poissons Ratio (z) = 0.03289 0.27938
#
# Static dielectric constant tensor:
#      x y z
#    x 2.036500 0.000000 0.122870 
#    y 0.000000 1.958000 0.000000 
#    z 0.122870 0.000000 2.239450 
# 
# From -- ./inp_files/10801.got.cif
#   From: 2010.05.17/outbox.cif.g08.bks.cpg/sg5_6_cif.got.tgz:10801.got - 2010.06.03 18:56:24.
