data_PCOD9127692
_publ_section_title
;
Structure prediction by ZEFSAII (Michael W. Deem and Ramdas Pophale) SiO2 
 PCOD9127692
Probable space group: C 2
;
_chemical_formula_sum "Si O2"
_cell_formula_units_Z 28
_cell_length_a 29.580965
_cell_length_b 8.935192
_cell_length_c 8.715215
_cell_angle_alpha 90.000000
_cell_angle_beta 146.125681
_cell_angle_gamma 90.000000
_cell_volume 1283.926846
_symmetry_space_group_name_H-M "C 2"
_symmetry_group_IT_number 5
_symmetry_cell_setting 'monoclinic'
loop_
_space_group_symop_operation_xyz
x,y,z
-x,y,-z
1/2+x,1/2+y,z
1/2-x,1/2+y,-z
loop_
_atom_site_type_symbol
_atom_site_label
_atom_site_fract_x
_atom_site_fract_y
_atom_site_fract_z
Si Si1 0.000000 0.717490 0.500000
Si Si2 0.409789 0.969152 0.071865
Si Si3 0.386269 0.468926 0.129255
Si Si4 0.000000 0.225280 0.500000
Si Si5 0.263483 0.836548 0.159220
Si Si6 0.243367 0.983577 0.783684
Si Si7 0.091382 0.365933 0.243510
Si Si8 0.083457 0.011708 0.146456
O O1 0.962749 0.613277 0.263847
O O2 0.927788 0.830423 0.334996
O O3 0.470552 0.831866 0.280511
O O4 0.331141 0.956332 0.956701
O O5 0.375784 0.960771 0.805790
O O6 0.423503 0.616473 0.313285
O O7 0.292314 0.434283 0.882761
O O8 0.414138 0.475704 0.029167
O O9 0.256940 0.659945 0.172766
O O10 0.355835 0.880080 0.456529
O O11 0.237812 0.883080 0.918508
O O12 0.165980 0.951641 0.457349
O O13 0.090355 0.191585 0.190043
O O14 0.000000 0.416987 0.000000
O O15 0.000000 0.966370 0.000000
#
# Coordination Sequence:
#
# PCOD9127692 Si02
#       8
#     2   4   4   2   4   4   4   4
#     4  10  24  38  70  94 136 160 222 274 340 370
#     4  11  22  44  65  96 132 174 214 274 326 390
#     4  11  22  44  65  96 132 174 214 274 326 390
#     4  10  24  34  78  94 120 176 230 250 340 394
#     4  11  26  43  66  97 135 173 219 272 327 387
#     4  11  26  43  66  97 135 173 219 272 327 387
#     4  10  23  41  67  96 129 171 223 268 320 391
#     4  10  23  41  67  96 129 171 223 268 320 391
#
# _framework density 21.808095999999999
#
# number of rings (size 3 to 8) (size 9 to 14) (size 15 to 20)
#    0.000    1.429    2.857    0.857   10.000    0.000 
#    2.571    0.714    0.000    0.000    0.000    0.000 
#    0.000    0.000    0.000    0.000    0.000    0.000 
#
# Total GULP energy -78163.745785 kJ/mol
# GULP energy per Si atom -5583.124699 kJ/mol
# Density = 2.175846 g / cm^3
# Si number density = 21.808096 Si / 1000 Ang^3
#
#
#
# Elastic Constant Matrix: (Units=GPa)
#
#
# Indices 1 2 3 4 5 6 
#
# 1 97.7073 3.2272 37.6247 0.0000 5.9926 0.0000
# 2 3.2272 68.2862 26.6874 0.0000 6.2101 0.0000
# 3 37.6247 26.6874 143.9881 0.0000 3.2027 0.0000
# 4 0.0000 0.0000 0.0000 12.1720 0.0000 -12.2288
# 5 5.9926 6.2101 3.2027 0.0000 30.4072 0.0000
# 6 0.0000 0.0000 0.0000 -12.2288 0.0000 5.5922
#
#
#
# Elastic Compliance Matrix: (Units=1/GPa)
#
#
# Indices 1 2 3 4 5 6 
#
# 1 0.011541 0.000871 -0.003130 0.000000 -0.002123 0.000000
# 2 0.000871 0.016117 -0.003145 0.000000 -0.003132 0.000000
# 3 -0.003130 -0.003145 0.008337 0.000000 0.000381 0.000000
# 4 0.000000 0.000000 0.000000 -0.068637 0.000000 -0.150091
# 5 -0.002123 -0.003132 0.000381 0.000000 0.033905 0.000000
# 6 0.000000 0.000000 0.000000 -0.150091 0.000000 -0.149393
#
#
# Mechanical properties :
#
#
# Convention : Reuss Voigt Hill
#
# Bulk Modulus (GPa) = 39.70255 49.45114 44.57685
# Shear Modulus (GPa) = -38.78221 25.79710 -6.49255
#
# Velocity S-wave (km/s) = -4.22161 3.44308 -1.72731
# Velocity P-wave (km/s) = 2.34899 6.20735 4.06285
#
# Compressibility (1/GPa) = 0.02518730
#
# Stress axis : x y z
#
# Youngs Moduli (GPa) = 86.64484 62.04598 119.94204
#
# Poissons Ratio (x) = -0.05403 0.37542
# Poissons Ratio (y) = -0.07546 0.37723
# Poissons Ratio (z) = 0.27120 0.19514
#
# Static dielectric constant tensor:
#      x y z
#    x 1.855210 0.000000 0.047310 
#    y 0.000000 1.797410 0.000000 
#    z 0.047310 0.000000 1.813850 
# 
# From -- ./inp_files/31806.got.cif
#   From: 2010.05.17/outbox.cif.g08.bks.cpg/sg5_16_cif.got.tgz:31806.got - 2010.06.03 18:56:24.
