data_PCOD9127342
_publ_section_title
;
Structure prediction by ZEFSAII (Michael W. Deem and Ramdas Pophale) SiO2 
 PCOD9127342
Probable space group: C 2
;
_chemical_formula_sum "Si O2"
_cell_formula_units_Z 30
_cell_length_a 12.868091
_cell_length_b 18.561686
_cell_length_c 10.297402
_cell_angle_alpha 90.000000
_cell_angle_beta 147.473805
_cell_angle_gamma 90.000000
_cell_volume 1322.474321
_symmetry_space_group_name_H-M "C 2"
_symmetry_group_IT_number 5
_symmetry_cell_setting 'monoclinic'
loop_
_space_group_symop_operation_xyz
x,y,z
-x,y,-z
1/2+x,1/2+y,z
1/2-x,1/2+y,-z
loop_
_atom_site_type_symbol
_atom_site_label
_atom_site_fract_x
_atom_site_fract_y
_atom_site_fract_z
Si Si1 0.800126 0.986480 0.739584
Si Si2 0.500000 0.980822 0.000000
Si Si3 0.343164 0.860669 0.231185
Si Si4 0.631983 0.117841 0.430204
Si Si5 0.813990 0.387451 0.595496
Si Si6 0.276896 0.214646 0.971165
Si Si7 0.089161 0.239329 0.228752
Si Si8 0.718727 0.594953 0.707570
O O1 0.734291 0.931911 0.782070
O O2 0.826253 0.932241 0.644655
O O3 0.643550 0.044084 0.523798
O O4 0.000000 0.020342 0.000000
O O5 0.646356 0.931961 0.233854
O O6 0.641038 0.037020 0.075586
O O7 0.500000 0.828534 0.500000
O O8 0.474001 0.884288 0.248501
O O9 0.192320 0.798649 0.033355
O O10 0.719578 0.101577 0.378093
O O11 0.783796 0.169821 0.660217
O O12 0.438733 0.165837 0.212322
O O13 0.774930 0.303514 0.575091
O O14 0.081773 0.219315 0.851426
O O15 0.244268 0.171554 0.803285
O O16 0.000000 0.265770 0.000000
O O17 0.500000 0.572309 0.500000
#
# Coordination Sequence:
#
# PCOD9127342 Si02
#       8
#     4   2   4   4   4   4   4   4
#     4  11  24  43  68 105 141 182 232 293 360 425
#     4  12  22  46  68  98 140 180 224 290 356 422
#     4   9  22  42  68 102 136 184 235 294 351 421
#     4  12  25  44  67 103 142 180 237 288 365 421
#     4  10  22  45  70  96 136 186 229 286 360 418
#     4  11  23  43  73 101 137 184 243 290 353 422
#     4  11  25  46  69  98 141 188 232 299 354 427
#     4  12  23  40  68 103 136 180 232 292 348 427
#
# _framework density 22.684750999999999
#
# number of rings (size 3 to 8) (size 9 to 14) (size 15 to 20)
#    0.000    1.067    4.667    0.800    5.600    1.600 
#   16.800    0.000    0.000    0.000    0.000    0.000 
#    0.000    0.000    0.000    0.000    0.000    0.000 
#
# Total GULP energy -83731.262296 kJ/mol
# GULP energy per Si atom -5582.084153 kJ/mol
# Density = 2.263312 g / cm^3
# Si number density = 22.684751 Si / 1000 Ang^3
#
#
#
# Elastic Constant Matrix: (Units=GPa)
#
#
# Indices 1 2 3 4 5 6 
#
# 1 35.8962 23.1654 5.9051 0.0000 -5.7972 0.0000
# 2 23.1654 146.1994 39.8440 0.0000 6.1844 0.0000
# 3 5.9051 39.8440 90.8937 0.0000 14.2971 0.0000
# 4 0.0000 0.0000 0.0000 46.2513 0.0000 -6.3358
# 5 -5.7972 6.1844 14.2971 0.0000 21.1566 0.0000
# 6 0.0000 0.0000 0.0000 -6.3358 0.0000 16.6500
#
#
#
# Elastic Compliance Matrix: (Units=1/GPa)
#
#
# Indices 1 2 3 4 5 6 
#
# 1 0.033512 -0.005349 -0.001704 0.000000 0.011898 0.000000
# 2 -0.005349 0.008622 -0.003139 0.000000 -0.001865 0.000000
# 3 -0.001704 -0.003139 0.013894 0.000000 -0.008939 0.000000
# 4 0.000000 0.000000 0.000000 0.022810 0.000000 0.008680
# 5 0.011898 -0.001865 -0.008939 0.000000 0.057113 0.000000
# 6 0.000000 0.000000 0.000000 0.008680 0.000000 0.063363
#
#
# Mechanical properties :
#
#
# Convention : Reuss Voigt Hill
#
# Bulk Modulus (GPa) = 28.05420 45.64646 36.85033
# Shear Modulus (GPa) = 21.59101 30.41657 26.00379
#
# Velocity S-wave (km/s) = 3.08845 3.66572 3.38940
# Velocity P-wave (km/s) = 5.01117 6.17110 5.62113
#
# Compressibility (1/GPa) = 0.03564528
#
# Stress axis : x y z
#
# Youngs Moduli (GPa) = 29.84031 115.98572 71.97138
#
# Poissons Ratio (x) = 0.62039 0.12263
# Poissons Ratio (y) = 0.15961 0.22589
# Poissons Ratio (z) = 0.05084 0.36403
#
# Static dielectric constant tensor:
#      x y z
#    x 1.844430 0.000000 -0.011540 
#    y 0.000000 1.856910 0.000000 
#    z -0.011540 0.000000 1.895500 
# 
# From -- ./inp_files/43340.got.cif
#   From: 2010.05.17/outbox.cif.g08.bks.cpg/sg5_22_cif.got.tgz:43340.got - 2010.06.03 18:56:24.
