data_PCOD9127287
_publ_section_title
;
Structure prediction by ZEFSAII (Michael W. Deem and Ramdas Pophale) SiO2 
 PCOD9127287
Probable space group: C 2
;
_chemical_formula_sum "Si O2"
_cell_formula_units_Z 18
_cell_length_a 9.549619
_cell_length_b 17.009420
_cell_length_c 5.237908
_cell_angle_alpha 90.000000
_cell_angle_beta 73.830078
_cell_angle_gamma 90.000000
_cell_volume 817.153529
_symmetry_space_group_name_H-M "C 2"
_symmetry_group_IT_number 5
_symmetry_cell_setting 'monoclinic'
loop_
_space_group_symop_operation_xyz
x,y,z
-x,y,-z
1/2+x,1/2+y,z
1/2-x,1/2+y,-z
loop_
_atom_site_type_symbol
_atom_site_label
_atom_site_fract_x
_atom_site_fract_y
_atom_site_fract_z
Si Si1 0.664587 0.803490 0.806387
Si Si2 0.814209 0.093934 0.761265
Si Si3 0.089132 0.918148 0.211331
Si Si4 0.663062 0.145109 0.314923
Si Si5 0.000000 0.229047 0.500000
O O1 0.752104 0.878982 0.851222
O O2 0.772153 0.730016 0.794616
O O3 0.627373 0.786583 0.528285
O O4 0.500000 0.802909 0.000000
O O5 0.752718 0.106999 0.506351
O O6 0.928802 0.166281 0.732560
O O7 0.892432 0.011484 0.764062
O O8 0.689878 0.097908 0.040397
O O9 0.000000 0.887092 0.500000
O O10 0.000000 0.900910 0.000000
O O11 0.500000 0.151060 0.500000
#
# Coordination Sequence:
#
# PCOD9127287 Si02
#       5
#     4   4   4   4   2
#     4  11  25  44  71 104 143 190 237 292 357 423
#     4  11  23  44  73 101 136 193 238 287 351 425
#     4  12  28  46  72 105 147 188 235 297 361 422
#     4  11  24  43  72 104 142 182 244 293 350 424
#     4  10  22  44  76 100 136 190 244 286 346 430
#
# _framework density 22.027685999999999
#
# number of rings (size 3 to 8) (size 9 to 14) (size 15 to 20)
#    0.000    0.889    3.333    2.667    6.222    3.556 
#    2.000    0.000    0.000    0.000    0.000    0.000 
#    0.000    0.000    0.000    0.000    0.000    0.000 
#
# Total GULP energy -50200.141548 kJ/mol
# GULP energy per Si atom -5577.793505 kJ/mol
# Density = 2.197755 g / cm^3
# Si number density = 22.027686 Si / 1000 Ang^3
#
#
#
# Elastic Constant Matrix: (Units=GPa)
#
#
# Indices 1 2 3 4 5 6 
#
# 1 134.5577 53.6462 49.3836 0.0000 -14.0160 0.0000
# 2 53.6462 66.4589 40.7954 0.0000 19.3545 0.0000
# 3 49.3836 40.7954 132.4098 0.0000 -20.7755 0.0000
# 4 0.0000 0.0000 0.0000 6.5852 0.0000 -4.0607
# 5 -14.0160 19.3545 -20.7755 0.0000 51.0168 0.0000
# 6 0.0000 0.0000 0.0000 -4.0607 0.0000 35.2968
#
#
#
# Elastic Compliance Matrix: (Units=1/GPa)
#
#
# Indices 1 2 3 4 5 6 
#
# 1 0.013964 -0.014596 0.000812 0.000000 0.009705 0.000000
# 2 -0.014596 0.040258 -0.010667 0.000000 -0.023627 0.000000
# 3 0.000812 -0.010667 0.011971 0.000000 0.009144 0.000000
# 4 0.000000 0.000000 0.000000 0.163451 0.000000 0.018804
# 5 0.009705 -0.023627 0.009144 0.000000 0.034955 0.000000
# 6 0.000000 0.000000 0.000000 0.018804 0.000000 0.030495
#
#
# Mechanical properties :
#
#
# Convention : Reuss Voigt Hill
#
# Bulk Modulus (GPa) = 57.83710 69.00854 63.42282
# Shear Modulus (GPa) = 14.29561 31.21983 22.75772
#
# Velocity S-wave (km/s) = 2.55028 3.76879 3.21774
# Velocity P-wave (km/s) = 5.91485 7.09468 6.53146
#
# Compressibility (1/GPa) = 0.01728994
#
# Stress axis : x y z
#
# Youngs Moduli (GPa) = 71.61231 24.84008 83.53742
#
# Poissons Ratio (x) = 0.36258 -0.06781
# Poissons Ratio (y) = 1.04528 0.89105
# Poissons Ratio (z) = -0.05813 0.26496
#
# Static dielectric constant tensor:
#      x y z
#    x 1.835950 0.000000 0.005560 
#    y 0.000000 1.779300 0.000000 
#    z 0.005560 0.000000 1.956780 
# 
# From -- ./inp_files/2360.got.cif
#   From: 2010.05.17/outbox.cif.g08.bks.cpg/sg5_2_cif.got.tgz:2360.got - 2010.06.03 18:56:24.
