data_PCOD9127187
_publ_section_title
;
Structure prediction by ZEFSAII (Michael W. Deem and Ramdas Pophale) SiO2 
 PCOD9127187
Probable space group: C 2
;
_chemical_formula_sum "Si O2"
_cell_formula_units_Z 20
_cell_length_a 12.381055
_cell_length_b 11.881361
_cell_length_c 9.532227
_cell_angle_alpha 90.000000
_cell_angle_beta 134.776230
_cell_angle_gamma 90.000000
_cell_volume 995.388830
_symmetry_space_group_name_H-M "C 2"
_symmetry_group_IT_number 5
_symmetry_cell_setting 'monoclinic'
loop_
_space_group_symop_operation_xyz
x,y,z
-x,y,-z
1/2+x,1/2+y,z
1/2-x,1/2+y,-z
loop_
_atom_site_type_symbol
_atom_site_label
_atom_site_fract_x
_atom_site_fract_y
_atom_site_fract_z
Si Si1 0.500000 0.870710 0.500000
Si Si2 0.500000 0.077735 0.000000
Si Si3 0.133294 0.407458 0.895964
Si Si4 0.964441 0.175192 0.803595
Si Si5 0.216122 0.742722 0.379535
Si Si6 0.522621 0.427428 0.851246
O O1 0.559295 0.946566 0.681745
O O2 0.357107 0.793313 0.417401
O O3 0.615021 0.156311 0.195363
O O4 0.408234 0.995061 0.020752
O O5 0.056299 0.286127 0.846078
O O6 0.310771 0.387532 0.037052
O O7 0.794113 0.192098 0.589966
O O8 0.012853 0.054845 0.787654
O O9 0.000000 0.166039 0.000000
O O10 0.108454 0.846281 0.323603
O O11 0.500000 0.425255 0.000000
#
# Coordination Sequence:
#
# PCOD9127187 Si02
#       6
#     2   2   4   4   4   4
#     4  10  22  44  68  92 138 186 222 270 332 420
#     4  12  26  42  70 104 136 174 230 292 332 402
#     4  11  24  42  70  98 141 172 234 278 341 392
#     4  10  25  44  66  98 138 178 227 280 333 404
#     4  11  24  43  70  99 134 182 231 272 346 400
#     4  11  23  43  69  93 135 185 225 273 337 409
#
# _framework density 20.092652000000001
#
# number of rings (size 3 to 8) (size 9 to 14) (size 15 to 20)
#    0.000    1.200    4.000    0.000   14.000    0.000 
#    0.000    3.000    0.000    0.000    0.000    0.000 
#    0.000    0.000    0.000    0.000    0.000    0.000 
#
# Total GULP energy -55796.808475 kJ/mol
# GULP energy per Si atom -5579.680847 kJ/mol
# Density = 2.004692 g / cm^3
# Si number density = 20.092652 Si / 1000 Ang^3
#
#
#
# Elastic Constant Matrix: (Units=GPa)
#
#
# Indices 1 2 3 4 5 6 
#
# 1 92.1604 25.4997 38.7832 0.0000 23.3053 0.0000
# 2 25.4997 107.9356 49.8892 0.0000 18.4975 0.0000
# 3 38.7832 49.8892 143.3910 0.0000 16.6062 0.0000
# 4 0.0000 0.0000 0.0000 -70.3729 0.0000 14.2678
# 5 23.3053 18.4975 16.6062 0.0000 35.9696 0.0000
# 6 0.0000 0.0000 0.0000 14.2678 0.0000 -3.5924
#
#
#
# Elastic Compliance Matrix: (Units=1/GPa)
#
#
# Indices 1 2 3 4 5 6 
#
# 1 0.014087 -0.000817 -0.002660 0.000000 -0.007479 0.000000
# 2 -0.000817 0.011699 -0.003395 0.000000 -0.003919 0.000000
# 3 -0.002660 -0.003395 0.008952 0.000000 -0.000663 0.000000
# 4 0.000000 0.000000 0.000000 -0.072964 0.000000 -0.289792
# 5 -0.007479 -0.003919 -0.000663 0.000000 0.034969 0.000000
# 6 0.000000 0.000000 0.000000 -0.289792 0.000000 -1.429338
#
#
# Mechanical properties :
#
#
# Convention : Reuss Voigt Hill
#
# Bulk Modulus (GPa) = 47.63422 63.53679 55.58551
# Shear Modulus (GPa) = -3.54145 7.68853 2.07354
#
# Velocity S-wave (km/s) = -1.32905 1.95828 1.01697
# Velocity P-wave (km/s) = 4.62640 6.06660 5.39478
#
# Compressibility (1/GPa) = 0.02099331
#
# Stress axis : x y z
#
# Youngs Moduli (GPa) = 70.98565 85.47824 111.71302
#
# Poissons Ratio (x) = 0.06983 0.29713
# Poissons Ratio (y) = 0.05799 0.37932
# Poissons Ratio (z) = 0.18881 0.29024
#
# Static dielectric constant tensor:
#      x y z
#    x 1.742660 0.000000 -0.049790 
#    y 0.000000 1.726140 0.000000 
#    z -0.049790 0.000000 1.796010 
# 
# From -- ./inp_files/18967.got.cif
#   From: 2010.05.17/outbox.cif.g08.bks.cpg/sg5_10_cif.got.tgz:18967.got - 2010.06.03 18:56:24.
