data_PCOD9127117
_publ_section_title
;
Structure prediction by ZEFSAII (Michael W. Deem and Ramdas Pophale) SiO2 
 PCOD9127117
Probable space group: C 2
;
_chemical_formula_sum "Si O2"
_cell_formula_units_Z 26
_cell_length_a 9.637068
_cell_length_b 12.447980
_cell_length_c 14.095770
_cell_angle_alpha 90.000000
_cell_angle_beta 147.913653
_cell_angle_gamma 90.000000
_cell_volume 898.230880
_symmetry_space_group_name_H-M "C 2"
_symmetry_group_IT_number 5
_symmetry_cell_setting 'monoclinic'
loop_
_space_group_symop_operation_xyz
x,y,z
-x,y,-z
1/2+x,1/2+y,z
1/2-x,1/2+y,-z
loop_
_atom_site_type_symbol
_atom_site_label
_atom_site_fract_x
_atom_site_fract_y
_atom_site_fract_z
Si Si1 0.198181 0.929730 0.799066
Si Si2 0.245333 0.760770 0.461810
Si Si3 0.100782 0.437917 0.658234
Si Si4 0.061295 0.555092 0.275541
Si Si5 0.000000 0.835526 0.500000
Si Si6 0.000000 0.834381 0.000000
Si Si7 0.798427 0.141006 0.084272
Si Si8 0.000000 0.135827 0.000000
O O1 0.166247 0.914858 0.666191
O O2 0.996035 0.836206 0.717166
O O3 0.114005 0.045423 0.793933
O O4 0.500000 0.903461 0.000000
O O5 0.520703 0.813008 0.603198
O O6 0.250144 0.647005 0.416213
O O7 0.164992 0.758166 0.526160
O O8 0.000000 0.487702 0.500000
O O9 0.900194 0.456692 0.631340
O O10 0.401874 0.417439 0.862034
O O11 0.788332 0.585201 0.175805
O O12 0.544561 0.079314 0.890128
O O13 0.206544 0.751796 0.076225
O O14 0.969346 0.174532 0.091627
#
# Coordination Sequence:
#
# PCOD9127117 Si02
#       8
#     4   4   4   4   2   2   4   2
#     4  10  22  43  76 110 151 193 247 313 385 434
#     4  10  25  45  69 113 147 191 253 315 368 452
#     4  12  29  48  73 108 150 202 249 316 376 458
#     4  10  24  44  73 106 149 197 254 308 373 450
#     4   8  24  40  70 116 140 188 248 312 362 448
#     4  12  27  52  75 108 156 196 259 306 395 436
#     4  10  23  44  78 112 145 207 242 320 365 457
#     4   8  23  42  75 114 140 202 265 290 385 454
#
# _framework density 28.945785999999998
#
# number of rings (size 3 to 8) (size 9 to 14) (size 15 to 20)
#    1.846    0.000    0.769    1.385    6.462    3.692 
#    1.385    0.000    0.000    0.000    0.000    0.000 
#    0.000    0.000    0.000    0.000    0.000    0.000 
#
# Total GULP energy -72413.482256 kJ/mol
# GULP energy per Si atom -5570.267866 kJ/mol
# Density = 2.887990 g / cm^3
# Si number density = 28.945786 Si / 1000 Ang^3
#
#
#
# Elastic Constant Matrix: (Units=GPa)
#
#
# Indices 1 2 3 4 5 6 
#
# 1 109.0875 -10.2580 4.0309 0.0009 -30.3353 0.0001
# 2 -10.2580 79.8734 1.8692 0.0085 -22.7079 0.0035
# 3 4.0309 1.8692 94.6594 0.0223 -15.2449 0.0116
# 4 0.0009 0.0085 0.0223 110.4247 0.0094 5.3181
# 5 -30.3353 -22.7079 -15.2449 0.0094 59.4279 0.0031
# 6 0.0001 0.0035 0.0116 5.3181 0.0031 26.0903
#
#
#
# Elastic Compliance Matrix: (Units=1/GPa)
#
#
# Indices 1 2 3 4 5 6 
#
# 1 0.011544 0.003578 0.000633 -0.000001 0.007422 -0.000001
# 2 0.003578 0.015189 0.000810 -0.000002 0.007838 -0.000003
# 3 0.000633 0.000810 0.011081 -0.000002 0.003475 -0.000005
# 4 -0.000001 -0.000002 -0.000002 0.009146 -0.000003 -0.001864
# 5 0.007422 0.007838 0.003475 -0.000003 0.024502 -0.000005
# 6 -0.000001 -0.000003 -0.000005 -0.001864 -0.000005 0.038708
#
#
# Mechanical properties :
#
#
# Convention : Reuss Voigt Hill
#
# Bulk Modulus (GPa) = 20.89617 30.54494 25.72056
# Shear Modulus (GPa) = 43.07380 58.38712 50.73046
#
# Velocity S-wave (km/s) = 3.86176 4.49611 4.19095
# Velocity P-wave (km/s) = 5.20759 6.12607 5.68540
#
# Compressibility (1/GPa) = 0.04785566
#
# Stress axis : x y z
#
# Youngs Moduli (GPa) = 86.62501 65.83860 90.24519
#
# Poissons Ratio (x) = -0.23556 -0.05714
# Poissons Ratio (y) = -0.30994 -0.07310
# Poissons Ratio (z) = -0.05484 -0.05333
#
# Static dielectric constant tensor:
#      x y z
#    x 1.579210 0.000000 0.885630 
#    y 0.000000 2.623500 -0.000010 
#    z 0.885630 -0.000010 1.547930 
# 
# From -- ./inp_files/53253.got.cif
#   From: 2010.05.17/outbox.cif.g08.bks.cpg/sg5_27_cif.got.tgz:53253.got - 2010.06.03 18:56:24.
