data_PCOD9127280
_publ_section_title
;
Structure prediction by ZEFSAII (Michael W. Deem and Ramdas Pophale) SiO2 
 PCOD9127280
Probable space group: C 2
;
_chemical_formula_sum "Si O2"
_cell_formula_units_Z 28
_cell_length_a 19.456760
_cell_length_b 5.577321
_cell_length_c 11.295095
_cell_angle_alpha 90.000000
_cell_angle_beta 68.463346
_cell_angle_gamma 90.000000
_cell_volume 1140.130094
_symmetry_space_group_name_H-M "C 2"
_symmetry_group_IT_number 5
_symmetry_cell_setting 'monoclinic'
loop_
_space_group_symop_operation_xyz
x,y,z
-x,y,-z
1/2+x,1/2+y,z
1/2-x,1/2+y,-z
loop_
_atom_site_type_symbol
_atom_site_label
_atom_site_fract_x
_atom_site_fract_y
_atom_site_fract_z
Si Si1 0.137294 0.651160 0.849957
Si Si2 0.705467 0.155702 0.547508
Si Si3 0.879162 0.376838 0.580894
Si Si4 0.587909 0.848799 0.066396
Si Si5 0.797448 0.118749 0.828348
Si Si6 0.918070 0.726969 0.747656
Si Si7 0.500000 0.532465 0.500000
Si Si8 0.000000 0.983997 0.000000
O O1 0.164407 0.654132 0.698825
O O2 0.210286 0.666171 0.888558
O O3 0.106096 0.399962 0.917841
O O4 0.072654 0.839895 0.912528
O O5 0.743314 0.413315 0.496881
O O6 0.853424 0.593808 0.517117
O O7 0.815539 0.228475 0.686862
O O8 0.919953 0.491196 0.665749
O O9 0.934040 0.192128 0.488431
O O10 0.658282 0.756146 0.096230
O O11 0.563015 0.102569 0.139508
O O12 0.527972 0.641702 0.094936
O O13 0.837007 0.856358 0.804432
O O14 0.967573 0.898621 0.635378
#
# Coordination Sequence:
#
# PCOD9127280 Si02
#       8
#     4   4   4   4   4   4   2   2
#     4  12  28  53  82 116 163 223 277 352 421 520
#     4  12  28  54  85 120 162 213 278 350 422 500
#     4  10  22  46  74 115 149 206 264 340 416 493
#     4  11  27  48  79 116 160 220 273 350 422 511
#     4  10  23  47  85 109 153 204 289 340 408 506
#     4  10  22  47  74 117 154 205 282 338 421 501
#     4  10  22  44  74 118 154 204 274 344 412 504
#     4  12  30  56  72 126 172 218 280 340 448 502
#
# _framework density 24.558603999999999
#
# number of rings (size 3 to 8) (size 9 to 14) (size 15 to 20)
#    0.000    1.143    1.429    2.571    8.000    1.143 
#   33.429    0.000    0.000    0.000    0.000    0.000 
#    0.000    0.000    0.000    0.000    0.000    0.000 
#
# Total GULP energy -78157.553160 kJ/mol
# GULP energy per Si atom -5582.682369 kJ/mol
# Density = 2.450271 g / cm^3
# Si number density = 24.558604 Si / 1000 Ang^3
#
#
#
# Elastic Constant Matrix: (Units=GPa)
#
#
# Indices 1 2 3 4 5 6 
#
# 1 100.9840 46.7014 51.3334 0.0000 -17.8409 0.0000
# 2 46.7014 116.5261 56.6804 0.0000 -18.4701 0.0000
# 3 51.3334 56.6804 145.6578 0.0000 -0.7356 0.0000
# 4 0.0000 0.0000 0.0000 32.7660 0.0000 11.6885
# 5 -17.8409 -18.4701 -0.7356 0.0000 37.1581 0.0000
# 6 0.0000 0.0000 0.0000 11.6885 0.0000 50.2892
#
#
#
# Elastic Compliance Matrix: (Units=1/GPa)
#
#
# Indices 1 2 3 4 5 6 
#
# 1 0.014137 -0.002994 -0.003791 0.000000 0.005225 0.000000
# 2 -0.002994 0.012320 -0.003716 0.000000 0.004613 0.000000
# 3 -0.003791 -0.003716 0.009630 0.000000 -0.003477 0.000000
# 4 0.000000 0.000000 0.000000 0.033279 0.000000 -0.007735
# 5 0.005225 0.004613 -0.003477 0.000000 0.031645 0.000000
# 6 0.000000 0.000000 0.000000 -0.007735 0.000000 0.021683
#
#
# Mechanical properties :
#
#
# Convention : Reuss Voigt Hill
#
# Bulk Modulus (GPa) = 66.28607 74.73315 70.50961
# Shear Modulus (GPa) = 33.61952 37.93951 35.77951
#
# Velocity S-wave (km/s) = 3.70395 3.93473 3.82108
# Velocity P-wave (km/s) = 6.73364 7.15118 6.94555
#
# Compressibility (1/GPa) = 0.01508613
#
# Stress axis : x y z
#
# Youngs Moduli (GPa) = 70.73558 81.16703 103.84416
#
# Poissons Ratio (x) = 0.24300 0.39366
# Poissons Ratio (y) = 0.21177 0.38587
# Poissons Ratio (z) = 0.26815 0.30160
#
# Static dielectric constant tensor:
#      x y z
#    x 2.054620 0.000000 -0.030590 
#    y 0.000000 2.000660 0.000000 
#    z -0.030590 0.000000 1.959820 
# 
# From -- ./inp_files/45626.got.cif
#   From: 2010.05.17/outbox.cif.g08.bks.cpg/sg5_23_cif.got.tgz:45626.got - 2010.06.03 18:56:24.
