data_PCOD9127511
_publ_section_title
;
Structure prediction by ZEFSAII (Michael W. Deem and Ramdas Pophale) SiO2 
 PCOD9127511
Probable space group: C 2
;
_chemical_formula_sum "Si O2"
_cell_formula_units_Z 24
_cell_length_a 11.283033
_cell_length_b 9.621097
_cell_length_c 11.780433
_cell_angle_alpha 90.000000
_cell_angle_beta 128.264610
_cell_angle_gamma 90.000000
_cell_volume 1004.082369
_symmetry_space_group_name_H-M "C 2"
_symmetry_group_IT_number 5
_symmetry_cell_setting 'monoclinic'
loop_
_space_group_symop_operation_xyz
x,y,z
-x,y,-z
1/2+x,1/2+y,z
1/2-x,1/2+y,-z
loop_
_atom_site_type_symbol
_atom_site_label
_atom_site_fract_x
_atom_site_fract_y
_atom_site_fract_z
Si Si1 0.500000 0.478050 0.000000
Si Si2 0.500000 0.912630 0.500000
Si Si3 0.617940 0.315991 0.853514
Si Si4 0.876388 0.367011 0.658082
Si Si5 0.427403 0.477155 0.578048
Si Si6 0.793440 0.101391 0.708573
Si Si7 0.106064 0.518950 0.956689
O O1 0.456604 0.380302 0.077805
O O2 0.630925 0.574441 0.126349
O O3 0.644036 0.008518 0.615461
O O4 0.448837 0.826287 0.579649
O O5 0.503374 0.337316 0.678599
O O6 0.649368 0.158143 0.912267
O O7 0.759386 0.419880 0.918818
O O8 0.751766 0.480547 0.551995
O O9 0.771986 0.260183 0.665185
O O10 0.007441 0.424428 0.813823
O O11 0.500000 0.510691 0.500000
O O12 0.424431 0.568993 0.691395
O O13 0.000000 0.558074 0.000000
#
# Coordination Sequence:
#
# PCOD9127511 Si02
#       7
#     2   2   4   4   4   4   4
#     4  10  22  48  70 102 148 182 236 300 352 420
#     4  10  24  48  66 104 142 184 234 298 342 430
#     4  11  26  48  75 105 145 191 233 298 357 417
#     4  11  26  44  73 103 139 191 234 292 361 416
#     4  10  24  44  68 104 140 186 235 294 348 426
#     4  10  24  43  73 101 140 188 233 292 359 415
#     4  12  28  49  74 107 144 187 241 295 355 423
#
# _framework density 23.902419999999999
#
# number of rings (size 3 to 8) (size 9 to 14) (size 15 to 20)
#    0.000    1.333    0.833    2.000   12.833    2.667 
#    0.000    0.000    0.000    0.000    0.000    0.000 
#    0.000    0.000    0.000    0.000    0.000    0.000 
#
# Total GULP energy -66938.361942 kJ/mol
# GULP energy per Si atom -5578.196828 kJ/mol
# Density = 2.384802 g / cm^3
# Si number density = 23.902420 Si / 1000 Ang^3
#
#
#
# Elastic Constant Matrix: (Units=GPa)
#
#
# Indices 1 2 3 4 5 6 
#
# 1 142.5341 6.8398 18.4218 0.0000 -19.8233 0.0000
# 2 6.8398 40.0525 -3.0165 0.0000 -1.8689 0.0000
# 3 18.4218 -3.0165 120.9789 0.0000 1.8218 0.0000
# 4 0.0000 0.0000 0.0000 83.2846 0.0000 -40.4390
# 5 -19.8233 -1.8689 1.8218 0.0000 36.8284 0.0000
# 6 0.0000 0.0000 0.0000 -40.4390 0.0000 95.6370
#
#
#
# Elastic Compliance Matrix: (Units=1/GPa)
#
#
# Indices 1 2 3 4 5 6 
#
# 1 0.007828 -0.001237 -0.001286 0.000000 0.004214 0.000000
# 2 -0.001237 0.025266 0.000810 0.000000 0.000576 0.000000
# 3 -0.001286 0.000810 0.008498 0.000000 -0.001072 0.000000
# 4 0.000000 0.000000 0.000000 0.015109 0.000000 0.006389
# 5 0.004214 0.000576 -0.001072 0.000000 0.029503 0.000000
# 6 0.000000 0.000000 0.000000 0.006389 0.000000 0.013158
#
#
# Mechanical properties :
#
#
# Convention : Reuss Voigt Hill
#
# Bulk Modulus (GPa) = 26.20204 38.67288 32.43746
# Shear Modulus (GPa) = 43.28600 61.90469 52.59534
#
# Velocity S-wave (km/s) = 4.26014 5.09462 4.69595
# Velocity P-wave (km/s) = 5.93163 7.12892 6.55766
#
# Compressibility (1/GPa) = 0.03816496
#
# Stress axis : x y z
#
# Youngs Moduli (GPa) = 127.75395 39.57832 117.67358
#
# Poissons Ratio (x) = 0.04896 0.15135
# Poissons Ratio (y) = 0.15803 -0.09528
# Poissons Ratio (z) = 0.16432 -0.03205
#
# Static dielectric constant tensor:
#      x y z
#    x 1.953580 0.000000 -0.078710 
#    y 0.000000 2.010580 0.000000 
#    z -0.078710 0.000000 1.844080 
# 
# From -- ./inp_files/39307.got.cif
#   From: 2010.05.17/outbox.cif.g08.bks.cpg/sg5_20_cif.got.tgz:39307.got - 2010.06.03 18:56:24.
