data_PCOD9127428
_publ_section_title
;
Structure prediction by ZEFSAII (Michael W. Deem and Ramdas Pophale) SiO2 
 PCOD9127428
Probable space group: C 2
;
_chemical_formula_sum "Si O2"
_cell_formula_units_Z 22
_cell_length_a 12.009339
_cell_length_b 8.614656
_cell_length_c 12.299435
_cell_angle_alpha 90.000000
_cell_angle_beta 126.635547
_cell_angle_gamma 90.000000
_cell_volume 1021.077693
_symmetry_space_group_name_H-M "C 2"
_symmetry_group_IT_number 5
_symmetry_cell_setting 'monoclinic'
loop_
_space_group_symop_operation_xyz
x,y,z
-x,y,-z
1/2+x,1/2+y,z
1/2-x,1/2+y,-z
loop_
_atom_site_type_symbol
_atom_site_label
_atom_site_fract_x
_atom_site_fract_y
_atom_site_fract_z
Si Si1 0.480065 0.072200 0.659849
Si Si2 0.305165 0.217715 0.378368
Si Si3 0.000000 0.999024 0.500000
Si Si4 0.608254 0.734723 0.737515
Si Si5 0.077455 0.753269 0.155498
Si Si6 0.509790 0.613132 0.133063
O O1 0.351409 0.108530 0.505247
O O2 0.607152 0.162724 0.675647
O O3 0.452470 0.139687 0.762271
O O4 0.523937 0.894334 0.684357
O O5 0.366696 0.387473 0.439734
O O6 0.145764 0.197653 0.259345
O O7 0.029837 0.106089 0.620507
O O8 0.759389 0.760052 0.775199
O O9 0.615159 0.674198 0.865402
O O10 0.027275 0.927741 0.154345
O O11 0.000000 0.703941 0.000000
O O12 0.500000 0.647406 0.000000
#
# Coordination Sequence:
#
# PCOD9127428 Si02
#       6
#     4   4   2   4   4   4
#     4  10  23  45  71 100 140 181 234 288 346 408
#     4  10  22  46  72 100 140 187 228 298 341 405
#     4  10  24  44  70 106 138 180 240 286 346 410
#     4  12  26  43  72 106 135 186 238 283 350 423
#     4  11  27  47  72 102 144 186 227 291 350 419
#     4  11  26  46  70 103 144 185 231 288 347 422
#
# _framework density 21.545862
#
# number of rings (size 3 to 8) (size 9 to 14) (size 15 to 20)
#    0.000    1.455    1.818    3.273    7.636    0.727 
#    0.000    0.000    0.000    0.000    0.000    0.000 
#    0.000    0.000    0.000    0.000    0.000    0.000 
#
# Total GULP energy -61572.734109 kJ/mol
# GULP energy per Si atom -5597.521283 kJ/mol
# Density = 2.149682 g / cm^3
# Si number density = 21.545862 Si / 1000 Ang^3
#
#
#
# Elastic Constant Matrix: (Units=GPa)
#
#
# Indices 1 2 3 4 5 6 
#
# 1 59.4390 46.4980 49.0343 0.0000 -15.1897 0.0000
# 2 46.4980 130.2883 66.9249 0.0000 -17.0815 0.0000
# 3 49.0343 66.9249 119.1432 0.0000 -19.8570 0.0000
# 4 0.0000 0.0000 0.0000 19.7255 0.0000 -13.7404
# 5 -15.1897 -17.0815 -19.8570 0.0000 35.1028 0.0000
# 6 0.0000 0.0000 0.0000 -13.7404 0.0000 28.5057
#
#
#
# Elastic Compliance Matrix: (Units=1/GPa)
#
#
# Indices 1 2 3 4 5 6 
#
# 1 0.029146 -0.005615 -0.007943 0.000000 0.005386 0.000000
# 2 -0.005615 0.012000 -0.004263 0.000000 0.000998 0.000000
# 3 -0.007943 -0.004263 0.014506 0.000000 0.002694 0.000000
# 4 0.000000 0.000000 0.000000 0.076322 0.000000 0.036789
# 5 0.005386 0.000998 0.002694 0.000000 0.032828 0.000000
# 6 0.000000 0.000000 0.000000 0.036789 0.000000 0.052814
#
#
# Mechanical properties :
#
#
# Convention : Reuss Voigt Hill
#
# Bulk Modulus (GPa) = 49.97933 70.42054 60.19994
# Shear Modulus (GPa) = 19.23595 26.42771 22.83183
#
# Velocity S-wave (km/s) = 2.99120 3.50606 3.25881
# Velocity P-wave (km/s) = 5.93100 7.01034 6.49314
#
# Compressibility (1/GPa) = 0.02000827
#
# Stress axis : x y z
#
# Youngs Moduli (GPa) = 34.30993 83.33269 68.93620
#
# Poissons Ratio (x) = 0.46795 0.54758
# Poissons Ratio (y) = 0.19266 0.29390
# Poissons Ratio (z) = 0.27253 0.35527
#
# Static dielectric constant tensor:
#      x y z
#    x 1.823950 0.000000 0.006410 
#    y 0.000000 1.769920 0.000000 
#    z 0.006410 0.000000 1.766780 
# 
# From -- ./inp_files/38133.got.cif
#   From: 2010.05.17/outbox.cif.g08.bks.cpg/sg5_20_cif.got.tgz:38133.got - 2010.06.03 18:56:24.
