data_PCOD9127745
_publ_section_title
;
Structure prediction by ZEFSAII (Michael W. Deem and Ramdas Pophale) SiO2 
 PCOD9127745
Probable space group: C 2
;
_chemical_formula_sum "Si O2"
_cell_formula_units_Z 28
_cell_length_a 7.830312
_cell_length_b 12.153878
_cell_length_c 15.093399
_cell_angle_alpha 90.000000
_cell_angle_beta 66.557403
_cell_angle_gamma 90.000000
_cell_volume 1317.855246
_symmetry_space_group_name_H-M "C 2"
_symmetry_group_IT_number 5
_symmetry_cell_setting 'monoclinic'
loop_
_space_group_symop_operation_xyz
x,y,z
-x,y,-z
1/2+x,1/2+y,z
1/2-x,1/2+y,-z
loop_
_atom_site_type_symbol
_atom_site_label
_atom_site_fract_x
_atom_site_fract_y
_atom_site_fract_z
Si Si1 0.007383 0.813320 0.604547
Si Si2 0.678904 0.789814 0.162602
Si Si3 0.500000 0.614204 0.500000
Si Si4 0.232237 0.679212 0.683552
Si Si5 0.281259 0.008208 0.560413
Si Si6 0.945410 0.542346 0.828574
Si Si7 0.788418 0.179225 0.265508
Si Si8 0.000000 0.667716 0.000000
O O1 0.106622 0.707296 0.625233
O O2 0.000000 0.811852 0.500000
O O3 0.805480 0.796803 0.688660
O O4 0.145253 0.907105 0.610687
O O5 0.776600 0.770014 0.237853
O O6 0.502027 0.707658 0.202389
O O7 0.615875 0.915619 0.163238
O O8 0.825831 0.745457 0.060846
O O9 0.437535 0.678232 0.599810
O O10 0.678504 0.544380 0.490894
O O11 0.149473 0.568875 0.744118
O O12 0.500000 0.984060 0.500000
O O13 0.253059 0.098963 0.642483
O O14 0.806329 0.618846 0.798826
O O15 0.953497 0.590760 0.925717
#
# Coordination Sequence:
#
# PCOD9127745 Si02
#       8
#     4   4   2   4   4   4   4   2
#     4  11  24  39  63  94 135 189 245 282 342 403
#     4  11  24  44  76  96 138 183 220 289 368 410
#     4  12  22  40  66  94 146 186 236 290 332 400
#     4  10  23  42  62  99 140 183 229 290 335 406
#     4  12  25  42  63  98 140 190 245 293 341 402
#     4  10  24  46  70  99 138 170 231 285 353 429
#     4  11  24  43  66  99 133 180 238 284 340 429
#     4  10  26  46  68 112 132 166 228 294 360 434
#
# _framework density 21.246644
#
# number of rings (size 3 to 8) (size 9 to 14) (size 15 to 20)
#    0.000    1.143    2.143    3.857    3.000    4.000 
#    0.000    0.000    0.000    0.000    0.000    0.000 
#    0.000    0.000    0.000    0.000    0.000    0.000 
#
# Total GULP energy -78071.728550 kJ/mol
# GULP energy per Si atom -5576.552039 kJ/mol
# Density = 2.119829 g / cm^3
# Si number density = 21.246644 Si / 1000 Ang^3
#
#
#
# Elastic Constant Matrix: (Units=GPa)
#
#
# Indices 1 2 3 4 5 6 
#
# 1 108.7761 39.6154 58.6323 0.0000 0.4509 0.0000
# 2 39.6154 132.5934 66.5829 0.0000 -4.7552 0.0000
# 3 58.6323 66.5829 118.3197 0.0000 -13.6153 0.0000
# 4 0.0000 0.0000 0.0000 18.1301 0.0000 -4.5504
# 5 0.4509 -4.7552 -13.6153 0.0000 51.2641 0.0000
# 6 0.0000 0.0000 0.0000 -4.5504 0.0000 37.4126
#
#
#
# Elastic Compliance Matrix: (Units=1/GPa)
#
#
# Indices 1 2 3 4 5 6 
#
# 1 0.012776 -0.000834 -0.006069 0.000000 -0.001802 0.000000
# 2 -0.000834 0.010586 -0.005601 0.000000 -0.000498 0.000000
# 3 -0.006069 -0.005601 0.015016 0.000000 0.003522 0.000000
# 4 0.000000 0.000000 0.000000 0.056894 0.000000 0.006920
# 5 -0.001802 -0.000498 0.003522 0.000000 0.020412 0.000000
# 6 0.000000 0.000000 0.000000 0.006920 0.000000 0.027571
#
#
# Mechanical properties :
#
#
# Convention : Reuss Voigt Hill
#
# Bulk Modulus (GPa) = 74.79556 76.59448 75.69502
# Shear Modulus (GPa) = 28.94892 34.35194 31.65043
#
# Velocity S-wave (km/s) = 3.69523 4.02533 3.86381
# Velocity P-wave (km/s) = 7.31343 7.59821 7.45718
#
# Compressibility (1/GPa) = 0.01336978
#
# Stress axis : x y z
#
# Youngs Moduli (GPa) = 78.27407 94.46617 66.59485
#
# Poissons Ratio (x) = 0.07880 0.40415
# Poissons Ratio (y) = 0.06529 0.37300
# Poissons Ratio (z) = 0.47503 0.52911
#
# Static dielectric constant tensor:
#      x y z
#    x 1.896270 0.000000 -0.078590 
#    y 0.000000 1.868900 0.000000 
#    z -0.078590 0.000000 1.806230 
# 
# From -- ./inp_files/50446.got.cif
#   From: 2010.05.17/outbox.cif.g08.bks.cpg/sg5_26_cif.got.tgz:50446.got - 2010.06.03 18:56:24.
