data_PCOD9127982
_publ_section_title
;
Structure prediction by ZEFSAII (Michael W. Deem and Ramdas Pophale) SiO2 
 PCOD9127982
Probable space group: C 2
;
_chemical_formula_sum "Si O2"
_cell_formula_units_Z 24
_cell_length_a 18.176005
_cell_length_b 4.722061
_cell_length_c 10.459849
_cell_angle_alpha 90.000000
_cell_angle_beta 94.811643
_cell_angle_gamma 90.000000
_cell_volume 894.586238
_symmetry_space_group_name_H-M "C 2"
_symmetry_group_IT_number 5
_symmetry_cell_setting 'monoclinic'
loop_
_space_group_symop_operation_xyz
x,y,z
-x,y,-z
1/2+x,1/2+y,z
1/2-x,1/2+y,-z
loop_
_atom_site_type_symbol
_atom_site_label
_atom_site_fract_x
_atom_site_fract_y
_atom_site_fract_z
Si Si1 0.769031 0.705730 0.083636
Si Si2 0.699783 0.089355 0.480120
Si Si3 0.425619 0.246232 0.038835
Si Si4 0.941881 0.696061 0.381064
Si Si5 0.853241 0.951194 0.765699
Si Si6 0.511023 0.696137 0.760874
O O1 0.854968 0.632589 0.107846
O O2 0.717650 0.623527 0.193903
O O3 0.738220 0.532942 0.956104
O O4 0.773171 0.268939 0.524483
O O5 0.667988 0.227063 0.345951
O O6 0.638331 0.123458 0.579629
O O7 0.453886 0.535975 0.111606
O O8 0.500000 0.090692 0.000000
O O9 0.384651 0.304999 0.898246
O O10 0.000000 0.628547 0.500000
O O11 0.949025 0.025360 0.347931
O O12 0.971861 0.522316 0.262644
O O13 0.923872 0.139028 0.735870
#
# Coordination Sequence:
#
# PCOD9127982 Si02
#       6
#     4   4   4   4   4   4
#     4  10  23  44  72 106 148 193 242 301 373 446
#     4  12  29  50  76 111 151 204 259 317 376 453
#     4   9  22  47  76 112 148 192 247 307 379 445
#     4  12  26  50  75 107 149 200 254 310 377 441
#     4  10  24  49  76 108 152 197 248 315 379 445
#     4  11  25  45  79 111 147 192 251 314 374 456
#
# _framework density 26.828049
#
# number of rings (size 3 to 8) (size 9 to 14) (size 15 to 20)
#    0.000    1.333    1.667    1.500    4.667    9.333 
#   12.000    7.500    0.000    0.000    0.000    0.000 
#    0.000    0.000    0.000    0.000    0.000    0.000 
#
# Total GULP energy -67267.527853 kJ/mol
# GULP energy per Si atom -5605.627321 kJ/mol
# Density = 2.676699 g / cm^3
# Si number density = 26.828049 Si / 1000 Ang^3
#
#
#
# Elastic Constant Matrix: (Units=GPa)
#
#
# Indices 1 2 3 4 5 6 
#
# 1 185.2485 3.1083 35.2972 0.0000 -23.5435 0.0000
# 2 3.1083 75.2077 -2.6698 0.0000 -2.9707 0.0000
# 3 35.2972 -2.6698 108.3578 0.0000 0.6637 0.0000
# 4 0.0000 0.0000 0.0000 36.4156 0.0000 -9.9336
# 5 -23.5435 -2.9707 0.6637 0.0000 64.5987 0.0000
# 6 0.0000 0.0000 0.0000 -9.9336 0.0000 44.5113
#
#
#
# Elastic Compliance Matrix: (Units=1/GPa)
#
#
# Indices 1 2 3 4 5 6 
#
# 1 0.006064 -0.000234 -0.001995 0.000000 0.002220 0.000000
# 2 -0.000234 0.013341 0.000402 0.000000 0.000524 0.000000
# 3 -0.001995 0.000402 0.009893 0.000000 -0.000810 0.000000
# 4 0.000000 0.000000 0.000000 0.029241 0.000000 0.006526
# 5 0.002220 0.000524 -0.000810 0.000000 0.016322 0.000000
# 6 0.000000 0.000000 0.000000 0.006526 0.000000 0.023923
#
#
# Mechanical properties :
#
#
# Convention : Reuss Voigt Hill
#
# Bulk Modulus (GPa) = 38.99398 48.92059 43.95729
# Shear Modulus (GPa) = 45.05074 51.31034 48.18054
#
# Velocity S-wave (km/s) = 4.10230 4.37803 4.24241
# Velocity P-wave (km/s) = 6.08316 6.62047 6.35749
#
# Compressibility (1/GPa) = 0.02564498
#
# Stress axis : x y z
#
# Youngs Moduli (GPa) = 164.89968 74.95611 101.07814
#
# Poissons Ratio (x) = 0.01752 0.20163
# Poissons Ratio (y) = 0.03855 -0.04060
# Poissons Ratio (z) = 0.32894 -0.03011
#
# Static dielectric constant tensor:
#      x y z
#    x 2.041670 0.000000 0.037290 
#    y 0.000000 2.027670 0.000000 
#    z 0.037290 0.000000 2.186070 
# 
# From -- ./inp_files/43748.got.cif
#   From: 2010.05.17/outbox.cif.g08.bks.cpg/sg5_22_cif.got.tgz:43748.got - 2010.06.03 18:56:24.
