data_PCOD9127937
_publ_section_title
;
Structure prediction by ZEFSAII (Michael W. Deem and Ramdas Pophale) SiO2 
 PCOD9127937
Probable space group: C 2
;
_chemical_formula_sum "Si O2"
_cell_formula_units_Z 30
_cell_length_a 16.326230
_cell_length_b 11.417135
_cell_length_c 13.984395
_cell_angle_alpha 90.000000
_cell_angle_beta 28.076603
_cell_angle_gamma 90.000000
_cell_volume 1226.835370
_symmetry_space_group_name_H-M "C 2"
_symmetry_group_IT_number 5
_symmetry_cell_setting 'monoclinic'
loop_
_space_group_symop_operation_xyz
x,y,z
-x,y,-z
1/2+x,1/2+y,z
1/2-x,1/2+y,-z
loop_
_atom_site_type_symbol
_atom_site_label
_atom_site_fract_x
_atom_site_fract_y
_atom_site_fract_z
Si Si1 0.676091 0.202920 0.181843
Si Si2 0.686373 0.450158 0.656867
Si Si3 0.582460 0.708598 0.731225
Si Si4 0.500000 0.287472 0.000000
Si Si5 0.552408 0.624969 0.551937
Si Si6 0.929608 0.444506 0.678027
Si Si7 0.215723 0.708578 0.939267
Si Si8 0.880822 0.874583 0.484304
O O1 0.547128 0.302864 0.352393
O O2 0.659473 0.072021 0.239383
O O3 0.604417 0.191899 0.147334
O O4 0.878787 0.236157 0.959740
O O5 0.621646 0.582038 0.735115
O O6 0.620043 0.369308 0.811023
O O7 0.599337 0.407990 0.648389
O O8 0.896277 0.452158 0.436987
O O9 0.627131 0.695866 0.568717
O O10 0.708898 0.795941 0.656778
O O11 0.609680 0.204385 0.953426
O O12 0.500000 0.674150 0.500000
O O13 0.359387 0.607495 0.793762
O O14 0.643518 0.501573 0.443244
O O15 0.807362 0.338226 0.839670
O O16 0.000000 0.418153 0.500000
#
# Coordination Sequence:
#
# PCOD9127937 Si02
#       8
#     4   4   4   2   4   4   4   4
#     4  11  24  42  68  98 137 183 231 279 362 419
#     4  11  22  40  64 102 134 172 237 292 344 421
#     4  10  23  44  67  98 136 184 229 285 352 426
#     4  12  22  36  66 102 140 172 240 298 350 410
#     4  10  24  43  69  98 138 178 234 289 352 422
#     4  12  24  42  73 102 137 184 239 297 354 416
#     4  11  24  41  68 100 139 179 227 299 353 420
#     4  11  23  45  67  97 137 184 225 286 354 427
#
# _framework density 24.45316
#
# number of rings (size 3 to 8) (size 9 to 14) (size 15 to 20)
#    0.000    1.067    4.000    2.800    5.600    0.533 
#    0.000    0.000    0.000    0.000    0.000    0.000 
#    0.000    0.000    0.000    0.000    0.000    0.000 
#
# Total GULP energy -83758.278084 kJ/mol
# GULP energy per Si atom -5583.885206 kJ/mol
# Density = 2.439750 g / cm^3
# Si number density = 24.453160 Si / 1000 Ang^3
#
#
#
# Elastic Constant Matrix: (Units=GPa)
#
#
# Indices 1 2 3 4 5 6 
#
# 1 57.6628 16.6634 18.8610 -0.0001 -11.4564 0.0000
# 2 16.6634 110.4089 34.0212 0.0001 -20.2438 0.0000
# 3 18.8610 34.0212 71.1606 -0.0002 -10.0519 0.0001
# 4 -0.0001 0.0001 -0.0002 22.1305 0.0003 -9.8932
# 5 -11.4564 -20.2438 -10.0519 0.0003 49.7573 -0.0002
# 6 0.0000 0.0000 0.0001 -9.8932 -0.0002 33.5252
#
#
#
# Elastic Compliance Matrix: (Units=1/GPa)
#
#
# Indices 1 2 3 4 5 6 
#
# 1 0.019684 -0.001067 -0.004249 0.000000 0.003239 0.000000
# 2 -0.001067 0.011267 -0.004623 0.000000 0.003404 0.000000
# 3 -0.004249 -0.004623 0.017484 0.000000 0.000673 0.000000
# 4 0.000000 0.000000 0.000000 0.052053 0.000000 0.015361
# 5 0.003239 0.003404 0.000673 0.000000 0.022364 0.000000
# 6 0.000000 0.000000 0.000000 0.015361 0.000000 0.034361
#
#
# Mechanical properties :
#
#
# Convention : Reuss Voigt Hill
#
# Bulk Modulus (GPa) = 35.01877 42.03595 38.52736
# Shear Modulus (GPa) = 26.79351 32.39505 29.59428
#
# Velocity S-wave (km/s) = 3.31374 3.64370 3.48263
# Velocity P-wave (km/s) = 5.38451 5.91014 5.65344
#
# Compressibility (1/GPa) = 0.02855611
#
# Stress axis : x y z
#
# Youngs Moduli (GPa) = 50.80208 88.75468 57.19453
#
# Poissons Ratio (x) = 0.09474 0.24304
# Poissons Ratio (y) = 0.05423 0.26440
# Poissons Ratio (z) = 0.21588 0.41030
#
# Static dielectric constant tensor:
#      x y z
#    x 2.033260 0.000000 0.006800 
#    y 0.000000 1.955150 0.000000 
#    z 0.006800 0.000000 1.991130 
# 
# From -- ./inp_files/55968.got.cif
#   From: 2010.05.17/outbox.cif.g08.bks.cpg/sg5_28_cif.got.tgz:55968.got - 2010.06.03 18:56:24.
