data_PCOD9127073
_publ_section_title
;
Structure prediction by ZEFSAII (Michael W. Deem and Ramdas Pophale) SiO2 
 PCOD9127073
Probable space group: C 2
;
_chemical_formula_sum "Si O2"
_cell_formula_units_Z 24
_cell_length_a 12.623779
_cell_length_b 8.648621
_cell_length_c 9.003161
_cell_angle_alpha 90.000000
_cell_angle_beta 88.560467
_cell_angle_gamma 90.000000
_cell_volume 982.639409
_symmetry_space_group_name_H-M "C 2"
_symmetry_group_IT_number 5
_symmetry_cell_setting 'monoclinic'
loop_
_space_group_symop_operation_xyz
x,y,z
-x,y,-z
1/2+x,1/2+y,z
1/2-x,1/2+y,-z
loop_
_atom_site_type_symbol
_atom_site_label
_atom_site_fract_x
_atom_site_fract_y
_atom_site_fract_z
Si Si1 0.680470 0.444910 0.645758
Si Si2 0.678449 0.317180 0.967623
Si Si3 0.500000 0.252152 0.500000
Si Si4 0.069382 0.491642 0.698221
Si Si5 0.364791 0.738048 0.521719
Si Si6 0.304348 0.584748 0.796943
Si Si7 0.000000 0.559655 0.000000
O O1 0.649650 0.412082 0.817786
O O2 0.596920 0.359954 0.540787
O O3 0.688625 0.620151 0.593298
O O4 0.789752 0.361196 0.604824
O O5 0.784567 0.225820 0.913067
O O6 0.598578 0.177249 0.004946
O O7 0.678722 0.432273 0.105980
O O8 0.497968 0.130765 0.635953
O O9 0.069927 0.343741 0.594709
O O10 0.190160 0.555195 0.716679
O O11 0.020799 0.456045 0.857914
O O12 0.388387 0.628150 0.665039
#
# Coordination Sequence:
#
# PCOD9127073 Si02
#       7
#     4   4   2   4   4   4   2
#     4  11  23  42  72 103 143 185 232 297 352 425
#     4  10  23  43  68 105 139 184 235 282 364 424
#     4  12  22  46  68 100 146 184 238 294 350 414
#     4  11  24  44  69 104 140 191 238 289 359 415
#     4  11  22  44  69 108 134 185 244 283 358 419
#     4  10  22  43  70 107 136 184 235 290 348 426
#     4  10  22  48  66 100 142 192 238 284 370 400
#
# _framework density 24.424012999999999
#
# number of rings (size 3 to 8) (size 9 to 14) (size 15 to 20)
#    0.000    1.333    6.667    0.000    4.667    0.667 
#   15.000    0.833    0.000    0.000    0.000    0.000 
#    0.000    0.000    0.000    0.000    0.000    0.000 
#
# Total GULP energy -66990.880945 kJ/mol
# GULP energy per Si atom -5582.573412 kJ/mol
# Density = 2.436842 g / cm^3
# Si number density = 24.424013 Si / 1000 Ang^3
#
#
#
# Elastic Constant Matrix: (Units=GPa)
#
#
# Indices 1 2 3 4 5 6 
#
# 1 29.1256 9.0707 49.6350 0.0000 -7.3283 0.0000
# 2 9.0707 118.4129 70.0724 0.0000 -9.5683 0.0000
# 3 49.6350 70.0724 174.6100 0.0000 -29.1871 0.0000
# 4 0.0000 0.0000 0.0000 36.9891 0.0000 -19.3053
# 5 -7.3283 -9.5683 -29.1871 0.0000 38.2767 0.0000
# 6 0.0000 0.0000 0.0000 -19.3053 0.0000 4.3948
#
#
#
# Elastic Compliance Matrix: (Units=1/GPa)
#
#
# Indices 1 2 3 4 5 6 
#
# 1 0.073165 0.008854 -0.024801 0.000000 -0.002690 0.000000
# 2 0.008854 0.012164 -0.007572 0.000000 -0.001038 0.000000
# 3 -0.024801 -0.007572 0.016854 0.000000 0.006210 0.000000
# 4 0.000000 0.000000 0.000000 -0.020914 0.000000 -0.091871
# 5 -0.002690 -0.001038 0.006210 0.000000 0.030087 0.000000
# 6 0.000000 0.000000 0.000000 -0.091871 0.000000 -0.176025
#
#
# Mechanical properties :
#
#
# Convention : Reuss Voigt Hill
#
# Bulk Modulus (GPa) = 18.13397 64.41163 41.27280
# Shear Modulus (GPa) = 6688.30467 28.82348 3358.56407
#
# Velocity S-wave (km/s) = 52.38662 3.43903 37.12267
# Velocity P-wave (km/s) = 60.55233 6.49605 43.06265
#
# Compressibility (1/GPa) = 0.05514512
#
# Stress axis : x y z
#
# Youngs Moduli (GPa) = 13.66783 82.21244 59.33401
#
# Poissons Ratio (x) = -0.72794 1.47154
# Poissons Ratio (y) = -0.12102 0.44926
# Poissons Ratio (z) = 0.33897 0.62250
#
# Static dielectric constant tensor:
#      x y z
#    x 2.274940 0.000000 -0.001710 
#    y 0.000000 1.930290 0.000000 
#    z -0.001710 0.000000 1.948510 
# 
# From -- ./inp_files/22881.got.cif
#   From: 2010.05.17/outbox.cif.g08.bks.cpg/sg5_12_cif.got.tgz:22881.got - 2010.06.03 18:56:24.
