data_PCOD9127669
_publ_section_title
;
Structure prediction by ZEFSAII (Michael W. Deem and Ramdas Pophale) SiO2 
 PCOD9127669
Probable space group: C 2
;
_chemical_formula_sum "Si O2"
_cell_formula_units_Z 18
_cell_length_a 7.297550
_cell_length_b 25.434643
_cell_length_c 5.203109
_cell_angle_alpha 90.000000
_cell_angle_beta 42.062442
_cell_angle_gamma 90.000000
_cell_volume 646.996043
_symmetry_space_group_name_H-M "C 2"
_symmetry_group_IT_number 5
_symmetry_cell_setting 'monoclinic'
loop_
_space_group_symop_operation_xyz
x,y,z
-x,y,-z
1/2+x,1/2+y,z
1/2-x,1/2+y,-z
loop_
_atom_site_type_symbol
_atom_site_label
_atom_site_fract_x
_atom_site_fract_y
_atom_site_fract_z
Si Si1 0.691066 0.886030 0.051792
Si Si2 0.280529 0.612657 0.039639
Si Si3 0.696504 0.770514 0.043081
Si Si4 0.192485 0.498199 0.050310
Si Si5 0.000000 0.687398 0.000000
O O1 0.500000 0.885513 0.500000
O O2 0.827867 0.829005 0.910400
O O3 0.845603 0.941895 0.893768
O O4 0.500000 0.887030 0.000000
O O5 0.356107 0.552301 0.900433
O O6 0.000000 0.612316 0.500000
O O7 0.229346 0.644796 0.834595
O O8 0.500000 0.637645 0.000000
O O9 0.500000 0.764679 0.500000
O O10 0.935352 0.728151 0.837948
O O11 0.500000 0.765386 0.000000
O O12 0.000000 0.497104 0.500000
O O13 0.000000 0.501621 0.000000
#
# Coordination Sequence:
#
# PCOD9127669 Si02
#       5
#     4   4   4   4   2
#     4   8  15  32  61  89 126 167 216 274 333 398
#     4  11  26  45  68 101 137 182 231 283 344 407
#     4  10  23  41  64  95 130 176 225 278 339 402
#     4   9  17  37  63  95 130 171 220 278 337 401
#     4  12  26  40  66  94 138 176 230 280 336 414
#
# _framework density 27.820881
#
# number of rings (size 3 to 8) (size 9 to 14) (size 15 to 20)
#    0.000    2.222    1.111    0.667    6.222    0.000 
#    2.000    0.000    0.000    0.000    0.000    0.000 
#    0.000    0.000    0.000    0.000    0.000    0.000 
#
# Total GULP energy -50338.273471 kJ/mol
# GULP energy per Si atom -5593.141497 kJ/mol
# Density = 2.775756 g / cm^3
# Si number density = 27.820881 Si / 1000 Ang^3
#
#
#
# Elastic Constant Matrix: (Units=GPa)
#
#
# Indices 1 2 3 4 5 6 
#
# 1 235.0291 59.7567 37.7502 0.0000 37.1045 0.0000
# 2 59.7567 287.7352 -13.7105 0.0000 -4.9861 0.0000
# 3 37.7502 -13.7105 168.2753 0.0000 32.7732 0.0000
# 4 0.0000 0.0000 0.0000 -29.1179 0.0000 7.4306
# 5 37.1045 -4.9861 32.7732 0.0000 54.0410 0.0000
# 6 0.0000 0.0000 0.0000 7.4306 0.0000 36.1891
#
#
#
# Elastic Compliance Matrix: (Units=1/GPa)
#
#
# Indices 1 2 3 4 5 6 
#
# 1 0.005166 -0.001159 -0.000614 0.000000 -0.003282 0.000000
# 2 -0.001159 0.003750 0.000389 0.000000 0.000906 0.000000
# 3 -0.000614 0.000389 0.006830 0.000000 -0.003684 0.000000
# 4 0.000000 0.000000 0.000000 -0.032633 0.000000 0.006701
# 5 -0.003282 0.000906 -0.003684 0.000000 0.023075 0.000000
# 6 0.000000 0.000000 0.000000 0.006701 0.000000 0.026257
#
#
# Mechanical properties :
#
#
# Convention : Reuss Voigt Hill
#
# Bulk Modulus (GPa) = 77.05401 95.40359 86.22880
# Shear Modulus (GPa) = 126.45537 52.70531 89.58034
#
# Velocity S-wave (km/s) = 6.74923 4.35725 5.68057
# Velocity P-wave (km/s) = 9.40706 7.72533 8.60736
#
# Compressibility (1/GPa) = 0.01297791
#
# Stress axis : x y z
#
# Youngs Moduli (GPa) = 193.56542 266.64036 146.41951
#
# Poissons Ratio (x) = 0.30905 0.08994
# Poissons Ratio (y) = 0.22435 -0.05698
# Poissons Ratio (z) = 0.11891 -0.10377
#
# Static dielectric constant tensor:
#      x y z
#    x 2.202150 0.000000 -0.201200 
#    y 0.000000 2.207150 0.000000 
#    z -0.201200 0.000000 2.467180 
# 
# From -- ./inp_files/1038.got.cif
#   From: 2010.05.17/outbox.cif.g08.bks.cpg/sg5_1_cif.got.tgz:1038.got - 2010.06.03 18:56:24.
