data_PCOD9127418
_publ_section_title
;
Structure prediction by ZEFSAII (Michael W. Deem and Ramdas Pophale) SiO2 
 PCOD9127418
Probable space group: C 2
;
_chemical_formula_sum "Si O2"
_cell_formula_units_Z 22
_cell_length_a 16.485548
_cell_length_b 8.214786
_cell_length_c 8.338291
_cell_angle_alpha 90.000000
_cell_angle_beta 49.147795
_cell_angle_gamma 90.000000
_cell_volume 854.137625
_symmetry_space_group_name_H-M "C 2"
_symmetry_group_IT_number 5
_symmetry_cell_setting 'monoclinic'
loop_
_space_group_symop_operation_xyz
x,y,z
-x,y,-z
1/2+x,1/2+y,z
1/2-x,1/2+y,-z
loop_
_atom_site_type_symbol
_atom_site_label
_atom_site_fract_x
_atom_site_fract_y
_atom_site_fract_z
Si Si1 0.500000 0.526620 0.500000
Si Si2 0.214678 0.994108 0.375285
Si Si3 0.641443 0.440470 0.024116
Si Si4 0.000000 0.431943 0.500000
Si Si5 0.000000 0.732223 0.000000
Si Si6 0.860438 0.632433 0.454810
Si Si7 0.660523 0.816444 0.042621
O O1 0.613878 0.592851 0.430275
O O2 0.552677 0.433440 0.280884
O O3 0.262537 0.061667 0.477412
O O4 0.168302 0.814706 0.462126
O O5 0.311595 0.955712 0.124712
O O6 0.595919 0.350327 0.929628
O O7 0.662328 0.632733 0.972094
O O8 0.742389 0.342836 0.959450
O O9 0.097179 0.537667 0.445724
O O10 0.050999 0.335622 0.284112
O O11 0.959508 0.632058 0.202769
#
# Coordination Sequence:
#
# PCOD9127418 Si02
#       7
#     2   4   4   2   2   4   4
#     4  10  22  46  70 104 142 198 234 304 366 438
#     4  11  26  47  74 109 150 193 250 304 374 441
#     4  11  26  45  75 106 148 195 247 304 369 444
#     4  12  28  50  76 110 150 200 252 304 372 436
#     4  12  28  46  74 108 152 196 248 304 374 436
#     4  12  28  47  76 109 152 198 249 308 368 443
#     4  11  27  46  77 108 148 193 251 305 372 440
#
# _framework density 25.756972999999999
#
# number of rings (size 3 to 8) (size 9 to 14) (size 15 to 20)
#    0.000    0.727    1.818    3.273   15.273    2.909 
#    0.000    0.000    0.000    0.000    0.000    0.000 
#    0.000    0.000    0.000    0.000    0.000    0.000 
#
# Total GULP energy -61596.268437 kJ/mol
# GULP energy per Si atom -5599.660767 kJ/mol
# Density = 2.569835 g / cm^3
# Si number density = 25.756973 Si / 1000 Ang^3
#
#
#
# Elastic Constant Matrix: (Units=GPa)
#
#
# Indices 1 2 3 4 5 6 
#
# 1 148.0449 46.2337 -4.1714 0.0000 6.6385 0.0000
# 2 46.2337 94.0773 16.0027 0.0000 -2.0002 0.0000
# 3 -4.1714 16.0027 133.1222 0.0000 -19.4828 0.0000
# 4 0.0000 0.0000 0.0000 40.6519 0.0000 -0.0957
# 5 6.6385 -2.0002 -19.4828 0.0000 41.7909 0.0000
# 6 0.0000 0.0000 0.0000 -0.0957 0.0000 52.3262
#
#
#
# Elastic Compliance Matrix: (Units=1/GPa)
#
#
# Indices 1 2 3 4 5 6 
#
# 1 0.008108 -0.004107 0.000569 0.000000 -0.001219 0.000000
# 2 -0.004107 0.012933 -0.001607 0.000000 0.000522 0.000000
# 3 0.000569 -0.001607 0.008262 0.000000 0.003684 0.000000
# 4 0.000000 0.000000 0.000000 0.024599 0.000000 0.000045
# 5 -0.001219 0.000522 0.003684 0.000000 0.025865 0.000000
# 6 0.000000 0.000000 0.000000 0.000045 0.000000 0.019111
#
#
# Mechanical properties :
#
#
# Convention : Reuss Voigt Hill
#
# Bulk Modulus (GPa) = 52.59577 54.59718 53.59647
# Shear Modulus (GPa) = 43.28796 48.09911 45.69354
#
# Velocity S-wave (km/s) = 4.10400 4.32605 4.21649
# Velocity P-wave (km/s) = 6.55144 6.79677 6.67523
#
# Compressibility (1/GPa) = 0.01901294
#
# Stress axis : x y z
#
# Youngs Moduli (GPa) = 123.33248 77.32396 121.03421
#
# Poissons Ratio (x) = 0.31761 -0.06892
# Poissons Ratio (y) = 0.50659 0.19449
# Poissons Ratio (z) = -0.07023 0.12425
#
# Static dielectric constant tensor:
#      x y z
#    x 1.968130 0.000000 -0.028740 
#    y 0.000000 2.046870 0.000000 
#    z -0.028740 0.000000 2.067720 
# 
# From -- ./inp_files/26434.got.cif
#   From: 2010.05.17/outbox.cif.g08.bks.cpg/sg5_14_cif.got.tgz:26434.got - 2010.06.03 18:56:24.
