data_PCOD9127947
_publ_section_title
;
Structure prediction by ZEFSAII (Michael W. Deem and Ramdas Pophale) SiO2 
 PCOD9127947
Probable space group: C 2
;
_chemical_formula_sum "Si O2"
_cell_formula_units_Z 26
_cell_length_a 10.904729
_cell_length_b 9.429695
_cell_length_c 14.681631
_cell_angle_alpha 90.000000
_cell_angle_beta 58.927422
_cell_angle_gamma 90.000000
_cell_volume 1293.068094
_symmetry_space_group_name_H-M "C 2"
_symmetry_group_IT_number 5
_symmetry_cell_setting 'monoclinic'
loop_
_space_group_symop_operation_xyz
x,y,z
-x,y,-z
1/2+x,1/2+y,z
1/2-x,1/2+y,-z
loop_
_atom_site_type_symbol
_atom_site_label
_atom_site_fract_x
_atom_site_fract_y
_atom_site_fract_z
Si Si1 0.000000 0.806960 0.500000
Si Si2 0.595739 0.414633 0.637995
Si Si3 0.624471 0.035406 0.386316
Si Si4 0.406046 0.920031 0.804668
Si Si5 0.073309 0.691349 0.806354
Si Si6 0.134757 0.117113 0.199589
Si Si7 0.114436 0.937214 0.027491
O O1 0.104374 0.887799 0.527359
O O2 0.087790 0.701765 0.400367
O O3 0.725803 0.507908 0.623888
O O4 0.600737 0.275028 0.700676
O O5 0.449738 0.500691 0.709708
O O6 0.500000 0.972889 0.500000
O O7 0.623629 0.972305 0.286471
O O8 0.459861 0.758976 0.777147
O O9 0.503985 0.039038 0.813023
O O10 0.259473 0.908263 0.917923
O O11 0.218743 0.664547 0.807164
O O12 0.964506 0.796455 0.902326
O O13 0.151619 0.042648 0.095412
O O14 0.000000 0.000962 0.000000
#
# Coordination Sequence:
#
# PCOD9127947 Si02
#       7
#     2   4   4   4   4   4   4
#     4  10  24  44  66 102 136 180 224 292 332 406
#     4  11  23  45  71  98 136 177 232 281 344 405
#     4  10  23  44  68  95 133 180 227 283 340 388
#     4  12  22  43  70  96 135 182 223 280 342 402
#     4  11  23  45  69  97 140 179 224 287 334 412
#     4  11  25  43  68 105 131 183 224 279 346 412
#     4  11  23  44  68  96 144 174 225 283 336 400
#
# _framework density 20.107218
#
# number of rings (size 3 to 8) (size 9 to 14) (size 15 to 20)
#    0.462    0.615    4.615    1.846    0.000    4.923 
#    9.692    0.000    0.000    0.000    0.000    0.000 
#    0.000    0.000    0.000    0.000    0.000    0.000 
#
# Total GULP energy -72552.883454 kJ/mol
# GULP energy per Si atom -5580.991035 kJ/mol
# Density = 2.006145 g / cm^3
# Si number density = 20.107218 Si / 1000 Ang^3
#
#
#
# Elastic Constant Matrix: (Units=GPa)
#
#
# Indices 1 2 3 4 5 6 
#
# 1 108.5626 51.2900 25.5735 0.0000 16.0368 0.0000
# 2 51.2900 100.2253 14.3105 0.0000 13.7995 0.0000
# 3 25.5735 14.3105 69.0237 0.0000 23.3188 0.0000
# 4 0.0000 0.0000 0.0000 11.1112 0.0000 10.8121
# 5 16.0368 13.7995 23.3188 0.0000 31.8455 0.0000
# 6 0.0000 0.0000 0.0000 10.8121 0.0000 20.6802
#
#
#
# Elastic Compliance Matrix: (Units=1/GPa)
#
#
# Indices 1 2 3 4 5 6 
#
# 1 0.013002 -0.005984 -0.002977 0.000000 -0.001774 0.000000
# 2 -0.005984 0.013403 0.000508 0.000000 -0.003167 0.000000
# 3 -0.002977 0.000508 0.020001 0.000000 -0.013367 0.000000
# 4 0.000000 0.000000 0.000000 0.183206 0.000000 -0.095784
# 5 -0.001774 -0.003167 -0.013367 0.000000 0.043455 0.000000
# 6 0.000000 0.000000 0.000000 -0.095784 0.000000 0.098434
#
#
# Mechanical properties :
#
#
# Convention : Reuss Voigt Hill
#
# Bulk Modulus (GPa) = 33.89830 51.12888 42.51359
# Shear Modulus (GPa) = 12.55521 25.16989 18.86255
#
# Velocity S-wave (km/s) = 2.50154 3.54189 3.06616
# Velocity P-wave (km/s) = 5.02384 6.49692 5.80728
#
# Compressibility (1/GPa) = 0.02950000
#
# Stress axis : x y z
#
# Youngs Moduli (GPa) = 76.91142 74.60781 49.99677
#
# Poissons Ratio (x) = 0.44648 0.14885
# Poissons Ratio (y) = 0.46026 -0.02540
# Poissons Ratio (z) = 0.22897 -0.03791
#
# Static dielectric constant tensor:
#      x y z
#    x 1.679560 0.000000 -0.004420 
#    y 0.000000 1.720710 0.000000 
#    z -0.004420 0.000000 1.751600 
# 
# From -- ./inp_files/52192.got.cif
#   From: 2010.05.17/outbox.cif.g08.bks.cpg/sg5_27_cif.got.tgz:52192.got - 2010.06.03 18:56:24.
