data_PCOD9127271
_publ_section_title
;
Structure prediction by ZEFSAII (Michael W. Deem and Ramdas Pophale) SiO2 
 PCOD9127271
Probable space group: C 2
;
_chemical_formula_sum "Si O2"
_cell_formula_units_Z 28
_cell_length_a 7.505811
_cell_length_b 29.179808
_cell_length_c 7.652403
_cell_angle_alpha 90.000000
_cell_angle_beta 136.092165
_cell_angle_gamma 90.000000
_cell_volume 1162.316961
_symmetry_space_group_name_H-M "C 2"
_symmetry_group_IT_number 5
_symmetry_cell_setting 'monoclinic'
loop_
_space_group_symop_operation_xyz
x,y,z
-x,y,-z
1/2+x,1/2+y,z
1/2-x,1/2+y,-z
loop_
_atom_site_type_symbol
_atom_site_label
_atom_site_fract_x
_atom_site_fract_y
_atom_site_fract_z
Si Si1 0.426422 0.383420 0.653336
Si Si2 0.275354 0.481628 0.486662
Si Si3 0.991195 0.069787 0.787244
Si Si4 0.500000 0.023090 0.000000
Si Si5 0.715118 0.807786 0.004686
Si Si6 0.393580 0.213198 0.121625
Si Si7 0.609629 0.671934 0.386513
Si Si8 0.500000 0.817965 0.500000
O O1 0.500000 0.382111 0.500000
O O2 0.329001 0.434583 0.624759
O O3 0.195518 0.349965 0.533979
O O4 0.660265 0.358415 0.918441
O O5 0.500000 0.482830 0.500000
O O6 0.305406 0.526830 0.620827
O O7 0.031935 0.489348 0.189841
O O8 0.897560 0.117386 0.643345
O O9 0.259359 0.055165 0.882187
O O10 0.000000 0.075719 0.000000
O O11 0.630923 0.792103 0.751722
O O12 0.500000 0.809937 0.000000
O O13 0.899477 0.766183 0.187557
O O14 0.594490 0.187473 0.389024
O O15 0.500000 0.208557 0.000000
O O16 0.099902 0.194222 0.895262
O O17 0.500000 0.683089 0.500000
#
# Coordination Sequence:
#
# PCOD9127271 Si02
#       8
#     4   4   4   2   4   4   4   2
#     4  11  24  45  71 109 149 194 254 312 379 464
#     4   9  22  43  71 103 146 191 246 305 373 445
#     4  11  25  43  70 108 145 191 247 303 376 456
#     4  10  22  44  74 102 146 196 244 310 372 444
#     4  12  27  48  76 108 150 203 255 324 384 463
#     4  10  24  44  78 105 145 194 253 310 385 453
#     4  10  23  44  75 107 143 196 245 313 378 453
#     4  12  26  44  78 108 150 198 252 312 392 446
#
# _framework density 24.089812999999999
#
# number of rings (size 3 to 8) (size 9 to 14) (size 15 to 20)
#    0.000    1.429    1.429    2.571   10.000    6.857 
#    1.286    1.429    0.000    0.000    0.000    0.000 
#    0.000    0.000    0.000    0.000    0.000    0.000 
#
# Total GULP energy -78216.650254 kJ/mol
# GULP energy per Si atom -5586.903590 kJ/mol
# Density = 2.403498 g / cm^3
# Si number density = 24.089813 Si / 1000 Ang^3
#
#
#
# Elastic Constant Matrix: (Units=GPa)
#
#
# Indices 1 2 3 4 5 6 
#
# 1 79.5083 23.2590 38.5221 0.0000 -17.1909 0.0000
# 2 23.2590 166.6689 75.5610 0.0000 15.3863 0.0000
# 3 38.5221 75.5610 136.9448 0.0000 10.2044 0.0000
# 4 0.0000 0.0000 0.0000 23.4756 0.0000 -14.8431
# 5 -17.1909 15.3863 10.2044 0.0000 19.7295 0.0000
# 6 0.0000 0.0000 0.0000 -14.8431 0.0000 -12.0349
#
#
#
# Elastic Compliance Matrix: (Units=1/GPa)
#
#
# Indices 1 2 3 4 5 6 
#
# 1 0.021650 -0.002224 -0.006654 0.000000 0.024040 0.000000
# 2 -0.002224 0.008565 -0.003597 0.000000 -0.006757 0.000000
# 3 -0.006654 -0.003597 0.011838 0.000000 -0.009116 0.000000
# 4 0.000000 0.000000 0.000000 0.023934 0.000000 -0.029518
# 5 0.024040 -0.006757 -0.009116 0.000000 0.081617 0.000000
# 6 0.000000 0.000000 0.000000 -0.029518 0.000000 -0.046686
#
#
# Mechanical properties :
#
#
# Convention : Reuss Voigt Hill
#
# Bulk Modulus (GPa) = 58.47036 73.08957 65.77996
# Shear Modulus (GPa) = 38.00349 22.61937 30.31143
#
# Velocity S-wave (km/s) = 3.97618 3.06757 3.55105
# Velocity P-wave (km/s) = 6.73829 6.55385 6.64671
#
# Compressibility (1/GPa) = 0.01710268
#
# Stress axis : x y z
#
# Youngs Moduli (GPa) = 46.18998 116.76045 84.47520
#
# Poissons Ratio (x) = 0.25965 0.56213
# Poissons Ratio (y) = 0.10271 0.30382
# Poissons Ratio (z) = 0.30736 0.41994
#
# Static dielectric constant tensor:
#      x y z
#    x 1.898640 0.000000 0.054770 
#    y 0.000000 1.882650 0.000000 
#    z 0.054770 0.000000 2.093860 
# 
# From -- ./inp_files/17484.got.cif
#   From: 2010.05.17/outbox.cif.g08.bks.cpg/sg5_9_cif.got.tgz:17484.got - 2010.06.03 18:56:24.
