data_PCOD9127110
_publ_section_title
;
Structure prediction by ZEFSAII (Michael W. Deem and Ramdas Pophale) SiO2 
 PCOD9127110
Probable space group: C 2
;
_chemical_formula_sum "Si O2"
_cell_formula_units_Z 28
_cell_length_a 18.107213
_cell_length_b 6.389588
_cell_length_c 10.835190
_cell_angle_alpha 90.000000
_cell_angle_beta 73.322056
_cell_angle_gamma 90.000000
_cell_volume 1200.870432
_symmetry_space_group_name_H-M "C 2"
_symmetry_group_IT_number 5
_symmetry_cell_setting 'monoclinic'
loop_
_space_group_symop_operation_xyz
x,y,z
-x,y,-z
1/2+x,1/2+y,z
1/2-x,1/2+y,-z
loop_
_atom_site_type_symbol
_atom_site_label
_atom_site_fract_x
_atom_site_fract_y
_atom_site_fract_z
Si Si1 0.180503 0.889960 0.741717
Si Si2 0.050609 0.193799 0.860805
Si Si3 0.060323 0.754518 0.372418
Si Si4 0.155649 0.410539 0.447237
Si Si5 0.928785 0.543561 0.289222
Si Si6 0.587517 0.661070 0.252860
Si Si7 0.263485 0.770041 0.946516
O O1 0.253435 0.912115 0.616536
O O2 0.115386 0.758625 0.704985
O O3 0.215354 0.771608 0.842735
O O4 0.133827 0.089423 0.813452
O O5 0.061046 0.442641 0.849327
O O6 0.998100 0.166092 0.762608
O O7 0.000000 0.119782 0.000000
O O8 0.124237 0.634029 0.417456
O O9 0.000000 0.853190 0.500000
O O10 0.008470 0.591238 0.320551
O O11 0.100609 0.914504 0.262676
O O12 0.125483 0.395568 0.600370
O O13 0.111226 0.253199 0.375501
O O14 0.645704 0.764640 0.129026
O O15 0.249252 0.522334 0.003182
#
# Coordination Sequence:
#
# PCOD9127110 Si02
#       7
#     4   4   4   4   4   4   4
#     4  11  27  47  71 110 145 195 248 323 386 446
#     4  12  27  45  70 104 149 198 249 306 378 453
#     4  10  22  43  74 105 143 185 243 306 383 466
#     4  10  25  45  73 109 138 192 245 313 391 456
#     4  11  25  45  73 109 148 187 249 322 386 461
#     4  11  24  44  75 102 144 197 244 309 374 472
#     4  11  28  50  79 108 152 203 262 313 376 457
#
# _framework density 23.316420999999998
#
# number of rings (size 3 to 8) (size 9 to 14) (size 15 to 20)
#    0.000    1.143    2.857    0.857   12.000    1.714 
#    2.571    0.000    0.000    0.000    0.000    0.000 
#    0.000    0.000    0.000    0.000    0.000    0.000 
#
# Total GULP energy -77980.578901 kJ/mol
# GULP energy per Si atom -5570.041350 kJ/mol
# Density = 2.326335 g / cm^3
# Si number density = 23.316421 Si / 1000 Ang^3
#
#
#
# Elastic Constant Matrix: (Units=GPa)
#
#
# Indices 1 2 3 4 5 6 
#
# 1 63.9404 10.0454 -8.0450 0.0000 -8.7752 0.0000
# 2 10.0454 72.1978 30.0748 0.0000 -13.8675 0.0000
# 3 -8.0450 30.0748 53.2221 0.0000 -4.2035 0.0000
# 4 0.0000 0.0000 0.0000 34.7756 0.0000 -2.9922
# 5 -8.7752 -13.8675 -4.2035 0.0000 19.5772 0.0000
# 6 0.0000 0.0000 0.0000 -2.9922 0.0000 29.4939
#
#
#
# Elastic Compliance Matrix: (Units=1/GPa)
#
#
# Indices 1 2 3 4 5 6 
#
# 1 0.017712 -0.003287 0.005064 0.000000 0.006698 0.000000
# 2 -0.003287 0.021297 -0.011654 0.000000 0.011110 0.000000
# 3 0.005064 -0.011654 0.026110 0.000000 -0.000379 0.000000
# 4 0.000000 0.000000 0.000000 0.029009 0.000000 0.002943
# 5 0.006698 0.011110 -0.000379 0.000000 0.061870 0.000000
# 6 0.000000 0.000000 0.000000 0.002943 0.000000 0.034204
#
#
# Mechanical properties :
#
#
# Convention : Reuss Voigt Hill
#
# Bulk Modulus (GPa) = 22.04351 28.16786 25.10569
# Shear Modulus (GPa) = 22.21448 27.25502 24.73475
#
# Velocity S-wave (km/s) = 3.09000 3.42266 3.26057
# Velocity P-wave (km/s) = 4.71226 5.26558 4.99658
#
# Compressibility (1/GPa) = 0.04536482
#
# Stress axis : x y z
#
# Youngs Moduli (GPa) = 56.45748 46.95564 38.29932
#
# Poissons Ratio (x) = 0.15436 -0.19395
# Poissons Ratio (y) = 0.18560 0.44633
# Poissons Ratio (z) = -0.28590 0.54721
#
# Static dielectric constant tensor:
#      x y z
#    x 1.842330 0.000000 -0.055910 
#    y 0.000000 2.028980 0.000000 
#    z -0.055910 0.000000 2.037950 
# 
# From -- ./inp_files/45652.got.cif
#   From: 2010.05.17/outbox.cif.g08.bks.cpg/sg5_23_cif.got.tgz:45652.got - 2010.06.03 18:56:24.
