data_PCOD9127562
_publ_section_title
;
Structure prediction by ZEFSAII (Michael W. Deem and Ramdas Pophale) SiO2 
 PCOD9127562
Probable space group: C 2
;
_chemical_formula_sum "Si O2"
_cell_formula_units_Z 20
_cell_length_a 17.934498
_cell_length_b 7.671892
_cell_length_c 11.997500
_cell_angle_alpha 90.000000
_cell_angle_beta 152.731212
_cell_angle_gamma 90.000000
_cell_volume 756.318568
_symmetry_space_group_name_H-M "C 2"
_symmetry_group_IT_number 5
_symmetry_cell_setting 'monoclinic'
loop_
_space_group_symop_operation_xyz
x,y,z
-x,y,-z
1/2+x,1/2+y,z
1/2-x,1/2+y,-z
loop_
_atom_site_type_symbol
_atom_site_label
_atom_site_fract_x
_atom_site_fract_y
_atom_site_fract_z
Si Si1 0.161544 0.255990 0.869565
Si Si2 0.841796 0.418260 0.470646
Si Si3 0.518436 0.374562 0.648444
Si Si4 0.720638 0.541834 0.527572
Si Si5 0.591754 0.669732 0.019801
O O1 0.019358 0.392114 0.652500
O O2 0.095501 0.069771 0.742129
O O3 0.350439 0.283012 0.096515
O O4 0.158914 0.265965 0.001186
O O5 0.853379 0.494853 0.612104
O O6 0.764640 0.225283 0.388947
O O7 0.725471 0.536454 0.242903
O O8 0.558974 0.564120 0.236095
O O9 0.500000 0.302761 0.500000
O O10 0.340531 0.395655 0.467308
O O11 0.500000 0.765179 0.000000
#
# Coordination Sequence:
#
# PCOD9127562 Si02
#       5
#     4   4   4   4   4
#     4  10  23  38  57  85 112 148 191 226 273 337
#     4   9  18  37  61  83 111 145 185 236 277 323
#     4  10  23  39  55  82 117 148 184 231 276 330
#     4   9  20  36  57  86 113 144 189 229 275 335
#     4   8  16  34  59  82 109 143 182 230 279 321
#
# _framework density 26.443881999999999
#
# number of rings (size 3 to 8) (size 9 to 14) (size 15 to 20)
#    0.000    3.200    0.000    0.000    0.000   14.400 
#    0.000    8.000    0.000    0.000    0.000    0.000 
#    0.000    0.000    0.000    0.000    0.000    0.000 
#
# Total GULP energy -55879.420457 kJ/mol
# GULP energy per Si atom -5587.942046 kJ/mol
# Density = 2.638369 g / cm^3
# Si number density = 26.443882 Si / 1000 Ang^3
#
#
#
# Elastic Constant Matrix: (Units=GPa)
#
#
# Indices 1 2 3 4 5 6 
#
# 1 90.8811 8.9059 14.4901 0.0000 -10.9540 0.0000
# 2 8.9059 71.1869 32.4853 0.0000 16.7378 0.0000
# 3 14.4901 32.4853 105.3128 0.0000 9.5395 0.0000
# 4 0.0000 0.0000 0.0000 52.9657 0.0000 2.1220
# 5 -10.9540 16.7378 9.5395 0.0000 37.7525 0.0000
# 6 0.0000 0.0000 0.0000 2.1220 0.0000 34.1946
#
#
#
# Elastic Compliance Matrix: (Units=1/GPa)
#
#
# Indices 1 2 3 4 5 6 
#
# 1 0.011997 -0.001933 -0.001481 0.000000 0.004712 0.000000
# 2 -0.001933 0.018166 -0.004664 0.000000 -0.007436 0.000000
# 3 -0.001481 -0.004664 0.011247 0.000000 -0.001204 0.000000
# 4 0.000000 0.000000 0.000000 0.018927 0.000000 -0.001175
# 5 0.004712 -0.007436 -0.001204 0.000000 0.031457 0.000000
# 6 0.000000 0.000000 0.000000 -0.001175 0.000000 0.029317
#
#
# Mechanical properties :
#
#
# Convention : Reuss Voigt Hill
#
# Bulk Modulus (GPa) = 39.59806 42.12703 40.86255
# Shear Modulus (GPa) = 34.32040 39.08252 36.70146
#
# Velocity S-wave (km/s) = 3.60649 3.84857 3.72949
# Velocity P-wave (km/s) = 5.68764 5.97612 5.83366
#
# Compressibility (1/GPa) = 0.02525376
#
# Stress axis : x y z
#
# Youngs Moduli (GPa) = 83.35452 55.04723 88.91186
#
# Poissons Ratio (x) = 0.10640 0.13170
# Poissons Ratio (y) = 0.16111 0.41469
# Poissons Ratio (z) = 0.12347 0.25674
#
# Static dielectric constant tensor:
#      x y z
#    x 2.201930 0.000000 0.079550 
#    y 0.000000 2.105340 0.000000 
#    z 0.079550 0.000000 2.122860 
# 
# From -- ./inp_files/31554.got.cif
#   From: 2010.05.17/outbox.cif.g08.bks.cpg/sg5_16_cif.got.tgz:31554.got - 2010.06.03 18:56:24.
