data_PCOD9127849
_publ_section_title
;
Structure prediction by ZEFSAII (Michael W. Deem and Ramdas Pophale) SiO2 
 PCOD9127849
Probable space group: C 2
;
_chemical_formula_sum "Si O2"
_cell_formula_units_Z 26
_cell_length_a 12.147709
_cell_length_b 11.068550
_cell_length_c 17.429225
_cell_angle_alpha 90.000000
_cell_angle_beta 148.315649
_cell_angle_gamma 90.000000
_cell_volume 1230.893170
_symmetry_space_group_name_H-M "C 2"
_symmetry_group_IT_number 5
_symmetry_cell_setting 'monoclinic'
loop_
_space_group_symop_operation_xyz
x,y,z
-x,y,-z
1/2+x,1/2+y,z
1/2-x,1/2+y,-z
loop_
_atom_site_type_symbol
_atom_site_label
_atom_site_fract_x
_atom_site_fract_y
_atom_site_fract_z
Si Si1 0.667666 0.064570 0.545044
Si Si2 0.041321 0.670193 0.724214
Si Si3 0.325559 0.014690 0.719369
Si Si4 0.055307 0.950936 0.701438
Si Si5 0.500000 0.686925 0.000000
Si Si6 0.651619 0.130895 0.028880
Si Si7 0.961202 0.256598 0.805184
O O1 0.500000 0.998507 0.500000
O O2 0.533877 0.141531 0.405815
O O3 0.812685 0.151649 0.683191
O O4 0.819219 0.984792 0.583234
O O5 0.864307 0.615220 0.676307
O O6 0.073744 0.814155 0.742312
O O7 0.276918 0.618230 0.879659
O O8 0.122149 0.986445 0.653361
O O9 0.387145 0.882508 0.726046
O O10 0.505118 0.057390 0.884936
O O11 0.205262 0.035290 0.841305
O O12 0.460123 0.759172 0.897138
O O13 0.803296 0.224069 0.077996
O O14 0.500000 0.193913 0.000000
#
# Coordination Sequence:
#
# PCOD9127849 Si02
#       7
#     4   4   4   4   2   4   4
#     4  11  24  45  64  94 137 181 220 286 354 401
#     4  12  25  42  71 101 132 180 233 277 345 416
#     4  11  22  39  69  99 130 179 236 274 343 416
#     4  10  23  43  66  93 140 177 223 289 342 405
#     4  12  20  42  70  98 132 176 230 280 338 406
#     4   9  20  38  63  95 132 174 218 285 347 395
#     4  11  22  41  68  94 134 178 225 283 344 414
#
# _framework density 21.122873999999999
#
# number of rings (size 3 to 8) (size 9 to 14) (size 15 to 20)
#    0.000    1.231    4.615    0.923    4.308    0.615 
#    4.154    1.538    0.000    0.000    0.000    0.000 
#    0.000    0.000    0.000    0.000    0.000    0.000 
#
# Total GULP energy -72463.399291 kJ/mol
# GULP energy per Si atom -5574.107638 kJ/mol
# Density = 2.107480 g / cm^3
# Si number density = 21.122874 Si / 1000 Ang^3
#
#
#
# Elastic Constant Matrix: (Units=GPa)
#
#
# Indices 1 2 3 4 5 6 
#
# 1 164.7204 63.5768 27.1677 0.0000 33.6875 0.0000
# 2 63.5768 61.1315 -0.8833 0.0009 21.3833 0.0000
# 3 27.1677 -0.8833 63.1515 0.0035 10.4062 0.0003
# 4 0.0000 0.0009 0.0035 14.3574 0.0005 1.2577
# 5 33.6875 21.3833 10.4062 0.0005 50.5539 -0.0001
# 6 0.0000 0.0000 0.0003 1.2577 -0.0001 7.7032
#
#
#
# Elastic Compliance Matrix: (Units=1/GPa)
#
#
# Indices 1 2 3 4 5 6 
#
# 1 0.011761 -0.011636 -0.004909 0.000002 -0.001905 0.000000
# 2 -0.011636 0.030882 0.006534 -0.000003 -0.006653 0.000000
# 3 -0.004909 0.006534 0.018585 -0.000005 -0.003318 0.000000
# 4 0.000002 -0.000003 -0.000005 0.070661 0.000000 -0.011537
# 5 -0.001905 -0.006653 -0.003318 0.000000 0.024548 0.000000
# 6 0.000000 0.000000 0.000000 -0.011537 0.000000 0.131700
#
#
# Mechanical properties :
#
#
# Convention : Reuss Voigt Hill
#
# Bulk Modulus (GPa) = 24.26809 52.08066 38.17438
# Shear Modulus (GPa) = 15.53308 27.79905 21.66606
#
# Velocity S-wave (km/s) = 2.71471 3.63169 3.20615
# Velocity P-wave (km/s) = 4.61954 6.50347 5.64071
#
# Compressibility (1/GPa) = 0.04120637
#
# Stress axis : x y z
#
# Youngs Moduli (GPa) = 85.02428 32.38170 53.80741
#
# Poissons Ratio (x) = 0.37681 0.26412
# Poissons Ratio (y) = 0.98937 -0.35159
# Poissons Ratio (z) = 0.41735 -0.21159
#
# Static dielectric constant tensor:
#      x y z
#    x 1.832080 0.000000 0.037960 
#    y 0.000000 1.708660 0.000000 
#    z 0.037960 0.000000 1.822080 
# 
# From -- ./inp_files/38888.got.cif
#   From: 2010.05.17/outbox.cif.g08.bks.cpg/sg5_20_cif.got.tgz:38888.got - 2010.06.03 18:56:24.
