data_PCOD9127459
_publ_section_title
;
Structure prediction by ZEFSAII (Michael W. Deem and Ramdas Pophale) SiO2 
 PCOD9127459
Probable space group: C 2
;
_chemical_formula_sum "Si O2"
_cell_formula_units_Z 18
_cell_length_a 5.328945
_cell_length_b 25.125330
_cell_length_c 5.320780
_cell_angle_alpha 90.000000
_cell_angle_beta 92.116709
_cell_angle_gamma 90.000000
_cell_volume 711.921124
_symmetry_space_group_name_H-M "C 2"
_symmetry_group_IT_number 5
_symmetry_cell_setting 'monoclinic'
loop_
_space_group_symop_operation_xyz
x,y,z
-x,y,-z
1/2+x,1/2+y,z
1/2-x,1/2+y,-z
loop_
_atom_site_type_symbol
_atom_site_label
_atom_site_fract_x
_atom_site_fract_y
_atom_site_fract_z
Si Si1 0.763534 0.066540 0.160972
Si Si2 0.000000 0.879163 0.000000
Si Si3 0.667630 0.181978 0.256722
Si Si4 0.257145 0.799347 0.342497
Si Si5 0.157288 0.454207 0.269571
O O1 0.812354 0.125929 0.263479
O O2 0.732282 0.015275 0.334812
O O3 0.500000 0.070517 0.000000
O O4 0.000000 0.052510 0.000000
O O5 0.208219 0.839231 0.113620
O O6 0.891192 0.917062 0.211628
O O7 0.500000 0.180661 0.500000
O O8 0.807972 0.238256 0.262724
O O9 0.500000 0.183536 0.000000
O O10 0.500000 0.816657 0.500000
O O11 0.000000 0.799538 0.500000
O O12 0.000000 0.434863 0.500000
O O13 0.000000 0.455221 0.000000
#
# Coordination Sequence:
#
# PCOD9127459 Si02
#       5
#     4   2   4   4   4
#     4  10  22  46  76 114 155 204 259 329 401 481
#     4  12  28  50  80 116 164 216 278 332 402 484
#     4  10  22  47  76 114 157 206 262 328 402 478
#     4  11  28  49  78 114 159 213 272 331 401 477
#     4  11  27  49  78 116 159 210 271 331 406 479
#
# _framework density 25.283702999999999
#
# number of rings (size 3 to 8) (size 9 to 14) (size 15 to 20)
#    0.000    1.333    2.222    0.667    6.222    7.111 
#    0.000    6.667    0.000    0.000    0.000    0.000 
#    0.000    0.000    0.000    0.000    0.000    0.000 
#
# Total GULP energy -50428.791170 kJ/mol
# GULP energy per Si atom -5603.199019 kJ/mol
# Density = 2.522616 g / cm^3
# Si number density = 25.283703 Si / 1000 Ang^3
#
#
#
# Elastic Constant Matrix: (Units=GPa)
#
#
# Indices 1 2 3 4 5 6 
#
# 1 123.4427 29.8306 45.0859 0.0000 -0.2352 0.0000
# 2 29.8306 236.4805 33.7101 0.0000 -5.9088 0.0000
# 3 45.0859 33.7101 132.2461 0.0000 -5.9245 0.0000
# 4 0.0000 0.0000 0.0000 -44.3258 0.0000 -20.4908
# 5 -0.2352 -5.9088 -5.9245 0.0000 64.0053 0.0000
# 6 0.0000 0.0000 0.0000 -20.4908 0.0000 -1.0894
#
#
#
# Elastic Compliance Matrix: (Units=1/GPa)
#
#
# Indices 1 2 3 4 5 6 
#
# 1 0.009388 -0.000761 -0.003020 0.000000 -0.000315 0.000000
# 2 -0.000761 0.004456 -0.000861 0.000000 0.000329 0.000000
# 3 -0.003020 -0.000861 0.008844 0.000000 0.000728 0.000000
# 4 0.000000 0.000000 0.000000 0.002932 0.000000 -0.055144
# 5 -0.000315 0.000329 0.000728 0.000000 0.015720 0.000000
# 6 0.000000 0.000000 0.000000 -0.055144 0.000000 0.119289
#
#
# Mechanical properties :
#
#
# Convention : Reuss Voigt Hill
#
# Bulk Modulus (GPa) = 74.62639 78.82471 76.72555
# Shear Modulus (GPa) = 28.67283 29.28752 28.98017
#
# Velocity S-wave (km/s) = 3.37121 3.40715 3.38923
# Velocity P-wave (km/s) = 6.68828 6.83535 6.76222
#
# Compressibility (1/GPa) = 0.01340009
#
# Stress axis : x y z
#
# Youngs Moduli (GPa) = 106.52439 224.42904 113.07605
#
# Poissons Ratio (x) = 0.17090 0.34154
# Poissons Ratio (y) = 0.08112 0.09741
# Poissons Ratio (z) = 0.32175 0.19333
#
# Static dielectric constant tensor:
#      x y z
#    x 1.973840 0.000000 0.042950 
#    y 0.000000 2.013300 0.000000 
#    z 0.042950 0.000000 2.042520 
# 
# From -- ./inp_files/877.got.cif
#   From: 2010.05.17/outbox.cif.g08.bks.cpg/sg5_1_cif.got.tgz:877.got - 2010.06.03 18:56:24.
