data_PCOD9127052
_publ_section_title
;
Structure prediction by ZEFSAII (Michael W. Deem and Ramdas Pophale) SiO2 
 PCOD9127052
Probable space group: C 2
;
_chemical_formula_sum "Si O2"
_cell_formula_units_Z 28
_cell_length_a 19.411342
_cell_length_b 8.427191
_cell_length_c 8.870868
_cell_angle_alpha 90.000000
_cell_angle_beta 115.133696
_cell_angle_gamma 90.000000
_cell_volume 1313.730344
_symmetry_space_group_name_H-M "C 2"
_symmetry_group_IT_number 5
_symmetry_cell_setting 'monoclinic'
loop_
_space_group_symop_operation_xyz
x,y,z
-x,y,-z
1/2+x,1/2+y,z
1/2-x,1/2+y,-z
loop_
_atom_site_type_symbol
_atom_site_label
_atom_site_fract_x
_atom_site_fract_y
_atom_site_fract_z
Si Si1 0.742493 0.840990 0.977928
Si Si2 0.357499 0.389197 0.300936
Si Si3 0.832160 0.527429 0.357175
Si Si4 0.917754 0.314835 0.641543
Si Si5 0.273942 0.594330 0.476108
Si Si6 0.500000 0.574652 0.500000
Si Si7 0.666402 0.066413 0.105033
Si Si8 0.500000 0.976434 0.000000
O O1 0.783838 0.681308 0.957803
O O2 0.691082 0.906143 0.795513
O O3 0.816539 0.934681 0.106740
O O4 0.689621 0.884693 0.075772
O O5 0.349795 0.202117 0.314463
O O6 0.319542 0.470902 0.412904
O O7 0.439620 0.459622 0.370205
O O8 0.902767 0.463605 0.518391
O O9 0.758950 0.536342 0.397332
O O10 0.832949 0.235535 0.570227
O O11 0.966118 0.186663 0.596582
O O12 0.960850 0.371741 0.831144
O O13 0.199048 0.617160 0.299648
O O14 0.574691 0.074573 0.011714
#
# Coordination Sequence:
#
# PCOD9127052 Si02
#       8
#     4   4   4   4   4   2   4   2
#     4  11  24  42  73  99 133 191 245 281 346 437
#     4  10  24  42  65  99 137 179 229 301 340 433
#     4  12  22  40  72 100 123 184 243 283 343 419
#     4  11  25  43  71  97 137 193 225 293 353 444
#     4  10  22  43  68  96 136 184 239 276 343 437
#     4  10  26  46  62  92 146 176 234 288 374 412
#     4  11  24  45  68 107 143 184 241 303 348 429
#     4  12  28  42  72 114 156 172 238 314 378 396
#
# _framework density 21.313355000000001
#
# number of rings (size 3 to 8) (size 9 to 14) (size 15 to 20)
#    0.000    1.143    4.286    0.857    4.000    2.857 
#    0.000    0.000    0.000    1.714    0.000    0.000 
#    0.000    0.000    0.000    0.000    0.000    0.000 
#
# Total GULP energy -77952.062732 kJ/mol
# GULP energy per Si atom -5568.004481 kJ/mol
# Density = 2.126484 g / cm^3
# Si number density = 21.313355 Si / 1000 Ang^3
#
#
#
# Elastic Constant Matrix: (Units=GPa)
#
#
# Indices 1 2 3 4 5 6 
#
# 1 74.4328 37.0717 21.8311 0.0000 24.5692 0.0000
# 2 37.0717 88.9873 38.9589 0.0000 14.0500 0.0000
# 3 21.8311 38.9589 162.6048 0.0000 18.5029 0.0000
# 4 0.0000 0.0000 0.0000 16.9047 0.0000 0.5140
# 5 24.5692 14.0500 18.5029 0.0000 35.8749 0.0000
# 6 0.0000 0.0000 0.0000 0.5140 0.0000 23.4756
#
#
#
# Elastic Compliance Matrix: (Units=1/GPa)
#
#
# Indices 1 2 3 4 5 6 
#
# 1 0.020589 -0.006840 0.000185 0.000000 -0.011517 0.000000
# 2 -0.006840 0.015274 -0.002755 0.000000 0.000124 0.000000
# 3 0.000185 -0.002755 0.007093 0.000000 -0.002706 0.000000
# 4 0.000000 0.000000 0.000000 0.059194 0.000000 -0.001296
# 5 -0.011517 0.000124 -0.002706 0.000000 0.037110 0.000000
# 6 0.000000 0.000000 0.000000 -0.001296 0.000000 0.042626
#
#
# Mechanical properties :
#
#
# Convention : Reuss Voigt Hill
#
# Bulk Modulus (GPa) = 41.43231 57.97201 49.70216
# Shear Modulus (GPa) = 23.95198 30.46192 27.20695
#
# Velocity S-wave (km/s) = 3.35595 3.78463 3.57672
# Velocity P-wave (km/s) = 5.87353 6.80858 6.35827
#
# Compressibility (1/GPa) = 0.02413575
#
# Stress axis : x y z
#
# Youngs Moduli (GPa) = 48.56968 65.47173 140.98238
#
# Poissons Ratio (x) = 0.44782 -0.02609
# Poissons Ratio (y) = 0.33221 0.38844
# Poissons Ratio (z) = -0.00899 0.18039
#
# Static dielectric constant tensor:
#      x y z
#    x 1.810160 0.000000 -0.011420 
#    y 0.000000 1.850680 0.000000 
#    z -0.011420 0.000000 1.789450 
# 
# From -- ./inp_files/29171.got.cif
#   From: 2010.05.17/outbox.cif.g08.bks.cpg/sg5_15_cif.got.tgz:29171.got - 2010.06.03 18:56:24.
