data_PCOD9127870
_publ_section_title
;
Structure prediction by ZEFSAII (Michael W. Deem and Ramdas Pophale) SiO2 
 PCOD9127870
Probable space group: C 2
;
_chemical_formula_sum "Si O2"
_cell_formula_units_Z 28
_cell_length_a 19.866799
_cell_length_b 13.259365
_cell_length_c 5.305603
_cell_angle_alpha 90.000000
_cell_angle_beta 64.045448
_cell_angle_gamma 90.000000
_cell_volume 1256.647324
_symmetry_space_group_name_H-M "C 2"
_symmetry_group_IT_number 5
_symmetry_cell_setting 'monoclinic'
loop_
_space_group_symop_operation_xyz
x,y,z
-x,y,-z
1/2+x,1/2+y,z
1/2-x,1/2+y,-z
loop_
_atom_site_type_symbol
_atom_site_label
_atom_site_fract_x
_atom_site_fract_y
_atom_site_fract_z
Si Si1 0.177338 0.837960 0.028525
Si Si2 0.684066 0.822898 0.908854
Si Si3 0.087975 0.468328 0.319533
Si Si4 0.649185 0.630971 0.703267
Si Si5 0.220342 0.484537 0.480350
Si Si6 0.948466 0.675428 0.837433
Si Si7 0.412769 0.529692 0.687336
O O1 0.242094 0.780780 0.078405
O O2 0.115584 0.760133 0.033714
O O3 0.131685 0.923966 0.254356
O O4 0.225753 0.903476 0.751064
O O5 0.654892 0.749044 0.744212
O O6 0.708321 0.931774 0.765575
O O7 0.616935 0.857756 0.194221
O O8 0.142224 0.495797 0.463433
O O9 0.090095 0.566214 0.133713
O O10 0.000000 0.458231 0.500000
O O11 0.732649 0.585592 0.578401
O O12 0.615515 0.600620 0.491602
O O13 0.604771 0.579965 0.011647
O O14 0.000000 0.691784 0.500000
O O15 0.000000 0.676495 0.000000
O O16 0.500000 0.511428 0.500000
#
# Coordination Sequence:
#
# PCOD9127870 Si02
#       7
#     4   4   4   4   4   4   4
#     4  10  23  43  69 102 134 176 232 285 343 409
#     4  11  24  42  72  96 133 187 226 287 343 405
#     4  10  25  45  64 101 140 179 228 284 345 414
#     4  11  25  44  68 100 136 177 237 272 341 412
#     4  10  23  43  68  97 134 180 226 289 338 402
#     4  11  26  43  70 106 141 183 227 283 353 414
#     4  11  24  45  68  99 139 177 223 287 338 402
#
# _framework density 22.281509
#
# number of rings (size 3 to 8) (size 9 to 14) (size 15 to 20)
#    0.000    1.429    1.429    1.714   10.000    4.000 
#    2.571    0.000    0.000    0.000    0.000    0.000 
#    0.000    0.000    0.000    0.000    0.000    0.000 
#
# Total GULP energy -78220.035057 kJ/mol
# GULP energy per Si atom -5587.145361 kJ/mol
# Density = 2.223080 g / cm^3
# Si number density = 22.281509 Si / 1000 Ang^3
#
#
#
# Elastic Constant Matrix: (Units=GPa)
#
#
# Indices 1 2 3 4 5 6 
#
# 1 129.8938 20.5736 15.6104 0.0000 -13.7136 0.0000
# 2 20.5736 63.4586 -5.7219 0.0000 -8.6471 0.0000
# 3 15.6104 -5.7219 42.3556 0.0000 -4.6691 0.0000
# 4 0.0000 0.0000 0.0000 16.8045 0.0000 7.6877
# 5 -13.7136 -8.6471 -4.6691 0.0000 40.0570 0.0000
# 6 0.0000 0.0000 0.0000 7.6877 0.0000 -22.3831
#
#
#
# Elastic Compliance Matrix: (Units=1/GPa)
#
#
# Indices 1 2 3 4 5 6 
#
# 1 0.008774 -0.002881 -0.003404 0.000000 0.001985 0.000000
# 2 -0.002881 0.017472 0.003778 0.000000 0.003226 0.000000
# 3 -0.003404 0.003778 0.025666 0.000000 0.002642 0.000000
# 4 0.000000 0.000000 0.000000 0.051427 0.000000 0.017663
# 5 0.001985 0.003226 0.002642 0.000000 0.026648 0.000000
# 6 0.000000 0.000000 0.000000 0.017663 0.000000 -0.038610
#
#
# Mechanical properties :
#
#
# Convention : Reuss Voigt Hill
#
# Bulk Modulus (GPa) = 21.32300 32.95914 27.14107
# Shear Modulus (GPa) = 44.63332 20.57875 32.60603
#
# Velocity S-wave (km/s) = 4.48052 3.04234 3.82955
# Velocity P-wave (km/s) = 6.02970 5.21204 5.63572
#
# Compressibility (1/GPa) = 0.04689772
#
# Stress axis : x y z
#
# Youngs Moduli (GPa) = 113.97916 57.23283 38.96249
#
# Poissons Ratio (x) = 0.16488 0.13262
# Poissons Ratio (y) = 0.32836 -0.14719
# Poissons Ratio (z) = 0.38797 -0.21621
#
# Static dielectric constant tensor:
#      x y z
#    x 1.801090 0.000000 -0.065090 
#    y 0.000000 1.798900 0.000000 
#    z -0.065090 0.000000 2.089040 
# 
# From -- ./inp_files/8608.got.cif
#   From: 2010.05.17/outbox.cif.g08.bks.cpg/sg5_5_cif.got.tgz:8608.got - 2010.06.03 18:56:24.
