data_PCOD9127583
_publ_section_title
;
Structure prediction by ZEFSAII (Michael W. Deem and Ramdas Pophale) SiO2 
 PCOD9127583
Probable space group: C 2
;
_chemical_formula_sum "Si O2"
_cell_formula_units_Z 14
_cell_length_a 12.799713
_cell_length_b 4.809611
_cell_length_c 9.549959
_cell_angle_alpha 90.000000
_cell_angle_beta 73.344313
_cell_angle_gamma 90.000000
_cell_volume 563.245010
_symmetry_space_group_name_H-M "C 2"
_symmetry_group_IT_number 5
_symmetry_cell_setting 'monoclinic'
loop_
_space_group_symop_operation_xyz
x,y,z
-x,y,-z
1/2+x,1/2+y,z
1/2-x,1/2+y,-z
loop_
_atom_site_type_symbol
_atom_site_label
_atom_site_fract_x
_atom_site_fract_y
_atom_site_fract_z
Si Si1 0.955285 0.490380 0.223811
Si Si2 0.678829 0.898806 0.984157
Si Si3 0.500000 0.011739 0.500000
Si Si4 0.174066 0.858749 0.538781
O O1 0.865519 0.355685 0.156626
O O2 0.983212 0.349749 0.362774
O O3 0.900111 0.779194 0.298103
O O4 0.070159 0.512080 0.102438
O O5 0.725384 0.623002 0.037357
O O6 0.602662 0.219422 0.443368
O O7 0.279546 0.658505 0.510075
#
# Coordination Sequence:
#
# PCOD9127583 Si02
#       4
#     4   4   2   4
#     4   9  24  41  65  98 122 164 217 250 311 379
#     4  11  26  44  65  89 130 170 206 257 310 368
#     4   8  22  42  64  96 126 156 216 258 308 370
#     4  10  23  39  64  94 125 162 201 259 317 360
#
# _framework density 24.855965999999999
#
# number of rings (size 3 to 8) (size 9 to 14) (size 15 to 20)
#    1.714    0.571    0.000    0.000    8.000    8.000 
#    0.000    0.000    0.000    0.000    0.000    0.000 
#    0.000    0.000    0.000    0.000    0.000    0.000 
#
# Total GULP energy -39042.151242 kJ/mol
# GULP energy per Si atom -5577.450177 kJ/mol
# Density = 2.479939 g / cm^3
# Si number density = 24.855966 Si / 1000 Ang^3
#
#
#
# Elastic Constant Matrix: (Units=GPa)
#
#
# Indices 1 2 3 4 5 6 
#
# 1 137.9154 18.0813 52.7206 0.0000 21.0629 0.0000
# 2 18.0813 79.0016 12.3050 0.0000 -0.5949 0.0000
# 3 52.7206 12.3050 122.3180 0.0000 35.0823 0.0000
# 4 0.0000 0.0000 0.0000 10.8745 0.0000 -1.7908
# 5 21.0629 -0.5949 35.0823 0.0000 53.0872 0.0000
# 6 0.0000 0.0000 0.0000 -1.7908 0.0000 35.0389
#
#
#
# Elastic Compliance Matrix: (Units=1/GPa)
#
#
# Indices 1 2 3 4 5 6 
#
# 1 0.008923 -0.001539 -0.003295 0.000000 -0.001380 0.000000
# 2 -0.001539 0.013191 -0.001087 0.000000 0.001477 0.000000
# 3 -0.003295 -0.001087 0.011516 0.000000 -0.006315 0.000000
# 4 0.000000 0.000000 0.000000 0.092739 0.000000 0.004740
# 5 -0.001380 0.001477 -0.006315 0.000000 0.023574 0.000000
# 6 0.000000 0.000000 0.000000 0.004740 0.000000 0.028782
#
#
# Mechanical properties :
#
#
# Convention : Reuss Voigt Hill
#
# Bulk Modulus (GPa) = 45.89978 56.16098 51.03038
# Shear Modulus (GPa) = 25.27411 36.87533 31.07472
#
# Velocity S-wave (km/s) = 3.19223 3.85588 3.53964
# Velocity P-wave (km/s) = 5.66511 6.51670 6.10577
#
# Compressibility (1/GPa) = 0.02178660
#
# Stress axis : x y z
#
# Youngs Moduli (GPa) = 112.06894 75.81078 86.83277
#
# Poissons Ratio (x) = 0.11670 0.28614
# Poissons Ratio (y) = 0.17252 0.09440
# Poissons Ratio (z) = 0.36930 0.08241
#
# Static dielectric constant tensor:
#      x y z
#    x 2.015880 0.000000 -0.007940 
#    y 0.000000 1.977130 0.000000 
#    z -0.007940 0.000000 2.048770 
# 
# From -- ./inp_files/17707.got.cif
#   From: 2010.05.17/outbox.cif.g08.bks.cpg/sg5_9_cif.got.tgz:17707.got - 2010.06.03 18:56:24.
