data_PCOD9127463
_publ_section_title
;
Structure prediction by ZEFSAII (Michael W. Deem and Ramdas Pophale) SiO2 
 PCOD9127463
Probable space group: C 2
;
_chemical_formula_sum "Si O2"
_cell_formula_units_Z 16
_cell_length_a 13.239421
_cell_length_b 4.820261
_cell_length_c 14.124961
_cell_angle_alpha 90.000000
_cell_angle_beta 37.644352
_cell_angle_gamma 90.000000
_cell_volume 550.549243
_symmetry_space_group_name_H-M "C 2"
_symmetry_group_IT_number 5
_symmetry_cell_setting 'monoclinic'
loop_
_space_group_symop_operation_xyz
x,y,z
-x,y,-z
1/2+x,1/2+y,z
1/2-x,1/2+y,-z
loop_
_atom_site_type_symbol
_atom_site_label
_atom_site_fract_x
_atom_site_fract_y
_atom_site_fract_z
Si Si1 0.851361 0.094540 0.036803
Si Si2 0.415314 0.184361 0.465058
Si Si3 0.891834 0.820830 0.272139
Si Si4 0.698308 0.610267 0.236947
O O1 0.801171 0.409200 0.090469
O O2 0.700342 0.910958 0.188085
O O3 0.000000 0.046522 0.000000
O O4 0.931621 0.955596 0.885947
O O5 0.500000 0.062516 0.500000
O O6 0.403892 0.148152 0.359091
O O7 0.518394 0.477710 0.385359
O O8 0.230214 0.081949 0.625720
O O9 0.806088 0.637955 0.252902
#
# Coordination Sequence:
#
# PCOD9127463 Si02
#       4
#     4   4   4   4
#     4  10  22  46  77 109 150 200 258 321 385 460
#     4  12  27  47  75 115 160 208 260 318 392 474
#     4  11  27  49  80 117 162 210 260 330 401 466
#     4  11  25  48  76 111 153 200 260 321 385 466
#
# _framework density 29.061885
#
# number of rings (size 3 to 8) (size 9 to 14) (size 15 to 20)
#    0.000    1.000    0.000    6.750    0.000   11.000 
#    0.000    0.000    0.000    0.000    0.000    0.000 
#    0.000    0.000    0.000    0.000    0.000    0.000 
#
# Total GULP energy -44697.774881 kJ/mol
# GULP energy per Si atom -5587.221860 kJ/mol
# Density = 2.899574 g / cm^3
# Si number density = 29.061885 Si / 1000 Ang^3
#
#
#
# Elastic Constant Matrix: (Units=GPa)
#
#
# Indices 1 2 3 4 5 6 
#
# 1 206.1209 73.2254 89.6062 -0.0023 -3.0546 0.0014
# 2 73.2254 116.1212 34.3382 -0.0101 -3.2778 0.0079
# 3 89.6062 34.3382 152.0838 0.0003 19.1034 0.0002
# 4 -0.0023 -0.0101 0.0003 60.8527 0.0019 -17.1981
# 5 -3.0546 -3.2778 19.1034 0.0019 42.8527 -0.0004
# 6 0.0014 0.0079 0.0002 -17.1981 -0.0004 50.3597
#
#
#
# Elastic Compliance Matrix: (Units=1/GPa)
#
#
# Indices 1 2 3 4 5 6 
#
# 1 0.008026 -0.003776 -0.004144 0.000000 0.002131 0.000000
# 2 -0.003776 0.011127 -0.000382 0.000001 0.000752 -0.000001
# 3 -0.004144 -0.000382 0.009686 0.000000 -0.004643 0.000000
# 4 0.000000 0.000001 0.000000 0.018189 -0.000001 0.006212
# 5 0.002131 0.000752 -0.004643 -0.000001 0.025615 0.000000
# 6 0.000000 -0.000001 0.000000 0.006212 0.000000 0.021978
#
#
# Mechanical properties :
#
#
# Convention : Reuss Voigt Hill
#
# Bulk Modulus (GPa) = 81.72884 96.51840 89.12362
# Shear Modulus (GPa) = 43.36406 49.29008 46.32707
#
# Velocity S-wave (km/s) = 3.86700 4.12277 3.99693
# Velocity P-wave (km/s) = 6.93698 7.47973 7.21346
#
# Compressibility (1/GPa) = 0.01223558
#
# Stress axis : x y z
#
# Youngs Moduli (GPa) = 124.59765 89.87321 103.23788
#
# Poissons Ratio (x) = 0.33932 0.42781
# Poissons Ratio (y) = 0.47042 0.03947
# Poissons Ratio (z) = 0.51632 0.03436
#
# Static dielectric constant tensor:
#      x y z
#    x 2.190170 0.000000 0.080060 
#    y 0.000000 2.259880 0.000000 
#    z 0.080060 0.000000 2.429220 
# 
# From -- ./inp_files/53729.got.cif
#   From: 2010.05.17/outbox.cif.g08.bks.cpg/sg5_27_cif.got.tgz:53729.got - 2010.06.03 18:56:24.
