data_PCOD9127168
_publ_section_title
;
Structure prediction by ZEFSAII (Michael W. Deem and Ramdas Pophale) SiO2 
 PCOD9127168
Probable space group: C 2
;
_chemical_formula_sum "Si O2"
_cell_formula_units_Z 30
_cell_length_a 13.893264
_cell_length_b 5.201627
_cell_length_c 18.844527
_cell_angle_alpha 90.000000
_cell_angle_beta 74.421542
_cell_angle_gamma 90.000000
_cell_volume 1311.818914
_symmetry_space_group_name_H-M "C 2"
_symmetry_group_IT_number 5
_symmetry_cell_setting 'monoclinic'
loop_
_space_group_symop_operation_xyz
x,y,z
-x,y,-z
1/2+x,1/2+y,z
1/2-x,1/2+y,-z
loop_
_atom_site_type_symbol
_atom_site_label
_atom_site_fract_x
_atom_site_fract_y
_atom_site_fract_z
Si Si1 0.078344 0.882950 0.695686
Si Si2 0.235998 0.370168 0.958257
Si Si3 0.121939 0.197433 0.555587
Si Si4 0.500000 0.062711 0.500000
Si Si5 0.186159 0.385588 0.725799
Si Si6 0.449241 0.442381 0.854778
Si Si7 0.821675 0.913303 0.586171
Si Si8 0.435102 0.944919 0.113451
O O1 0.116997 0.593752 0.697714
O O2 0.982762 0.919174 0.765576
O O3 0.079551 0.967947 0.613038
O O4 0.155267 0.091080 0.715695
O O5 0.330872 0.423433 0.888445
O O6 0.252818 0.578302 0.017220
O O7 0.125587 0.415011 0.947526
O O8 0.220316 0.296047 0.574183
O O9 0.034930 0.396598 0.560135
O O10 0.156956 0.155523 0.467323
O O11 0.410850 0.232723 0.546778
O O12 0.296179 0.441177 0.673500
O O13 0.156273 0.439952 0.811712
O O14 0.494142 0.705657 0.878928
O O15 0.503942 0.206964 0.885438
#
# Coordination Sequence:
#
# PCOD9127168 Si02
#       8
#     4   4   4   2   4   4   4   4
#     4   9  20  39  68  93 123 173 218 265 331 381
#     4  12  26  42  67 104 135 172 219 258 322 395
#     4  11  22  41  64  87 130 167 217 279 325 379
#     4  12  26  40  58  96 120 176 222 268 338 400
#     4   9  20  39  68  93 123 173 218 265 331 381
#     4  10  22  44  67  96 134 172 216 267 321 385
#     4  11  22  41  64  87 130 167 217 279 325 379
#     4  10  22  44  67  96 134 172 216 267 321 385
#
# _framework density 22.869009999999999
#
# number of rings (size 3 to 8) (size 9 to 14) (size 15 to 20)
#    0.000    1.600    1.333    2.800    3.733    3.200 
#    4.800    1.333    0.000    0.000    0.000    0.000 
#    0.000    0.000    0.000    0.000    0.000    0.000 
#
# Total GULP energy -83753.415669 kJ/mol
# GULP energy per Si atom -5583.561045 kJ/mol
# Density = 2.281696 g / cm^3
# Si number density = 22.869010 Si / 1000 Ang^3
#
#
#
# Elastic Constant Matrix: (Units=GPa)
#
#
# Indices 1 2 3 4 5 6 
#
# 1 98.5975 15.6893 6.5651 -0.0002 -2.9746 -0.0001
# 2 15.6893 71.7617 -5.5234 -0.0003 4.8160 -0.0003
# 3 6.5651 -5.5234 71.4552 0.0000 -29.2336 0.0000
# 4 -0.0002 -0.0003 0.0000 22.0978 0.0000 2.9062
# 5 -2.9746 4.8160 -29.2336 0.0000 29.4626 0.0000
# 6 -0.0001 -0.0003 0.0000 2.9062 0.0000 13.5282
#
#
#
# Elastic Compliance Matrix: (Units=1/GPa)
#
#
# Indices 1 2 3 4 5 6 
#
# 1 0.010607 -0.002427 -0.000946 0.000000 0.000529 0.000000
# 2 -0.002427 0.014648 0.000464 0.000000 -0.002179 0.000000
# 3 -0.000946 0.000464 0.023646 0.000000 0.023291 0.000000
# 4 0.000000 0.000000 0.000000 0.046569 0.000000 -0.010004
# 5 0.000529 -0.002179 0.023291 0.000000 0.057461 0.000000
# 6 0.000000 0.000000 0.000000 -0.010004 0.000000 0.076069
#
#
# Mechanical properties :
#
#
# Convention : Reuss Voigt Hill
#
# Bulk Modulus (GPa) = 23.21114 30.58630 26.89872
# Shear Modulus (GPa) = 20.06579 28.02328 24.04454
#
# Velocity S-wave (km/s) = 2.96535 3.50434 3.24605
# Velocity P-wave (km/s) = 4.67932 5.45688 5.08299
#
# Compressibility (1/GPa) = 0.04308275
#
# Stress axis : x y z
#
# Youngs Moduli (GPa) = 94.27341 68.27030 42.28977
#
# Poissons Ratio (x) = 0.16572 0.03999
# Poissons Ratio (y) = 0.22884 -0.01961
# Poissons Ratio (z) = 0.08914 -0.03165
#
# Static dielectric constant tensor:
#      x y z
#    x 1.868440 0.000000 0.052490 
#    y 0.000000 1.846820 0.000000 
#    z 0.052490 0.000000 2.001210 
# 
# From -- ./inp_files/61098.got.cif
#   From: 2010.05.17/outbox.cif.g08.bks.cpg/sg5_31_cif.got.tgz:61098.got - 2010.06.03 18:56:24.
