data_PCOD9127022
_publ_section_title
;
Structure prediction by ZEFSAII (Michael W. Deem and Ramdas Pophale) SiO2 
 PCOD9127022
Probable space group: C 2
;
_chemical_formula_sum "Si O2"
_cell_formula_units_Z 32
_cell_length_a 17.138690
_cell_length_b 15.658470
_cell_length_c 11.964638
_cell_angle_alpha 90.000000
_cell_angle_beta 28.547264
_cell_angle_gamma 90.000000
_cell_volume 1534.435324
_symmetry_space_group_name_H-M "C 2"
_symmetry_group_IT_number 5
_symmetry_cell_setting 'monoclinic'
loop_
_space_group_symop_operation_xyz
x,y,z
-x,y,-z
1/2+x,1/2+y,z
1/2-x,1/2+y,-z
loop_
_atom_site_type_symbol
_atom_site_label
_atom_site_fract_x
_atom_site_fract_y
_atom_site_fract_z
Si Si1 0.866892 0.607230 0.072987
Si Si2 0.511769 0.997073 0.274097
Si Si3 0.771414 0.651263 0.623807
Si Si4 0.556657 0.687716 0.549756
Si Si5 0.770953 0.356825 0.595727
Si Si6 0.500237 0.278100 0.786250
Si Si7 0.944286 0.109924 0.899040
Si Si8 0.208586 0.926526 0.923144
O O1 0.693476 0.617205 0.350128
O O2 0.880663 0.536814 0.960175
O O3 0.000000 0.589768 0.000000
O O4 0.913842 0.699230 0.959080
O O5 0.400584 0.074068 0.460105
O O6 0.385742 0.925287 0.390892
O O7 0.627506 0.957624 0.222606
O O8 0.873088 0.734508 0.458907
O O9 0.626368 0.629451 0.717405
O O10 0.681715 0.652376 0.855646
O O11 0.500000 0.717470 0.500000
O O12 0.636301 0.767640 0.510010
O O13 0.426619 0.647809 0.797346
O O14 0.605991 0.333813 0.740199
O O15 0.741646 0.393249 0.756500
O O16 0.367952 0.346818 0.912496
O O17 0.907666 0.009279 0.940754
#
# Coordination Sequence:
#
# PCOD9127022 Si02
#       8
#     4   4   4   4   4   4   4   4
#     4  11  21  43  67  95 132 179 217 273 343 403
#     4  11  24  40  64 102 137 167 223 285 343 388
#     4  10  22  43  66  97 138 176 219 278 337 412
#     4  12  23  40  65  98 133 172 228 278 331 400
#     4  12  22  40  65  98 130 168 232 279 321 401
#     4  11  22  41  68 101 130 171 228 282 337 398
#     4  11  23  41  68  99 134 180 229 272 337 403
#     4  12  23  39  67 104 132 171 228 284 333 397
#
# _framework density 20.854576999999999
#
# number of rings (size 3 to 8) (size 9 to 14) (size 15 to 20)
#    0.000    0.750    5.000    3.750    1.750    0.000 
#    0.000    2.500    0.000    1.500    0.000    0.000 
#    0.000    0.000    0.000    0.000    0.000    0.000 
#
# Total GULP energy -89494.459775 kJ/mol
# GULP energy per Si atom -5593.403736 kJ/mol
# Density = 2.080711 g / cm^3
# Si number density = 20.854577 Si / 1000 Ang^3
#
#
#
# Elastic Constant Matrix: (Units=GPa)
#
#
# Indices 1 2 3 4 5 6 
#
# 1 53.9063 21.3364 26.8146 -0.0001 -1.1917 0.0002
# 2 21.3364 92.7992 49.5792 -0.0003 11.1764 0.0004
# 3 26.8146 49.5792 92.5327 -0.0003 16.2646 0.0004
# 4 -0.0001 -0.0003 -0.0003 14.7834 0.0002 9.9807
# 5 -1.1917 11.1764 16.2646 0.0002 30.0717 -0.0003
# 6 0.0002 0.0004 0.0004 9.9807 -0.0003 19.4381
#
#
#
# Elastic Compliance Matrix: (Units=1/GPa)
#
#
# Indices 1 2 3 4 5 6 
#
# 1 0.022726 -0.002583 -0.006110 0.000000 0.005165 0.000000
# 2 -0.002583 0.015442 -0.007181 0.000000 -0.001957 0.000000
# 3 -0.006110 -0.007181 0.017679 0.000001 -0.007135 -0.000001
# 4 0.000000 0.000000 0.000001 0.103534 -0.000002 -0.053161
# 5 0.005165 -0.001957 -0.007135 -0.000002 0.038045 0.000002
# 6 0.000000 0.000000 -0.000001 -0.053161 0.000002 0.078742
#
#
# Mechanical properties :
#
#
# Convention : Reuss Voigt Hill
#
# Bulk Modulus (GPa) = 41.49403 48.29985 44.89694
# Shear Modulus (GPa) = 15.82523 22.29248 19.05886
#
# Velocity S-wave (km/s) = 2.75769 3.27303 3.02635
# Velocity P-wave (km/s) = 5.48451 6.12325 5.81266
#
# Compressibility (1/GPa) = 0.02409985
#
# Stress axis : x y z
#
# Youngs Moduli (GPa) = 44.00162 64.75672 56.56283
#
# Poissons Ratio (x) = 0.16728 0.34558
# Poissons Ratio (y) = 0.11367 0.40620
# Poissons Ratio (z) = 0.26883 0.46505
#
# Static dielectric constant tensor:
#      x y z
#    x 1.801250 0.000000 -0.035680 
#    y 0.000000 1.732300 0.000000 
#    z -0.035680 0.000000 1.784330 
# 
# From -- ./inp_files/44960.got.cif
#   From: 2010.05.17/outbox.cif.g08.bks.cpg/sg5_23_cif.got.tgz:44960.got - 2010.06.03 18:56:24.
