data_PCOD9127128
_publ_section_title
;
Structure prediction by ZEFSAII (Michael W. Deem and Ramdas Pophale) SiO2 
 PCOD9127128
Probable space group: C 2
;
_chemical_formula_sum "Si O2"
_cell_formula_units_Z 26
_cell_length_a 11.065189
_cell_length_b 17.302214
_cell_length_c 14.589018
_cell_angle_alpha 90.000000
_cell_angle_beta 150.041609
_cell_angle_gamma 90.000000
_cell_volume 1394.793288
_symmetry_space_group_name_H-M "C 2"
_symmetry_group_IT_number 5
_symmetry_cell_setting 'monoclinic'
loop_
_space_group_symop_operation_xyz
x,y,z
-x,y,-z
1/2+x,1/2+y,z
1/2-x,1/2+y,-z
loop_
_atom_site_type_symbol
_atom_site_label
_atom_site_fract_x
_atom_site_fract_y
_atom_site_fract_z
Si Si1 0.231463 0.353410 0.360595
Si Si2 0.645828 0.943066 0.006766
Si Si3 0.686159 0.458804 0.432965
Si Si4 0.697090 0.615723 0.551175
Si Si5 0.500000 0.051926 0.500000
Si Si6 0.910242 0.626697 0.043614
Si Si7 0.634829 0.676026 0.305798
O O1 0.500000 0.376863 0.500000
O O2 0.237812 0.379644 0.469884
O O3 0.204464 0.262608 0.327108
O O4 0.996199 0.396912 0.165019
O O5 0.595200 0.033805 0.963882
O O6 0.500000 0.914837 0.000000
O O7 0.934810 0.942203 0.214165
O O8 0.655011 0.526144 0.490666
O O9 0.896534 0.496094 0.509916
O O10 0.500000 0.631895 0.500000
O O11 0.689797 0.659690 0.449549
O O12 0.933605 0.639617 0.762868
O O13 0.279058 0.112236 0.340742
O O14 0.648216 0.661264 0.887795
O O15 0.000000 0.651538 0.000000
#
# Coordination Sequence:
#
# PCOD9127128 Si02
#       7
#     4   4   4   4   2   4   4
#     4  12  24  41  66  96 132 171 217 276 330 380
#     4  11  20  36  66  98 120 153 220 276 312 376
#     4  11  22  40  65  95 125 170 219 263 321 395
#     4  11  19  38  68  93 120 167 216 264 319 380
#     4  10  22  44  64  86 134 182 204 258 332 400
#     4  11  20  37  68  99 122 159 223 274 312 386
#     4  11  24  42  62  96 138 167 215 271 331 387
#
# _framework density 18.640756
#
# number of rings (size 3 to 8) (size 9 to 14) (size 15 to 20)
#    0.000    0.923    8.462    1.385    0.000    1.231 
#    1.385    8.462    0.000    0.000    0.000    0.000 
#    0.000    0.000    0.000    0.000    0.000    0.000 
#
# Total GULP energy -72368.218908 kJ/mol
# GULP energy per Si atom -5566.786070 kJ/mol
# Density = 1.859833 g / cm^3
# Si number density = 18.640756 Si / 1000 Ang^3
#
#
#
# Elastic Constant Matrix: (Units=GPa)
#
#
# Indices 1 2 3 4 5 6 
#
# 1 81.0147 24.7745 49.3301 -0.0044 21.0538 -0.0071
# 2 24.7745 58.3128 17.5712 -0.0089 10.0954 -0.0132
# 3 49.3301 17.5712 160.4580 -0.0160 6.2270 -0.0286
# 4 -0.0044 -0.0089 -0.0160 11.6334 -0.0009 -2.1675
# 5 21.0538 10.0954 6.2270 -0.0009 26.8464 -0.0033
# 6 -0.0071 -0.0132 -0.0286 -2.1675 -0.0033 -5.6691
#
#
#
# Elastic Compliance Matrix: (Units=1/GPa)
#
#
# Indices 1 2 3 4 5 6 
#
# 1 0.020372 -0.004838 -0.005231 0.000000 -0.012944 0.000020
# 2 -0.004838 0.019996 -0.000563 0.000005 -0.003595 -0.000038
# 3 -0.005231 -0.000563 0.007805 0.000002 0.002504 -0.000034
# 4 0.000000 0.000005 0.000002 0.080243 -0.000003 -0.030680
# 5 -0.012944 -0.003595 0.002504 -0.000003 0.048171 -0.000015
# 6 0.000020 -0.000038 -0.000034 -0.030680 -0.000015 -0.164665
#
#
# Mechanical properties :
#
#
# Convention : Reuss Voigt Hill
#
# Bulk Modulus (GPa) = 37.16178 53.68191 45.42184
# Shear Modulus (GPa) = 118.61190 20.43613 69.52401
#
# Velocity S-wave (km/s) = 7.98552 3.31466 6.11373
# Velocity P-wave (km/s) = 10.24714 6.59620 8.61724
#
# Compressibility (1/GPa) = 0.02690937
#
# Stress axis : x y z
#
# Youngs Moduli (GPa) = 49.08775 50.00930 128.12692
#
# Poissons Ratio (x) = 0.24194 0.67021
# Poissons Ratio (y) = 0.23749 0.07212
# Poissons Ratio (z) = 0.25677 0.02815
#
# Static dielectric constant tensor:
#      x y z
#    x 1.723840 0.000030 -0.043320 
#    y 0.000030 1.640930 -0.000040 
#    z -0.043320 -0.000040 1.807190 
# 
# From -- ./inp_files/53354.got.cif
#   From: 2010.05.17/outbox.cif.g08.bks.cpg/sg5_27_cif.got.tgz:53354.got - 2010.06.03 18:56:24.
