data_PCOD9127908
_publ_section_title
;
Structure prediction by ZEFSAII (Michael W. Deem and Ramdas Pophale) SiO2 
 PCOD9127908
Probable space group: C 2
;
_chemical_formula_sum "Si O2"
_cell_formula_units_Z 24
_cell_length_a 8.069197
_cell_length_b 17.622828
_cell_length_c 10.258211
_cell_angle_alpha 90.000000
_cell_angle_beta 139.467383
_cell_angle_gamma 90.000000
_cell_volume 948.006402
_symmetry_space_group_name_H-M "C 2"
_symmetry_group_IT_number 5
_symmetry_cell_setting 'monoclinic'
loop_
_space_group_symop_operation_xyz
x,y,z
-x,y,-z
1/2+x,1/2+y,z
1/2-x,1/2+y,-z
loop_
_atom_site_type_symbol
_atom_site_label
_atom_site_fract_x
_atom_site_fract_y
_atom_site_fract_z
Si Si1 0.951285 0.842630 0.622071
Si Si2 0.759879 0.245321 0.127456
Si Si3 0.453752 0.914998 0.267091
Si Si4 0.435802 0.079281 0.313154
Si Si5 0.000000 0.397794 0.000000
Si Si6 0.000000 0.197291 0.000000
Si Si7 0.246069 0.693492 0.372216
O O1 0.000000 0.848566 0.500000
O O2 0.713610 0.898726 0.504529
O O3 0.856711 0.759082 0.595209
O O4 0.222589 0.858570 0.847668
O O5 0.797663 0.336124 0.183141
O O6 0.949937 0.236201 0.111719
O O7 0.936733 0.200625 0.355026
O O8 0.479381 0.223371 0.883893
O O9 0.520652 0.933855 0.155533
O O10 0.337466 0.993822 0.242343
O O11 0.500000 0.091580 0.500000
O O12 0.232409 0.140854 0.153335
O O13 0.672112 0.107531 0.365061
#
# Coordination Sequence:
#
# PCOD9127908 Si02
#       7
#     4   4   4   4   2   2   4
#     4  10  23  43  76 111 152 205 266 324 385 467
#     4  12  25  47  82 113 152 211 272 318 385 481
#     4  11  26  45  76 115 156 203 264 329 397 468
#     4  12  30  49  75 113 163 205 256 335 408 460
#     4  10  23  44  76 112 151 202 264 323 392 458
#     4  12  29  54  78 118 159 208 266 327 398 472
#     4  12  24  44  76 105 150 204 262 322 388 471
#
# _framework density 25.316285000000001
#
# number of rings (size 3 to 8) (size 9 to 14) (size 15 to 20)
#    0.000    0.667    3.333    3.000    8.167    4.667 
#    0.000    0.000    3.667    0.000    0.000    0.000 
#    0.000    0.000    0.000    0.000    0.000    0.000 
#
# Total GULP energy -66857.955617 kJ/mol
# GULP energy per Si atom -5571.496301 kJ/mol
# Density = 2.525866 g / cm^3
# Si number density = 25.316285 Si / 1000 Ang^3
#
#
#
# Elastic Constant Matrix: (Units=GPa)
#
#
# Indices 1 2 3 4 5 6 
#
# 1 106.9540 39.5266 53.2004 0.0000 8.0404 0.0000
# 2 39.5266 130.5365 40.3948 0.0000 -12.2526 0.0000
# 3 53.2004 40.3948 148.3718 0.0000 4.6939 0.0000
# 4 0.0000 0.0000 0.0000 28.7625 0.0000 5.1357
# 5 8.0404 -12.2526 4.6939 0.0000 59.8012 0.0000
# 6 0.0000 0.0000 0.0000 5.1357 0.0000 85.0767
#
#
#
# Elastic Compliance Matrix: (Units=1/GPa)
#
#
# Indices 1 2 3 4 5 6 
#
# 1 0.012319 -0.002801 -0.003593 0.000000 -0.001948 0.000000
# 2 -0.002801 0.009223 -0.001582 0.000000 0.002390 0.000000
# 3 -0.003593 -0.001582 0.008475 0.000000 -0.000506 0.000000
# 4 0.000000 0.000000 0.000000 0.035146 0.000000 -0.002122
# 5 -0.001948 0.002390 -0.000506 0.000000 0.017514 0.000000
# 6 0.000000 0.000000 0.000000 -0.002122 0.000000 0.011882
#
#
# Mechanical properties :
#
#
# Convention : Reuss Voigt Hill
#
# Bulk Modulus (GPa) = 71.10295 72.45620 71.77958
# Shear Modulus (GPa) = 43.40339 51.57746 47.49042
#
# Velocity S-wave (km/s) = 4.14508 4.51857 4.33585
# Velocity P-wave (km/s) = 7.14533 7.47702 7.31305
#
# Compressibility (1/GPa) = 0.01406411
#
# Stress axis : x y z
#
# Youngs Moduli (GPa) = 81.17844 108.42590 117.99688
#
# Poissons Ratio (x) = 0.30372 0.42393
# Poissons Ratio (y) = 0.22739 0.18669
# Poissons Ratio (z) = 0.29165 0.17155
#
# Static dielectric constant tensor:
#      x y z
#    x 2.028060 0.000000 -0.043520 
#    y 0.000000 1.916120 0.000000 
#    z -0.043520 0.000000 2.224670 
# 
# From -- ./inp_files/40514.got.cif
#   From: 2010.05.17/outbox.cif.g08.bks.cpg/sg5_21_cif.got.tgz:40514.got - 2010.06.03 18:56:24.
