data_PCOD9127206
_publ_section_title
;
Structure prediction by ZEFSAII (Michael W. Deem and Ramdas Pophale) SiO2 
 PCOD9127206
Probable space group: C 2
;
_chemical_formula_sum "Si O2"
_cell_formula_units_Z 18
_cell_length_a 5.706373
_cell_length_b 22.215898
_cell_length_c 7.474305
_cell_angle_alpha 90.000000
_cell_angle_beta 117.171158
_cell_angle_gamma 90.000000
_cell_volume 842.970254
_symmetry_space_group_name_H-M "C 2"
_symmetry_group_IT_number 5
_symmetry_cell_setting 'monoclinic'
loop_
_space_group_symop_operation_xyz
x,y,z
-x,y,-z
1/2+x,1/2+y,z
1/2-x,1/2+y,-z
loop_
_atom_site_type_symbol
_atom_site_label
_atom_site_fract_x
_atom_site_fract_y
_atom_site_fract_z
Si Si1 0.699806 0.834400 0.730493
Si Si2 0.500000 0.035746 0.500000
Si Si3 0.816055 0.608531 0.099749
Si Si4 0.000000 0.410520 0.000000
Si Si5 0.518233 0.454082 0.220522
Si Si6 0.500000 0.225584 0.000000
O O1 0.500000 0.827306 0.500000
O O2 0.592499 0.867634 0.871072
O O3 0.909498 0.883683 0.735277
O O4 0.814167 0.770556 0.826646
O O5 0.458648 0.080007 0.319126
O O6 0.238945 0.993492 0.393959
O O7 0.500000 0.596288 0.000000
O O8 0.000000 0.585517 0.000000
O O9 0.849545 0.680476 0.082445
O O10 0.785359 0.454192 0.832807
O O11 0.500000 0.467127 0.000000
#
# Coordination Sequence:
#
# PCOD9127206 Si02
#       6
#     4   2   4   2   4   2
#     4  11  22  43  68 108 142 184 236 295 371 438
#     4  12  24  52  74 104 154 194 258 292 384 446
#     4  10  27  52  74 109 146 204 251 310 363 433
#     4  10  22  44  69 108 153 182 232 300 388 424
#     4  10  22  45  67 109 145 187 233 305 366 443
#     4  10  24  48  73 104 155 182 252 308 362 442
#
# _framework density 21.353068
#
# number of rings (size 3 to 8) (size 9 to 14) (size 15 to 20)
#    0.667    0.889    4.444    0.667    1.556    3.556 
#   26.000    0.000    0.000    0.000    0.000    0.000 
#    0.000    0.000    0.000    0.000    0.000    0.000 
#
# Total GULP energy -50156.105048 kJ/mol
# GULP energy per Si atom -5572.900561 kJ/mol
# Density = 2.130447 g / cm^3
# Si number density = 21.353068 Si / 1000 Ang^3
#
#
#
# Elastic Constant Matrix: (Units=GPa)
#
#
# Indices 1 2 3 4 5 6 
#
# 1 89.7786 41.1564 71.3891 0.0000 15.4244 0.0000
# 2 41.1564 171.8277 89.6866 0.0000 18.7617 0.0000
# 3 71.3891 89.6866 230.7007 0.0000 19.4732 0.0000
# 4 0.0000 0.0000 0.0000 34.8073 0.0000 20.4066
# 5 15.4244 18.7617 19.4732 0.0000 34.8182 0.0000
# 6 0.0000 0.0000 0.0000 20.4066 0.0000 113.1684
#
#
#
# Elastic Compliance Matrix: (Units=1/GPa)
#
#
# Indices 1 2 3 4 5 6 
#
# 1 0.015567 -0.001196 -0.004014 0.000000 -0.004007 0.000000
# 2 -0.001196 0.007600 -0.002397 0.000000 -0.002225 0.000000
# 3 -0.004014 -0.002397 0.006559 0.000000 -0.000599 0.000000
# 4 0.000000 0.000000 0.000000 0.032126 0.000000 -0.005793
# 5 -0.004007 -0.002225 -0.000599 0.000000 0.032029 0.000000
# 6 0.000000 0.000000 0.000000 -0.005793 0.000000 0.009881
#
#
# Mechanical properties :
#
#
# Convention : Reuss Voigt Hill
#
# Bulk Modulus (GPa) = 68.90488 99.64123 84.27306
# Shear Modulus (GPa) = 40.38342 55.89712 48.14027
#
# Velocity S-wave (km/s) = 4.35354 5.12195 4.75330
# Velocity P-wave (km/s) = 7.59015 9.04125 8.34729
#
# Compressibility (1/GPa) = 0.01451276
#
# Stress axis : x y z
#
# Youngs Moduli (GPa) = 64.23885 131.57562 152.46262
#
# Poissons Ratio (x) = 0.15737 0.61197
# Poissons Ratio (y) = 0.07683 0.36541
# Poissons Ratio (z) = 0.25785 0.31535
#
# Static dielectric constant tensor:
#      x y z
#    x 1.911570 0.000000 0.044680 
#    y 0.000000 1.783950 0.000000 
#    z 0.044680 0.000000 1.776550 
# 
# From -- ./inp_files/12740.got.cif
#   From: 2010.05.17/outbox.cif.g08.bks.cpg/sg5_7_cif.got.tgz:12740.got - 2010.06.03 18:56:24.
