data_PCOD9127646
_publ_section_title
;
Structure prediction by ZEFSAII (Michael W. Deem and Ramdas Pophale) SiO2 
 PCOD9127646
Probable space group: C 2
;
_chemical_formula_sum "Si O2"
_cell_formula_units_Z 20
_cell_length_a 5.056488
_cell_length_b 18.927839
_cell_length_c 9.536004
_cell_angle_alpha 90.000000
_cell_angle_beta 70.014821
_cell_angle_gamma 90.000000
_cell_volume 857.715242
_symmetry_space_group_name_H-M "C 2"
_symmetry_group_IT_number 5
_symmetry_cell_setting 'monoclinic'
loop_
_space_group_symop_operation_xyz
x,y,z
-x,y,-z
1/2+x,1/2+y,z
1/2-x,1/2+y,-z
loop_
_atom_site_type_symbol
_atom_site_label
_atom_site_fract_x
_atom_site_fract_y
_atom_site_fract_z
Si Si1 0.723234 0.205130 0.309222
Si Si2 0.440684 0.852600 0.352115
Si Si3 0.327589 0.985128 0.179171
Si Si4 0.203428 0.548234 0.339176
Si Si5 0.702125 0.246731 0.835714
O O1 0.765941 0.278547 0.385769
O O2 0.753139 0.129542 0.374258
O O3 0.443756 0.208924 0.268871
O O4 0.009222 0.211023 0.168254
O O5 0.500000 0.872835 0.500000
O O6 0.325235 0.912965 0.272148
O O7 0.727834 0.825609 0.228255
O O8 0.516401 0.040295 0.233545
O O9 0.500000 0.975482 0.000000
O O10 0.003311 0.012294 0.246276
O O11 0.000000 0.519370 0.500000
O O12 0.500000 0.248236 0.000000
#
# Coordination Sequence:
#
# PCOD9127646 Si02
#       5
#     4   4   4   4   4
#     4  10  25  43  78 106 149 190 254 312 386 448
#     4  10  27  47  77 108 148 195 253 317 379 451
#     4  12  29  50  76 112 157 206 259 313 388 461
#     4  12  28  51  78 110 155 206 259 319 382 461
#     4  10  23  40  71 110 146 190 241 313 376 450
#
# _framework density 23.317761999999998
#
# number of rings (size 3 to 8) (size 9 to 14) (size 15 to 20)
#    1.200    0.000    0.000    3.600    8.400    4.800 
#    0.000    0.000    0.000    0.000    0.000    0.000 
#    0.000    0.000    0.000    0.000    0.000    0.000 
#
# Total GULP energy -55724.525068 kJ/mol
# GULP energy per Si atom -5572.452507 kJ/mol
# Density = 2.326469 g / cm^3
# Si number density = 23.317762 Si / 1000 Ang^3
#
#
#
# Elastic Constant Matrix: (Units=GPa)
#
#
# Indices 1 2 3 4 5 6 
#
# 1 113.1271 23.5725 21.8742 0.0000 -15.1572 0.0000
# 2 23.5725 160.8581 31.3381 0.0000 2.2599 0.0000
# 3 21.8742 31.3381 131.4176 0.0000 -17.3462 0.0000
# 4 0.0000 0.0000 0.0000 -8.4026 0.0000 -1.9184
# 5 -15.1572 2.2599 -17.3462 0.0000 45.9816 0.0000
# 6 0.0000 0.0000 0.0000 -1.9184 0.0000 41.7355
#
#
#
# Elastic Compliance Matrix: (Units=1/GPa)
#
#
# Indices 1 2 3 4 5 6 
#
# 1 0.009673 -0.001279 -0.000922 0.000000 0.002904 0.000000
# 2 -0.001279 0.006729 -0.001569 0.000000 -0.001344 0.000000
# 3 -0.000922 -0.001569 0.008532 0.000000 0.002992 0.000000
# 4 0.000000 0.000000 0.000000 -0.117774 0.000000 -0.005414
# 5 0.002904 -0.001344 0.002992 0.000000 0.023900 0.000000
# 6 0.000000 0.000000 0.000000 -0.005414 0.000000 0.023712
#
#
# Mechanical properties :
#
#
# Convention : Reuss Voigt Hill
#
# Bulk Modulus (GPa) = 57.48992 62.10804 59.79898
# Shear Modulus (GPa) = -156.78130 37.77076 -59.50527
#
# Velocity S-wave (km/s) = -8.20870 4.02907 -5.05714
# Velocity P-wave (km/s) = 8.07064 6.95255 2.89805
#
# Compressibility (1/GPa) = 0.01739435
#
# Stress axis : x y z
#
# Youngs Moduli (GPa) = 103.37641 148.61882 117.20790
#
# Poissons Ratio (x) = 0.19005 0.10806
# Poissons Ratio (y) = 0.13219 0.18391
# Poissons Ratio (z) = 0.09530 0.23320
#
# Static dielectric constant tensor:
#      x y z
#    x 1.915030 0.000000 -0.067350 
#    y 0.000000 1.916620 0.000000 
#    z -0.067350 0.000000 1.907910 
# 
# From -- ./inp_files/12241.got.cif
#   From: 2010.05.17/outbox.cif.g08.bks.cpg/sg5_7_cif.got.tgz:12241.got - 2010.06.03 18:56:24.
