data_PCOD9127885
_publ_section_title
;
Structure prediction by ZEFSAII (Michael W. Deem and Ramdas Pophale) SiO2 
 PCOD9127885
Probable space group: C 2
;
_chemical_formula_sum "Si O2"
_cell_formula_units_Z 20
_cell_length_a 16.789334
_cell_length_b 10.819757
_cell_length_c 11.307929
_cell_angle_alpha 90.000000
_cell_angle_beta 159.020936
_cell_angle_gamma 90.000000
_cell_volume 735.443947
_symmetry_space_group_name_H-M "C 2"
_symmetry_group_IT_number 5
_symmetry_cell_setting 'monoclinic'
loop_
_space_group_symop_operation_xyz
x,y,z
-x,y,-z
1/2+x,1/2+y,z
1/2-x,1/2+y,-z
loop_
_atom_site_type_symbol
_atom_site_label
_atom_site_fract_x
_atom_site_fract_y
_atom_site_fract_z
Si Si1 0.235394 0.321270 0.881396
Si Si2 0.807388 0.759952 0.457188
Si Si3 0.970905 0.516874 0.283027
Si Si4 0.231001 0.522363 0.250986
Si Si5 0.471505 0.750646 0.706599
O O1 0.193337 0.467367 0.842417
O O2 0.000000 0.278197 0.500000
O O3 0.217424 0.262867 0.989770
O O4 0.469637 0.286163 0.152284
O O5 0.634542 0.130824 0.523502
O O6 0.595609 0.747192 0.249527
O O7 0.813316 0.882980 0.387011
O O8 0.108575 0.390270 0.442819
O O9 0.816649 0.539578 0.953630
O O10 0.367063 0.630462 0.502215
O O11 0.000000 0.525784 0.000000
#
# Coordination Sequence:
#
# PCOD9127885 Si02
#       5
#     4   4   4   4   4
#     4  10  25  44  67 103 141 180 237 284 347 414
#     4  12  23  45  74 101 144 184 228 296 344 413
#     4  10  25  46  64 108 137 178 243 272 352 419
#     4  12  22  44  75 101 143 184 230 289 348 414
#     4  10  23  43  70 104 134 179 237 277 345 422
#
# _framework density 27.194457
#
# number of rings (size 3 to 8) (size 9 to 14) (size 15 to 20)
#    1.200    0.000    4.000    1.200    2.800    0.800 
#    7.200    1.000    0.000    0.000    0.000    0.000 
#    0.000    0.000    0.000    0.000    0.000    0.000 
#
# Total GULP energy -55805.827054 kJ/mol
# GULP energy per Si atom -5580.582705 kJ/mol
# Density = 2.713256 g / cm^3
# Si number density = 27.194457 Si / 1000 Ang^3
#
#
#
# Elastic Constant Matrix: (Units=GPa)
#
#
# Indices 1 2 3 4 5 6 
#
# 1 91.7409 33.3820 13.4757 0.0000 -0.8157 0.0000
# 2 33.3820 228.0551 33.3349 0.0000 -2.5122 0.0000
# 3 13.4757 33.3349 67.0722 0.0001 1.4554 0.0001
# 4 0.0000 0.0000 0.0001 52.3586 0.0000 -3.7034
# 5 -0.8157 -2.5122 1.4554 0.0000 38.3445 0.0000
# 6 0.0000 0.0000 0.0001 -3.7034 0.0000 44.0115
#
#
#
# Elastic Compliance Matrix: (Units=1/GPa)
#
#
# Indices 1 2 3 4 5 6 
#
# 1 0.011675 -0.001470 -0.001620 0.000000 0.000214 0.000000
# 2 -0.001470 0.004920 -0.002158 0.000000 0.000373 0.000000
# 3 -0.001620 -0.002158 0.016324 0.000000 -0.000795 0.000000
# 4 0.000000 0.000000 0.000000 0.019213 0.000000 0.001617
# 5 0.000214 0.000373 -0.000795 0.000000 0.026139 0.000000
# 6 0.000000 0.000000 0.000000 0.001617 0.000000 0.022857
#
#
# Mechanical properties :
#
#
# Convention : Reuss Voigt Hill
#
# Bulk Modulus (GPa) = 44.59489 60.80594 52.70041
# Shear Modulus (GPa) = 41.98230 47.38795 44.68512
#
# Velocity S-wave (km/s) = 3.93336 4.17893 4.05800
# Velocity P-wave (km/s) = 6.08790 6.75964 6.43255
#
# Compressibility (1/GPa) = 0.02242410
#
# Stress axis : x y z
#
# Youngs Moduli (GPa) = 85.65370 203.26976 61.25782
#
# Poissons Ratio (x) = 0.29877 0.09922
# Poissons Ratio (y) = 0.12590 0.13218
# Poissons Ratio (z) = 0.13874 0.43862
#
# Static dielectric constant tensor:
#      x y z
#    x 2.242160 0.000000 -0.175860 
#    y 0.000000 2.206390 0.000000 
#    z -0.175860 0.000000 2.233050 
# 
# From -- ./inp_files/44868.got.cif
#   From: 2010.05.17/outbox.cif.g08.bks.cpg/sg5_23_cif.got.tgz:44868.got - 2010.06.03 18:56:24.
