data_PCOD9127377
_publ_section_title
;
Structure prediction by ZEFSAII (Michael W. Deem and Ramdas Pophale) SiO2 
 PCOD9127377
Probable space group: C 2
;
_chemical_formula_sum "Si O2"
_cell_formula_units_Z 18
_cell_length_a 5.587578
_cell_length_b 25.735692
_cell_length_c 5.184882
_cell_angle_alpha 90.000000
_cell_angle_beta 89.713353
_cell_angle_gamma 90.000000
_cell_volume 745.577667
_symmetry_space_group_name_H-M "C 2"
_symmetry_group_IT_number 5
_symmetry_cell_setting 'monoclinic'
loop_
_space_group_symop_operation_xyz
x,y,z
-x,y,-z
1/2+x,1/2+y,z
1/2-x,1/2+y,-z
loop_
_atom_site_type_symbol
_atom_site_label
_atom_site_fract_x
_atom_site_fract_y
_atom_site_fract_z
Si Si1 0.165328 0.500000 0.744524
Si Si2 0.343529 0.274083 0.739856
Si Si3 0.330084 0.111444 0.250453
Si Si4 0.753277 0.886086 0.842942
Si Si5 0.000000 0.194856 0.000000
O O1 0.303167 0.554966 0.745459
O O2 0.277477 0.443005 0.716588
O O3 0.000000 0.505592 0.500000
O O4 0.000000 0.497965 0.000000
O O5 0.500000 0.256549 0.500000
O O6 0.250850 0.332626 0.681922
O O7 0.500000 0.276326 0.000000
O O8 0.144018 0.232978 0.811992
O O9 0.500000 0.118496 0.500000
O O10 0.153622 0.157901 0.185608
O O11 0.500000 0.109461 0.000000
O O12 0.500000 0.885469 0.000000
O O13 0.000000 0.882896 0.000000
#
# Coordination Sequence:
#
# PCOD9127377 Si02
#       5
#     4   4   4   4   2
#     4   9  20  41  70 105 147 190 245 314 382 459
#     4  11  27  48  71 111 150 199 258 318 384 464
#     4  10  24  45  72 110 148 196 259 314 383 462
#     4  10  22  45  75 110 157 199 255 320 390 465
#     4  12  26  48  80 106 156 208 258 316 394 464
#
# _framework density 24.142351000000001
#
# number of rings (size 3 to 8) (size 9 to 14) (size 15 to 20)
#    0.000    1.778    1.111    0.667    1.556   14.222 
#    0.000    0.000    0.000    0.000    0.000    0.000 
#    0.000    0.000    0.000    0.000    0.000    0.000 
#
# Total GULP energy -50301.503490 kJ/mol
# GULP energy per Si atom -5589.055943 kJ/mol
# Density = 2.408740 g / cm^3
# Si number density = 24.142351 Si / 1000 Ang^3
#
#
#
# Elastic Constant Matrix: (Units=GPa)
#
#
# Indices 1 2 3 4 5 6 
#
# 1 102.7073 78.7520 42.6026 0.0000 -10.3392 0.0000
# 2 78.7520 282.3406 42.4309 0.0000 -5.2871 0.0000
# 3 42.6026 42.4309 152.1505 0.0000 -8.7470 0.0000
# 4 0.0000 0.0000 0.0000 31.6478 0.0000 -22.1488
# 5 -10.3392 -5.2871 -8.7470 0.0000 44.5888 0.0000
# 6 0.0000 0.0000 0.0000 -22.1488 0.0000 92.5627
#
#
#
# Elastic Compliance Matrix: (Units=1/GPa)
#
#
# Indices 1 2 3 4 5 6 
#
# 1 0.013685 -0.003359 -0.002767 0.000000 0.002232 0.000000
# 2 -0.003359 0.004524 -0.000339 0.000000 -0.000309 0.000000
# 3 -0.002767 -0.000339 0.007487 0.000000 0.000787 0.000000
# 4 0.000000 0.000000 0.000000 0.037954 0.000000 0.009082
# 5 0.002232 -0.000309 0.000787 0.000000 0.023063 0.000000
# 6 0.000000 0.000000 0.000000 0.009082 0.000000 0.012977
#
#
# Mechanical properties :
#
#
# Convention : Reuss Voigt Hill
#
# Bulk Modulus (GPa) = 78.33356 96.08550 87.20953
# Shear Modulus (GPa) = 42.78160 58.65404 50.71782
#
# Velocity S-wave (km/s) = 4.21415 4.93435 4.58840
# Velocity P-wave (km/s) = 7.49638 8.50586 8.01703
#
# Compressibility (1/GPa) = 0.01276592
#
# Stress axis : x y z
#
# Youngs Moduli (GPa) = 73.07530 221.04502 133.56868
#
# Poissons Ratio (x) = 0.74258 0.36952
# Poissons Ratio (y) = 0.24549 0.04524
# Poissons Ratio (z) = 0.20217 0.07488
#
# Static dielectric constant tensor:
#      x y z
#    x 1.911960 0.000000 -0.021040 
#    y 0.000000 2.051320 0.000000 
#    z -0.021040 0.000000 1.876350 
# 
# From -- ./inp_files/1140.got.cif
#   From: 2010.05.17/outbox.cif.g08.bks.cpg/sg5_1_cif.got.tgz:1140.got - 2010.06.03 18:56:24.
