data_PCOD9127250
_publ_section_title
;
Structure prediction by ZEFSAII (Michael W. Deem and Ramdas Pophale) SiO2 
 PCOD9127250
Probable space group: C 2
;
_chemical_formula_sum "Si O2"
_cell_formula_units_Z 18
_cell_length_a 9.392413
_cell_length_b 10.732972
_cell_length_c 8.211288
_cell_angle_alpha 90.000000
_cell_angle_beta 63.119665
_cell_angle_gamma 90.000000
_cell_volume 738.329662
_symmetry_space_group_name_H-M "C 2"
_symmetry_group_IT_number 5
_symmetry_cell_setting 'monoclinic'
loop_
_space_group_symop_operation_xyz
x,y,z
-x,y,-z
1/2+x,1/2+y,z
1/2-x,1/2+y,-z
loop_
_atom_site_type_symbol
_atom_site_label
_atom_site_fract_x
_atom_site_fract_y
_atom_site_fract_z
Si Si1 0.500000 0.276870 0.500000
Si Si2 0.268655 0.883437 0.598378
Si Si3 0.607711 0.895729 0.783181
Si Si4 0.189184 0.651274 0.861594
Si Si5 0.254143 0.634831 0.195015
O O1 0.628204 0.355143 0.536440
O O2 0.578020 0.185848 0.327235
O O3 0.419458 0.901302 0.396928
O O4 0.261863 0.765177 0.722147
O O5 0.225437 0.005219 0.724654
O O6 0.647599 0.750493 0.786673
O O7 0.710976 0.021937 0.754798
O O8 0.500000 0.916072 0.000000
O O9 0.272251 0.630439 0.992966
O O10 0.000000 0.677402 0.000000
#
# Coordination Sequence:
#
# PCOD9127250 Si02
#       5
#     2   4   4   4   4
#     4  10  22  44  72 104 138 184 224 290 350 416
#     4  11  23  43  74 100 137 186 231 285 350 415
#     4  10  23  42  64  99 140 177 229 283 345 415
#     4  11  22  43  69  99 140 184 231 284 351 412
#     4  11  23  42  72  99 139 183 231 287 344 414
#
# _framework density 24.379352999999998
#
# number of rings (size 3 to 8) (size 9 to 14) (size 15 to 20)
#    0.000    1.333    2.222    4.000    3.111    0.889 
#    8.000    0.000    9.778    0.000    0.000    0.000 
#    0.000    0.000    0.000    0.000    0.000    0.000 
#
# Total GULP energy -50167.815815 kJ/mol
# GULP energy per Si atom -5574.201757 kJ/mol
# Density = 2.432386 g / cm^3
# Si number density = 24.379353 Si / 1000 Ang^3
#
#
#
# Elastic Constant Matrix: (Units=GPa)
#
#
# Indices 1 2 3 4 5 6 
#
# 1 40.4255 40.1235 36.6381 0.0000 30.3707 0.0000
# 2 40.1235 258.9012 112.2248 0.0000 35.2411 0.0000
# 3 36.6381 112.2248 217.5839 0.0000 55.7992 0.0000
# 4 0.0000 0.0000 0.0000 62.8806 0.0000 11.5266
# 5 30.3707 35.2411 55.7992 0.0000 55.0017 0.0000
# 6 0.0000 0.0000 0.0000 11.5266 0.0000 35.2773
#
#
#
# Elastic Compliance Matrix: (Units=1/GPa)
#
#
# Indices 1 2 3 4 5 6 
#
# 1 0.045781 -0.004097 0.000289 0.000000 -0.022948 0.000000
# 2 -0.004097 0.005367 -0.002401 0.000000 0.001259 0.000000
# 3 0.000289 -0.002401 0.007342 0.000000 -0.006070 0.000000
# 4 0.000000 0.000000 0.000000 0.016916 0.000000 -0.005527
# 5 -0.022948 0.001259 -0.006070 0.000000 0.036203 0.000000
# 6 0.000000 0.000000 0.000000 -0.005527 0.000000 0.030153
#
#
# Mechanical properties :
#
#
# Convention : Reuss Voigt Hill
#
# Bulk Modulus (GPa) = 21.70504 99.43150 60.56827
# Shear Modulus (GPa) = 29.49196 52.49353 40.99275
#
# Velocity S-wave (km/s) = 3.48186 4.64529 4.10500
# Velocity P-wave (km/s) = 5.00868 8.34537 6.88230
#
# Compressibility (1/GPa) = 0.04607224
#
# Stress axis : x y z
#
# Youngs Moduli (GPa) = 21.84317 186.33175 136.19551
#
# Poissons Ratio (x) = 0.76333 -0.03935
# Poissons Ratio (y) = 0.08948 0.32704
# Poissons Ratio (z) = -0.00631 0.44743
#
# Static dielectric constant tensor:
#      x y z
#    x 2.181470 0.000000 -0.134420 
#    y 0.000000 1.822610 0.000000 
#    z -0.134420 0.000000 2.028340 
# 
# From -- ./inp_files/18209.got.cif
#   From: 2010.05.17/outbox.cif.g08.bks.cpg/sg5_10_cif.got.tgz:18209.got - 2010.06.03 18:56:24.
