data_PCOD9127051
_publ_section_title
;
Structure prediction by ZEFSAII (Michael W. Deem and Ramdas Pophale) SiO2 
 PCOD9127051
Probable space group: C 2
;
_chemical_formula_sum "Si O2"
_cell_formula_units_Z 28
_cell_length_a 11.458409
_cell_length_b 18.971384
_cell_length_c 6.633774
_cell_angle_alpha 90.000000
_cell_angle_beta 61.062880
_cell_angle_gamma 90.000000
_cell_volume 1262.022563
_symmetry_space_group_name_H-M "C 2"
_symmetry_group_IT_number 5
_symmetry_cell_setting 'monoclinic'
loop_
_space_group_symop_operation_xyz
x,y,z
-x,y,-z
1/2+x,1/2+y,z
1/2-x,1/2+y,-z
loop_
_atom_site_type_symbol
_atom_site_label
_atom_site_fract_x
_atom_site_fract_y
_atom_site_fract_z
Si Si1 0.564804 0.476830 0.664906
Si Si2 0.618340 0.088720 0.756833
Si Si3 0.119975 0.443740 0.560071
Si Si4 0.358178 0.202342 0.610365
Si Si5 0.800581 0.173187 0.871358
Si Si6 0.777369 0.295023 0.596096
Si Si7 0.500000 0.602394 0.000000
Si Si8 0.000000 0.859459 0.000000
O O1 0.500000 0.487395 0.500000
O O2 0.717359 0.453002 0.576333
O O3 0.473802 0.415151 0.840639
O O4 0.567110 0.548914 0.787951
O O5 0.623389 0.131501 0.541187
O O6 0.752003 0.110393 0.764919
O O7 0.595069 0.005956 0.742357
O O8 0.500000 0.115018 0.000000
O O9 0.126513 0.358709 0.549138
O O10 0.000000 0.459871 0.500000
O O11 0.500000 0.240249 0.500000
O O12 0.257193 0.250916 0.574063
O O13 0.316731 0.189213 0.872203
O O14 0.835764 0.240353 0.708608
O O15 0.912586 0.149496 0.929703
O O16 0.633074 0.317424 0.820077
#
# Coordination Sequence:
#
# PCOD9127051 Si02
#       8
#     4   4   4   4   4   4   2   2
#     4  10  22  43  68  96 130 171 225 279 339 392
#     4  11  23  41  69 101 131 170 227 287 338 388
#     4  11  25  45  66  99 139 178 223 284 337 406
#     4  11  21  40  69 100 132 172 229 286 335 393
#     4  11  24  42  66  98 134 175 225 277 340 404
#     4  10  24  42  64  98 138 179 221 274 339 414
#     4  11  24  40  66  96 130 171 222 274 334 411
#     4   9  20  40  66  94 128 173 228 274 324 405
#
# _framework density 22.186608
#
# number of rings (size 3 to 8) (size 9 to 14) (size 15 to 20)
#    0.000    1.429    1.429    3.000    4.000    6.857 
#    5.143    0.000    0.000    0.000    0.000    0.000 
#    0.000    0.000    0.000    0.000    0.000    0.000 
#
# Total GULP energy -77939.866888 kJ/mol
# GULP energy per Si atom -5567.133349 kJ/mol
# Density = 2.213611 g / cm^3
# Si number density = 22.186608 Si / 1000 Ang^3
#
#
#
# Elastic Constant Matrix: (Units=GPa)
#
#
# Indices 1 2 3 4 5 6 
#
# 1 109.5319 51.4782 22.3470 0.0000 34.9571 0.0000
# 2 51.4782 130.0849 47.6151 0.0000 27.4858 0.0000
# 3 22.3470 47.6151 77.1865 0.0000 30.2652 0.0000
# 4 0.0000 0.0000 0.0000 21.7261 0.0000 3.1299
# 5 34.9571 27.4858 30.2652 0.0000 33.7384 0.0000
# 6 0.0000 0.0000 0.0000 3.1299 0.0000 27.6018
#
#
#
# Elastic Compliance Matrix: (Units=1/GPa)
#
#
# Indices 1 2 3 4 5 6 
#
# 1 0.015598 -0.004356 0.004808 0.000000 -0.016925 0.000000
# 2 -0.004356 0.011509 -0.006065 0.000000 0.000578 0.000000
# 3 0.004808 -0.006065 0.023634 0.000000 -0.021241 0.000000
# 4 0.000000 0.000000 0.000000 0.046792 0.000000 -0.005306
# 5 -0.016925 0.000578 -0.021241 0.000000 0.065760 0.000000
# 6 0.000000 0.000000 0.000000 -0.005306 0.000000 0.036831
#
#
# Mechanical properties :
#
#
# Convention : Reuss Voigt Hill
#
# Bulk Modulus (GPa) = 25.30763 62.18713 43.74738
# Shear Modulus (GPa) = 22.26948 29.63747 25.95347
#
# Velocity S-wave (km/s) = 3.17161 3.65886 3.42392
# Velocity P-wave (km/s) = 4.98434 6.77788 5.94909
#
# Compressibility (1/GPa) = 0.03951377
#
# Stress axis : x y z
#
# Youngs Moduli (GPa) = 64.11116 86.88823 42.31184
#
# Poissons Ratio (x) = 0.37850 -0.20343
# Poissons Ratio (y) = 0.27928 0.25663
# Poissons Ratio (z) = -0.30824 0.52700
#
# Static dielectric constant tensor:
#      x y z
#    x 1.786420 0.000000 0.005650 
#    y 0.000000 1.888970 0.000000 
#    z 0.005650 0.000000 1.795590 
# 
# From -- ./inp_files/5630.got.cif
#   From: 2010.05.17/outbox.cif.g08.bks.cpg/sg5_3_cif.got.tgz:5630.got - 2010.06.03 18:56:24.
