data_PCOD9127530
_publ_section_title
;
Structure prediction by ZEFSAII (Michael W. Deem and Ramdas Pophale) SiO2 
 PCOD9127530
Probable space group: C 2
;
_chemical_formula_sum "Si O2"
_cell_formula_units_Z 22
_cell_length_a 9.904612
_cell_length_b 17.586186
_cell_length_c 4.886951
_cell_angle_alpha 90.000000
_cell_angle_beta 85.319926
_cell_angle_gamma 90.000000
_cell_volume 848.392225
_symmetry_space_group_name_H-M "C 2"
_symmetry_group_IT_number 5
_symmetry_cell_setting 'monoclinic'
loop_
_space_group_symop_operation_xyz
x,y,z
-x,y,-z
1/2+x,1/2+y,z
1/2-x,1/2+y,-z
loop_
_atom_site_type_symbol
_atom_site_label
_atom_site_fract_x
_atom_site_fract_y
_atom_site_fract_z
Si Si1 0.758830 0.042400 0.705971
Si Si2 0.000000 0.976971 0.000000
Si Si3 0.157860 0.842308 0.828488
Si Si4 0.500000 0.636035 0.500000
Si Si5 0.500000 0.128784 0.000000
Si Si6 0.500000 0.221441 0.500000
Si Si7 0.806009 0.366544 0.325859
Si Si8 0.000000 0.247694 0.000000
O O1 0.629581 0.088404 0.837523
O O2 0.859718 0.086741 0.475226
O O3 0.692241 0.958080 0.676436
O O4 0.878583 0.024251 0.899187
O O5 0.926390 0.918511 0.220749
O O6 0.297769 0.850206 0.648295
O O7 0.092939 0.771514 0.686700
O O8 0.177214 0.844320 0.149991
O O9 0.459497 0.689408 0.763374
O O10 0.432227 0.170713 0.747708
O O11 0.906463 0.307270 0.177087
#
# Coordination Sequence:
#
# PCOD9127530 Si02
#       8
#     4   2   4   2   2   2   4   2
#     4  11  26  51  75 118 153 215 257 328 394 490
#     4  10  22  48  80 114 146 200 266 320 385 467
#     4  11  23  43  76 105 137 194 253 330 364 461
#     4  12  28  47  81 114 166 200 272 324 414 455
#     4  12  30  44  76 104 164 202 248 316 399 467
#     4  12  26  45  65 106 146 194 252 306 390 447
#     4  11  25  46  78 103 154 196 269 309 402 463
#     4  12  28  48  74 120 152 216 254 346 388 488
#
# _framework density 25.931401999999999
#
# number of rings (size 3 to 8) (size 9 to 14) (size 15 to 20)
#    0.000    0.727    0.000    7.091    7.636    5.818 
#    0.000    1.818    0.000    0.000    0.000    0.000 
#    0.000    0.000    0.000    0.000    0.000    0.000 
#
# Total GULP energy -61267.802170 kJ/mol
# GULP energy per Si atom -5569.800197 kJ/mol
# Density = 2.587238 g / cm^3
# Si number density = 25.931402 Si / 1000 Ang^3
#
#
#
# Elastic Constant Matrix: (Units=GPa)
#
#
# Indices 1 2 3 4 5 6 
#
# 1 77.8325 39.9162 2.7160 0.0000 -8.1049 0.0000
# 2 39.9162 132.8555 36.7654 0.0000 -25.2199 0.0000
# 3 2.7160 36.7654 129.7737 0.0000 -4.3820 0.0000
# 4 0.0000 0.0000 0.0000 37.8850 0.0000 -13.3665
# 5 -8.1049 -25.2199 -4.3820 0.0000 33.2025 0.0000
# 6 0.0000 0.0000 0.0000 -13.3665 0.0000 23.3813
#
#
#
# Elastic Compliance Matrix: (Units=1/GPa)
#
#
# Indices 1 2 3 4 5 6 
#
# 1 0.015324 -0.004863 0.001063 0.000000 0.000187 0.000000
# 2 -0.004863 0.011063 -0.002801 0.000000 0.006846 0.000000
# 3 0.001063 -0.002801 0.008452 0.000000 -0.000753 0.000000
# 4 0.000000 0.000000 0.000000 0.033065 0.000000 0.018902
# 5 0.000187 0.006846 -0.000753 0.000000 0.035265 0.000000
# 6 0.000000 0.000000 0.000000 0.018902 0.000000 0.053575
#
#
# Mechanical properties :
#
#
# Convention : Reuss Voigt Hill
#
# Bulk Modulus (GPa) = 46.21649 55.47303 50.84476
# Shear Modulus (GPa) = 28.22345 36.29804 32.26075
#
# Velocity S-wave (km/s) = 3.30265 3.74541 3.53098
# Velocity P-wave (km/s) = 5.69251 6.33583 6.02277
#
# Compressibility (1/GPa) = 0.02163730
#
# Stress axis : x y z
#
# Youngs Moduli (GPa) = 65.25535 90.39274 118.32025
#
# Poissons Ratio (x) = 0.43957 -0.12581
# Poissons Ratio (y) = 0.31733 0.33144
# Poissons Ratio (z) = -0.06938 0.25321
#
# Static dielectric constant tensor:
#      x y z
#    x 2.081280 0.000000 -0.002170 
#    y 0.000000 2.202860 0.000000 
#    z -0.002170 0.000000 2.042680 
# 
# From -- ./inp_files/5146.got.cif
#   From: 2010.05.17/outbox.cif.g08.bks.cpg/sg5_3_cif.got.tgz:5146.got - 2010.06.03 18:56:24.
