data_PCOD9127233
_publ_section_title
;
Structure prediction by ZEFSAII (Michael W. Deem and Ramdas Pophale) SiO2 
 PCOD9127233
Probable space group: C 2
;
_chemical_formula_sum "Si O2"
_cell_formula_units_Z 26
_cell_length_a 5.974446
_cell_length_b 13.667266
_cell_length_c 16.751827
_cell_angle_alpha 90.000000
_cell_angle_beta 121.989408
_cell_angle_gamma 90.000000
_cell_volume 1160.144560
_symmetry_space_group_name_H-M "C 2"
_symmetry_group_IT_number 5
_symmetry_cell_setting 'monoclinic'
loop_
_space_group_symop_operation_xyz
x,y,z
-x,y,-z
1/2+x,1/2+y,z
1/2-x,1/2+y,-z
loop_
_atom_site_type_symbol
_atom_site_label
_atom_site_fract_x
_atom_site_fract_y
_atom_site_fract_z
Si Si1 0.481353 0.724680 0.815556
Si Si2 0.500000 0.922529 0.500000
Si Si3 0.753075 0.092508 0.914820
Si Si4 0.562065 0.363218 0.654950
Si Si5 0.198403 0.589666 0.427247
Si Si6 0.000000 0.734189 0.000000
Si Si7 0.000000 0.761728 0.500000
Si Si8 0.763035 0.072600 0.260207
O O1 0.367519 0.652476 0.861691
O O2 0.242901 0.796630 0.746269
O O3 0.579090 0.654782 0.760245
O O4 0.745514 0.777039 0.903096
O O5 0.749514 0.858655 0.575495
O O6 0.544611 0.998488 0.435121
O O7 0.493005 0.038210 0.837486
O O8 0.642915 0.168063 0.959912
O O9 0.000000 0.036084 0.000000
O O10 0.675199 0.331559 0.589132
O O11 0.586101 0.474234 0.688637
O O12 0.500000 0.564835 0.500000
O O13 0.130882 0.684836 0.464780
O O14 0.165191 0.610837 0.327658
#
# Coordination Sequence:
#
# PCOD9127233 Si02
#       8
#     4   2   4   4   4   2   2   4
#     4  10  22  44  71 104 137 182 229 288 358 425
#     4  11  26  44  62  91 146 188 227 300 342 405
#     4   9  19  41  73  99 134 177 224 280 357 427
#     4  12  25  44  63 101 142 180 242 289 345 417
#     4  11  22  44  67  91 135 186 239 289 354 412
#     4   8  18  42  74  98 136 176 220 280 352 432
#     4  11  26  42  64  97 132 188 243 296 350 411
#     4  11  23  42  70 100 137 184 230 293 357 417
#
# _framework density 22.410997999999999
#
# number of rings (size 3 to 8) (size 9 to 14) (size 15 to 20)
#    0.000    1.538    1.538    2.769    5.385    0.000 
#   15.231    0.000   27.077    0.000    0.000    0.000 
#    0.000    0.000    0.000    0.000    0.000    0.000 
#
# Total GULP energy -72431.619132 kJ/mol
# GULP energy per Si atom -5571.663010 kJ/mol
# Density = 2.235999 g / cm^3
# Si number density = 22.410998 Si / 1000 Ang^3
#
#
#
# Elastic Constant Matrix: (Units=GPa)
#
#
# Indices 1 2 3 4 5 6 
#
# 1 110.0773 50.2420 55.6011 0.0000 -3.4681 0.0000
# 2 50.2420 95.6999 40.0950 0.0000 12.4773 0.0000
# 3 55.6011 40.0950 152.0265 0.0000 25.6207 0.0000
# 4 0.0000 0.0000 0.0000 24.0894 0.0000 10.3359
# 5 -3.4681 12.4773 25.6207 0.0000 64.9179 0.0000
# 6 0.0000 0.0000 0.0000 10.3359 0.0000 13.6118
#
#
#
# Elastic Compliance Matrix: (Units=1/GPa)
#
#
# Indices 1 2 3 4 5 6 
#
# 1 0.014080 -0.006124 -0.004135 0.000000 0.003561 0.000000
# 2 -0.006124 0.014486 -0.001132 0.000000 -0.002665 0.000000
# 3 -0.004135 -0.001132 0.008987 0.000000 -0.003550 0.000000
# 4 0.000000 0.000000 0.000000 0.061573 0.000000 -0.046754
# 5 0.003561 -0.002665 -0.003550 0.000000 0.017508 0.000000
# 6 0.000000 0.000000 0.000000 -0.046754 0.000000 0.108968
#
#
# Mechanical properties :
#
#
# Convention : Reuss Voigt Hill
#
# Bulk Modulus (GPa) = 67.69409 72.18665 69.94037
# Shear Modulus (GPa) = 19.73899 34.64820 27.19360
#
# Velocity S-wave (km/s) = 2.97100 3.93623 3.48717
# Velocity P-wave (km/s) = 6.48386 7.27591 6.89127
#
# Compressibility (1/GPa) = 0.01477234
#
# Stress axis : x y z
#
# Youngs Moduli (GPa) = 71.02077 69.03203 111.27544
#
# Poissons Ratio (x) = 0.42276 0.46008
# Poissons Ratio (y) = 0.43494 0.12592
# Poissons Ratio (z) = 0.29365 0.07812
#
# Static dielectric constant tensor:
#      x y z
#    x 1.923750 0.000000 0.018220 
#    y 0.000000 1.883230 0.000000 
#    z 0.018220 0.000000 1.924250 
# 
# From -- ./inp_files/58833.got.cif
#   From: 2010.05.17/outbox.cif.g08.bks.cpg/sg5_30_cif.got.tgz:58833.got - 2010.06.03 18:56:24.
