data_PCOD9127698
_publ_section_title
;
Structure prediction by ZEFSAII (Michael W. Deem and Ramdas Pophale) SiO2 
 PCOD9127698
Probable space group: C 2
;
_chemical_formula_sum "Si O2"
_cell_formula_units_Z 20
_cell_length_a 10.536103
_cell_length_b 18.018883
_cell_length_c 5.321078
_cell_angle_alpha 90.000000
_cell_angle_beta 70.449059
_cell_angle_gamma 90.000000
_cell_volume 951.956541
_symmetry_space_group_name_H-M "C 2"
_symmetry_group_IT_number 5
_symmetry_cell_setting 'monoclinic'
loop_
_space_group_symop_operation_xyz
x,y,z
-x,y,-z
1/2+x,1/2+y,z
1/2-x,1/2+y,-z
loop_
_atom_site_type_symbol
_atom_site_label
_atom_site_fract_x
_atom_site_fract_y
_atom_site_fract_z
Si Si1 0.657454 0.383910 0.816763
Si Si2 0.139756 0.490389 0.023294
Si Si3 0.855304 0.021579 0.485813
Si Si4 0.654990 0.211606 0.805926
Si Si5 0.789265 0.625207 0.748187
O O1 0.765838 0.426268 0.921793
O O2 0.691398 0.298283 0.757924
O O3 0.658141 0.435044 0.571571
O O4 0.500000 0.388231 0.000000
O O5 0.111254 0.557943 0.235176
O O6 0.231376 0.531584 0.755465
O O7 0.000000 0.463077 0.000000
O O8 0.835917 0.074856 0.260325
O O9 0.000000 0.036316 0.500000
O O10 0.670283 0.173393 0.522749
O O11 0.500000 0.206487 0.000000
O O12 0.732899 0.176048 0.992577
#
# Coordination Sequence:
#
# PCOD9127698 Si02
#       5
#     4   4   4   4   4
#     4  10  23  41  68 102 136 180 229 279 337 404
#     4  11  24  43  71 101 138 176 229 283 334 398
#     4  11  23  42  72  97 138 180 231 275 336 404
#     4  11  24  40  68 100 139 177 224 280 336 402
#     4  11  24  41  65  99 137 174 226 277 337 391
#
# _framework density 21.009360999999998
#
# number of rings (size 3 to 8) (size 9 to 14) (size 15 to 20)
#    0.000    1.200    4.000    1.200    5.600    2.400 
#    0.000    2.000    0.000    0.000    0.000    0.000 
#    0.000    0.000    0.000    0.000    0.000    0.000 
#
# Total GULP energy -55775.955448 kJ/mol
# GULP energy per Si atom -5577.595545 kJ/mol
# Density = 2.096154 g / cm^3
# Si number density = 21.009361 Si / 1000 Ang^3
#
#
#
# Elastic Constant Matrix: (Units=GPa)
#
#
# Indices 1 2 3 4 5 6 
#
# 1 110.9165 33.2380 29.0948 0.0000 22.9728 0.0000
# 2 33.2380 177.8957 66.8943 0.0000 11.1172 0.0000
# 3 29.0948 66.8943 113.4127 0.0000 1.5832 0.0000
# 4 0.0000 0.0000 0.0000 21.0168 0.0000 -25.3522
# 5 22.9728 11.1172 1.5832 0.0000 34.5779 0.0000
# 6 0.0000 0.0000 0.0000 -25.3522 0.0000 -22.3613
#
#
#
# Elastic Compliance Matrix: (Units=1/GPa)
#
#
# Indices 1 2 3 4 5 6 
#
# 1 0.011356 -0.000790 -0.002347 0.000000 -0.007183 0.000000
# 2 -0.000790 0.007438 -0.004161 0.000000 -0.001676 0.000000
# 3 -0.002347 -0.004161 0.011841 0.000000 0.002355 0.000000
# 4 0.000000 0.000000 0.000000 0.020097 0.000000 -0.022784
# 5 -0.007183 -0.001676 0.002355 0.000000 0.034123 0.000000
# 6 0.000000 0.000000 0.000000 -0.022784 0.000000 -0.018888
#
#
# Mechanical properties :
#
#
# Convention : Reuss Voigt Hill
#
# Bulk Modulus (GPa) = 62.34991 73.40877 67.87934
# Shear Modulus (GPa) = 58.20023 24.84653 41.52338
#
# Velocity S-wave (km/s) = 5.26898 3.44269 4.45052
# Velocity P-wave (km/s) = 8.17055 7.12879 7.66738
#
# Compressibility (1/GPa) = 0.01603851
#
# Stress axis : x y z
#
# Youngs Moduli (GPa) = 88.05922 134.43675 84.45253
#
# Poissons Ratio (x) = 0.10626 0.19819
# Poissons Ratio (y) = 0.06960 0.35143
# Poissons Ratio (z) = 0.20666 0.55943
#
# Static dielectric constant tensor:
#      x y z
#    x 1.816590 0.000000 -0.000610 
#    y 0.000000 1.761770 0.000000 
#    z -0.000610 0.000000 1.835000 
# 
# From -- ./inp_files/2459.got.cif
#   From: 2010.05.17/outbox.cif.g08.bks.cpg/sg5_2_cif.got.tgz:2459.got - 2010.06.03 18:56:24.
