data_PCOD9127712
_publ_section_title
;
Structure prediction by ZEFSAII (Michael W. Deem and Ramdas Pophale) SiO2 
 PCOD9127712
Probable space group: C 2
;
_chemical_formula_sum "Si O2"
_cell_formula_units_Z 32
_cell_length_a 7.993788
_cell_length_b 10.907271
_cell_length_c 27.937713
_cell_angle_alpha 90.000000
_cell_angle_beta 146.936136
_cell_angle_gamma 90.000000
_cell_volume 1328.962899
_symmetry_space_group_name_H-M "C 2"
_symmetry_group_IT_number 5
_symmetry_cell_setting 'monoclinic'
loop_
_space_group_symop_operation_xyz
x,y,z
-x,y,-z
1/2+x,1/2+y,z
1/2-x,1/2+y,-z
loop_
_atom_site_type_symbol
_atom_site_label
_atom_site_fract_x
_atom_site_fract_y
_atom_site_fract_z
Si Si1 0.589079 0.715310 0.576715
Si Si2 0.801789 0.856139 0.161607
Si Si3 0.826241 0.581617 0.171530
Si Si4 0.259985 0.954963 0.351941
Si Si5 0.338021 0.049205 0.012262
Si Si6 0.620798 0.477302 0.641414
Si Si7 0.592006 0.214191 0.149585
Si Si8 0.195495 0.715842 0.676138
O O1 0.500000 0.723510 0.500000
O O2 0.508798 0.840411 0.585331
O O3 0.505227 0.586444 0.580143
O O4 0.961293 0.721615 0.663915
O O5 0.723689 0.719564 0.161285
O O6 0.037277 0.917081 0.254839
O O7 0.964566 0.828992 0.149183
O O8 0.516544 0.942111 0.082760
O O9 0.517945 0.519143 0.079783
O O10 0.035388 0.514216 0.259819
O O11 0.047899 0.608669 0.179548
O O12 0.089221 0.973688 0.361613
O O13 0.381338 0.088390 0.367536
O O14 0.500000 0.065263 0.000000
O O15 0.387902 0.171409 0.056225
O O16 0.639444 0.335953 0.629901
O O17 0.949729 0.220711 0.223493
#
# Coordination Sequence:
#
# PCOD9127712 Si02
#       8
#     4   4   4   4   4   4   4   4
#     4  11  27  47  72 108 151 185 234 301 367 448
#     4  10  23  43  72  94 138 191 240 305 363 416
#     4  10  23  41  69  95 140 190 237 302 357 423
#     4  11  22  48  76 104 139 192 242 295 367 439
#     4  12  26  37  65 100 140 188 246 300 362 424
#     4  11  24  44  73 108 140 187 244 297 364 441
#     4  10  23  44  67  97 136 189 245 294 365 427
#     4  11  25  40  78 104 134 189 242 288 367 439
#
# _framework density 24.078928000000001
#
# number of rings (size 3 to 8) (size 9 to 14) (size 15 to 20)
#    0.750    0.500    3.750    0.375    7.000    2.000 
#    0.000    1.875    0.000    0.000    0.000    0.000 
#    0.000    0.000    0.000    0.000    0.000    0.000 
#
# Total GULP energy -89415.383346 kJ/mol
# GULP energy per Si atom -5588.461459 kJ/mol
# Density = 2.402412 g / cm^3
# Si number density = 24.078928 Si / 1000 Ang^3
#
#
#
# Elastic Constant Matrix: (Units=GPa)
#
#
# Indices 1 2 3 4 5 6 
#
# 1 20.8854 20.9063 0.1330 0.0000 -2.2406 0.0000
# 2 20.9063 186.0388 33.1647 0.0000 -35.7095 0.0000
# 3 0.1330 33.1647 103.4600 0.0000 -15.8022 -0.0001
# 4 0.0000 0.0000 0.0000 23.7191 0.0000 -10.3992
# 5 -2.2406 -35.7095 -15.8022 0.0000 36.2021 0.0000
# 6 0.0000 0.0000 -0.0001 -10.3992 0.0000 39.4793
#
#
#
# Elastic Compliance Matrix: (Units=1/GPa)
#
#
# Indices 1 2 3 4 5 6 
#
# 1 0.054549 -0.006966 0.001745 0.000000 -0.002733 0.000000
# 2 -0.006966 0.007664 -0.001456 0.000000 0.006493 0.000000
# 3 0.001745 -0.001456 0.010636 0.000000 0.003315 0.000000
# 4 0.000000 0.000000 0.000000 0.047665 0.000000 0.012555
# 5 -0.002733 0.006493 0.003315 0.000000 0.035305 0.000000
# 6 0.000000 0.000000 0.000000 0.012555 0.000000 0.028637
#
#
# Mechanical properties :
#
#
# Convention : Reuss Voigt Hill
#
# Bulk Modulus (GPa) = 16.80785 46.53247 31.67016
# Shear Modulus (GPa) = 22.97373 36.95879 29.96626
#
# Velocity S-wave (km/s) = 3.09220 3.92203 3.53158
# Velocity P-wave (km/s) = 4.44347 6.31480 5.45991
#
# Compressibility (1/GPa) = 0.05949599
#
# Stress axis : x y z
#
# Youngs Moduli (GPa) = 18.33228 130.48281 94.01748
#
# Poissons Ratio (x) = 0.90890 -0.16409
# Poissons Ratio (y) = 0.12770 0.13689
# Poissons Ratio (z) = -0.03200 0.18999
#
# Static dielectric constant tensor:
#      x y z
#    x 1.909710 0.000000 0.011470 
#    y 0.000000 2.004940 0.000000 
#    z 0.011470 0.000000 1.920830 
# 
# From -- ./inp_files/71592.got.cif
#   From: 2010.05.17/outbox.cif.g08.bks.cpg/sg5_36_cif.got.tgz:71592.got - 2010.06.03 18:56:24.
