data_PCOD9127811
_publ_section_title
;
Structure prediction by ZEFSAII (Michael W. Deem and Ramdas Pophale) SiO2 
 PCOD9127811
Probable space group: C 2
;
_chemical_formula_sum "Si O2"
_cell_formula_units_Z 20
_cell_length_a 5.267096
_cell_length_b 27.917469
_cell_length_c 5.084016
_cell_angle_alpha 90.000000
_cell_angle_beta 82.687250
_cell_angle_gamma 90.000000
_cell_volume 741.493334
_symmetry_space_group_name_H-M "C 2"
_symmetry_group_IT_number 5
_symmetry_cell_setting 'monoclinic'
loop_
_space_group_symop_operation_xyz
x,y,z
-x,y,-z
1/2+x,1/2+y,z
1/2-x,1/2+y,-z
loop_
_atom_site_type_symbol
_atom_site_label
_atom_site_fract_x
_atom_site_fract_y
_atom_site_fract_z
Si Si1 0.000000 0.575300 0.500000
Si Si2 0.840690 0.902341 0.289480
Si Si3 0.677157 0.750784 0.212842
Si Si4 0.328470 0.639852 0.785079
Si Si5 0.500000 0.312234 0.500000
Si Si6 0.221911 0.498821 0.163399
O O1 0.086116 0.609989 0.722017
O O2 0.220036 0.537588 0.393825
O O3 0.000000 0.928695 0.500000
O O4 0.214483 0.852808 0.548617
O O5 0.646841 0.943600 0.237721
O O6 0.000000 0.889836 0.000000
O O7 0.500000 0.752887 0.500000
O O8 0.729848 0.695255 0.144587
O O9 0.939194 0.776442 0.270224
O O10 0.500000 0.771356 0.000000
O O11 0.500000 0.640676 0.500000
O O12 0.500000 0.619968 0.000000
O O13 0.500000 0.495975 0.000000
O O14 0.000000 0.515979 0.000000
#
# Coordination Sequence:
#
# PCOD9127811 Si02
#       6
#     2   4   4   4   2   4
#     4  12  29  44  82 108 148 212 265 318 388 476
#     4   9  23  45  66 101 144 191 247 316 377 455
#     4  10  23  42  70 108 145 190 244 311 381 460
#     4  10  25  47  70 107 155 192 253 320 389 459
#     4  10  23  42  76 100 146 192 253 300 384 460
#     4  11  29  50  75 110 156 207 263 326 392 461
#
# _framework density 26.972594000000001
#
# number of rings (size 3 to 8) (size 9 to 14) (size 15 to 20)
#    0.600    1.200    0.000    0.600   14.000    0.800 
#    5.400    6.000    0.000    0.000    0.000    0.000 
#    0.000    0.000    0.000    0.000    0.000    0.000 
#
# Total GULP energy -55812.729600 kJ/mol
# GULP energy per Si atom -5581.272960 kJ/mol
# Density = 2.691120 g / cm^3
# Si number density = 26.972594 Si / 1000 Ang^3
#
#
#
# Elastic Constant Matrix: (Units=GPa)
#
#
# Indices 1 2 3 4 5 6 
#
# 1 121.4994 34.0048 65.1954 0.0000 17.2020 0.0000
# 2 34.0048 176.3820 25.8976 0.0000 35.4506 0.0000
# 3 65.1954 25.8976 176.2378 0.0000 39.0450 0.0000
# 4 0.0000 0.0000 0.0000 30.5978 0.0000 23.8510
# 5 17.2020 35.4506 39.0450 0.0000 61.0502 0.0000
# 6 0.0000 0.0000 0.0000 23.8510 0.0000 22.6643
#
#
#
# Elastic Compliance Matrix: (Units=1/GPa)
#
#
# Indices 1 2 3 4 5 6 
#
# 1 0.010652 -0.001564 -0.003783 0.000000 0.000326 0.000000
# 2 -0.001564 0.006651 0.000418 0.000000 -0.003689 0.000000
# 3 -0.003783 0.000418 0.007957 0.000000 -0.004266 0.000000
# 4 0.000000 0.000000 0.000000 0.181887 0.000000 -0.191411
# 5 0.000326 -0.003689 -0.004266 0.000000 0.021159 0.000000
# 6 0.000000 0.000000 0.000000 -0.191411 0.000000 0.245556
#
#
# Mechanical properties :
#
#
# Convention : Reuss Voigt Hill
#
# Bulk Modulus (GPa) = 64.91903 80.47941 72.69922
# Shear Modulus (GPa) = 10.22804 46.13055 28.17929
#
# Velocity S-wave (km/s) = 1.94942 4.14003 3.23575
# Velocity P-wave (km/s) = 5.40257 7.26329 6.40091
#
# Compressibility (1/GPa) = 0.01540380
#
# Stress axis : x y z
#
# Youngs Moduli (GPa) = 93.88073 150.35320 125.67217
#
# Poissons Ratio (x) = 0.23510 0.47540
# Poissons Ratio (y) = 0.14680 -0.05258
# Poissons Ratio (z) = 0.35514 -0.06291
#
# Static dielectric constant tensor:
#      x y z
#    x 2.309630 0.000000 -0.096370 
#    y 0.000000 2.050220 0.000000 
#    z -0.096370 0.000000 2.248420 
# 
# From -- ./inp_files/1238.got.cif
#   From: 2010.05.17/outbox.cif.g08.bks.cpg/sg5_1_cif.got.tgz:1238.got - 2010.06.03 18:56:24.
