data_PCOD9127554
_publ_section_title
;
Structure prediction by ZEFSAII (Michael W. Deem and Ramdas Pophale) SiO2 
 PCOD9127554
Probable space group: C 2
;
_chemical_formula_sum "Si O2"
_cell_formula_units_Z 26
_cell_length_a 7.469961
_cell_length_b 20.956008
_cell_length_c 10.077806
_cell_angle_alpha 90.000000
_cell_angle_beta 63.733915
_cell_angle_gamma 90.000000
_cell_volume 1414.697421
_symmetry_space_group_name_H-M "C 2"
_symmetry_group_IT_number 5
_symmetry_cell_setting 'monoclinic'
loop_
_space_group_symop_operation_xyz
x,y,z
-x,y,-z
1/2+x,1/2+y,z
1/2-x,1/2+y,-z
loop_
_atom_site_type_symbol
_atom_site_label
_atom_site_fract_x
_atom_site_fract_y
_atom_site_fract_z
Si Si1 0.500000 0.851761 0.500000
Si Si2 0.000000 0.418173 0.000000
Si Si3 0.904574 0.775681 0.669590
Si Si4 0.597503 0.414670 0.595627
Si Si5 0.576553 0.485254 0.114580
Si Si6 0.445943 0.805616 0.805472
Si Si7 0.843638 0.706944 0.945693
Si Si8 0.000000 0.110494 0.000000
O O1 0.322344 0.893573 0.499018
O O2 0.411189 0.815901 0.658881
O O3 0.033442 0.371093 0.115741
O O4 0.799878 0.461237 0.074003
O O5 0.025679 0.849126 0.340458
O O6 0.665319 0.774256 0.740425
O O7 0.958869 0.738642 0.784688
O O8 0.000000 0.752437 0.500000
O O9 0.500000 0.446215 0.500000
O O10 0.572192 0.459406 0.727467
O O11 0.500000 0.456548 0.000000
O O12 0.545664 0.560797 0.104139
O O13 0.286172 0.761141 0.933814
O O14 0.692050 0.655571 0.934448
O O15 0.000000 0.679667 0.000000
#
# Coordination Sequence:
#
# PCOD9127554 Si02
#       8
#     2   2   4   4   4   4   4   2
#     4  12  22  32  60  96 128 162 192 236 328 376
#     4  12  19  38  64  94 123 164 192 252 314 368
#     4  11  20  39  61  96 130 151 189 260 314 370
#     4  11  20  37  57  92 129 157 189 250 312 372
#     4  10  23  37  61  85 120 161 213 249 292 358
#     4  12  21  37  64  97 130 155 197 248 316 381
#     4  12  24  43  67  86 123 167 211 254 307 361
#     4  10  25  44  60  84 119 162 228 256 282 352
#
# _framework density 18.378488000000001
#
# number of rings (size 3 to 8) (size 9 to 14) (size 15 to 20)
#    0.462    0.308    7.692    1.846    1.077    1.231 
#    0.000    0.000    6.769    0.000    0.000    0.000 
#    0.000    0.000    0.000    0.000    0.000    0.000 
#
# Total GULP energy -72472.866580 kJ/mol
# GULP energy per Si atom -5574.835891 kJ/mol
# Density = 1.833666 g / cm^3
# Si number density = 18.378488 Si / 1000 Ang^3
#
#
#
# Elastic Constant Matrix: (Units=GPa)
#
#
# Indices 1 2 3 4 5 6 
#
# 1 80.4057 20.0122 1.7310 0.0000 -2.9257 0.0000
# 2 20.0122 68.3576 39.2245 0.0000 0.4361 0.0000
# 3 1.7310 39.2245 117.8970 0.0000 7.5492 0.0000
# 4 0.0000 0.0000 0.0000 -155.0095 0.0000 44.6639
# 5 -2.9257 0.4361 7.5492 0.0000 31.2883 0.0000
# 6 0.0000 0.0000 0.0000 44.6639 0.0000 5.1190
#
#
#
# Elastic Compliance Matrix: (Units=1/GPa)
#
#
# Indices 1 2 3 4 5 6 
#
# 1 0.013628 -0.004751 0.001315 0.000000 0.001023 0.000000
# 2 -0.004751 0.019783 -0.006567 0.000000 0.000865 0.000000
# 3 0.001315 -0.006567 0.010801 0.000000 -0.002392 0.000000
# 4 0.000000 0.000000 0.000000 -0.001836 0.000000 0.016018
# 5 0.001023 0.000865 -0.002392 0.000000 0.032622 0.000000
# 6 0.000000 0.000000 0.000000 0.016018 0.000000 0.055592
#
#
# Mechanical properties :
#
#
# Convention : Reuss Voigt Hill
#
# Bulk Modulus (GPa) = 41.31318 43.17730 42.24524
# Shear Modulus (GPa) = 31.51314 -10.00761 10.75277
#
# Velocity S-wave (km/s) = 4.14536 -2.33605 2.42145
# Velocity P-wave (km/s) = 6.74091 4.03339 5.55464
#
# Compressibility (1/GPa) = 0.02420535
#
# Stress axis : x y z
#
# Youngs Moduli (GPa) = 73.37672 50.54912 92.58592
#
# Poissons Ratio (x) = 0.24015 -0.12175
# Poissons Ratio (y) = 0.34860 0.60804
# Poissons Ratio (z) = -0.09649 0.33197
#
# Static dielectric constant tensor:
#      x y z
#    x 1.667160 0.000000 0.052360 
#    y 0.000000 1.624570 0.000000 
#    z 0.052360 0.000000 1.856780 
# 
# From -- ./inp_files/16499.got.cif
#   From: 2010.05.17/outbox.cif.g08.bks.cpg/sg5_9_cif.got.tgz:16499.got - 2010.06.03 18:56:24.
