data_PCOD9127541
_publ_section_title
;
Structure prediction by ZEFSAII (Michael W. Deem and Ramdas Pophale) SiO2 
 PCOD9127541
Probable space group: C 2
;
_chemical_formula_sum "Si O2"
_cell_formula_units_Z 18
_cell_length_a 14.074083
_cell_length_b 6.924542
_cell_length_c 9.745428
_cell_angle_alpha 90.000000
_cell_angle_beta 139.146062
_cell_angle_gamma 90.000000
_cell_volume 621.266738
_symmetry_space_group_name_H-M "C 2"
_symmetry_group_IT_number 5
_symmetry_cell_setting 'monoclinic'
loop_
_space_group_symop_operation_xyz
x,y,z
-x,y,-z
1/2+x,1/2+y,z
1/2-x,1/2+y,-z
loop_
_atom_site_type_symbol
_atom_site_label
_atom_site_fract_x
_atom_site_fract_y
_atom_site_fract_z
Si Si1 0.500000 0.279150 0.500000
Si Si2 0.694247 0.928461 0.101781
Si Si3 0.413986 0.338603 0.032497
Si Si4 0.138201 0.416599 0.579006
Si Si5 0.418885 0.724783 0.737625
O O1 0.366853 0.388867 0.284802
O O2 0.573531 0.128430 0.472181
O O3 0.725498 0.457368 0.175731
O O4 0.646733 0.842001 0.202379
O O5 0.576104 0.817655 0.882907
O O6 0.330360 0.144181 0.983805
O O7 0.500000 0.242612 0.000000
O O8 0.534391 0.499582 0.206673
O O9 0.178651 0.279550 0.498265
O O10 0.000000 0.320264 0.500000
#
# Coordination Sequence:
#
# PCOD9127541 Si02
#       5
#     2   4   4   4   4
#     4  10  22  50  74 116 166 188 272 316 396 478
#     4  11  24  45  77 116 153 206 258 327 400 461
#     4  12  23  47  74 114 156 197 265 321 392 472
#     4  10  25  48  74 116 153 207 261 319 395 469
#     4  11  22  50  76 109 158 206 263 323 388 474
#
# _framework density 28.973064999999998
#
# number of rings (size 3 to 8) (size 9 to 14) (size 15 to 20)
#    0.667    0.444    6.667    0.000    1.556    3.556 
#   12.000    0.000    0.000    0.000    0.000    0.000 
#    0.000    0.000    0.000    0.000    0.000    0.000 
#
# Total GULP energy -50153.092632 kJ/mol
# GULP energy per Si atom -5572.565848 kJ/mol
# Density = 2.890712 g / cm^3
# Si number density = 28.973065 Si / 1000 Ang^3
#
#
#
# Elastic Constant Matrix: (Units=GPa)
#
#
# Indices 1 2 3 4 5 6 
#
# 1 102.0711 20.3720 13.9595 0.0000 7.9918 0.0000
# 2 20.3720 223.8576 65.0994 0.0000 13.3281 0.0000
# 3 13.9595 65.0994 137.8983 0.0000 28.8669 0.0000
# 4 0.0000 0.0000 0.0000 48.1123 0.0000 12.4246
# 5 7.9918 13.3281 28.8669 0.0000 49.7188 0.0000
# 6 0.0000 0.0000 0.0000 12.4246 0.0000 25.5931
#
#
#
# Elastic Compliance Matrix: (Units=1/GPa)
#
#
# Indices 1 2 3 4 5 6 
#
# 1 0.010093 -0.000722 -0.000435 0.000000 -0.001176 0.000000
# 2 -0.000722 0.005230 -0.002421 0.000000 0.000120 0.000000
# 3 -0.000435 -0.002421 0.009435 0.000000 -0.004759 0.000000
# 4 0.000000 0.000000 0.000000 0.023764 0.000000 -0.011537
# 5 -0.001176 0.000120 -0.004759 0.000000 0.023033 0.000000
# 6 0.000000 0.000000 0.000000 -0.011537 0.000000 0.044674
#
#
# Mechanical properties :
#
#
# Convention : Reuss Voigt Hill
#
# Bulk Modulus (GPa) = 56.81052 73.63209 65.22131
# Shear Modulus (GPa) = 38.68460 48.97793 43.83127
#
# Velocity S-wave (km/s) = 3.65799 4.11599 3.89373
# Velocity P-wave (km/s) = 6.12306 6.93236 6.54024
#
# Compressibility (1/GPa) = 0.01760237
#
# Stress axis : x y z
#
# Youngs Moduli (GPa) = 99.08106 191.21557 105.99095
#
# Poissons Ratio (x) = 0.13807 0.04606
# Poissons Ratio (y) = 0.07154 0.25658
# Poissons Ratio (z) = 0.04306 0.46290
#
# Static dielectric constant tensor:
#      x y z
#    x 2.581550 0.000000 -0.235120 
#    y 0.000000 2.287490 0.000000 
#    z -0.235120 0.000000 2.308110 
# 
# From -- ./inp_files/44560.got.cif
#   From: 2010.05.17/outbox.cif.g08.bks.cpg/sg5_23_cif.got.tgz:44560.got - 2010.06.03 18:56:24.
