data_PCOD9127975
_publ_section_title
;
Structure prediction by ZEFSAII (Michael W. Deem and Ramdas Pophale) SiO2 
 PCOD9127975
Probable space group: C 2
;
_chemical_formula_sum "Si O2"
_cell_formula_units_Z 28
_cell_length_a 13.043272
_cell_length_b 8.387974
_cell_length_c 9.548022
_cell_angle_alpha 90.000000
_cell_angle_beta 103.993047
_cell_angle_gamma 90.000000
_cell_volume 1013.617951
_symmetry_space_group_name_H-M "C 2"
_symmetry_group_IT_number 5
_symmetry_cell_setting 'monoclinic'
loop_
_space_group_symop_operation_xyz
x,y,z
-x,y,-z
1/2+x,1/2+y,z
1/2-x,1/2+y,-z
loop_
_atom_site_type_symbol
_atom_site_label
_atom_site_fract_x
_atom_site_fract_y
_atom_site_fract_z
Si Si1 0.657582 0.156700 0.185552
Si Si2 0.168057 0.183399 0.305981
Si Si3 0.548583 0.868328 0.714164
Si Si4 0.676143 0.869509 0.041264
Si Si5 0.741088 0.828731 0.600604
Si Si6 0.498892 0.241589 0.661625
Si Si7 0.402726 0.429022 0.054621
O O1 0.772286 0.177633 0.285481
O O2 0.621600 0.238861 0.322161
O O3 0.616368 0.989452 0.125907
O O4 0.621948 0.276821 0.054515
O O5 0.238747 0.288276 0.434523
O O6 0.048053 0.240704 0.301470
O O7 0.194697 0.223944 0.152660
O O8 0.615671 0.838700 0.879989
O O9 0.615409 0.871985 0.592190
O O10 0.527203 0.060983 0.711191
O O11 0.796660 0.001893 0.656137
O O12 0.781274 0.974286 0.043794
O O13 0.500000 0.276626 0.500000
O O14 0.555278 0.364518 0.783490
O O15 0.500000 0.511584 0.000000
#
# Coordination Sequence:
#
# PCOD9127975 Si02
#       7
#     4   4   4   4   4   4   4
#     4  11  24  47  73 110 154 201 266 332 393 488
#     4  12  28  48  82 117 155 213 272 335 418 492
#     4  12  25  48  79 111 160 212 265 324 410 485
#     4  12  24  46  78 114 154 213 269 332 409 490
#     4  12  28  52  76 116 160 206 272 342 409 493
#     4  11  23  43  75 110 147 206 263 317 401 483
#     4  10  23  44  71 111 154 206 266 330 402 486
#
# _framework density 27.623822000000001
#
# number of rings (size 3 to 8) (size 9 to 14) (size 15 to 20)
#    0.000    0.571    4.286    3.429    4.000    0.000 
#    5.143    1.429    0.000    0.000    0.000    0.000 
#    0.000    0.000    0.000    0.000    0.000    0.000 
#
# Total GULP energy -78047.502862 kJ/mol
# GULP energy per Si atom -5574.821633 kJ/mol
# Density = 2.756095 g / cm^3
# Si number density = 27.623822 Si / 1000 Ang^3
#
#
#
# Elastic Constant Matrix: (Units=GPa)
#
#
# Indices 1 2 3 4 5 6 
#
# 1 88.3804 11.6265 30.3090 0.0000 5.1611 0.0000
# 2 11.6265 94.4999 54.0846 0.0000 -9.2609 0.0000
# 3 30.3090 54.0846 224.6508 0.0000 -11.3838 0.0000
# 4 0.0000 0.0000 0.0000 53.4127 0.0000 8.1765
# 5 5.1611 -9.2609 -11.3838 0.0000 50.4690 0.0000
# 6 0.0000 0.0000 0.0000 8.1765 0.0000 24.4865
#
#
#
# Elastic Compliance Matrix: (Units=1/GPa)
#
#
# Indices 1 2 3 4 5 6 
#
# 1 0.012040 -0.000777 -0.001524 0.000000 -0.001718 0.000000
# 2 -0.000777 0.012453 -0.002805 0.000000 0.001732 0.000000
# 3 -0.001524 -0.002805 0.005376 0.000000 0.000854 0.000000
# 4 0.000000 0.000000 0.000000 0.019731 0.000000 -0.006588
# 5 -0.001718 0.001732 0.000854 0.000000 0.020500 0.000000
# 6 0.000000 0.000000 0.000000 -0.006588 0.000000 0.043039
#
#
# Mechanical properties :
#
#
# Convention : Reuss Voigt Hill
#
# Bulk Modulus (GPa) = 50.87839 66.61902 58.74870
# Shear Modulus (GPa) = 38.48999 46.44103 42.46551
#
# Velocity S-wave (km/s) = 3.73683 4.10469 3.92507
# Velocity P-wave (km/s) = 6.08907 6.82887 6.46955
#
# Compressibility (1/GPa) = 0.01965471
#
# Stress axis : x y z
#
# Youngs Moduli (GPa) = 83.05628 80.30211 186.02326
#
# Poissons Ratio (x) = 0.06241 0.28356
# Poissons Ratio (y) = 0.06455 0.52188
# Poissons Ratio (z) = 0.12660 0.22528
#
# Static dielectric constant tensor:
#      x y z
#    x 2.568900 0.000000 -0.071040 
#    y 0.000000 2.253380 0.000000 
#    z -0.071040 0.000000 2.128610 
# 
# From -- ./inp_files/23664.got.cif
#   From: 2010.05.17/outbox.cif.g08.bks.cpg/sg5_12_cif.got.tgz:23664.got - 2010.06.03 18:56:24.
