data_PCOD9127199
_publ_section_title
;
Structure prediction by ZEFSAII (Michael W. Deem and Ramdas Pophale) SiO2 
 PCOD9127199
Probable space group: C 2
;
_chemical_formula_sum "Si O2"
_cell_formula_units_Z 28
_cell_length_a 25.070178
_cell_length_b 4.892262
_cell_length_c 8.971772
_cell_angle_alpha 90.000000
_cell_angle_beta 87.056150
_cell_angle_gamma 90.000000
_cell_volume 1098.934620
_symmetry_space_group_name_H-M "C 2"
_symmetry_group_IT_number 5
_symmetry_cell_setting 'monoclinic'
loop_
_space_group_symop_operation_xyz
x,y,z
-x,y,-z
1/2+x,1/2+y,z
1/2-x,1/2+y,-z
loop_
_atom_site_type_symbol
_atom_site_label
_atom_site_fract_x
_atom_site_fract_y
_atom_site_fract_z
Si Si1 0.132522 0.758940 0.660085
Si Si2 0.745653 0.035051 0.609032
Si Si3 0.567966 0.730290 0.727575
Si Si4 0.100307 0.874895 0.336289
Si Si5 0.500000 0.428081 0.500000
Si Si6 0.000000 0.340489 0.000000
Si Si7 0.608810 0.898066 0.136112
Si Si8 0.781160 0.158969 0.928953
O O1 0.187826 0.616175 0.680521
O O2 0.086128 0.539953 0.702465
O O3 0.132322 0.840568 0.485124
O O4 0.118404 0.034899 0.746967
O O5 0.757829 0.241268 0.469920
O O6 0.781402 0.082403 0.751326
O O7 0.540635 0.618284 0.583084
O O8 0.524323 0.677777 0.859417
O O9 0.125974 0.673902 0.213554
O O10 0.039872 0.770080 0.384526
O O11 0.095422 0.172618 0.264763
O O12 0.055063 0.472301 0.052413
O O13 0.659533 0.772825 0.043640
O O14 0.739503 0.401509 0.973640
#
# Coordination Sequence:
#
# PCOD9127199 Si02
#       8
#     4   4   4   4   2   2   4   4
#     4  11  25  42  75 102 141 175 240 288 358 407
#     4  12  25  47  79 109 141 187 248 306 359 426
#     4  11  26  43  67 101 143 182 228 290 347 426
#     4  11  23  43  70 102 140 185 228 297 341 429
#     4  10  22  44  68  98 138 186 240 274 356 412
#     4  12  30  44  70 102 148 182 236 284 354 420
#     4  12  27  46  71 102 147 184 237 282 365 412
#     4  12  28  50  77 106 150 195 242 299 368 438
#
# _framework density 25.479223999999999
#
# number of rings (size 3 to 8) (size 9 to 14) (size 15 to 20)
#    0.000    0.571    1.429    6.000    8.000    3.429 
#    0.000    0.000    0.000    0.000    0.000    0.000 
#    0.000    0.000    0.000    0.000    0.000    0.000 
#
# Total GULP energy -78358.408867 kJ/mol
# GULP energy per Si atom -5597.029205 kJ/mol
# Density = 2.542123 g / cm^3
# Si number density = 25.479224 Si / 1000 Ang^3
#
#
#
# Elastic Constant Matrix: (Units=GPa)
#
#
# Indices 1 2 3 4 5 6 
#
# 1 113.2184 4.6697 37.3761 0.0000 0.3703 0.0000
# 2 4.6697 108.5892 28.5715 0.0000 3.2237 0.0000
# 3 37.3761 28.5715 103.5358 0.0000 -3.2548 0.0000
# 4 0.0000 0.0000 0.0000 26.8181 0.0000 -14.4723
# 5 0.3703 3.2237 -3.2548 0.0000 36.7829 0.0000
# 6 0.0000 0.0000 0.0000 -14.4723 0.0000 27.4497
#
#
#
# Elastic Compliance Matrix: (Units=1/GPa)
#
#
# Indices 1 2 3 4 5 6 
#
# 1 0.010068 0.000584 -0.003811 0.000000 -0.000490 0.000000
# 2 0.000584 0.010010 -0.003009 0.000000 -0.001149 0.000000
# 3 -0.003811 -0.003009 0.011907 0.000000 0.001356 0.000000
# 4 0.000000 0.000000 0.000000 0.052116 0.000000 0.027477
# 5 -0.000490 -0.001149 0.001356 0.000000 0.027412 0.000000
# 6 0.000000 0.000000 0.000000 0.027477 0.000000 0.050917
#
#
# Mechanical properties :
#
#
# Convention : Reuss Voigt Hill
#
# Bulk Modulus (GPa) = 51.24808 51.84200 51.54504
# Shear Modulus (GPa) = 27.56224 35.19190 31.37707
#
# Velocity S-wave (km/s) = 3.29257 3.72048 3.51305
# Velocity P-wave (km/s) = 5.88320 6.23273 6.06048
#
# Compressibility (1/GPa) = 0.01951292
#
# Stress axis : x y z
#
# Youngs Moduli (GPa) = 99.32293 99.90184 83.98126
#
# Poissons Ratio (x) = -0.05838 0.32007
# Poissons Ratio (y) = -0.05804 0.25273
# Poissons Ratio (z) = 0.37854 0.30064
#
# Static dielectric constant tensor:
#      x y z
#    x 2.103170 0.000000 0.012830 
#    y 0.000000 1.922060 0.000000 
#    z 0.012830 0.000000 2.024820 
# 
# From -- ./inp_files/31386.got.cif
#   From: 2010.05.17/outbox.cif.g08.bks.cpg/sg5_16_cif.got.tgz:31386.got - 2010.06.03 18:56:24.
