data_PCOD9127756
_publ_section_title
;
Structure prediction by ZEFSAII (Michael W. Deem and Ramdas Pophale) SiO2 
 PCOD9127756
Probable space group: C 2
;
_chemical_formula_sum "Si O2"
_cell_formula_units_Z 18
_cell_length_a 4.936835
_cell_length_b 12.873875
_cell_length_c 10.804695
_cell_angle_alpha 90.000000
_cell_angle_beta 83.311911
_cell_angle_gamma 90.000000
_cell_volume 682.032210
_symmetry_space_group_name_H-M "C 2"
_symmetry_group_IT_number 5
_symmetry_cell_setting 'monoclinic'
loop_
_space_group_symop_operation_xyz
x,y,z
-x,y,-z
1/2+x,1/2+y,z
1/2-x,1/2+y,-z
loop_
_atom_site_type_symbol
_atom_site_label
_atom_site_fract_x
_atom_site_fract_y
_atom_site_fract_z
Si Si1 0.500000 0.449381 0.500000
Si Si2 0.826852 0.315562 0.284319
Si Si3 0.843797 0.578266 0.682717
Si Si4 0.740099 0.740293 0.084241
Si Si5 0.679636 0.520723 0.185502
O O1 0.704986 0.372293 0.412777
O O2 0.700393 0.521143 0.574276
O O3 0.702559 0.200785 0.303974
O O4 0.746414 0.400010 0.183792
O O5 0.137334 0.288141 0.221828
O O6 0.646528 0.531138 0.798990
O O7 0.155074 0.554330 0.696807
O O8 0.777655 0.616012 0.098403
O O9 0.500000 0.751806 0.000000
O O10 0.000000 0.782744 0.000000
#
# Coordination Sequence:
#
# PCOD9127756 Si02
#       5
#     2   4   4   4   4
#     4  10  24  42  72 110 146 190 234 286 354 432
#     4  10  24  45  73 103 143 192 235 289 362 424
#     4  10  23  42  65 100 141 181 234 289 340 416
#     4  11  24  46  73 104 144 187 239 299 351 418
#     4  10  23  44  67  97 137 182 237 293 346 410
#
# _framework density 26.391717
#
# number of rings (size 3 to 8) (size 9 to 14) (size 15 to 20)
#    0.000    1.778    0.000    2.667    0.000   20.444 
#    0.000    6.667    0.000    0.000    0.000    0.000 
#    0.000    0.000    0.000    0.000    0.000    0.000 
#
# Total GULP energy -50106.824799 kJ/mol
# GULP energy per Si atom -5567.424978 kJ/mol
# Density = 2.633165 g / cm^3
# Si number density = 26.391717 Si / 1000 Ang^3
#
#
#
# Elastic Constant Matrix: (Units=GPa)
#
#
# Indices 1 2 3 4 5 6 
#
# 1 139.3836 36.7718 57.0779 0.0000 -8.2405 0.0000
# 2 36.7718 225.8842 43.3412 0.0000 -11.9272 0.0000
# 3 57.0779 43.3412 113.4000 0.0000 -30.0028 0.0000
# 4 0.0000 0.0000 0.0000 50.3026 0.0000 -0.8001
# 5 -8.2405 -11.9272 -30.0028 0.0000 46.4598 0.0000
# 6 0.0000 0.0000 0.0000 -0.8001 0.0000 36.8331
#
#
#
# Elastic Compliance Matrix: (Units=1/GPa)
#
#
# Indices 1 2 3 4 5 6 
#
# 1 0.009229 -0.000663 -0.004829 0.000000 -0.001652 0.000000
# 2 -0.000663 0.004825 -0.001464 0.000000 0.000176 0.000000
# 3 -0.004829 -0.001464 0.013848 0.000000 0.007711 0.000000
# 4 0.000000 0.000000 0.000000 0.019887 0.000000 0.000432
# 5 -0.001652 0.000176 0.007711 0.000000 0.026256 0.000000
# 6 0.000000 0.000000 0.000000 0.000432 0.000000 0.027159
#
#
# Mechanical properties :
#
#
# Convention : Reuss Voigt Hill
#
# Bulk Modulus (GPa) = 71.47464 83.67218 77.57341
# Shear Modulus (GPa) = 41.74345 49.48423 45.61384
#
# Velocity S-wave (km/s) = 3.98136 4.33481 4.16184
# Velocity P-wave (km/s) = 6.94809 7.53836 7.24924
#
# Compressibility (1/GPa) = 0.01399098
#
# Stress axis : x y z
#
# Youngs Moduli (GPa) = 108.35200 207.24706 72.21027
#
# Poissons Ratio (x) = 0.13742 0.34870
# Poissons Ratio (y) = 0.07185 0.10571
# Poissons Ratio (z) = 0.52322 0.30339
#
# Static dielectric constant tensor:
#      x y z
#    x 2.071680 0.000000 -0.019560 
#    y 0.000000 2.016130 0.000000 
#    z -0.019560 0.000000 2.228600 
# 
# From -- ./inp_files/32948.got.cif
#   From: 2010.05.17/outbox.cif.g08.bks.cpg/sg5_17_cif.got.tgz:32948.got - 2010.06.03 18:56:24.
