data_PCOD9127853
_publ_section_title
;
Structure prediction by ZEFSAII (Michael W. Deem and Ramdas Pophale) SiO2 
 PCOD9127853
Probable space group: C 2
;
_chemical_formula_sum "Si O2"
_cell_formula_units_Z 26
_cell_length_a 15.905376
_cell_length_b 9.142320
_cell_length_c 20.325699
_cell_angle_alpha 90.000000
_cell_angle_beta 21.143888
_cell_angle_gamma 90.000000
_cell_volume 1066.118891
_symmetry_space_group_name_H-M "C 2"
_symmetry_group_IT_number 5
_symmetry_cell_setting 'monoclinic'
loop_
_space_group_symop_operation_xyz
x,y,z
-x,y,-z
1/2+x,1/2+y,z
1/2-x,1/2+y,-z
loop_
_atom_site_type_symbol
_atom_site_label
_atom_site_fract_x
_atom_site_fract_y
_atom_site_fract_z
Si Si1 0.770106 0.948820 0.814308
Si Si2 0.946903 0.459389 0.416932
Si Si3 0.151516 0.296235 0.033147
Si Si4 0.198938 0.682178 0.300587
Si Si5 0.653029 0.671804 0.564704
Si Si6 0.000000 0.240334 0.500000
Si Si7 0.946329 0.602595 0.222628
O O1 0.785131 0.863095 0.872430
O O2 0.846988 0.836573 0.701741
O O3 0.500000 0.982033 0.000000
O O4 0.922654 0.091896 0.707874
O O5 0.175918 0.557170 0.261481
O O6 0.952967 0.348434 0.473578
O O7 0.746422 0.583131 0.559320
O O8 0.894931 0.343890 0.396584
O O9 0.331095 0.209018 0.947700
O O10 0.950464 0.192099 0.150492
O O11 0.027715 0.436849 0.155113
O O12 0.000000 0.656578 0.500000
O O13 0.847761 0.636172 0.367362
O O14 0.233715 0.142417 0.328767
#
# Coordination Sequence:
#
# PCOD9127853 Si02
#       7
#     4   4   4   4   4   2   4
#     4  10  23  43  67 101 142 186 237 301 354 421
#     4  11  23  41  73 100 142 184 247 295 352 431
#     4  11  26  43  72 103 152 182 245 301 363 418
#     4  11  23  42  70 102 139 197 235 295 362 438
#     4  11  24  45  71 102 143 193 240 293 364 434
#     4  10  24  44  74 106 148 190 246 296 358 428
#     4  11  26  45  73 105 145 196 237 304 356 439
#
# _framework density 24.387523000000002
#
# number of rings (size 3 to 8) (size 9 to 14) (size 15 to 20)
#    0.000    1.231    0.769    4.615   11.846    2.462 
#    0.000    3.846    0.000    0.000    0.000    0.000 
#    0.000    0.000    0.000    0.000    0.000    0.000 
#
# Total GULP energy -72734.674898 kJ/mol
# GULP energy per Si atom -5594.974992 kJ/mol
# Density = 2.433202 g / cm^3
# Si number density = 24.387523 Si / 1000 Ang^3
#
#
#
# Elastic Constant Matrix: (Units=GPa)
#
#
# Indices 1 2 3 4 5 6 
#
# 1 100.7193 55.7023 38.0656 -0.0076 -25.3012 -0.0001
# 2 55.7023 174.9117 73.1028 -0.0223 -42.7483 -0.0019
# 3 38.0656 73.1028 86.0411 -0.0469 -31.1087 0.0023
# 4 -0.0076 -0.0223 -0.0469 41.2723 0.0057 -19.9855
# 5 -25.3012 -42.7483 -31.1087 0.0057 52.5225 -0.0018
# 6 -0.0001 -0.0019 0.0023 -19.9855 -0.0018 51.9346
#
#
#
# Elastic Compliance Matrix: (Units=1/GPa)
#
#
# Indices 1 2 3 4 5 6 
#
# 1 0.012932 -0.002286 -0.002799 -0.000003 0.002711 -0.000001
# 2 -0.002286 0.009807 -0.006150 -0.000003 0.003238 0.000000
# 3 -0.002799 -0.006150 0.020091 0.000022 0.005546 0.000007
# 4 -0.000003 -0.000003 0.000022 0.029778 0.000006 0.011459
# 5 0.002711 0.003238 0.005546 0.000006 0.026266 0.000003
# 6 -0.000001 0.000000 0.000007 0.011459 0.000003 0.023665
#
#
# Mechanical properties :
#
#
# Convention : Reuss Voigt Hill
#
# Bulk Modulus (GPa) = 49.11568 77.26818 63.19193
# Shear Modulus (GPa) = 32.93923 42.13264 37.53593
#
# Velocity S-wave (km/s) = 3.67912 4.16099 3.92745
# Velocity P-wave (km/s) = 6.18314 7.40522 6.82161
#
# Compressibility (1/GPa) = 0.02036010
#
# Stress axis : x y z
#
# Youngs Moduli (GPa) = 77.33005 101.96883 49.77343
#
# Poissons Ratio (x) = 0.23309 0.13930
# Poissons Ratio (y) = 0.17677 0.30612
# Poissons Ratio (z) = 0.21642 0.62713
#
# Static dielectric constant tensor:
#      x y z
#    x 2.047560 0.000000 0.011810 
#    y 0.000000 1.924900 0.000010 
#    z 0.011810 0.000010 1.918890 
# 
# From -- ./inp_files/69147.got.cif
#   From: 2010.05.17/outbox.cif.g08.bks.cpg/sg5_35_cif.got.tgz:69147.got - 2010.06.03 18:56:24.
