data_PCOD9127976
_publ_section_title
;
Structure prediction by ZEFSAII (Michael W. Deem and Ramdas Pophale) SiO2 
 PCOD9127976
Probable space group: C 2
;
_chemical_formula_sum "Si O2"
_cell_formula_units_Z 20
_cell_length_a 10.789999
_cell_length_b 4.972442
_cell_length_c 25.114429
_cell_angle_alpha 90.000000
_cell_angle_beta 145.863916
_cell_angle_gamma 90.000000
_cell_volume 756.138658
_symmetry_space_group_name_H-M "C 2"
_symmetry_group_IT_number 5
_symmetry_cell_setting 'monoclinic'
loop_
_space_group_symop_operation_xyz
x,y,z
-x,y,-z
1/2+x,1/2+y,z
1/2-x,1/2+y,-z
loop_
_atom_site_type_symbol
_atom_site_label
_atom_site_fract_x
_atom_site_fract_y
_atom_site_fract_z
Si Si1 0.184089 0.590280 0.388047
Si Si2 0.343559 0.090427 0.186830
Si Si3 0.002259 0.879101 0.583942
Si Si4 0.105498 0.931043 0.941963
Si Si5 0.063649 0.095990 0.230146
O O1 0.301358 0.383779 0.470441
O O2 0.347883 0.604877 0.394471
O O3 0.958728 0.484116 0.282152
O O4 0.120512 0.843836 0.402651
O O5 0.415799 0.400511 0.214042
O O6 0.086711 0.045373 0.089029
O O7 0.462210 0.893816 0.187262
O O8 0.193005 0.653169 0.660186
O O9 0.982603 0.949439 0.841757
O O10 0.309565 0.136440 0.014591
#
# Coordination Sequence:
#
# PCOD9127976 Si02
#       5
#     4   4   4   4   4
#     4  10  23  44  71 114 154 210 264 328 398 489
#     4  11  25  47  74 108 153 202 257 330 405 484
#     4  10  23  44  71 114 154 210 264 328 398 489
#     4  12  26  46  74 110 144 196 262 330 406 482
#     4  11  25  47  74 108 153 202 257 330 405 484
#
# _framework density 26.450174000000001
#
# number of rings (size 3 to 8) (size 9 to 14) (size 15 to 20)
#    0.000    1.200    2.000    2.400    0.000   14.400 
#    3.600    2.000    0.000    0.000    0.000    0.000 
#    0.000    0.000    0.000    0.000    0.000    0.000 
#
# Total GULP energy -55672.786497 kJ/mol
# GULP energy per Si atom -5567.278650 kJ/mol
# Density = 2.638997 g / cm^3
# Si number density = 26.450174 Si / 1000 Ang^3
#
#
#
# Elastic Constant Matrix: (Units=GPa)
#
#
# Indices 1 2 3 4 5 6 
#
# 1 115.6964 44.3038 42.9502 -0.0008 2.6265 0.0002
# 2 44.3038 124.0656 12.2741 -0.0023 12.4863 0.0016
# 3 42.9502 12.2741 115.1857 -0.0007 10.5790 0.0005
# 4 -0.0008 -0.0023 -0.0007 31.9460 0.0006 1.0976
# 5 2.6265 12.4863 10.5790 0.0006 42.5565 -0.0004
# 6 0.0002 0.0016 0.0005 1.0976 -0.0004 27.9381
#
#
#
# Elastic Compliance Matrix: (Units=1/GPa)
#
#
# Indices 1 2 3 4 5 6 
#
# 1 0.011600 -0.003886 -0.004042 0.000000 0.001429 0.000000
# 2 -0.003886 0.009659 0.000673 0.000001 -0.002762 -0.000001
# 3 -0.004042 0.000673 0.010349 0.000000 -0.002521 0.000000
# 4 0.000000 0.000001 0.000000 0.031345 -0.000001 -0.001231
# 5 0.001429 -0.002762 -0.002521 -0.000001 0.024847 0.000001
# 6 0.000000 -0.000001 0.000000 -0.001231 0.000001 0.035842
#
#
# Mechanical properties :
#
#
# Convention : Reuss Voigt Hill
#
# Bulk Modulus (GPa) = 58.48851 61.55599 60.02225
# Shear Modulus (GPa) = 34.75820 37.51608 36.13714
#
# Velocity S-wave (km/s) = 3.62899 3.77021 3.70027
# Velocity P-wave (km/s) = 6.30239 6.50197 6.40296
#
# Compressibility (1/GPa) = 0.01709737
#
# Stress axis : x y z
#
# Youngs Moduli (GPa) = 86.20930 103.52693 96.63039
#
# Poissons Ratio (x) = 0.40232 0.39062
# Poissons Ratio (y) = 0.33502 -0.06507
# Poissons Ratio (z) = 0.34849 -0.06972
#
# Static dielectric constant tensor:
#      x y z
#    x 2.396440 0.000000 -0.023320 
#    y 0.000000 2.019110 0.000000 
#    z -0.023320 0.000000 2.052360 
# 
# From -- ./inp_files/48574.got.cif
#   From: 2010.05.17/outbox.cif.g08.bks.cpg/sg5_25_cif.got.tgz:48574.got - 2010.06.03 18:56:24.
