data_PCOD9127391
_publ_section_title
;
Structure prediction by ZEFSAII (Michael W. Deem and Ramdas Pophale) SiO2 
 PCOD9127391
Probable space group: C 2
;
_chemical_formula_sum "Si O2"
_cell_formula_units_Z 28
_cell_length_a 11.278485
_cell_length_b 9.131961
_cell_length_c 15.114486
_cell_angle_alpha 90.000000
_cell_angle_beta 117.136750
_cell_angle_gamma 90.000000
_cell_volume 1385.349571
_symmetry_space_group_name_H-M "C 2"
_symmetry_group_IT_number 5
_symmetry_cell_setting 'monoclinic'
loop_
_space_group_symop_operation_xyz
x,y,z
-x,y,-z
1/2+x,1/2+y,z
1/2-x,1/2+y,-z
loop_
_atom_site_type_symbol
_atom_site_label
_atom_site_fract_x
_atom_site_fract_y
_atom_site_fract_z
Si Si1 0.500000 0.847160 0.500000
Si Si2 0.149822 0.500435 0.798159
Si Si3 0.000000 0.850749 0.500000
Si Si4 0.427032 0.099215 0.601530
Si Si5 0.400875 0.168789 0.038117
Si Si6 0.963615 0.982566 0.889368
Si Si7 0.819780 0.097866 0.353102
Si Si8 0.143273 0.178269 0.829664
O O1 0.403124 0.740636 0.412459
O O2 0.418523 0.956220 0.536294
O O3 0.132076 0.576492 0.886860
O O4 0.304847 0.481650 0.827248
O O5 0.089482 0.338091 0.786307
O O6 0.070982 0.589467 0.697205
O O7 0.079397 0.742830 0.461365
O O8 0.096331 0.956559 0.588272
O O9 0.317695 0.098860 0.640617
O O10 0.473821 0.319552 0.090879
O O11 0.500000 0.095647 0.000000
O O12 0.264489 0.200582 0.939482
O O13 0.033183 0.079134 0.838747
O O14 0.000000 0.040865 0.000000
O O15 0.804108 0.105228 0.242511
#
# Coordination Sequence:
#
# PCOD9127391 Si02
#       8
#     2   4   2   4   4   4   4   4
#     4  10  22  46  66  96 134 168 218 278 336 390
#     4  12  25  43  66 100 132 177 221 269 332 391
#     4  10  26  46  68 100 128 176 222 274 346 384
#     4  11  24  44  70  97 131 174 223 271 334 401
#     4  11  22  43  67  93 136 175 214 272 326 389
#     4  11  24  45  65  93 143 176 219 275 320 386
#     4  11  24  44  68 100 133 169 221 280 331 393
#     4  12  23  42  67  98 132 177 217 268 332 387
#
# _framework density 20.211504999999999
#
# number of rings (size 3 to 8) (size 9 to 14) (size 15 to 20)
#    0.000    0.857    5.714    1.714    2.000    1.714 
#   12.857    0.000    0.000    0.000    0.000    0.000 
#    0.000    0.000    0.000    0.000    0.000    0.000 
#
# Total GULP energy -78290.803471 kJ/mol
# GULP energy per Si atom -5592.200248 kJ/mol
# Density = 2.016550 g / cm^3
# Si number density = 20.211505 Si / 1000 Ang^3
#
#
#
# Elastic Constant Matrix: (Units=GPa)
#
#
# Indices 1 2 3 4 5 6 
#
# 1 126.4402 60.7157 20.0525 0.0000 -23.9214 0.0000
# 2 60.7157 111.5149 39.1565 0.0000 -13.5207 0.0000
# 3 20.0525 39.1565 64.6369 0.0000 -12.2343 0.0000
# 4 0.0000 0.0000 0.0000 19.4151 0.0000 -8.0490
# 5 -23.9214 -13.5207 -12.2343 0.0000 39.3287 0.0000
# 6 0.0000 0.0000 0.0000 -8.0490 0.0000 11.5425
#
#
#
# Elastic Compliance Matrix: (Units=1/GPa)
#
#
# Indices 1 2 3 4 5 6 
#
# 1 0.011670 -0.006084 0.001076 0.000000 0.005342 0.000000
# 2 -0.006084 0.014695 -0.007181 0.000000 -0.000883 0.000000
# 3 0.001076 -0.007181 0.020342 0.000000 0.004514 0.000000
# 4 0.000000 0.000000 0.000000 0.072452 0.000000 0.050523
# 5 0.005342 -0.000883 0.004514 0.000000 0.029776 0.000000
# 6 0.000000 0.000000 0.000000 0.050523 0.000000 0.121868
#
#
# Mechanical properties :
#
#
# Convention : Reuss Voigt Hill
#
# Bulk Modulus (GPa) = 44.78671 60.27125 52.52898
# Shear Modulus (GPa) = 16.52213 26.23508 21.37861
#
# Velocity S-wave (km/s) = 2.86223 3.60672 3.25583
# Velocity P-wave (km/s) = 5.75589 6.87238 6.33876
#
# Compressibility (1/GPa) = 0.02232805
#
# Stress axis : x y z
#
# Youngs Moduli (GPa) = 85.68650 68.05153 49.15956
#
# Poissons Ratio (x) = 0.41405 -0.05291
# Poissons Ratio (y) = 0.52135 0.35304
# Poissons Ratio (z) = -0.09223 0.48871
#
# Static dielectric constant tensor:
#      x y z
#    x 1.690290 0.000000 0.004280 
#    y 0.000000 1.704620 0.000000 
#    z 0.004280 0.000000 1.721710 
# 
# From -- ./inp_files/52269.got.cif
#   From: 2010.05.17/outbox.cif.g08.bks.cpg/sg5_27_cif.got.tgz:52269.got - 2010.06.03 18:56:24.
