data_PCOD9127987
_publ_section_title
;
Structure prediction by ZEFSAII (Michael W. Deem and Ramdas Pophale) SiO2 
 PCOD9127987
Probable space group: C 2
;
_chemical_formula_sum "Si O2"
_cell_formula_units_Z 24
_cell_length_a 10.715988
_cell_length_b 9.020926
_cell_length_c 9.325465
_cell_angle_alpha 90.000000
_cell_angle_beta 73.463831
_cell_angle_gamma 90.000000
_cell_volume 864.190518
_symmetry_space_group_name_H-M "C 2"
_symmetry_group_IT_number 5
_symmetry_cell_setting 'monoclinic'
loop_
_space_group_symop_operation_xyz
x,y,z
-x,y,-z
1/2+x,1/2+y,z
1/2-x,1/2+y,-z
loop_
_atom_site_type_symbol
_atom_site_label
_atom_site_fract_x
_atom_site_fract_y
_atom_site_fract_z
Si Si1 0.639352 0.752470 0.747031
Si Si2 0.349258 0.026031 0.794378
Si Si3 0.267183 0.809404 0.601095
Si Si4 0.364833 0.348062 0.969284
Si Si5 0.126726 0.580105 0.816313
Si Si6 0.500763 0.489778 0.326554
O O1 0.744325 0.651954 0.792095
O O2 0.696933 0.795160 0.574158
O O3 0.518243 0.647790 0.745615
O O4 0.613358 0.904153 0.837158
O O5 0.366084 0.914138 0.654182
O O6 0.358957 0.183469 0.047249
O O7 0.266136 0.923687 0.929879
O O8 0.239528 0.647286 0.677853
O O9 0.130544 0.895467 0.660087
O O10 0.487962 0.101199 0.780679
O O11 0.388142 0.404089 0.798391
O O12 0.500000 0.405756 0.000000
O O13 0.500000 0.503512 0.500000
#
# Coordination Sequence:
#
# PCOD9127987 Si02
#       6
#     4   4   4   4   4   4
#     4  11  24  44  73 122 151 201 271 325 386 486
#     4  10  24  47  76 108 155 212 258 334 394 466
#     4  10  23  44  73 108 166 196 262 330 385 480
#     4  11  22  55  71 107 164 200 266 336 383 476
#     4  11  24  46  79 112 151 212 265 328 394 467
#     4  11  25  48  77 106 163 211 246 332 408 461
#
# _framework density 27.771653000000001
#
# number of rings (size 3 to 8) (size 9 to 14) (size 15 to 20)
#    0.000    1.333    5.000    2.000    4.667    1.333 
#    9.000    0.000    3.667    0.000    0.000    0.000 
#    0.000    0.000    0.000    0.000    0.000    0.000 
#
# Total GULP energy -67192.573431 kJ/mol
# GULP energy per Si atom -5599.381119 kJ/mol
# Density = 2.770844 g / cm^3
# Si number density = 27.771653 Si / 1000 Ang^3
#
#
#
# Elastic Constant Matrix: (Units=GPa)
#
#
# Indices 1 2 3 4 5 6 
#
# 1 93.8969 52.3410 32.8232 0.0000 9.5633 0.0000
# 2 52.3410 245.9881 69.8952 0.0000 21.4884 0.0000
# 3 32.8232 69.8952 168.1641 0.0000 5.7718 0.0000
# 4 0.0000 0.0000 0.0000 32.9635 0.0000 13.6855
# 5 9.5633 21.4884 5.7718 0.0000 44.1192 0.0000
# 6 0.0000 0.0000 0.0000 13.6855 0.0000 60.5127
#
#
#
# Elastic Compliance Matrix: (Units=1/GPa)
#
#
# Indices 1 2 3 4 5 6 
#
# 1 0.012502 -0.002099 -0.001517 0.000000 -0.001489 0.000000
# 2 -0.002099 0.005145 -0.001666 0.000000 -0.001833 0.000000
# 3 -0.001517 -0.001666 0.006927 0.000000 0.000234 0.000000
# 4 0.000000 0.000000 0.000000 0.033480 0.000000 -0.007572
# 5 -0.001489 -0.001833 0.000234 0.000000 0.023851 0.000000
# 6 0.000000 0.000000 0.000000 -0.007572 0.000000 0.018238
#
#
# Mechanical properties :
#
#
# Convention : Reuss Voigt Hill
#
# Bulk Modulus (GPa) = 71.37307 90.90755 81.14031
# Shear Modulus (GPa) = 43.33619 51.05173 47.19396
#
# Velocity S-wave (km/s) = 3.95453 4.29215 4.12680
# Velocity P-wave (km/s) = 6.82692 7.57420 7.21025
#
# Compressibility (1/GPa) = 0.01401089
#
# Stress axis : x y z
#
# Youngs Moduli (GPa) = 79.98770 194.34865 144.36258
#
# Poissons Ratio (x) = 0.40796 0.21894
# Poissons Ratio (y) = 0.16790 0.24050
# Poissons Ratio (z) = 0.12131 0.32378
#
# Static dielectric constant tensor:
#      x y z
#    x 2.212330 0.000000 0.069090 
#    y 0.000000 2.261280 0.000000 
#    z 0.069090 0.000000 2.167360 
# 
# From -- ./inp_files/22799.got.cif
#   From: 2010.05.17/outbox.cif.g08.bks.cpg/sg5_12_cif.got.tgz:22799.got - 2010.06.03 18:56:24.
