data_PCOD9127940
_publ_section_title
;
Structure prediction by ZEFSAII (Michael W. Deem and Ramdas Pophale) SiO2 
 PCOD9127940
Probable space group: C 2
;
_chemical_formula_sum "Si O2"
_cell_formula_units_Z 30
_cell_length_a 11.890385
_cell_length_b 8.337748
_cell_length_c 14.278157
_cell_angle_alpha 90.000000
_cell_angle_beta 67.118766
_cell_angle_gamma 90.000000
_cell_volume 1304.139179
_symmetry_space_group_name_H-M "C 2"
_symmetry_group_IT_number 5
_symmetry_cell_setting 'monoclinic'
loop_
_space_group_symop_operation_xyz
x,y,z
-x,y,-z
1/2+x,1/2+y,z
1/2-x,1/2+y,-z
loop_
_atom_site_type_symbol
_atom_site_label
_atom_site_fract_x
_atom_site_fract_y
_atom_site_fract_z
Si Si1 0.078883 0.463420 0.885985
Si Si2 0.129758 0.692220 0.126835
Si Si3 0.200260 0.053823 0.580221
Si Si4 0.811013 0.047003 0.927565
Si Si5 0.069631 0.417108 0.569455
Si Si6 0.903345 0.721842 0.643692
Si Si7 0.960112 0.200476 0.239497
Si Si8 0.500000 0.515971 0.500000
O O1 0.200620 0.539108 0.888482
O O2 0.990178 0.590268 0.862911
O O3 0.109538 0.314101 0.810502
O O4 0.000000 0.404288 0.000000
O O5 0.135324 0.711018 0.236224
O O6 0.132646 0.869761 0.081643
O O7 0.247579 0.604487 0.043724
O O8 0.288259 0.922931 0.504618
O O9 0.112678 0.095025 0.520350
O O10 0.299884 0.162471 0.603937
O O11 0.105375 0.041039 0.698414
O O12 0.913791 0.160628 0.851309
O O13 0.000000 0.363068 0.500000
O O14 0.017775 0.598051 0.601737
O O15 0.032676 0.314774 0.671596
O O16 0.942273 0.897020 0.596886
#
# Coordination Sequence:
#
# PCOD9127940 Si02
#       8
#     4   4   4   4   4   4   4   2
#     4  10  23  47  74 107 150 191 238 306 368 435
#     4  11  23  47  76 106 150 194 241 303 369 440
#     4  11  25  42  69 100 139 185 243 296 356 435
#     4  11  25  46  73 111 147 190 244 304 368 443
#     4  10  23  44  67  99 138 188 242 296 361 428
#     4  11  22  48  69  98 141 195 235 298 364 427
#     4  12  24  46  70 108 140 194 246 298 373 435
#     4  12  24  46  68 100 146 184 244 294 366 430
#
# _framework density 23.003679999999999
#
# number of rings (size 3 to 8) (size 9 to 14) (size 15 to 20)
#    0.000    1.067    3.333    4.000    0.933    1.067 
#    9.600    8.667    0.000    0.000    0.000    0.000 
#    0.000    0.000    0.000    0.000    0.000    0.000 
#
# Total GULP energy -83699.777681 kJ/mol
# GULP energy per Si atom -5579.985179 kJ/mol
# Density = 2.295132 g / cm^3
# Si number density = 23.003680 Si / 1000 Ang^3
#
#
#
# Elastic Constant Matrix: (Units=GPa)
#
#
# Indices 1 2 3 4 5 6 
#
# 1 98.0340 26.2935 53.6152 0.0000 -7.7721 0.0000
# 2 26.2935 61.2749 49.3275 0.0000 5.2549 0.0000
# 3 53.6152 49.3275 166.8609 0.0000 4.2399 0.0000
# 4 0.0000 0.0000 0.0000 52.4364 0.0000 0.3201
# 5 -7.7721 5.2549 4.2399 0.0000 34.1856 0.0000
# 6 0.0000 0.0000 0.0000 0.3201 0.0000 26.2515
#
#
#
# Elastic Compliance Matrix: (Units=1/GPa)
#
#
# Indices 1 2 3 4 5 6 
#
# 1 0.013247 -0.003300 -0.003381 0.000000 0.003938 0.000000
# 2 -0.003300 0.022457 -0.005489 0.000000 -0.003522 0.000000
# 3 -0.003381 -0.005489 0.008728 0.000000 -0.001007 0.000000
# 4 0.000000 0.000000 0.000000 0.019072 0.000000 -0.000233
# 5 0.003938 -0.003522 -0.001007 0.000000 0.030814 0.000000
# 6 0.000000 0.000000 0.000000 -0.000233 0.000000 0.038096
#
#
# Mechanical properties :
#
#
# Convention : Reuss Voigt Hill
#
# Bulk Modulus (GPa) = 49.77316 64.96024 57.36670
# Shear Modulus (GPa) = 30.59040 35.70362 33.14701
#
# Velocity S-wave (km/s) = 3.65060 3.94392 3.80009
# Velocity P-wave (km/s) = 6.28118 7.00284 6.65180
#
# Compressibility (1/GPa) = 0.02009115
#
# Stress axis : x y z
#
# Youngs Moduli (GPa) = 75.48886 44.53020 114.58025
#
# Poissons Ratio (x) = 0.14697 0.38738
# Poissons Ratio (y) = 0.24915 0.62889
# Poissons Ratio (z) = 0.25522 0.24441
#
# Static dielectric constant tensor:
#      x y z
#    x 1.880410 0.000000 -0.055480 
#    y 0.000000 1.971650 0.000000 
#    z -0.055480 0.000000 1.885380 
# 
# From -- ./inp_files/52436.got.cif
#   From: 2010.05.17/outbox.cif.g08.bks.cpg/sg5_27_cif.got.tgz:52436.got - 2010.06.03 18:56:24.
