data_PCOD9127386
_publ_section_title
;
Structure prediction by ZEFSAII (Michael W. Deem and Ramdas Pophale) SiO2 
 PCOD9127386
Probable space group: C 2
;
_chemical_formula_sum "Si O2"
_cell_formula_units_Z 28
_cell_length_a 25.185484
_cell_length_b 4.853339
_cell_length_c 9.123774
_cell_angle_alpha 90.000000
_cell_angle_beta 79.850615
_cell_angle_gamma 90.000000
_cell_volume 1097.781040
_symmetry_space_group_name_H-M "C 2"
_symmetry_group_IT_number 5
_symmetry_cell_setting 'monoclinic'
loop_
_space_group_symop_operation_xyz
x,y,z
-x,y,-z
1/2+x,1/2+y,z
1/2-x,1/2+y,-z
loop_
_atom_site_type_symbol
_atom_site_label
_atom_site_fract_x
_atom_site_fract_y
_atom_site_fract_z
Si Si1 0.129229 0.791530 0.616788
Si Si2 0.734691 0.947272 0.600756
Si Si3 0.565032 0.766041 0.703738
Si Si4 0.102032 0.890615 0.301752
Si Si5 0.500000 0.450675 0.500000
Si Si6 0.000000 0.359965 0.000000
Si Si7 0.612153 0.915906 0.093913
Si Si8 0.772368 0.260459 0.071815
O O1 0.180299 0.622719 0.640571
O O2 0.079628 0.583290 0.675550
O O3 0.132080 0.849864 0.441538
O O4 0.117084 0.075506 0.703591
O O5 0.771134 0.179369 0.501292
O O6 0.748120 0.843569 0.756702
O O7 0.540311 0.647189 0.567748
O O8 0.522088 0.701805 0.849288
O O9 0.127500 0.691680 0.170415
O O10 0.101163 0.188847 0.226443
O O11 0.040281 0.796836 0.370203
O O12 0.942831 0.483999 0.970035
O O13 0.663368 0.814427 0.976085
O O14 0.756731 0.951626 0.035760
#
# Coordination Sequence:
#
# PCOD9127386 Si02
#       8
#     4   4   4   4   2   2   4   4
#     4  11  26  46  74 104 149 191 254 310 384 443
#     4  12  28  50  81 114 148 197 264 333 394 460
#     4  11  25  43  71 100 151 190 241 300 371 453
#     4  11  25  43  76 109 146 197 253 311 366 464
#     4  10  22  46  64 108 140 188 242 296 358 432
#     4  12  28  46  74 112 156 198 248 308 382 474
#     4  12  28  47  76 111 155 200 252 307 396 448
#     4  12  29  54  81 115 160 204 262 326 394 469
#
# _framework density 25.505994000000001
#
# number of rings (size 3 to 8) (size 9 to 14) (size 15 to 20)
#    0.000    0.571    1.429    5.143   10.000    5.714 
#    0.000    0.000    0.000    0.000    0.000    0.000 
#    0.000    0.000    0.000    0.000    0.000    0.000 
#
# Total GULP energy -78360.224189 kJ/mol
# GULP energy per Si atom -5597.158871 kJ/mol
# Density = 2.544794 g / cm^3
# Si number density = 25.505994 Si / 1000 Ang^3
#
#
#
# Elastic Constant Matrix: (Units=GPa)
#
#
# Indices 1 2 3 4 5 6 
#
# 1 101.2118 3.3018 28.6940 0.0000 -14.3872 0.0000
# 2 3.3018 99.1762 20.1860 0.0000 2.9298 0.0000
# 3 28.6940 20.1860 123.1347 0.0000 -4.0521 0.0000
# 4 0.0000 0.0000 0.0000 16.6791 0.0000 -1.6435
# 5 -14.3872 2.9298 -4.0521 0.0000 46.1874 0.0000
# 6 0.0000 0.0000 0.0000 -1.6435 0.0000 33.6371
#
#
#
# Elastic Compliance Matrix: (Units=1/GPa)
#
#
# Indices 1 2 3 4 5 6 
#
# 1 0.011038 0.000041 -0.002473 0.000000 0.003219 0.000000
# 2 0.000041 0.010462 -0.001751 0.000000 -0.000805 0.000000
# 3 -0.002473 -0.001751 0.008989 0.000000 0.000129 0.000000
# 4 0.000000 0.000000 0.000000 0.060245 0.000000 0.002943
# 5 0.003219 -0.000805 0.000129 0.000000 0.022716 0.000000
# 6 0.000000 0.000000 0.000000 0.002943 0.000000 0.029873
#
#
# Mechanical properties :
#
#
# Convention : Reuss Voigt Hill
#
# Bulk Modulus (GPa) = 45.20398 47.54290 46.37344
# Shear Modulus (GPa) = 31.43420 37.39011 34.41216
#
# Velocity S-wave (km/s) = 3.51440 3.83291 3.67710
# Velocity P-wave (km/s) = 5.85059 6.18616 6.02071
#
# Compressibility (1/GPa) = 0.02212195
#
# Stress axis : x y z
#
# Youngs Moduli (GPa) = 90.60007 95.58517 111.25028
#
# Poissons Ratio (x) = -0.00390 0.27510
# Poissons Ratio (y) = -0.00369 0.19480
# Poissons Ratio (z) = 0.22404 0.16737
#
# Static dielectric constant tensor:
#      x y z
#    x 2.135250 0.000000 -0.012640 
#    y 0.000000 1.917920 0.000000 
#    z -0.012640 0.000000 1.977940 
# 
# From -- ./inp_files/31387.got.cif
#   From: 2010.05.17/outbox.cif.g08.bks.cpg/sg5_16_cif.got.tgz:31387.got - 2010.06.03 18:56:24.
