data_PCOD9127063
_publ_section_title
;
Structure prediction by ZEFSAII (Michael W. Deem and Ramdas Pophale) SiO2 
 PCOD9127063
Probable space group: C 2
;
_chemical_formula_sum "Si O2"
_cell_formula_units_Z 28
_cell_length_a 13.997691
_cell_length_b 4.786208
_cell_length_c 16.821106
_cell_angle_alpha 90.000000
_cell_angle_beta 77.632388
_cell_angle_gamma 90.000000
_cell_volume 1100.792045
_symmetry_space_group_name_H-M "C 2"
_symmetry_group_IT_number 5
_symmetry_cell_setting 'monoclinic'
loop_
_space_group_symop_operation_xyz
x,y,z
-x,y,-z
1/2+x,1/2+y,z
1/2-x,1/2+y,-z
loop_
_atom_site_type_symbol
_atom_site_label
_atom_site_fract_x
_atom_site_fract_y
_atom_site_fract_z
Si Si1 0.805095 0.084030 0.017209
Si Si2 0.955359 0.744180 0.890171
Si Si3 0.664378 0.838176 0.345751
Si Si4 0.411404 0.748423 0.147024
Si Si5 0.082112 0.834369 0.277197
Si Si6 0.374203 0.050092 0.318894
Si Si7 0.817315 0.233763 0.485210
O O1 0.828056 0.230999 0.096142
O O2 0.777501 0.343120 0.964952
O O3 0.895092 0.899705 0.968839
O O4 0.048911 0.936452 0.854134
O O5 0.999765 0.443309 0.900006
O O6 0.896526 0.758604 0.818016
O O7 0.602151 0.654525 0.294637
O O8 0.775725 0.731291 0.325496
O O9 0.652178 0.156175 0.322215
O O10 0.627366 0.791023 0.442293
O O11 0.384696 0.869532 0.236883
O O12 0.971317 0.736134 0.312485
O O13 0.364718 0.848241 0.396912
O O14 0.783755 0.913894 0.489128
#
# Coordination Sequence:
#
# PCOD9127063 Si02
#       7
#     4   4   4   4   4   4   4
#     4  12  27  47  72 110 143 183 241 303 371 445
#     4  11  25  49  72 101 146 183 241 301 351 450
#     4  11  24  44  73 104 148 193 235 300 360 415
#     4  11  25  48  78  98 137 199 234 289 377 423
#     4  11  25  45  72 108 138 193 243 291 361 425
#     4  10  25  48  73 105 146 189 245 295 351 446
#     4  10  22  43  69 105 145 191 237 294 358 420
#
# _framework density 25.436229999999998
#
# number of rings (size 3 to 8) (size 9 to 14) (size 15 to 20)
#    0.000    1.143    0.000    5.571    2.000   12.000 
#    2.571    5.714    0.000    0.000    0.000    0.000 
#    0.000    0.000    0.000    0.000    0.000    0.000 
#
# Total GULP energy -78514.061151 kJ/mol
# GULP energy per Si atom -5608.147225 kJ/mol
# Density = 2.537834 g / cm^3
# Si number density = 25.436230 Si / 1000 Ang^3
#
#
#
# Elastic Constant Matrix: (Units=GPa)
#
#
# Indices 1 2 3 4 5 6 
#
# 1 93.9505 12.5074 40.1457 0.0000 -0.2059 0.0000
# 2 12.5074 90.0752 3.0908 0.0000 4.1877 0.0000
# 3 40.1457 3.0908 94.1289 0.0000 2.9425 0.0000
# 4 0.0000 0.0000 0.0000 37.8441 0.0000 7.5797
# 5 -0.2059 4.1877 2.9425 0.0000 44.4492 0.0000
# 6 0.0000 0.0000 0.0000 7.5797 0.0000 58.0828
#
#
#
# Elastic Compliance Matrix: (Units=1/GPa)
#
#
# Indices 1 2 3 4 5 6 
#
# 1 0.013272 -0.001677 -0.005624 0.000000 0.000592 0.000000
# 2 -0.001677 0.011373 0.000376 0.000000 -0.001104 0.000000
# 3 -0.005624 0.000376 0.013039 0.000000 -0.000925 0.000000
# 4 0.000000 0.000000 0.000000 0.027133 0.000000 -0.003541
# 5 0.000592 -0.001104 -0.000925 0.000000 0.022666 0.000000
# 6 0.000000 0.000000 0.000000 -0.003541 0.000000 0.017679
#
#
# Mechanical properties :
#
#
# Convention : Reuss Voigt Hill
#
# Bulk Modulus (GPa) = 41.95640 43.29361 42.62500
# Shear Modulus (GPa) = 39.38394 42.90259 41.14327
#
# Velocity S-wave (km/s) = 3.93916 4.11137 4.02619
# Velocity P-wave (km/s) = 6.10081 6.29247 6.19738
#
# Compressibility (1/GPa) = 0.02383427
#
# Stress axis : x y z
#
# Youngs Moduli (GPa) = 75.34917 87.92632 76.69443
#
# Poissons Ratio (x) = 0.14748 0.43131
# Poissons Ratio (y) = 0.12639 -0.02887
# Poissons Ratio (z) = 0.42374 -0.03310
#
# Static dielectric constant tensor:
#      x y z
#    x 2.046090 0.000000 -0.011290 
#    y 0.000000 1.910430 0.000000 
#    z -0.011290 0.000000 2.044040 
# 
# From -- ./inp_files/65540.got.cif
#   From: 2010.05.17/outbox.cif.g08.bks.cpg/sg5_33_cif.got.tgz:65540.got - 2010.06.03 18:56:24.
