data_PCOD9127981
_publ_section_title
;
Structure prediction by ZEFSAII (Michael W. Deem and Ramdas Pophale) SiO2 
 PCOD9127981
Probable space group: C 2
;
_chemical_formula_sum "Si O2"
_cell_formula_units_Z 14
_cell_length_a 8.574797
_cell_length_b 8.530804
_cell_length_c 7.988219
_cell_angle_alpha 90.000000
_cell_angle_beta 69.070711
_cell_angle_gamma 90.000000
_cell_volume 545.784095
_symmetry_space_group_name_H-M "C 2"
_symmetry_group_IT_number 5
_symmetry_cell_setting 'monoclinic'
loop_
_space_group_symop_operation_xyz
x,y,z
-x,y,-z
1/2+x,1/2+y,z
1/2-x,1/2+y,-z
loop_
_atom_site_type_symbol
_atom_site_label
_atom_site_fract_x
_atom_site_fract_y
_atom_site_fract_z
Si Si1 0.826944 0.716430 0.023681
Si Si2 0.808446 0.020014 0.609779
Si Si3 0.217582 0.651048 0.310817
Si Si4 0.000000 0.232307 0.000000
O O1 0.766956 0.612942 0.203108
O O2 0.870897 0.624854 0.833212
O O3 0.661017 0.809229 0.026375
O O4 0.000000 0.800838 0.000000
O O5 0.698279 0.053635 0.485612
O O6 0.000000 0.070105 0.500000
O O7 0.809827 0.833599 0.636369
O O8 0.410132 0.633890 0.178313
#
# Coordination Sequence:
#
# PCOD9127981 Si02
#       4
#     4   4   4   2
#     4  10  23  44  72 106 141 190 240 295 360 432
#     4  12  24  47  73 106 148 188 242 303 356 433
#     4  10  25  45  72 105 143 192 237 294 368 421
#     4   8  20  50  60 104 150 180 232 298 356 422
#
# _framework density 25.651167999999998
#
# number of rings (size 3 to 8) (size 9 to 14) (size 15 to 20)
#    1.714    0.000    2.857    0.000    6.000    2.286 
#    7.714    0.000    0.000    0.000    0.000    0.000 
#    0.000    0.000    0.000    0.000    0.000    0.000 
#
# Total GULP energy -38972.069285 kJ/mol
# GULP energy per Si atom -5567.438469 kJ/mol
# Density = 2.559279 g / cm^3
# Si number density = 25.651168 Si / 1000 Ang^3
#
#
#
# Elastic Constant Matrix: (Units=GPa)
#
#
# Indices 1 2 3 4 5 6 
#
# 1 205.7370 15.5754 37.2131 0.0000 11.6947 0.0000
# 2 15.5754 97.9845 62.6925 0.0000 1.0122 0.0000
# 3 37.2131 62.6925 222.2294 0.0000 4.8696 0.0000
# 4 0.0000 0.0000 0.0000 39.6523 0.0000 -4.9039
# 5 11.6947 1.0122 4.8696 0.0000 44.6139 0.0000
# 6 0.0000 0.0000 0.0000 -4.9039 0.0000 -7.4233
#
#
#
# Elastic Compliance Matrix: (Units=1/GPa)
#
#
# Indices 1 2 3 4 5 6 
#
# 1 0.005089 -0.000327 -0.000732 0.000000 -0.001247 0.000000
# 2 -0.000327 0.012475 -0.003468 0.000000 0.000181 0.000000
# 3 -0.000732 -0.003468 0.005608 0.000000 -0.000341 0.000000
# 4 0.000000 0.000000 0.000000 0.023314 0.000000 -0.015402
# 5 -0.001247 0.000181 -0.000341 0.000000 0.022774 0.000000
# 6 0.000000 0.000000 0.000000 -0.015402 0.000000 -0.124537
#
#
# Mechanical properties :
#
#
# Convention : Reuss Voigt Hill
#
# Bulk Modulus (GPa) = 70.84334 84.10144 77.47239
# Shear Modulus (GPa) = -120.44204 42.73323 -38.85441
#
# Velocity S-wave (km/s) = -6.85972 4.08602 -3.89617
# Velocity P-wave (km/s) = 5.92141 7.42418 3.16666
#
# Compressibility (1/GPa) = 0.01411565
#
# Stress axis : x y z
#
# Youngs Moduli (GPa) = 196.51389 80.15994 178.30185
#
# Poissons Ratio (x) = 0.02624 0.13060
# Poissons Ratio (y) = 0.06433 0.61843
# Poissons Ratio (z) = 0.14394 0.27803
#
# Static dielectric constant tensor:
#      x y z
#    x 2.099640 0.000000 0.006230 
#    y 0.000000 1.915920 0.000000 
#    z 0.006230 0.000000 2.023940 
# 
# From -- ./inp_files/13516.got.cif
#   From: 2010.05.17/outbox.cif.g08.bks.cpg/sg5_7_cif.got.tgz:13516.got - 2010.06.03 18:56:24.
