data_PCOD9127521
_publ_section_title
;
Structure prediction by ZEFSAII (Michael W. Deem and Ramdas Pophale) SiO2 
 PCOD9127521
Probable space group: C 2
;
_chemical_formula_sum "Si O2"
_cell_formula_units_Z 26
_cell_length_a 22.551830
_cell_length_b 5.349138
_cell_length_c 11.668686
_cell_angle_alpha 90.000000
_cell_angle_beta 135.197774
_cell_angle_gamma 90.000000
_cell_volume 991.900843
_symmetry_space_group_name_H-M "C 2"
_symmetry_group_IT_number 5
_symmetry_cell_setting 'monoclinic'
loop_
_space_group_symop_operation_xyz
x,y,z
-x,y,-z
1/2+x,1/2+y,z
1/2-x,1/2+y,-z
loop_
_atom_site_type_symbol
_atom_site_label
_atom_site_fract_x
_atom_site_fract_y
_atom_site_fract_z
Si Si1 0.612274 0.030260 0.527244
Si Si2 0.295547 0.423441 0.020364
Si Si3 0.914025 0.554102 0.251830
Si Si4 0.500000 0.985372 0.000000
Si Si5 0.429868 0.371525 0.732215
Si Si6 0.905203 0.196408 0.029054
Si Si7 0.757493 0.828153 0.575398
O O1 0.609299 0.282770 0.443413
O O2 0.511947 0.987088 0.393655
O O3 0.631976 0.014386 0.689479
O O4 0.680819 0.858561 0.558740
O O5 0.326567 0.509005 0.936956
O O6 0.388530 0.344294 0.197219
O O7 0.254338 0.662382 0.027977
O O8 0.887716 0.397603 0.104735
O O9 0.418857 0.831286 0.927792
O O10 0.520537 0.144921 0.140124
O O11 0.501251 0.580518 0.822835
O O12 0.354714 0.411802 0.719449
O O13 0.766352 0.539382 0.552039
#
# Coordination Sequence:
#
# PCOD9127521 Si02
#       7
#     4   4   4   2   4   4   4
#     4  10  22  48  75 111 150 202 252 316 389 464
#     4  12  26  51  77 111 160 200 256 324 386 467
#     4  11  23  48  79 111 152 203 251 316 391 468
#     4  12  26  48  78 110 146 214 264 318 388 468
#     4  11  24  48  76 109 156 199 263 325 389 460
#     4  12  24  49  77 109 154 203 263 316 389 469
#     4  10  23  46  74 107 152 193 251 319 378 456
#
# _framework density 26.212298000000001
#
# number of rings (size 3 to 8) (size 9 to 14) (size 15 to 20)
#    0.000    0.923    4.615    1.385    2.154    0.000 
#   22.154    0.000    0.000    0.000    0.000    0.000 
#    0.000    0.000    0.000    0.000    0.000    0.000 
#
# Total GULP energy -72418.767816 kJ/mol
# GULP energy per Si atom -5570.674447 kJ/mol
# Density = 2.615264 g / cm^3
# Si number density = 26.212298 Si / 1000 Ang^3
#
#
#
# Elastic Constant Matrix: (Units=GPa)
#
#
# Indices 1 2 3 4 5 6 
#
# 1 234.5542 67.1268 25.6975 0.0000 -6.3116 0.0000
# 2 67.1268 118.9444 46.6972 0.0000 -11.6863 0.0000
# 3 25.6975 46.6972 34.6780 0.0000 -5.2536 0.0000
# 4 0.0000 0.0000 0.0000 23.6266 0.0000 15.6704
# 5 -6.3116 -11.6863 -5.2536 0.0000 53.6404 0.0000
# 6 0.0000 0.0000 0.0000 15.6704 0.0000 59.4689
#
#
#
# Elastic Compliance Matrix: (Units=1/GPa)
#
#
# Indices 1 2 3 4 5 6 
#
# 1 0.005085 -0.002952 0.000203 0.000000 -0.000025 0.000000
# 2 -0.002952 0.019680 -0.024074 0.000000 0.001582 0.000000
# 3 0.000203 -0.024074 0.061221 0.000000 0.000775 0.000000
# 4 0.000000 0.000000 0.000000 0.051289 0.000000 -0.013515
# 5 -0.000025 0.001582 0.000775 0.000000 0.019060 0.000000
# 6 0.000000 0.000000 0.000000 -0.013515 0.000000 0.020377
#
#
# Mechanical properties :
#
#
# Convention : Reuss Voigt Hill
#
# Bulk Modulus (GPa) = 30.92036 74.13550 52.52793
# Shear Modulus (GPa) = 20.73499 43.92419 32.32959
#
# Velocity S-wave (km/s) = 2.81560 4.09798 3.51575
# Velocity P-wave (km/s) = 4.73200 7.12288 6.04679
#
# Compressibility (1/GPa) = 0.03234115
#
# Stress axis : x y z
#
# Youngs Moduli (GPa) = 196.64323 50.81284 16.33426
#
# Poissons Ratio (x) = 0.15001 -0.00332
# Poissons Ratio (y) = 0.58052 0.39323
# Poissons Ratio (z) = -0.03995 1.22325
#
# Static dielectric constant tensor:
#      x y z
#    x 2.134940 0.000000 0.076650 
#    y 0.000000 2.142060 0.000000 
#    z 0.076650 0.000000 2.171280 
# 
# From -- ./inp_files/45748.got.cif
#   From: 2010.05.17/outbox.cif.g08.bks.cpg/sg5_23_cif.got.tgz:45748.got - 2010.06.03 18:56:24.
