data_PCOD9127005
_publ_section_title
;
Structure prediction by ZEFSAII (Michael W. Deem and Ramdas Pophale) SiO2 
 PCOD9127005
Probable space group: C 2
;
_chemical_formula_sum "Si O2"
_cell_formula_units_Z 32
_cell_length_a 11.467137
_cell_length_b 10.320954
_cell_length_c 21.067671
_cell_angle_alpha 90.000000
_cell_angle_beta 143.467042
_cell_angle_gamma 90.000000
_cell_volume 1484.281841
_symmetry_space_group_name_H-M "C 2"
_symmetry_group_IT_number 5
_symmetry_cell_setting 'monoclinic'
loop_
_space_group_symop_operation_xyz
x,y,z
-x,y,-z
1/2+x,1/2+y,z
1/2-x,1/2+y,-z
loop_
_atom_site_type_symbol
_atom_site_label
_atom_site_fract_x
_atom_site_fract_y
_atom_site_fract_z
Si Si1 0.704650 0.868260 0.248831
Si Si2 0.535436 0.419014 0.860543
Si Si3 0.650676 0.816538 0.756563
Si Si4 0.440057 0.556997 0.621220
Si Si5 0.924823 0.567839 0.619733
Si Si6 0.187829 0.723135 0.823748
Si Si7 0.206465 0.461383 0.902897
Si Si8 0.275061 0.612351 0.677663
O O1 0.678499 0.781406 0.173742
O O2 0.522503 0.963791 0.177690
O O3 0.710476 0.767852 0.310210
O O4 0.908532 0.942956 0.327930
O O5 0.338048 0.346173 0.795201
O O6 0.644109 0.333406 0.855511
O O7 0.455827 0.552388 0.796301
O O8 0.666247 0.441623 0.979296
O O9 0.566068 0.679585 0.699414
O O10 0.722050 0.842900 0.859741
O O11 0.487108 0.927198 0.672557
O O12 0.296858 0.579953 0.499441
O O13 0.297232 0.543063 0.619757
O O14 0.993007 0.673150 0.701384
O O15 0.072442 0.585586 0.624932
O O16 0.262087 0.592821 0.890222
#
# Coordination Sequence:
#
# PCOD9127005 Si02
#       8
#     4   4   4   4   4   4   4   4
#     4  11  24  43  69 103 138 173 231 284 337 415
#     4  11  23  44  71  92 135 189 219 286 353 402
#     4  10  23  42  64  99 139 171 240 280 334 424
#     4  12  22  42  70  98 139 182 227 288 340 412
#     4   9  23  41  67  99 136 186 222 284 354 392
#     4  10  23  45  65 103 142 165 239 283 333 424
#     4  11  24  44  68  99 135 182 226 288 349 399
#     4  10  22  43  64  99 134 175 231 280 327 422
#
# _framework density 21.559248
#
# number of rings (size 3 to 8) (size 9 to 14) (size 15 to 20)
#    0.000    1.500    2.500    2.250    5.250    0.500 
#    4.500    5.625    0.000    0.000    0.000    0.000 
#    0.000    0.000    0.000    0.000    0.000    0.000 
#
# Total GULP energy -89382.063506 kJ/mol
# GULP energy per Si atom -5586.378969 kJ/mol
# Density = 2.151018 g / cm^3
# Si number density = 21.559248 Si / 1000 Ang^3
#
#
#
# Elastic Constant Matrix: (Units=GPa)
#
#
# Indices 1 2 3 4 5 6 
#
# 1 66.3600 8.1698 8.8256 0.0000 -1.0320 0.0000
# 2 8.1698 63.7604 12.6580 0.0000 10.7736 0.0000
# 3 8.8256 12.6580 91.6711 0.0000 -4.6499 0.0000
# 4 0.0000 0.0000 0.0000 13.1767 0.0000 -6.4008
# 5 -1.0320 10.7736 -4.6499 0.0000 19.6528 0.0000
# 6 0.0000 0.0000 0.0000 -6.4008 0.0000 43.3246
#
#
#
# Elastic Compliance Matrix: (Units=1/GPa)
#
#
# Indices 1 2 3 4 5 6 
#
# 1 0.015497 -0.002044 -0.001125 0.000000 0.001668 0.000000
# 2 -0.002044 0.018352 -0.002888 0.000000 -0.010851 0.000000
# 3 -0.001125 -0.002888 0.011633 0.000000 0.004276 0.000000
# 4 0.000000 0.000000 0.000000 0.081759 0.000000 0.012079
# 5 0.001668 -0.010851 0.004276 0.000000 0.057931 0.000000
# 6 0.000000 0.000000 0.000000 0.012079 0.000000 0.024866
#
#
# Mechanical properties :
#
#
# Convention : Reuss Voigt Hill
#
# Bulk Modulus (GPa) = 29.96911 31.23315 30.60113
# Shear Modulus (GPa) = 21.43395 28.04004 24.73699
#
# Velocity S-wave (km/s) = 3.15650 3.61030 3.39100
# Velocity P-wave (km/s) = 5.21686 5.64780 5.43660
#
# Compressibility (1/GPa) = 0.03336769
#
# Stress axis : x y z
#
# Youngs Moduli (GPa) = 64.53054 54.48856 85.96589
#
# Poissons Ratio (x) = 0.11138 0.09672
# Poissons Ratio (y) = 0.13191 0.24825
# Poissons Ratio (z) = 0.07260 0.15735
#
# Static dielectric constant tensor:
#      x y z
#    x 1.833450 0.000000 -0.018690 
#    y 0.000000 1.789610 0.000000 
#    z -0.018690 0.000000 1.766490 
# 
# From -- ./inp_files/65366.got.cif
#   From: 2010.05.17/outbox.cif.g08.bks.cpg/sg5_33_cif.got.tgz:65366.got - 2010.06.03 18:56:24.
