data_PCOD9127309
_publ_section_title
;
Structure prediction by ZEFSAII (Michael W. Deem and Ramdas Pophale) SiO2 
 PCOD9127309
Probable space group: C 2
;
_chemical_formula_sum "Si O2"
_cell_formula_units_Z 30
_cell_length_a 27.608934
_cell_length_b 5.956004
_cell_length_c 7.991212
_cell_angle_alpha 90.000000
_cell_angle_beta 107.249856
_cell_angle_gamma 90.000000
_cell_volume 1254.960487
_symmetry_space_group_name_H-M "C 2"
_symmetry_group_IT_number 5
_symmetry_cell_setting 'monoclinic'
loop_
_space_group_symop_operation_xyz
x,y,z
-x,y,-z
1/2+x,1/2+y,z
1/2-x,1/2+y,-z
loop_
_atom_site_type_symbol
_atom_site_label
_atom_site_fract_x
_atom_site_fract_y
_atom_site_fract_z
Si Si1 0.138231 0.460000 0.836310
Si Si2 0.242015 0.549683 0.761413
Si Si3 0.295384 0.925714 0.641371
Si Si4 0.555579 0.874903 0.471573
Si Si5 0.500000 0.592446 0.000000
Si Si6 0.157820 0.816695 0.094226
Si Si7 0.108041 0.212646 0.143064
Si Si8 0.031795 0.873540 0.359927
O O1 0.194989 0.476661 0.824480
O O2 0.098751 0.405413 0.653587
O O3 0.131775 0.705930 0.909323
O O4 0.129115 0.300144 0.985438
O O5 0.255496 0.805595 0.724926
O O6 0.230028 0.452014 0.563937
O O7 0.293465 0.465330 0.899676
O O8 0.349024 0.793049 0.683646
O O9 0.315741 0.145323 0.752286
O O10 0.500000 0.866743 0.500000
O O11 0.562291 0.615972 0.408715
O O12 0.555729 0.118904 0.372065
O O13 0.451374 0.753987 0.927775
O O14 0.501845 0.435869 0.837285
O O15 0.114567 0.946395 0.148043
O O16 0.000000 0.861522 0.500000
#
# Coordination Sequence:
#
# PCOD9127309 Si02
#       8
#     4   4   4   4   2   4   4   4
#     4  11  26  41  74 100 140 194 239 318 372 456
#     4  11  23  42  70  97 144 188 236 304 375 445
#     4  10  22  45  66 102 140 186 240 298 368 456
#     4  10  23  45  72 103 148 188 248 310 376 456
#     4  12  26  48  80 104 156 204 242 332 374 460
#     4  10  24  43  68 100 140 176 247 301 370 460
#     4  10  25  46  68 108 141 189 251 299 383 455
#     4  10  24  46  73 106 147 195 252 309 378 453
#
# _framework density 23.905135999999999
#
# number of rings (size 3 to 8) (size 9 to 14) (size 15 to 20)
#    0.000    1.600    1.333    1.600   13.067    1.600 
#    2.400    0.000    0.000    0.000    0.000    0.000 
#    0.000    0.000    0.000    0.000    0.000    0.000 
#
# Total GULP energy -83587.857345 kJ/mol
# GULP energy per Si atom -5572.523823 kJ/mol
# Density = 2.385073 g / cm^3
# Si number density = 23.905136 Si / 1000 Ang^3
#
#
#
# Elastic Constant Matrix: (Units=GPa)
#
#
# Indices 1 2 3 4 5 6 
#
# 1 115.3028 18.4363 13.5087 0.0000 16.1368 0.0000
# 2 18.4363 106.3038 27.2451 0.0000 7.2667 0.0000
# 3 13.5087 27.2451 104.7863 0.0000 12.3243 0.0000
# 4 0.0000 0.0000 0.0000 32.4610 0.0000 -9.0446
# 5 16.1368 7.2667 12.3243 0.0000 41.1844 0.0000
# 6 0.0000 0.0000 0.0000 -9.0446 0.0000 16.8369
#
#
#
# Elastic Compliance Matrix: (Units=1/GPa)
#
#
# Indices 1 2 3 4 5 6 
#
# 1 0.009398 -0.001278 -0.000490 0.000000 -0.003310 0.000000
# 2 -0.001278 0.010295 -0.002443 0.000000 -0.000585 0.000000
# 3 -0.000490 -0.002443 0.010539 0.000000 -0.002531 0.000000
# 4 0.000000 0.000000 0.000000 0.036229 0.000000 0.019462
# 5 -0.003310 -0.000585 -0.002531 0.000000 0.026439 0.000000
# 6 0.000000 0.000000 0.000000 0.019462 0.000000 0.069848
#
#
# Mechanical properties :
#
#
# Convention : Reuss Voigt Hill
#
# Bulk Modulus (GPa) = 45.85135 49.41923 47.63529
# Shear Modulus (GPa) = 28.02071 35.90999 31.96535
#
# Velocity S-wave (km/s) = 3.42740 3.88001 3.66071
# Velocity P-wave (km/s) = 5.90635 6.38675 6.15124
#
# Compressibility (1/GPa) = 0.02180961
#
# Stress axis : x y z
#
# Youngs Moduli (GPa) = 106.40762 97.13658 94.88305
#
# Poissons Ratio (x) = 0.12414 0.04648
# Poissons Ratio (y) = 0.13599 0.23182
# Poissons Ratio (z) = 0.05213 0.23732
#
# Static dielectric constant tensor:
#      x y z
#    x 1.983920 0.000000 -0.100470 
#    y 0.000000 2.085910 0.000000 
#    z -0.100470 0.000000 1.899820 
# 
# From -- ./inp_files/32303.got.cif
#   From: 2010.05.17/outbox.cif.g08.bks.cpg/sg5_17_cif.got.tgz:32303.got - 2010.06.03 18:56:24.
