data_PCOD9127322
_publ_section_title
;
Structure prediction by ZEFSAII (Michael W. Deem and Ramdas Pophale) SiO2 
 PCOD9127322
Probable space group: C 2
;
_chemical_formula_sum "Si O2"
_cell_formula_units_Z 28
_cell_length_a 9.001916
_cell_length_b 19.667710
_cell_length_c 14.340581
_cell_angle_alpha 90.000000
_cell_angle_beta 152.561914
_cell_angle_gamma 90.000000
_cell_volume 1169.925995
_symmetry_space_group_name_H-M "C 2"
_symmetry_group_IT_number 5
_symmetry_cell_setting 'monoclinic'
loop_
_space_group_symop_operation_xyz
x,y,z
-x,y,-z
1/2+x,1/2+y,z
1/2-x,1/2+y,-z
loop_
_atom_site_type_symbol
_atom_site_label
_atom_site_fract_x
_atom_site_fract_y
_atom_site_fract_z
Si Si1 0.440716 0.873250 0.866213
Si Si2 0.987784 0.121255 0.838076
Si Si3 0.709631 0.764033 0.912605
Si Si4 0.642462 0.954393 0.369725
Si Si5 0.000000 0.020655 0.000000
Si Si6 0.250562 0.099769 0.498048
Si Si7 0.711983 0.310039 0.487538
Si Si8 0.000000 0.210659 0.500000
O O1 0.746157 0.830432 0.997608
O O2 0.339506 0.925670 0.727212
O O3 0.173544 0.813240 0.734459
O O4 0.500000 0.905678 0.000000
O O5 0.615753 0.115744 0.665839
O O6 0.971576 0.106909 0.718169
O O7 0.165015 0.193881 0.943467
O O8 0.141375 0.066729 0.994652
O O9 0.373770 0.779930 0.671561
O O10 0.000000 0.758022 0.000000
O O11 0.729889 0.890468 0.480658
O O12 0.802129 0.025047 0.488357
O O13 0.275939 0.972161 0.188804
O O14 0.189682 0.153652 0.544455
O O15 0.914115 0.268763 0.527725
#
# Coordination Sequence:
#
# PCOD9127322 Si02
#       8
#     4   4   4   4   2   4   4   2
#     4  11  27  45  72 103 142 191 240 303 378 436
#     4  10  22  45  68 103 145 194 238 294 385 425
#     4  11  24  42  69 104 146 187 239 299 356 445
#     4  10  24  46  70 100 148 191 248 294 370 438
#     4  10  24  44  70 104 146 194 238 310 358 446
#     4  10  23  42  75 102 140 196 246 305 362 443
#     4  11  26  45  71 103 146 194 233 306 369 438
#     4  12  24  40  76 112 140 182 260 300 360 436
#
# _framework density 23.933136000000001
#
# number of rings (size 3 to 8) (size 9 to 14) (size 15 to 20)
#    0.000    1.429    1.429    2.571   11.000    5.714 
#    0.000    0.000    0.000    0.000    0.000    0.000 
#    0.000    0.000    0.000    0.000    0.000    0.000 
#
# Total GULP energy -77935.988075 kJ/mol
# GULP energy per Si atom -5566.856291 kJ/mol
# Density = 2.387866 g / cm^3
# Si number density = 23.933136 Si / 1000 Ang^3
#
#
#
# Elastic Constant Matrix: (Units=GPa)
#
#
# Indices 1 2 3 4 5 6 
#
# 1 183.3307 146.6156 1.2671 -0.0689 10.1015 0.0006
# 2 146.6156 215.3878 -4.0045 -0.1332 8.5786 0.0167
# 3 1.2671 -4.0045 34.0864 -0.2629 -5.6638 0.0306
# 4 -0.0689 -0.1332 -0.2629 -21.1308 -0.0120 -5.1654
# 5 10.1015 8.5786 -5.6638 -0.0120 18.2669 0.0164
# 6 0.0006 0.0167 0.0306 -5.1654 0.0164 48.2804
#
#
#
# Elastic Compliance Matrix: (Units=1/GPa)
#
#
# Indices 1 2 3 4 5 6 
#
# 1 0.012248 -0.008234 -0.002009 0.000037 -0.003529 0.000009
# 2 -0.008234 0.010268 0.001547 -0.000055 0.000211 -0.000010
# 3 -0.002009 0.001547 0.031265 -0.000382 0.010078 -0.000065
# 4 0.000037 -0.000055 -0.000382 -0.046113 -0.000139 -0.004933
# 5 -0.003529 0.000211 0.010078 -0.000139 0.059721 -0.000042
# 6 0.000009 -0.000010 -0.000065 -0.004933 -0.000042 0.020185
#
#
# Mechanical properties :
#
#
# Convention : Reuss Voigt Hill
#
# Bulk Modulus (GPa) = 27.48018 80.06237 53.77127
# Shear Modulus (GPa) = 42.70022 28.34508 35.52265
#
# Velocity S-wave (km/s) = 4.22850 3.44516 3.85677
# Velocity P-wave (km/s) = 5.94536 7.02500 6.50761
#
# Compressibility (1/GPa) = 0.03638987
#
# Stress axis : x y z
#
# Youngs Moduli (GPa) = 81.64576 97.38903 31.98429
#
# Poissons Ratio (x) = 0.80191 0.06425
# Poissons Ratio (y) = 0.67228 -0.04948
# Poissons Ratio (z) = 0.16401 -0.15066
#
# Static dielectric constant tensor:
#      x y z
#    x 2.138160 0.000080 -0.298170 
#    y 0.000080 1.843370 -0.000100 
#    z -0.298170 -0.000100 2.413050 
# 
# From -- ./inp_files/51632.got.cif
#   From: 2010.05.17/outbox.cif.g08.bks.cpg/sg5_26_cif.got.tgz:51632.got - 2010.06.03 18:56:24.
