data_PCOD9127285
_publ_section_title
;
Structure prediction by ZEFSAII (Michael W. Deem and Ramdas Pophale) SiO2 
 PCOD9127285
Probable space group: C 2
;
_chemical_formula_sum "Si O2"
_cell_formula_units_Z 18
_cell_length_a 5.227278
_cell_length_b 27.011125
_cell_length_c 5.074110
_cell_angle_alpha 90.000000
_cell_angle_beta 87.367996
_cell_angle_gamma 90.000000
_cell_volume 715.681446
_symmetry_space_group_name_H-M "C 2"
_symmetry_group_IT_number 5
_symmetry_cell_setting 'monoclinic'
loop_
_space_group_symop_operation_xyz
x,y,z
-x,y,-z
1/2+x,1/2+y,z
1/2-x,1/2+y,-z
loop_
_atom_site_type_symbol
_atom_site_label
_atom_site_fract_x
_atom_site_fract_y
_atom_site_fract_z
Si Si1 0.000000 0.924181 0.500000
Si Si2 0.740914 0.131383 0.677041
Si Si3 0.241424 0.736845 0.685053
Si Si4 0.000000 0.542685 0.000000
Si Si5 0.335630 0.843211 0.768014
Si Si6 0.500000 0.485646 0.000000
O O1 0.852755 0.885356 0.318676
O O2 0.107852 0.958830 0.261054
O O3 0.500000 0.138505 0.500000
O O4 0.746898 0.183849 0.833043
O O5 0.674470 0.081236 0.827118
O O6 0.000000 0.125733 0.500000
O O7 0.500000 0.734268 0.500000
O O8 0.242304 0.788001 0.846102
O O9 0.000000 0.741136 0.500000
O O10 0.766193 0.511415 0.883844
O O11 0.500000 0.834910 0.500000
O O12 0.500000 0.862676 0.000000
#
# Coordination Sequence:
#
# PCOD9127285 Si02
#       6
#     2   4   4   2   4   2
#     4  12  28  52  76 114 148 208 264 334 390 468
#     4  10  22  44  75 107 157 199 251 316 388 472
#     4   9  19  42  68 111 153 200 245 303 382 471
#     4  12  28  50  73 116 141 212 262 332 388 466
#     4  11  24  46  77 111 157 202 251 317 389 473
#     4  12  32  48  83 106 157 202 274 334 394 446
#
# _framework density 25.150853000000001
#
# number of rings (size 3 to 8) (size 9 to 14) (size 15 to 20)
#    0.000    1.333    1.111    2.667    9.333    0.000 
#   22.000    0.000    0.000    0.000    0.000    0.000 
#    0.000    0.000    0.000    0.000    0.000    0.000 
#
# Total GULP energy -50191.100619 kJ/mol
# GULP energy per Si atom -5576.788958 kJ/mol
# Density = 2.509361 g / cm^3
# Si number density = 25.150853 Si / 1000 Ang^3
#
#
#
# Elastic Constant Matrix: (Units=GPa)
#
#
# Indices 1 2 3 4 5 6 
#
# 1 182.7918 34.7780 43.3326 0.0000 -2.5124 0.0000
# 2 34.7780 92.9238 30.6590 0.0000 2.4055 0.0000
# 3 43.3326 30.6590 104.2613 0.0000 14.7807 0.0000
# 4 0.0000 0.0000 0.0000 34.6255 0.0000 -0.5836
# 5 -2.5124 2.4055 14.7807 0.0000 67.1490 0.0000
# 6 0.0000 0.0000 0.0000 -0.5836 0.0000 28.0264
#
#
#
# Elastic Compliance Matrix: (Units=1/GPa)
#
#
# Indices 1 2 3 4 5 6 
#
# 1 0.006330 -0.001644 -0.002260 0.000000 0.000793 0.000000
# 2 -0.001644 0.012353 -0.002970 0.000000 0.000150 0.000000
# 3 -0.002260 -0.002970 0.011768 0.000000 -0.002569 0.000000
# 4 0.000000 0.000000 0.000000 0.028891 0.000000 0.000602
# 5 0.000793 0.000150 -0.002569 0.000000 0.015482 0.000000
# 6 0.000000 0.000000 0.000000 0.000602 0.000000 0.035693
#
#
# Mechanical properties :
#
#
# Convention : Reuss Voigt Hill
#
# Bulk Modulus (GPa) = 59.87136 66.39066 63.13101
# Shear Modulus (GPa) = 38.51090 44.04065 41.27578
#
# Velocity S-wave (km/s) = 3.91730 4.18911 4.05548
# Velocity P-wave (km/s) = 6.65709 7.06063 6.86183
#
# Compressibility (1/GPa) = 0.01670248
#
# Stress axis : x y z
#
# Youngs Moduli (GPa) = 157.97450 80.95204 84.97502
#
# Poissons Ratio (x) = 0.13309 0.19204
# Poissons Ratio (y) = 0.25972 0.25242
# Poissons Ratio (z) = 0.35701 0.24047
#
# Static dielectric constant tensor:
#      x y z
#    x 1.939520 0.000000 -0.037150 
#    y 0.000000 2.197830 0.000000 
#    z -0.037150 0.000000 2.025000 
# 
# From -- ./inp_files/1160.got.cif
#   From: 2010.05.17/outbox.cif.g08.bks.cpg/sg5_1_cif.got.tgz:1160.got - 2010.06.03 18:56:24.
