data_PCOD9127738
_publ_section_title
;
Structure prediction by ZEFSAII (Michael W. Deem and Ramdas Pophale) SiO2 
 PCOD9127738
Probable space group: C 2
;
_chemical_formula_sum "Si O2"
_cell_formula_units_Z 30
_cell_length_a 7.591010
_cell_length_b 18.127351
_cell_length_c 10.300348
_cell_angle_alpha 90.000000
_cell_angle_beta 81.095814
_cell_angle_gamma 90.000000
_cell_volume 1400.296934
_symmetry_space_group_name_H-M "C 2"
_symmetry_group_IT_number 5
_symmetry_cell_setting 'monoclinic'
loop_
_space_group_symop_operation_xyz
x,y,z
-x,y,-z
1/2+x,1/2+y,z
1/2-x,1/2+y,-z
loop_
_atom_site_type_symbol
_atom_site_label
_atom_site_fract_x
_atom_site_fract_y
_atom_site_fract_z
Si Si1 0.846836 0.506820 0.197389
Si Si2 0.142452 0.879712 0.377539
Si Si3 0.614998 0.667813 0.795754
Si Si4 0.000000 0.900192 0.000000
Si Si5 0.201067 0.234338 0.523654
Si Si6 0.611687 0.277613 0.141708
Si Si7 0.294540 0.176849 0.242493
Si Si8 0.247306 0.014071 0.902363
O O1 0.746803 0.446070 0.295396
O O2 0.826260 0.589974 0.249184
O O3 0.774729 0.511026 0.056260
O O4 0.059073 0.493826 0.172866
O O5 0.260340 0.817902 0.438039
O O6 0.064431 0.827619 0.272684
O O7 0.000000 0.906767 0.500000
O O8 0.712428 0.679089 0.644853
O O9 0.707971 0.732307 0.865846
O O10 0.404866 0.681617 0.796014
O O11 0.670020 0.591225 0.857691
O O12 0.099926 0.952696 0.888610
O O13 0.308731 0.209216 0.385956
O O14 0.000000 0.229917 0.500000
O O15 0.448204 0.219809 0.145355
O O16 0.642389 0.341953 0.034856
#
# Coordination Sequence:
#
# PCOD9127738 Si02
#       8
#     4   4   4   2   4   4   4   4
#     4  11  25  44  71 102 144 186 235 288 350 417
#     4  11  22  44  72 100 146 184 228 289 361 413
#     4  10  23  41  73  99 137 182 235 282 354 407
#     4  12  26  44  70  98 144 184 242 288 358 408
#     4   9  21  41  68 101 135 178 235 293 343 417
#     4  11  24  44  69 106 134 189 233 293 351 419
#     4  11  22  44  70 103 137 180 235 292 348 420
#     4  11  24  47  68 101 145 186 232 293 344 418
#
# _framework density 21.424028
#
# number of rings (size 3 to 8) (size 9 to 14) (size 15 to 20)
#    0.000    1.333    4.000    0.800    1.867    4.800 
#    0.000    0.000    0.000    0.000    0.000    0.000 
#    0.000    0.000    0.000    0.000    0.000    0.000 
#
# Total GULP energy -83686.969033 kJ/mol
# GULP energy per Si atom -5579.131269 kJ/mol
# Density = 2.137527 g / cm^3
# Si number density = 21.424028 Si / 1000 Ang^3
#
#
#
# Elastic Constant Matrix: (Units=GPa)
#
#
# Indices 1 2 3 4 5 6 
#
# 1 95.3356 62.8957 15.6549 0.0000 -11.0526 0.0000
# 2 62.8957 193.8338 71.2283 0.0000 -9.3347 0.0000
# 3 15.6549 71.2283 79.1609 0.0000 -9.4646 0.0000
# 4 0.0000 0.0000 0.0000 45.8948 0.0000 -0.8981
# 5 -11.0526 -9.3347 -9.4646 0.0000 26.6951 0.0000
# 6 0.0000 0.0000 0.0000 -0.8981 0.0000 30.8350
#
#
#
# Elastic Compliance Matrix: (Units=1/GPa)
#
#
# Indices 1 2 3 4 5 6 
#
# 1 0.014125 -0.005283 0.002546 0.000000 0.004904 0.000000
# 2 -0.005283 0.009685 -0.007859 0.000000 -0.001587 0.000000
# 3 0.002546 -0.007859 0.019839 0.000000 0.005340 0.000000
# 4 0.000000 0.000000 0.000000 0.021801 0.000000 0.000635
# 5 0.004904 -0.001587 0.005340 0.000000 0.040829 0.000000
# 6 0.000000 0.000000 0.000000 0.000635 0.000000 0.032449
#
#
# Mechanical properties :
#
#
# Convention : Reuss Voigt Hill
#
# Bulk Modulus (GPa) = 44.52905 74.20979 59.36942
# Shear Modulus (GPa) = 29.86756 35.25507 32.56132
#
# Velocity S-wave (km/s) = 3.73784 4.06098 3.90276
# Velocity P-wave (km/s) = 6.28158 7.53011 6.93401
#
# Compressibility (1/GPa) = 0.02245725
#
# Stress axis : x y z
#
# Youngs Moduli (GPa) = 70.79709 103.25311 50.40520
#
# Poissons Ratio (x) = 0.54547 -0.12835
# Poissons Ratio (y) = 0.37401 0.39616
# Poissons Ratio (z) = -0.18028 0.81151
#
# Static dielectric constant tensor:
#      x y z
#    x 1.817710 0.000000 0.068990 
#    y 0.000000 1.732230 0.000000 
#    z 0.068990 0.000000 1.906370 
# 
# From -- ./inp_files/36377.got.cif
#   From: 2010.05.17/outbox.cif.g08.bks.cpg/sg5_19_cif.got.tgz:36377.got - 2010.06.03 18:56:24.
