data_PCOD9127701
_publ_section_title
;
Structure prediction by ZEFSAII (Michael W. Deem and Ramdas Pophale) SiO2 
 PCOD9127701
Probable space group: C 2
;
_chemical_formula_sum "Si O2"
_cell_formula_units_Z 26
_cell_length_a 30.759911
_cell_length_b 5.308359
_cell_length_c 14.059188
_cell_angle_alpha 90.000000
_cell_angle_beta 152.438448
_cell_angle_gamma 90.000000
_cell_volume 1062.199936
_symmetry_space_group_name_H-M "C 2"
_symmetry_group_IT_number 5
_symmetry_cell_setting 'monoclinic'
loop_
_space_group_symop_operation_xyz
x,y,z
-x,y,-z
1/2+x,1/2+y,z
1/2-x,1/2+y,-z
loop_
_atom_site_type_symbol
_atom_site_label
_atom_site_fract_x
_atom_site_fract_y
_atom_site_fract_z
Si Si1 0.146848 0.053330 0.474673
Si Si2 0.406394 0.046323 0.107325
Si Si3 0.122142 0.578111 0.541844
Si Si4 0.448333 0.661259 0.052397
Si Si5 0.802766 0.502777 0.102922
Si Si6 0.500000 0.058109 0.000000
Si Si7 0.674941 0.270141 0.248558
O O1 0.139256 0.305528 0.525916
O O2 0.041204 0.990131 0.233511
O O3 0.223324 0.145708 0.545519
O O4 0.175017 0.806359 0.589897
O O5 0.418601 0.755830 0.097924
O O6 0.355363 0.069856 0.107568
O O7 0.512080 0.139563 0.323749
O O8 0.356629 0.175418 0.919686
O O9 0.147468 0.561184 0.701142
O O10 0.493424 0.888888 0.080639
O O11 0.355058 0.560999 0.820496
O O12 0.717893 0.704644 0.938733
O O13 0.601189 0.188363 0.186253
#
# Coordination Sequence:
#
# PCOD9127701 Si02
#       7
#     4   4   4   4   4   2   4
#     4  11  25  43  73 101 135 185 232 284 349 426
#     4  10  23  41  68  92 137 185 224 290 353 405
#     4  11  23  45  64 101 137 179 239 283 343 422
#     4  10  23  46  67 100 138 180 237 283 362 429
#     4  12  26  40  63 102 137 180 239 287 342 418
#     4  10  24  44  66 102 134 176 228 286 358 424
#     4  11  22  44  70  95 137 181 226 291 353 418
#
# _framework density 24.477501
#
# number of rings (size 3 to 8) (size 9 to 14) (size 15 to 20)
#    0.000    1.231    1.538    3.692    8.615    0.000 
#    5.538    3.077    0.000    0.000    0.000    0.000 
#    0.000    0.000    0.000    0.000    0.000    0.000 
#
# Total GULP energy -72566.746715 kJ/mol
# GULP energy per Si atom -5582.057440 kJ/mol
# Density = 2.442179 g / cm^3
# Si number density = 24.477501 Si / 1000 Ang^3
#
#
#
# Elastic Constant Matrix: (Units=GPa)
#
#
# Indices 1 2 3 4 5 6 
#
# 1 135.6442 30.7011 11.1314 0.0000 15.7945 -0.0001
# 2 30.7011 61.8774 -5.4064 0.0001 4.1941 0.0003
# 3 11.1314 -5.4064 73.8377 0.0000 4.6014 -0.0001
# 4 0.0000 0.0001 0.0000 27.8278 0.0000 0.4486
# 5 15.7945 4.1941 4.6014 0.0000 38.2379 0.0001
# 6 -0.0001 0.0003 -0.0001 0.4486 0.0001 29.6083
#
#
#
# Elastic Compliance Matrix: (Units=1/GPa)
#
#
# Indices 1 2 3 4 5 6 
#
# 1 0.008813 -0.004297 -0.001457 0.000000 -0.002994 0.000000
# 2 -0.004297 0.018505 0.002034 0.000000 -0.000499 0.000000
# 3 -0.001457 0.002034 0.013993 0.000000 -0.001305 0.000000
# 4 0.000000 0.000000 0.000000 0.035944 0.000000 -0.000545
# 5 -0.002994 -0.000499 -0.001305 0.000000 0.027600 0.000000
# 6 0.000000 0.000000 0.000000 -0.000545 0.000000 0.033783
#
#
# Mechanical properties :
#
#
# Convention : Reuss Voigt Hill
#
# Bulk Modulus (GPa) = 29.52386 38.24572 33.88479
# Shear Modulus (GPa) = 31.77273 34.79700 33.28486
#
# Velocity S-wave (km/s) = 3.60674 3.77449 3.69157
# Velocity P-wave (km/s) = 5.42518 5.88680 5.66070
#
# Compressibility (1/GPa) = 0.03387091
#
# Stress axis : x y z
#
# Youngs Moduli (GPa) = 113.46985 54.04077 71.46396
#
# Poissons Ratio (x) = 0.23221 0.10410
# Poissons Ratio (y) = 0.48758 -0.14535
# Poissons Ratio (z) = 0.16529 -0.10991
#
# Static dielectric constant tensor:
#      x y z
#    x 1.898040 0.000000 0.003320 
#    y 0.000000 2.085900 0.000000 
#    z 0.003320 0.000000 2.041910 
# 
# From -- ./inp_files/53811.got.cif
#   From: 2010.05.17/outbox.cif.g08.bks.cpg/sg5_27_cif.got.tgz:53811.got - 2010.06.03 18:56:24.
