data_PCOD9127598
_publ_section_title
;
Structure prediction by ZEFSAII (Michael W. Deem and Ramdas Pophale) SiO2 
 PCOD9127598
Probable space group: C 2
;
_chemical_formula_sum "Si O2"
_cell_formula_units_Z 20
_cell_length_a 7.443983
_cell_length_b 20.660135
_cell_length_c 6.369215
_cell_angle_alpha 90.000000
_cell_angle_beta 103.975454
_cell_angle_gamma 90.000000
_cell_volume 950.549859
_symmetry_space_group_name_H-M "C 2"
_symmetry_group_IT_number 5
_symmetry_cell_setting 'monoclinic'
loop_
_space_group_symop_operation_xyz
x,y,z
-x,y,-z
1/2+x,1/2+y,z
1/2-x,1/2+y,-z
loop_
_atom_site_type_symbol
_atom_site_label
_atom_site_fract_x
_atom_site_fract_y
_atom_site_fract_z
Si Si1 0.312303 0.955680 0.058155
Si Si2 0.694842 0.312117 0.934639
Si Si3 0.695015 0.187768 0.169591
Si Si4 0.000000 0.508770 0.500000
Si Si5 0.000000 0.753792 0.500000
Si Si6 0.327673 0.552721 0.299193
O O1 0.357254 0.967940 0.314309
O O2 0.500000 0.976740 0.000000
O O3 0.286758 0.880575 0.998650
O O4 0.169658 0.000871 0.890610
O O5 0.638426 0.296443 0.680917
O O6 0.500000 0.317600 0.000000
O O7 0.781909 0.248740 0.068633
O O8 0.626548 0.211906 0.378476
O O9 0.823699 0.125634 0.211725
O O10 0.500000 0.170812 0.000000
O O11 0.861138 0.547477 0.613600
O O12 0.500000 0.541763 0.500000
#
# Coordination Sequence:
#
# PCOD9127598 Si02
#       6
#     4   4   4   2   2   4
#     4  10  23  40  59  89 122 160 202 246 301 360
#     4   9  20  35  61  87 117 157 199 246 293 361
#     4   9  18  37  58  86 121 156 199 243 298 356
#     4  10  23  42  62  84 123 164 196 256 301 350
#     4   8  17  34  62  82 113 162 192 244 301 352
#     4  11  24  39  63  94 122 157 203 251 300 362
#
# _framework density 21.040454
#
# number of rings (size 3 to 8) (size 9 to 14) (size 15 to 20)
#    0.000    2.800    0.000    2.400    4.200    6.400 
#    5.400    0.000    0.000    0.000    0.000    0.000 
#    0.000    0.000    0.000    0.000    0.000    0.000 
#
# Total GULP energy -55734.489162 kJ/mol
# GULP energy per Si atom -5573.448916 kJ/mol
# Density = 2.099257 g / cm^3
# Si number density = 21.040454 Si / 1000 Ang^3
#
#
#
# Elastic Constant Matrix: (Units=GPa)
#
#
# Indices 1 2 3 4 5 6 
#
# 1 43.8391 14.6264 15.9610 0.0000 5.5500 0.0000
# 2 14.6264 159.6192 93.5152 0.0000 25.6587 0.0000
# 3 15.9610 93.5152 154.7704 0.0000 16.1914 0.0000
# 4 0.0000 0.0000 0.0000 19.2873 0.0000 11.5638
# 5 5.5500 25.6587 16.1914 0.0000 28.8049 0.0000
# 6 0.0000 0.0000 0.0000 11.5638 0.0000 25.7744
#
#
#
# Elastic Compliance Matrix: (Units=1/GPa)
#
#
# Indices 1 2 3 4 5 6 
#
# 1 0.024062 -0.000695 -0.001744 0.000000 -0.003037 0.000000
# 2 -0.000695 0.010679 -0.005737 0.000000 -0.006154 0.000000
# 3 -0.001744 -0.005737 0.010133 0.000000 -0.000250 0.000000
# 4 0.000000 0.000000 0.000000 0.070926 0.000000 -0.031821
# 5 -0.003037 -0.006154 -0.000250 0.000000 0.040923 0.000000
# 6 0.000000 0.000000 0.000000 -0.031821 0.000000 0.053075
#
#
# Mechanical properties :
#
#
# Convention : Reuss Voigt Hill
#
# Bulk Modulus (GPa) = 35.05968 67.38152 51.22060
# Shear Modulus (GPa) = 21.21717 30.38172 25.79945
#
# Velocity S-wave (km/s) = 3.17897 3.80408 3.50549
# Velocity P-wave (km/s) = 5.49306 7.16861 6.38602
#
# Compressibility (1/GPa) = 0.02852280
#
# Stress axis : x y z
#
# Youngs Moduli (GPa) = 41.55941 93.64286 98.68262
#
# Poissons Ratio (x) = 0.06509 0.17208
# Poissons Ratio (y) = 0.02889 0.56613
# Poissons Ratio (z) = 0.07247 0.53722
#
# Static dielectric constant tensor:
#      x y z
#    x 1.783060 0.000000 0.025490 
#    y 0.000000 1.788540 0.000000 
#    z 0.025490 0.000000 1.825130 
# 
# From -- ./inp_files/2465.got.cif
#   From: 2010.05.17/outbox.cif.g08.bks.cpg/sg5_2_cif.got.tgz:2465.got - 2010.06.03 18:56:24.
