data_PCOD9127314
_publ_section_title
;
Structure prediction by ZEFSAII (Michael W. Deem and Ramdas Pophale) SiO2 
 PCOD9127314
Probable space group: C 2
;
_chemical_formula_sum "Si O2"
_cell_formula_units_Z 20
_cell_length_a 17.361696
_cell_length_b 4.597198
_cell_length_c 15.835554
_cell_angle_alpha 90.000000
_cell_angle_beta 34.129711
_cell_angle_gamma 90.000000
_cell_volume 709.143883
_symmetry_space_group_name_H-M "C 2"
_symmetry_group_IT_number 5
_symmetry_cell_setting 'monoclinic'
loop_
_space_group_symop_operation_xyz
x,y,z
-x,y,-z
1/2+x,1/2+y,z
1/2-x,1/2+y,-z
loop_
_atom_site_type_symbol
_atom_site_label
_atom_site_fract_x
_atom_site_fract_y
_atom_site_fract_z
Si Si1 0.907600 0.418280 0.300736
Si Si2 0.101629 0.917396 0.571488
Si Si3 0.000000 0.094577 0.500000
Si Si4 0.707632 0.295982 0.811895
Si Si5 0.198405 0.462610 0.995207
Si Si6 0.500000 0.831928 0.000000
O O1 0.916070 0.748947 0.324287
O O2 0.757389 0.346127 0.404341
O O3 0.044733 0.337075 0.127462
O O4 0.915317 0.249387 0.383547
O O5 0.006867 0.891512 0.576775
O O6 0.857591 0.276756 0.633360
O O7 0.596959 0.084990 0.866325
O O8 0.627584 0.599722 0.895084
O O9 0.727672 0.145053 0.885459
O O10 0.208208 0.693022 0.063300
#
# Coordination Sequence:
#
# PCOD9127314 Si02
#       6
#     4   4   2   4   4   2
#     4  10  22  45  66  99 133 187 226 282 343 428
#     4  10  24  42  69  99 140 175 232 282 357 405
#     4  12  26  46  74 110 142 188 236 314 344 432
#     4  11  26  46  72 105 144 186 240 292 366 421
#     4  12  24  42  73 100 137 182 238 293 344 422
#     4  10  26  48  66 100 144 192 234 282 356 442
#
# _framework density 28.203019000000001
#
# number of rings (size 3 to 8) (size 9 to 14) (size 15 to 20)
#    0.000    1.200    0.000    4.800    5.600    4.800 
#    7.200    0.000    0.000    0.000    0.000    0.000 
#    0.000    0.000    0.000    0.000    0.000    0.000 
#
# Total GULP energy -55878.950796 kJ/mol
# GULP energy per Si atom -5587.895080 kJ/mol
# Density = 2.813883 g / cm^3
# Si number density = 28.203019 Si / 1000 Ang^3
#
#
#
# Elastic Constant Matrix: (Units=GPa)
#
#
# Indices 1 2 3 4 5 6 
#
# 1 77.6130 6.7387 -10.5407 -0.0101 -24.4107 0.0158
# 2 6.7387 111.5561 19.8378 -0.1372 -6.9106 0.2276
# 3 -10.5407 19.8378 201.1476 -0.0210 -28.8150 0.0073
# 4 -0.0101 -0.1372 -0.0210 72.1527 0.0298 -91.8983
# 5 -24.4107 -6.9106 -28.8150 0.0298 46.5263 -0.0478
# 6 0.0158 0.2276 0.0073 -91.8983 -0.0478 270.6841
#
#
#
# Elastic Compliance Matrix: (Units=1/GPa)
#
#
# Indices 1 2 3 4 5 6 
#
# 1 0.016405 -0.000795 0.002364 -0.000001 0.009953 0.000001
# 2 -0.000795 0.009195 -0.000892 0.000013 0.000397 -0.000003
# 3 0.002364 -0.000892 0.005862 0.000000 0.004738 0.000001
# 4 -0.000001 0.000013 0.000000 0.024418 -0.000006 0.008290
# 5 0.009953 0.000397 0.004738 -0.000006 0.029709 0.000002
# 6 0.000001 -0.000003 0.000001 0.008290 0.000002 0.006509
#
#
# Mechanical properties :
#
#
# Convention : Reuss Voigt Hill
#
# Bulk Modulus (GPa) = 30.47202 46.93203 38.70202
# Shear Modulus (GPa) = 49.17271 102.82467 75.99869
#
# Velocity S-wave (km/s) = 4.18009 6.04466 5.19668
# Velocity P-wave (km/s) = 5.84170 8.08666 7.05406
#
# Compressibility (1/GPa) = 0.03281700
#
# Stress axis : x y z
#
# Youngs Moduli (GPa) = 60.95740 108.75162 170.58819
#
# Poissons Ratio (x) = 0.08643 -0.40324
# Poissons Ratio (y) = 0.04845 0.15212
# Poissons Ratio (z) = -0.14409 0.09697
#
# Static dielectric constant tensor:
#      x y z
#    x 0.828050 -0.000010 -0.094330 
#    y -0.000010 2.095630 0.000010 
#    z -0.094330 0.000010 2.134970 
# 
# From -- ./inp_files/62047.got.cif
#   From: 2010.05.17/outbox.cif.g08.bks.cpg/sg5_32_cif.got.tgz:62047.got - 2010.06.03 18:56:24.
