data_PCOD9127888
_publ_section_title
;
Structure prediction by ZEFSAII (Michael W. Deem and Ramdas Pophale) SiO2 
 PCOD9127888
Probable space group: C 2
;
_chemical_formula_sum "Si O2"
_cell_formula_units_Z 32
_cell_length_a 25.619090
_cell_length_b 14.201266
_cell_length_c 9.328523
_cell_angle_alpha 90.000000
_cell_angle_beta 151.357798
_cell_angle_gamma 90.000000
_cell_volume 1626.843914
_symmetry_space_group_name_H-M "C 2"
_symmetry_group_IT_number 5
_symmetry_cell_setting 'monoclinic'
loop_
_space_group_symop_operation_xyz
x,y,z
-x,y,-z
1/2+x,1/2+y,z
1/2-x,1/2+y,-z
loop_
_atom_site_type_symbol
_atom_site_label
_atom_site_fract_x
_atom_site_fract_y
_atom_site_fract_z
Si Si1 0.175009 0.901340 0.178271
Si Si2 0.467451 0.519669 0.764272
Si Si3 0.685604 0.342740 0.531404
Si Si4 0.127850 0.346535 0.790993
Si Si5 0.320812 0.644044 0.216228
Si Si6 0.107954 0.719420 0.858220
Si Si7 0.462132 0.157957 0.753614
Si Si8 0.699559 0.004817 0.739702
O O1 0.194767 0.853351 0.381075
O O2 0.273840 0.959304 0.349438
O O3 0.147127 0.824154 0.990434
O O4 0.073667 0.971812 0.952399
O O5 0.382963 0.433629 0.583243
O O6 0.410875 0.599942 0.536344
O O7 0.500000 0.555412 0.000000
O O8 0.614856 0.250627 0.407505
O O9 0.800276 0.345150 0.890503
O O10 0.143918 0.243897 0.760739
O O11 0.174514 0.425687 0.796755
O O12 0.000000 0.364788 0.500000
O O13 0.206371 0.661921 0.024106
O O14 0.298258 0.568261 0.037390
O O15 0.000000 0.721006 0.500000
O O16 0.066832 0.681092 0.910954
O O17 0.397444 0.077797 0.515471
O O18 0.500000 0.126268 0.000000
#
# Coordination Sequence:
#
# PCOD9127888 Si02
#       8
#     4   4   4   4   4   4   4   4
#     4  11  25  43  73 101 135 179 231 290 337 393
#     4  10  23  43  71 100 134 178 232 282 345 403
#     4  11  21  48  70 102 138 177 228 294 337 401
#     4  12  28  47  67  97 145 185 220 284 355 406
#     4  12  26  44  68 103 139 180 234 284 340 415
#     4  12  23  42  71  99 134 184 227 286 339 393
#     4  12  24  43  74 105 139 176 234 285 344 405
#     4  12  27  44  68 106 137 179 237 277 337 420
#
# _framework density 19.669988
#
# number of rings (size 3 to 8) (size 9 to 14) (size 15 to 20)
#    0.000    0.500    7.500    0.375    5.250    3.000 
#    2.250    0.625    0.000    0.000    0.000    0.000 
#    0.000    0.000    0.000    0.000    0.000    0.000 
#
# Total GULP energy -89431.273379 kJ/mol
# GULP energy per Si atom -5589.454586 kJ/mol
# Density = 1.962522 g / cm^3
# Si number density = 19.669988 Si / 1000 Ang^3
#
#
#
# Elastic Constant Matrix: (Units=GPa)
#
#
# Indices 1 2 3 4 5 6 
#
# 1 77.8245 18.0989 16.1246 0.0000 -4.0239 0.0000
# 2 18.0989 89.7105 22.9098 0.0000 -17.8410 0.0000
# 3 16.1246 22.9098 103.4082 0.0000 -17.7543 0.0000
# 4 0.0000 0.0000 0.0000 30.1322 0.0000 -6.3693
# 5 -4.0239 -17.8410 -17.7543 0.0000 29.2065 0.0000
# 6 0.0000 0.0000 0.0000 -6.3693 0.0000 15.9655
#
#
#
# Elastic Compliance Matrix: (Units=1/GPa)
#
#
# Indices 1 2 3 4 5 6 
#
# 1 0.013743 -0.002466 -0.001709 0.000000 -0.000651 0.000000
# 2 -0.002466 0.013389 -0.001380 0.000000 0.007000 0.000000
# 3 -0.001709 -0.001380 0.011229 0.000000 0.005748 0.000000
# 4 0.000000 0.000000 0.000000 0.036243 0.000000 0.014459
# 5 -0.000651 0.007000 0.005748 0.000000 0.041919 0.000000
# 6 0.000000 0.000000 0.000000 0.014459 0.000000 0.068404
#
#
# Mechanical properties :
#
#
# Convention : Reuss Voigt Hill
#
# Bulk Modulus (GPa) = 36.69330 42.80109 39.74719
# Shear Modulus (GPa) = 24.37587 29.31484 26.84536
#
# Velocity S-wave (km/s) = 3.52411 3.86467 3.69831
# Velocity P-wave (km/s) = 5.93751 6.45919 6.20383
#
# Compressibility (1/GPa) = 0.02725293
#
# Stress axis : x y z
#
# Youngs Moduli (GPa) = 72.76326 74.68812 89.05194
#
# Poissons Ratio (x) = 0.18417 0.15215
# Poissons Ratio (y) = 0.17943 0.12288
# Poissons Ratio (z) = 0.12432 0.10306
#
# Static dielectric constant tensor:
#      x y z
#    x 1.702480 0.000000 -0.016380 
#    y 0.000000 1.672610 0.000000 
#    z -0.016380 0.000000 1.694980 
# 
# From -- ./inp_files/31076.got.cif
#   From: 2010.05.17/outbox.cif.g08.bks.cpg/sg5_16_cif.got.tgz:31076.got - 2010.06.03 18:56:24.
