data_PCOD9127085
_publ_section_title
;
Structure prediction by ZEFSAII (Michael W. Deem and Ramdas Pophale) SiO2 
 PCOD9127085
Probable space group: C 2
;
_chemical_formula_sum "Si O2"
_cell_formula_units_Z 26
_cell_length_a 19.633087
_cell_length_b 8.688481
_cell_length_c 8.771246
_cell_angle_alpha 90.000000
_cell_angle_beta 132.381253
_cell_angle_gamma 90.000000
_cell_volume 1105.217331
_symmetry_space_group_name_H-M "C 2"
_symmetry_group_IT_number 5
_symmetry_cell_setting 'monoclinic'
loop_
_space_group_symop_operation_xyz
x,y,z
-x,y,-z
1/2+x,1/2+y,z
1/2-x,1/2+y,-z
loop_
_atom_site_type_symbol
_atom_site_label
_atom_site_fract_x
_atom_site_fract_y
_atom_site_fract_z
Si Si1 0.500000 0.459930 0.000000
Si Si2 0.485450 0.273124 0.298034
Si Si3 0.190049 0.354275 0.994950
Si Si4 0.192016 0.132093 0.231908
Si Si5 0.278254 0.189846 0.886565
Si Si6 0.485319 0.920911 0.654630
Si Si7 0.702931 0.841109 0.506268
O O1 0.486565 0.367565 0.815549
O O2 0.409018 0.561131 0.895984
O O3 0.500000 0.328929 0.500000
O O4 0.532079 0.104320 0.361070
O O5 0.376457 0.237928 0.106795
O O6 0.206892 0.316486 0.843882
O O7 0.083869 0.383034 0.877020
O O8 0.216588 0.187047 0.100728
O O9 0.241389 0.510732 0.115674
O O10 0.203989 0.294034 0.334083
O O11 0.260629 0.008072 0.401470
O O12 0.271246 0.225130 0.697618
O O13 0.500000 0.884311 0.500000
O O14 0.402827 0.827026 0.602620
#
# Coordination Sequence:
#
# PCOD9127085 Si02
#       7
#     2   4   4   4   4   4   4
#     4  12  26  50  70 110 152 190 260 304 362 446
#     4  10  25  44  76 108 147 197 241 309 372 437
#     4  11  24  44  72 102 143 186 241 304 363 443
#     4  12  28  44  69 105 144 193 248 304 374 438
#     4  11  23  45  72 107 142 189 241 304 369 438
#     4  10  22  43  71 105 141 189 240 293 375 437
#     4  12  25  46  70 101 144 189 242 305 365 444
#
# _framework density 23.524782999999999
#
# number of rings (size 3 to 8) (size 9 to 14) (size 15 to 20)
#    0.000    0.923    3.077    2.769    6.462    3.692 
#    0.000    0.000    0.000    0.000    0.000    0.000 
#    0.000    0.000    0.000    0.000    0.000    0.000 
#
# Total GULP energy -72523.390495 kJ/mol
# GULP energy per Si atom -5578.722346 kJ/mol
# Density = 2.347124 g / cm^3
# Si number density = 23.524783 Si / 1000 Ang^3
#
#
#
# Elastic Constant Matrix: (Units=GPa)
#
#
# Indices 1 2 3 4 5 6 
#
# 1 55.7936 22.6613 13.1841 0.0000 -1.7029 0.0000
# 2 22.6613 92.7352 20.3778 0.0000 -15.8001 0.0000
# 3 13.1841 20.3778 77.3954 0.0000 -10.3050 0.0000
# 4 0.0000 0.0000 0.0000 38.7411 0.0000 -13.9091
# 5 -1.7029 -15.8001 -10.3050 0.0000 40.7389 0.0000
# 6 0.0000 0.0000 0.0000 -13.9091 0.0000 39.7749
#
#
#
# Elastic Compliance Matrix: (Units=1/GPa)
#
#
# Indices 1 2 3 4 5 6 
#
# 1 0.020365 -0.004712 -0.002441 0.000000 -0.001593 0.000000
# 2 -0.004712 0.013135 -0.002074 0.000000 0.004373 0.000000
# 3 -0.002441 -0.002074 0.014241 0.000000 0.002696 0.000000
# 4 0.000000 0.000000 0.000000 0.029518 0.000000 0.010323
# 5 -0.001593 0.004373 0.002696 0.000000 0.026858 0.000000
# 6 0.000000 0.000000 0.000000 0.010323 0.000000 0.028751
#
#
# Mechanical properties :
#
#
# Convention : Reuss Voigt Hill
#
# Bulk Modulus (GPa) = 34.14155 37.59673 35.86914
# Shear Modulus (GPa) = 31.03952 35.16437 33.10195
#
# Velocity S-wave (km/s) = 3.63635 3.87043 3.75522
# Velocity P-wave (km/s) = 5.67232 5.99918 5.83804
#
# Compressibility (1/GPa) = 0.02928982
#
# Stress axis : x y z
#
# Youngs Moduli (GPa) = 49.10378 76.12969 70.21778
#
# Poissons Ratio (x) = 0.35870 0.17138
# Poissons Ratio (y) = 0.23136 0.14561
# Poissons Ratio (z) = 0.11985 0.15787
#
# Static dielectric constant tensor:
#      x y z
#    x 1.865740 0.000000 0.010580 
#    y 0.000000 1.878960 0.000000 
#    z 0.010580 0.000000 1.887740 
# 
# From -- ./inp_files/29099.got.cif
#   From: 2010.05.17/outbox.cif.g08.bks.cpg/sg5_15_cif.got.tgz:29099.got - 2010.06.03 18:56:24.
