data_PCOD9127508
_publ_section_title
;
Structure prediction by ZEFSAII (Michael W. Deem and Ramdas Pophale) SiO2 
 PCOD9127508
Probable space group: C 2
;
_chemical_formula_sum "Si O2"
_cell_formula_units_Z 24
_cell_length_a 13.800222
_cell_length_b 4.909697
_cell_length_c 13.609327
_cell_angle_alpha 90.000000
_cell_angle_beta 102.392697
_cell_angle_gamma 90.000000
_cell_volume 900.613475
_symmetry_space_group_name_H-M "C 2"
_symmetry_group_IT_number 5
_symmetry_cell_setting 'monoclinic'
loop_
_space_group_symop_operation_xyz
x,y,z
-x,y,-z
1/2+x,1/2+y,z
1/2-x,1/2+y,-z
loop_
_atom_site_type_symbol
_atom_site_label
_atom_site_fract_x
_atom_site_fract_y
_atom_site_fract_z
Si Si1 0.701240 0.561710 0.255146
Si Si2 0.316374 0.615317 0.533653
Si Si3 0.069143 0.661796 0.705970
Si Si4 0.084763 0.168825 0.839725
Si Si5 0.687376 0.070057 0.123442
Si Si6 0.500000 0.344323 0.000000
Si Si7 0.500000 0.908492 0.500000
O O1 0.650950 0.638795 0.345812
O O2 0.818389 0.586988 0.299499
O O3 0.676627 0.257123 0.218264
O O4 0.683832 0.761651 0.159482
O O5 0.276517 0.315591 0.504296
O O6 0.404335 0.715911 0.484427
O O7 0.070402 0.968823 0.743619
O O8 0.002882 0.591263 0.598552
O O9 0.051950 0.465681 0.796592
O O10 0.202544 0.149104 0.891523
O O11 0.022340 0.039004 0.913028
O O12 0.597495 0.158302 0.035303
#
# Coordination Sequence:
#
# PCOD9127508 Si02
#       7
#     4   4   4   4   4   2   2
#     4  10  22  48  69 100 153 191 235 298 373 426
#     4  12  27  45  72 110 150 194 248 305 360 441
#     4  10  24  47  70 108 148 195 236 306 354 438
#     4  10  26  47  72 105 152 185 246 298 373 431
#     4  10  25  45  74 104 142 190 237 309 362 442
#     4  12  28  48  82 112 140 198 250 306 380 444
#     4  12  28  44  80 110 154 194 254 298 364 428
#
# _framework density 26.648503999999999
#
# number of rings (size 3 to 8) (size 9 to 14) (size 15 to 20)
#    0.000    1.333    1.667    1.000    9.333    9.333 
#    0.000    0.000    0.000    0.000    0.000    0.000 
#    0.000    0.000    0.000    0.000    0.000    0.000 
#
# Total GULP energy -67425.382025 kJ/mol
# GULP energy per Si atom -5618.781835 kJ/mol
# Density = 2.658785 g / cm^3
# Si number density = 26.648504 Si / 1000 Ang^3
#
#
#
# Elastic Constant Matrix: (Units=GPa)
#
#
# Indices 1 2 3 4 5 6 
#
# 1 131.0117 19.1722 35.4545 0.0000 24.4220 0.0000
# 2 19.1722 82.3457 3.0131 0.0000 5.2128 0.0000
# 3 35.4545 3.0131 71.8826 0.0000 -0.8261 0.0000
# 4 0.0000 0.0000 0.0000 29.1921 0.0000 5.8090
# 5 24.4220 5.2128 -0.8261 0.0000 38.9641 0.0000
# 6 0.0000 0.0000 0.0000 5.8090 0.0000 32.9311
#
#
#
# Elastic Compliance Matrix: (Units=1/GPa)
#
#
# Indices 1 2 3 4 5 6 
#
# 1 0.010507 -0.001849 -0.005179 0.000000 -0.006448 0.000000
# 2 -0.001849 0.012593 0.000378 0.000000 -0.000518 0.000000
# 3 -0.005179 0.000378 0.016491 0.000000 0.003545 0.000000
# 4 0.000000 0.000000 0.000000 0.035502 0.000000 -0.006262
# 5 -0.006448 -0.000518 0.003545 0.000000 0.029851 0.000000
# 6 0.000000 0.000000 0.000000 -0.006262 0.000000 0.031471
#
#
# Mechanical properties :
#
#
# Convention : Reuss Voigt Hill
#
# Bulk Modulus (GPa) = 38.03444 44.50216 41.26830
# Shear Modulus (GPa) = 31.55010 35.39080 33.47045
#
# Velocity S-wave (km/s) = 3.44457 3.64821 3.54785
# Velocity P-wave (km/s) = 5.48851 5.87212 5.68355
#
# Compressibility (1/GPa) = 0.02629196
#
# Stress axis : x y z
#
# Youngs Moduli (GPa) = 95.17514 79.40734 60.63963
#
# Poissons Ratio (x) = 0.14679 0.31405
# Poissons Ratio (y) = 0.17594 -0.02292
# Poissons Ratio (z) = 0.49291 -0.03001
#
# Static dielectric constant tensor:
#      x y z
#    x 2.087010 0.000000 0.029180 
#    y 0.000000 1.991130 0.000000 
#    z 0.029180 0.000000 2.034160 
# 
# From -- ./inp_files/53716.got.cif
#   From: 2010.05.17/outbox.cif.g08.bks.cpg/sg5_27_cif.got.tgz:53716.got - 2010.06.03 18:56:24.
