data_PCOD9127731
_publ_section_title
;
Structure prediction by ZEFSAII (Michael W. Deem and Ramdas Pophale) SiO2 
 PCOD9127731
Probable space group: C 2
;
_chemical_formula_sum "Si O2"
_cell_formula_units_Z 22
_cell_length_a 20.499362
_cell_length_b 9.422478
_cell_length_c 8.399917
_cell_angle_alpha 90.000000
_cell_angle_beta 145.630149
_cell_angle_gamma 90.000000
_cell_volume 915.945459
_symmetry_space_group_name_H-M "C 2"
_symmetry_group_IT_number 5
_symmetry_cell_setting 'monoclinic'
loop_
_space_group_symop_operation_xyz
x,y,z
-x,y,-z
1/2+x,1/2+y,z
1/2-x,1/2+y,-z
loop_
_atom_site_type_symbol
_atom_site_label
_atom_site_fract_x
_atom_site_fract_y
_atom_site_fract_z
Si Si1 0.532308 0.697960 0.726455
Si Si2 0.196243 0.852747 0.498895
Si Si3 0.703602 0.240361 0.836629
Si Si4 0.660873 0.936776 0.679752
Si Si5 0.500000 0.554902 0.000000
Si Si6 0.137948 0.554747 0.283835
O O1 0.500000 0.610062 0.500000
O O2 0.450835 0.836227 0.544744
O O3 0.505542 0.640174 0.846777
O O4 0.668775 0.716687 0.982705
O O5 0.142816 0.816658 0.564939
O O6 0.200745 0.706743 0.409736
O O7 0.314215 0.942800 0.747144
O O8 0.110600 0.955709 0.235224
O O9 0.653701 0.083632 0.766178
O O10 0.731707 0.342832 0.040005
O O11 0.670844 0.987435 0.519639
O O12 0.000000 0.574201 0.000000
#
# Coordination Sequence:
#
# PCOD9127731 Si02
#       6
#     4   4   4   4   2   4
#     4  10  24  44  70 102 138 185 238 287 355 424
#     4  11  25  42  69 102 140 186 238 291 359 423
#     4  10  23  44  66 102 137 182 240 286 355 423
#     4  10  23  41  71  95 135 183 225 297 347 414
#     4  12  24  44  74 106 146 194 230 304 358 416
#     4  11  24  45  68 103 141 182 239 294 350 430
#
# _framework density 24.018899999999999
#
# number of rings (size 3 to 8) (size 9 to 14) (size 15 to 20)
#    0.000    1.455    0.909    3.273   11.455    0.000 
#    0.000    0.000    8.000    0.000    0.000    0.000 
#    0.000    0.000    0.000    0.000    0.000    0.000 
#
# Total GULP energy -61471.335559 kJ/mol
# GULP energy per Si atom -5588.303233 kJ/mol
# Density = 2.396423 g / cm^3
# Si number density = 24.018900 Si / 1000 Ang^3
#
#
#
# Elastic Constant Matrix: (Units=GPa)
#
#
# Indices 1 2 3 4 5 6 
#
# 1 60.8478 37.1186 22.2313 0.0000 -19.3405 0.0000
# 2 37.1186 150.5944 62.3061 0.0000 -12.2655 0.0000
# 3 22.2313 62.3061 96.7573 0.0000 -16.8553 0.0000
# 4 0.0000 0.0000 0.0000 41.1923 0.0000 -3.5373
# 5 -19.3405 -12.2655 -16.8553 0.0000 49.5562 0.0000
# 6 0.0000 0.0000 0.0000 -3.5373 0.0000 20.7131
#
#
#
# Elastic Compliance Matrix: (Units=1/GPa)
#
#
# Indices 1 2 3 4 5 6 
#
# 1 0.021696 -0.004388 -0.000928 0.000000 0.007066 0.000000
# 2 -0.004388 0.009943 -0.005596 0.000000 -0.001155 0.000000
# 3 -0.000928 -0.005596 0.014719 0.000000 0.003259 0.000000
# 4 0.000000 0.000000 0.000000 0.024638 0.000000 0.004208
# 5 0.007066 -0.001155 0.003259 0.000000 0.023759 0.000000
# 6 0.000000 0.000000 0.000000 0.004208 0.000000 0.048997
#
#
# Mechanical properties :
#
#
# Convention : Reuss Voigt Hill
#
# Bulk Modulus (GPa) = 40.75921 61.27905 51.01913
# Shear Modulus (GPa) = 28.77605 34.72856 31.75230
#
# Velocity S-wave (km/s) = 3.46505 3.80660 3.63984
# Velocity P-wave (km/s) = 5.74589 6.69989 6.24115
#
# Compressibility (1/GPa) = 0.02453433
#
# Stress axis : x y z
#
# Youngs Moduli (GPa) = 46.09068 100.57335 67.93714
#
# Poissons Ratio (x) = 0.44133 0.06308
# Poissons Ratio (y) = 0.20225 0.38015
# Poissons Ratio (z) = 0.04279 0.56277
#
# Static dielectric constant tensor:
#      x y z
#    x 1.956690 0.000000 -0.015130 
#    y 0.000000 1.967990 0.000000 
#    z -0.015130 0.000000 1.993960 
# 
# From -- ./inp_files/29060.got.cif
#   From: 2010.05.17/outbox.cif.g08.bks.cpg/sg5_15_cif.got.tgz:29060.got - 2010.06.03 18:56:24.
