data_PCOD9127992
_publ_section_title
;
Structure prediction by ZEFSAII (Michael W. Deem and Ramdas Pophale) SiO2 
 PCOD9127992
Probable space group: C 2
;
_chemical_formula_sum "Si O2"
_cell_formula_units_Z 20
_cell_length_a 14.851583
_cell_length_b 4.985091
_cell_length_c 9.669725
_cell_angle_alpha 90.000000
_cell_angle_beta 108.549171
_cell_angle_gamma 90.000000
_cell_volume 678.721583
_symmetry_space_group_name_H-M "C 2"
_symmetry_group_IT_number 5
_symmetry_cell_setting 'monoclinic'
loop_
_space_group_symop_operation_xyz
x,y,z
-x,y,-z
1/2+x,1/2+y,z
1/2-x,1/2+y,-z
loop_
_atom_site_type_symbol
_atom_site_label
_atom_site_fract_x
_atom_site_fract_y
_atom_site_fract_z
Si Si1 0.668976 0.952550 0.059964
Si Si2 0.864599 0.340063 0.568065
Si Si3 0.611143 0.272943 0.806543
Si Si4 0.196128 0.843540 0.305589
Si Si5 0.500000 0.468777 0.500000
Si Si6 0.000000 0.062891 0.000000
O O1 0.587778 0.759185 0.079195
O O2 0.666858 0.233500 0.143273
O O3 0.779974 0.880773 0.126377
O O4 0.632808 0.983311 0.884731
O O5 0.862258 0.642720 0.620153
O O6 0.805035 0.289462 0.399026
O O7 0.959675 0.182445 0.590561
O O8 0.810812 0.150486 0.652096
O O9 0.570025 0.294448 0.632004
O O10 0.536503 0.399324 0.882120
#
# Coordination Sequence:
#
# PCOD9127992 Si02
#       6
#     4   4   4   4   2   2
#     4  12  26  50  80 118 159 217 277 345 411 507
#     4  10  23  44  74 109 158 202 263 331 406 483
#     4  12  28  52  81 116 163 214 278 344 421 496
#     4  10  23  45  73 110 153 211 258 329 407 486
#     4  12  26  50  72 122 156 210 276 344 408 500
#     4  12  28  52  82 112 160 220 276 340 414 504
#
# _framework density 29.467158999999999
#
# number of rings (size 3 to 8) (size 9 to 14) (size 15 to 20)
#    0.000    0.800    4.000    1.800    8.400    0.800 
#    7.200    0.000    0.000    0.000    0.000    0.000 
#    0.000    0.000    0.000    0.000    0.000    0.000 
#
# Total GULP energy -55977.478138 kJ/mol
# GULP energy per Si atom -5597.747814 kJ/mol
# Density = 2.940009 g / cm^3
# Si number density = 29.467159 Si / 1000 Ang^3
#
#
#
# Elastic Constant Matrix: (Units=GPa)
#
#
# Indices 1 2 3 4 5 6 
#
# 1 171.6386 46.8754 59.4143 0.0000 0.8087 0.0000
# 2 46.8754 94.6321 28.8546 0.0000 7.7531 0.0000
# 3 59.4143 28.8546 232.0807 0.0000 30.2697 0.0000
# 4 0.0000 0.0000 0.0000 47.0749 0.0000 -2.1921
# 5 0.8087 7.7531 30.2697 0.0000 46.7805 0.0000
# 6 0.0000 0.0000 0.0000 -2.1921 0.0000 59.8785
#
#
#
# Elastic Compliance Matrix: (Units=1/GPa)
#
#
# Indices 1 2 3 4 5 6 
#
# 1 0.007271 -0.003218 -0.001654 0.000000 0.001478 0.000000
# 2 -0.003218 0.012453 -0.000505 0.000000 -0.001681 0.000000
# 3 -0.001654 -0.000505 0.005221 0.000000 -0.003266 0.000000
# 4 0.000000 0.000000 0.000000 0.021279 0.000000 0.000779
# 5 0.001478 -0.001681 -0.003266 0.000000 0.023743 0.000000
# 6 0.000000 0.000000 0.000000 0.000779 0.000000 0.016729
#
#
# Mechanical properties :
#
#
# Convention : Reuss Voigt Hill
#
# Bulk Modulus (GPa) = 70.47103 85.40446 77.93774
# Shear Modulus (GPa) = 48.93298 54.96057 51.94678
#
# Velocity S-wave (km/s) = 4.07946 4.32342 4.20321
# Velocity P-wave (km/s) = 6.79385 7.34632 7.07548
#
# Compressibility (1/GPa) = 0.01419023
#
# Stress axis : x y z
#
# Youngs Moduli (GPa) = 137.53840 80.30091 191.53207
#
# Poissons Ratio (x) = 0.25843 0.31679
# Poissons Ratio (y) = 0.44263 0.09674
# Poissons Ratio (z) = 0.22749 0.04056
#
# Static dielectric constant tensor:
#      x y z
#    x 2.352410 0.000000 -0.079330 
#    y 0.000000 2.298640 0.000000 
#    z -0.079330 0.000000 2.352270 
# 
# From -- ./inp_files/28202.got.cif
#   From: 2010.05.17/outbox.cif.g08.bks.cpg/sg5_15_cif.got.tgz:28202.got - 2010.06.03 18:56:24.
