data_PCOD9127844
_publ_section_title
;
Structure prediction by ZEFSAII (Michael W. Deem and Ramdas Pophale) SiO2 
 PCOD9127844
Probable space group: C 2
;
_chemical_formula_sum "Si O2"
_cell_formula_units_Z 24
_cell_length_a 10.541918
_cell_length_b 9.634809
_cell_length_c 23.113750
_cell_angle_alpha 90.000000
_cell_angle_beta 31.727736
_cell_angle_gamma 90.000000
_cell_volume 1234.589735
_symmetry_space_group_name_H-M "C 2"
_symmetry_group_IT_number 5
_symmetry_cell_setting 'monoclinic'
loop_
_space_group_symop_operation_xyz
x,y,z
-x,y,-z
1/2+x,1/2+y,z
1/2-x,1/2+y,-z
loop_
_atom_site_type_symbol
_atom_site_label
_atom_site_fract_x
_atom_site_fract_y
_atom_site_fract_z
Si Si1 0.423593 0.273140 0.963979
Si Si2 0.005548 0.103821 0.065299
Si Si3 0.144574 0.585761 0.302144
Si Si4 0.144296 0.287446 0.284425
Si Si5 0.810600 0.799934 0.618588
Si Si6 0.930400 0.092843 0.464649
O O1 0.411574 0.441768 0.965501
O O2 0.636517 0.229232 0.837689
O O3 0.500000 0.238033 0.000000
O O4 0.185578 0.197865 0.033183
O O5 0.746435 0.112193 0.198126
O O6 0.000000 0.145549 0.000000
O O7 0.225963 0.428846 0.284139
O O8 0.244556 0.699996 0.307076
O O9 0.857806 0.588029 0.422782
O O10 0.933371 0.330676 0.321355
O O11 0.032368 0.182210 0.373074
O O12 0.000000 0.731413 0.500000
O O13 0.946936 0.940445 0.584917
O O14 0.000000 0.154354 0.500000
#
# Coordination Sequence:
#
# PCOD9127844 Si02
#       6
#     4   4   4   4   4   4
#     4  10  23  43  65  89 123 164 211 256 307 362
#     4  10  24  42  64  90 123 163 211 258 306 360
#     4  11  21  40  62  89 124 159 198 250 303 363
#     4  11  23  40  62  91 122 161 202 251 302 364
#     4  11  21  40  61  89 127 157 199 244 302 367
#     4  11  22  38  62  92 124 158 196 243 309 366
#
# _framework density 19.439657
#
# number of rings (size 3 to 8) (size 9 to 14) (size 15 to 20)
#    0.000    1.333    5.000    1.000    2.333    4.000 
#    3.000    0.000    0.000    0.000    0.000    0.000 
#    0.000    0.000    0.000    0.000    0.000    0.000 
#
# Total GULP energy -66969.415612 kJ/mol
# GULP energy per Si atom -5580.784634 kJ/mol
# Density = 1.939541 g / cm^3
# Si number density = 19.439657 Si / 1000 Ang^3
#
#
#
# Elastic Constant Matrix: (Units=GPa)
#
#
# Indices 1 2 3 4 5 6 
#
# 1 88.0985 56.2197 33.7303 -0.0002 17.3287 0.0001
# 2 56.2197 69.9712 49.7217 -0.0001 21.7099 0.0001
# 3 33.7303 49.7217 139.3168 -0.0002 22.8283 0.0003
# 4 -0.0002 -0.0001 -0.0002 26.3485 0.0001 2.6627
# 5 17.3287 21.7099 22.8283 0.0001 35.7334 -0.0001
# 6 0.0001 0.0001 0.0003 2.6627 -0.0001 27.2132
#
#
#
# Elastic Compliance Matrix: (Units=1/GPa)
#
#
# Indices 1 2 3 4 5 6 
#
# 1 0.023501 -0.019811 0.001425 0.000000 -0.000271 0.000000
# 2 -0.019811 0.038216 -0.007386 0.000000 -0.008893 0.000000
# 3 0.001425 -0.007386 0.009881 0.000000 -0.002516 0.000000
# 4 0.000000 0.000000 0.000000 0.038332 0.000000 -0.003751
# 5 -0.000271 -0.008893 -0.002516 0.000000 0.035127 0.000000
# 6 0.000000 0.000000 0.000000 -0.003751 0.000000 0.037114
#
#
# Mechanical properties :
#
#
# Convention : Reuss Voigt Hill
#
# Bulk Modulus (GPa) = 49.86178 64.08110 56.97144
# Shear Modulus (GPa) = 20.79878 28.37334 24.58606
#
# Velocity S-wave (km/s) = 3.27450 3.82456 3.56017
# Velocity P-wave (km/s) = 6.32469 7.24836 6.80222
#
# Compressibility (1/GPa) = 0.02005544
#
# Stress axis : x y z
#
# Youngs Moduli (GPa) = 42.55188 26.16683 101.20274
#
# Poissons Ratio (x) = 0.51838 -0.14420
# Poissons Ratio (y) = 0.84298 0.74745
# Poissons Ratio (z) = -0.06063 0.19326
#
# Static dielectric constant tensor:
#      x y z
#    x 1.698370 0.000000 -0.005890 
#    y 0.000000 1.674700 0.000000 
#    z -0.005890 0.000000 1.691770 
# 
# From -- ./inp_files/38280.got.cif
#   From: 2010.05.17/outbox.cif.g08.bks.cpg/sg5_20_cif.got.tgz:38280.got - 2010.06.03 18:56:24.
