data_PCOD9127806
_publ_section_title
;
Structure prediction by ZEFSAII (Michael W. Deem and Ramdas Pophale) SiO2 
 PCOD9127806
Probable space group: C 2
;
_chemical_formula_sum "Si O2"
_cell_formula_units_Z 28
_cell_length_a 13.708246
_cell_length_b 13.801274
_cell_length_c 7.569906
_cell_angle_alpha 90.000000
_cell_angle_beta 113.889375
_cell_angle_gamma 90.000000
_cell_volume 1309.465564
_symmetry_space_group_name_H-M "C 2"
_symmetry_group_IT_number 5
_symmetry_cell_setting 'monoclinic'
loop_
_space_group_symop_operation_xyz
x,y,z
-x,y,-z
1/2+x,1/2+y,z
1/2-x,1/2+y,-z
loop_
_atom_site_type_symbol
_atom_site_label
_atom_site_fract_x
_atom_site_fract_y
_atom_site_fract_z
Si Si1 0.546319 0.125000 0.771568
Si Si2 0.729564 0.584626 0.945487
Si Si3 0.790867 0.937203 0.386354
Si Si4 0.838605 0.097514 0.702846
Si Si5 0.538100 0.917860 0.230250
Si Si6 0.858146 0.723319 0.506127
Si Si7 0.966196 0.207921 0.279441
O O1 0.443476 0.194646 0.719751
O O2 0.600943 0.167879 0.637811
O O3 0.501415 0.017228 0.712910
O O4 0.645437 0.112142 0.977555
O O5 0.703764 0.494929 0.796214
O O6 0.654037 0.674625 0.840971
O O7 0.700672 0.566470 0.130669
O O8 0.665854 0.915991 0.330057
O O9 0.850068 0.835073 0.448616
O O10 0.835733 0.007035 0.570423
O O11 0.757811 0.176073 0.555161
O O12 0.952702 0.149512 0.786818
O O13 0.486193 0.821670 0.271729
O O14 0.500000 0.921047 0.000000
O O15 0.000000 0.178563 0.500000
#
# Coordination Sequence:
#
# PCOD9127806 Si02
#       7
#     4   4   4   4   4   4   4
#     4  10  23  42  69  99 141 190 230 289 366 423
#     4  11  25  45  72 106 145 189 241 297 360 433
#     4  12  24  45  75 107 141 195 242 289 371 433
#     4  11  23  46  71 104 148 185 234 307 356 423
#     4  12  24  42  70 106 142 187 248 301 348 435
#     4  10  23  43  68 106 146 183 230 307 363 416
#     4  12  26  43  73 108 142 188 246 300 364 428
#
# _framework density 21.382767999999999
#
# number of rings (size 3 to 8) (size 9 to 14) (size 15 to 20)
#    0.000    0.857    5.714    1.286    4.000    2.286 
#    0.000    4.286    0.000    0.000    0.000    0.000 
#    0.000    0.000    0.000    0.000    0.000    0.000 
#
# Total GULP energy -78214.964107 kJ/mol
# GULP energy per Si atom -5586.783151 kJ/mol
# Density = 2.133410 g / cm^3
# Si number density = 21.382768 Si / 1000 Ang^3
#
#
#
# Elastic Constant Matrix: (Units=GPa)
#
#
# Indices 1 2 3 4 5 6 
#
# 1 78.5651 58.7063 45.3196 0.0000 13.2247 0.0000
# 2 58.7063 172.9086 61.3855 0.0000 8.0546 0.0000
# 3 45.3196 61.3855 110.4925 0.0000 4.8183 0.0000
# 4 0.0000 0.0000 0.0000 23.5644 0.0000 -1.6234
# 5 13.2247 8.0546 4.8183 0.0000 41.4088 0.0000
# 6 0.0000 0.0000 0.0000 -1.6234 0.0000 35.8346
#
#
#
# Elastic Compliance Matrix: (Units=1/GPa)
#
#
# Indices 1 2 3 4 5 6 
#
# 1 0.020217 -0.004693 -0.005471 0.000000 -0.004907 0.000000
# 2 -0.004693 0.008331 -0.002712 0.000000 0.000194 0.000000
# 3 -0.005471 -0.002712 0.012766 0.000000 0.000789 0.000000
# 4 0.000000 0.000000 0.000000 0.042570 0.000000 0.001929
# 5 -0.004907 0.000194 0.000789 0.000000 0.025587 0.000000
# 6 0.000000 0.000000 0.000000 0.001929 0.000000 0.027993
#
#
# Mechanical properties :
#
#
# Convention : Reuss Voigt Hill
#
# Bulk Modulus (GPa) = 64.25692 76.97656 70.61674
# Shear Modulus (GPa) = 29.69066 33.26520 31.47793
#
# Velocity S-wave (km/s) = 3.73034 3.94852 3.84098
# Velocity P-wave (km/s) = 6.97639 7.54090 7.26413
#
# Compressibility (1/GPa) = 0.01556253
#
# Stress axis : x y z
#
# Youngs Moduli (GPa) = 49.46298 120.04075 78.33102
#
# Poissons Ratio (x) = 0.56339 0.42854
# Poissons Ratio (y) = 0.23215 0.21240
# Poissons Ratio (z) = 0.27060 0.32550
#
# Static dielectric constant tensor:
#      x y z
#    x 1.822690 0.000000 0.012760 
#    y 0.000000 1.732390 0.000000 
#    z 0.012760 0.000000 1.810420 
# 
# From -- ./inp_files/23952.got.cif
#   From: 2010.05.17/outbox.cif.g08.bks.cpg/sg5_12_cif.got.tgz:23952.got - 2010.06.03 18:56:24.
