data_PCOD9127544
_publ_section_title
;
Structure prediction by ZEFSAII (Michael W. Deem and Ramdas Pophale) SiO2 
 PCOD9127544
Probable space group: C 2
;
_chemical_formula_sum "Si O2"
_cell_formula_units_Z 30
_cell_length_a 8.008733
_cell_length_b 10.106595
_cell_length_c 14.499102
_cell_angle_alpha 90.000000
_cell_angle_beta 65.767152
_cell_angle_gamma 90.000000
_cell_volume 1070.162758
_symmetry_space_group_name_H-M "C 2"
_symmetry_group_IT_number 5
_symmetry_cell_setting 'monoclinic'
loop_
_space_group_symop_operation_xyz
x,y,z
-x,y,-z
1/2+x,1/2+y,z
1/2-x,1/2+y,-z
loop_
_atom_site_type_symbol
_atom_site_label
_atom_site_fract_x
_atom_site_fract_y
_atom_site_fract_z
Si Si1 0.270093 0.143870 0.010458
Si Si2 0.130393 0.387354 0.129364
Si Si3 0.262952 0.503629 0.790062
Si Si4 0.537473 0.297491 0.821761
Si Si5 0.394360 0.628234 0.371687
Si Si6 0.500000 0.333364 0.500000
Si Si7 0.832055 0.415984 0.453887
Si Si8 0.554261 0.143330 0.331828
O O1 0.413018 0.245334 0.932896
O O2 0.271357 0.014382 0.943552
O O3 0.114197 0.253167 0.070948
O O4 0.306346 0.079519 0.101992
O O5 0.271308 0.352147 0.181169
O O6 0.921327 0.427446 0.199662
O O7 0.418606 0.405282 0.794459
O O8 0.397702 0.599856 0.702154
O O9 0.004364 0.500708 0.619335
O O10 0.525748 0.180039 0.748637
O O11 0.390688 0.761682 0.435936
O O12 0.268010 0.656928 0.309363
O O13 0.717249 0.503120 0.556587
O O14 0.450421 0.239531 0.427277
O O15 0.663646 0.414923 0.421354
#
# Coordination Sequence:
#
# PCOD9127544 Si02
#       8
#     4   4   4   4   4   2   4   4
#     4  12  29  59  88 130 185 243 311 377 459 555
#     4  12  28  57  88 130 184 239 309 381 452 550
#     4  12  29  53  88 132 180 240 308 385 463 543
#     4  12  29  52  90 132 180 242 310 374 466 551
#     4  11  27  53  91 133 176 237 313 382 470 551
#     4  10  22  50  84 124 174 218 298 372 450 542
#     4  11  22  54  89 121 177 233 295 385 460 543
#     4  11  24  53  87 129 178 234 304 378 460 555
#
# _framework density 28.033118000000002
#
# number of rings (size 3 to 8) (size 9 to 14) (size 15 to 20)
#    0.000    0.533    4.000    3.200    3.733    2.133 
#   16.800    0.000    0.000    0.000    0.000    0.000 
#    0.000    0.000    0.000    0.000    0.000    0.000 
#
# Total GULP energy -83668.527534 kJ/mol
# GULP energy per Si atom -5577.901836 kJ/mol
# Density = 2.796931 g / cm^3
# Si number density = 28.033118 Si / 1000 Ang^3
#
#
#
# Elastic Constant Matrix: (Units=GPa)
#
#
# Indices 1 2 3 4 5 6 
#
# 1 215.1126 77.4891 80.3836 0.0000 -6.8207 0.0000
# 2 77.4891 176.1595 46.3961 0.0000 -18.6132 0.0000
# 3 80.3836 46.3961 140.7525 0.0000 -18.0442 0.0000
# 4 0.0000 0.0000 0.0000 56.3521 0.0000 -8.4675
# 5 -6.8207 -18.6132 -18.0442 0.0000 38.4546 0.0000
# 6 0.0000 0.0000 0.0000 -8.4675 0.0000 39.7276
#
#
#
# Elastic Compliance Matrix: (Units=1/GPa)
#
#
# Indices 1 2 3 4 5 6 
#
# 1 0.006603 -0.002204 -0.003225 0.000000 -0.001409 0.000000
# 2 -0.002204 0.007128 -0.000744 0.000000 0.002711 0.000000
# 3 -0.003225 -0.000744 0.009653 0.000000 0.003598 0.000000
# 4 0.000000 0.000000 0.000000 0.018333 0.000000 0.003907
# 5 -0.001409 0.002711 0.003598 0.000000 0.028755 0.000000
# 6 0.000000 0.000000 0.000000 0.003907 0.000000 0.026004
#
#
# Mechanical properties :
#
#
# Convention : Reuss Voigt Hill
#
# Bulk Modulus (GPa) = 90.58831 104.50693 97.54762
# Shear Modulus (GPa) = 44.44386 48.75724 46.60055
#
# Velocity S-wave (km/s) = 3.98603 4.17498 4.08160
# Velocity P-wave (km/s) = 7.31912 7.78469 7.55549
#
# Compressibility (1/GPa) = 0.01103895
#
# Stress axis : x y z
#
# Youngs Moduli (GPa) = 151.44160 140.28353 103.59636
#
# Poissons Ratio (x) = 0.30919 0.33412
# Poissons Ratio (y) = 0.33379 0.07703
# Poissons Ratio (z) = 0.48843 0.10430
#
# Static dielectric constant tensor:
#      x y z
#    x 2.258080 0.000000 0.049570 
#    y 0.000000 2.361670 0.000000 
#    z 0.049570 0.000000 2.179780 
# 
# From -- ./inp_files/50484.got.cif
#   From: 2010.05.17/outbox.cif.g08.bks.cpg/sg5_26_cif.got.tgz:50484.got - 2010.06.03 18:56:24.
