data_PCOD9127800
_publ_section_title
;
Structure prediction by ZEFSAII (Michael W. Deem and Ramdas Pophale) SiO2 
 PCOD9127800
Probable space group: C 2
;
_chemical_formula_sum "Si O2"
_cell_formula_units_Z 18
_cell_length_a 4.966280
_cell_length_b 27.429794
_cell_length_c 5.233366
_cell_angle_alpha 90.000000
_cell_angle_beta 87.972189
_cell_angle_gamma 90.000000
_cell_volume 712.463799
_symmetry_space_group_name_H-M "C 2"
_symmetry_group_IT_number 5
_symmetry_cell_setting 'monoclinic'
loop_
_space_group_symop_operation_xyz
x,y,z
-x,y,-z
1/2+x,1/2+y,z
1/2-x,1/2+y,-z
loop_
_atom_site_type_symbol
_atom_site_label
_atom_site_fract_x
_atom_site_fract_y
_atom_site_fract_z
Si Si1 0.768546 0.814270 0.324007
Si Si2 0.000000 0.154878 0.000000
Si Si3 0.815956 0.578930 0.749751
Si Si4 0.000000 0.726551 0.000000
Si Si5 0.816486 0.466186 0.750191
Si Si6 0.000000 0.889996 0.000000
O O1 0.500000 0.809893 0.500000
O O2 0.885009 0.762842 0.220642
O O3 0.000000 0.834954 0.500000
O O4 0.768379 0.850596 0.081445
O O5 0.066744 0.115684 0.777015
O O6 0.251161 0.190936 0.962331
O O7 0.728170 0.522530 0.742617
O O8 0.000000 0.589091 0.500000
O O9 0.000000 0.584776 0.000000
O O10 0.566064 0.429959 0.780796
O O11 0.000000 0.455510 0.500000
O O12 0.000000 0.459684 0.000000
#
# Coordination Sequence:
#
# PCOD9127800 Si02
#       6
#     4   2   4   2   4   2
#     4  11  26  47  71 101 142 185 237 304 367 432
#     4  12  23  46  71 108 139 192 241 302 354 440
#     4  10  23  45  70 107 150 193 237 296 355 427
#     4  11  26  46  71 104 137 184 242 301 372 424
#     4  10  23  42  69 104 149 191 238 291 355 425
#     4  11  25  38  70 102 142 188 239 297 348 440
#
# _framework density 25.264441000000001
#
# number of rings (size 3 to 8) (size 9 to 14) (size 15 to 20)
#    0.000    1.333    1.111    2.667    6.222    5.333 
#    4.000    6.667    0.000    0.000    0.000    0.000 
#    0.000    0.000    0.000    0.000    0.000    0.000 
#
# Total GULP energy -50250.543342 kJ/mol
# GULP energy per Si atom -5583.393705 kJ/mol
# Density = 2.520694 g / cm^3
# Si number density = 25.264441 Si / 1000 Ang^3
#
#
#
# Elastic Constant Matrix: (Units=GPa)
#
#
# Indices 1 2 3 4 5 6 
#
# 1 167.0187 80.8606 78.3438 0.0000 -47.2198 0.0000
# 2 80.8606 185.1186 79.2094 0.0000 -55.6686 0.0000
# 3 78.3438 79.2094 191.5828 0.0000 -47.5464 0.0000
# 4 0.0000 0.0000 0.0000 60.2667 0.0000 18.6133
# 5 -47.2198 -55.6686 -47.5464 0.0000 62.3772 0.0000
# 6 0.0000 0.0000 0.0000 18.6133 0.0000 -67.6615
#
#
#
# Elastic Compliance Matrix: (Units=1/GPa)
#
#
# Indices 1 2 3 4 5 6 
#
# 1 0.008832 -0.002000 -0.001934 0.000000 0.003427 0.000000
# 2 -0.002000 0.008343 -0.001430 0.000000 0.004842 0.000000
# 3 -0.001934 -0.001430 0.007303 0.000000 0.002826 0.000000
# 4 0.000000 0.000000 0.000000 0.015294 0.000000 0.004207
# 5 0.003427 0.004842 0.002826 0.000000 0.025101 0.000000
# 6 0.000000 0.000000 0.000000 0.004207 0.000000 -0.013622
#
#
# Mechanical properties :
#
#
# Convention : Reuss Voigt Hill
#
# Bulk Modulus (GPa) = 72.72573 113.39418 93.05995
# Shear Modulus (GPa) = 75.11709 31.35023 53.23366
#
# Velocity S-wave (km/s) = 5.45865 3.52644 4.59525
# Velocity P-wave (km/s) = 8.28115 7.84611 8.06656
#
# Compressibility (1/GPa) = 0.01375029
#
# Stress axis : x y z
#
# Youngs Moduli (GPa) = 113.23063 119.85406 136.92237
#
# Poissons Ratio (x) = 0.23965 0.26486
# Poissons Ratio (y) = 0.22641 0.19582
# Poissons Ratio (z) = 0.21903 0.17141
#
# Static dielectric constant tensor:
#      x y z
#    x 2.101420 0.000000 0.147510 
#    y 0.000000 1.974620 0.000000 
#    z 0.147510 0.000000 2.115690 
# 
# From -- ./inp_files/998.got.cif
#   From: 2010.05.17/outbox.cif.g08.bks.cpg/sg5_1_cif.got.tgz:998.got - 2010.06.03 18:56:24.
