data_PCOD9127733
_publ_section_title
;
Structure prediction by ZEFSAII (Michael W. Deem and Ramdas Pophale) SiO2 
 PCOD9127733
Probable space group: C 2
;
_chemical_formula_sum "Si O2"
_cell_formula_units_Z 24
_cell_length_a 13.652706
_cell_length_b 6.438550
_cell_length_c 17.057685
_cell_angle_alpha 90.000000
_cell_angle_beta 143.630912
_cell_angle_gamma 90.000000
_cell_volume 889.140263
_symmetry_space_group_name_H-M "C 2"
_symmetry_group_IT_number 5
_symmetry_cell_setting 'monoclinic'
loop_
_space_group_symop_operation_xyz
x,y,z
-x,y,-z
1/2+x,1/2+y,z
1/2-x,1/2+y,-z
loop_
_atom_site_type_symbol
_atom_site_label
_atom_site_fract_x
_atom_site_fract_y
_atom_site_fract_z
Si Si1 0.644379 0.922270 0.493713
Si Si2 0.100259 0.232213 0.862146
Si Si3 0.287887 0.017340 0.644025
Si Si4 0.775744 0.850499 0.127948
Si Si5 0.000000 0.680625 0.000000
Si Si6 0.500000 0.288214 0.500000
Si Si7 0.282312 0.934218 0.214535
O O1 0.714928 0.958394 0.451856
O O2 0.756795 0.763074 0.613855
O O3 0.608805 0.135564 0.516079
O O4 0.452148 0.849690 0.361121
O O5 0.077595 0.002990 0.808671
O O6 0.205018 0.353773 0.865429
O O7 0.945411 0.385918 0.773633
O O8 0.204904 0.226143 0.008119
O O9 0.145851 0.947429 0.612385
O O10 0.800517 0.683214 0.213638
O O11 0.634535 0.014854 0.057496
O O12 0.893868 0.837081 0.874647
#
# Coordination Sequence:
#
# PCOD9127733 Si02
#       7
#     4   4   4   4   2   2   4
#     4  11  25  48  72 105 149 201 253 313 378 446
#     4  10  23  41  72 103 142 192 233 308 369 441
#     4  11  25  47  72 106 150 192 256 313 373 450
#     4  11  21  43  67 107 144 186 247 288 377 445
#     4  10  24  38  64 104 140 192 228 296 366 434
#     4  12  26  44  76 108 142 200 250 312 380 454
#     4  10  23  43  69 102 150 192 237 310 367 443
#
# _framework density 26.992367999999999
#
# number of rings (size 3 to 8) (size 9 to 14) (size 15 to 20)
#    0.000    1.333    3.333    1.000    0.000   12.000 
#    0.000    0.000    0.000    0.000    0.000    0.000 
#    0.000    0.000    0.000    0.000    0.000    0.000 
#
# Total GULP energy -66864.567949 kJ/mol
# GULP energy per Si atom -5572.047329 kJ/mol
# Density = 2.693093 g / cm^3
# Si number density = 26.992368 Si / 1000 Ang^3
#
#
#
# Elastic Constant Matrix: (Units=GPa)
#
#
# Indices 1 2 3 4 5 6 
#
# 1 73.3518 56.2021 20.1286 0.0000 17.2105 0.0000
# 2 56.2021 170.3171 62.7314 0.0000 18.7485 0.0000
# 3 20.1286 62.7314 77.4174 0.0000 13.5342 0.0000
# 4 0.0000 0.0000 0.0000 -77.3120 0.0000 -26.0450
# 5 17.2105 18.7485 13.5342 0.0000 42.1148 0.0000
# 6 0.0000 0.0000 0.0000 -26.0450 0.0000 30.1248
#
#
#
# Elastic Compliance Matrix: (Units=1/GPa)
#
#
# Indices 1 2 3 4 5 6 
#
# 1 0.019356 -0.006106 0.000872 0.000000 -0.005472 0.000000
# 2 -0.006106 0.010403 -0.006854 0.000000 0.000066 0.000000
# 3 0.000872 -0.006854 0.018831 0.000000 -0.003357 0.000000
# 4 0.000000 0.000000 0.000000 -0.010017 0.000000 -0.008660
# 5 -0.005472 0.000066 -0.003357 0.000000 0.027030 0.000000
# 6 0.000000 0.000000 0.000000 -0.008660 0.000000 0.025708
#
#
# Mechanical properties :
#
#
# Convention : Reuss Voigt Hill
#
# Bulk Modulus (GPa) = 40.96036 66.57894 53.76965
# Shear Modulus (GPa) = 40.44486 11.12047 25.78267
#
# Velocity S-wave (km/s) = 3.87509 2.03195 3.09396
# Velocity P-wave (km/s) = 5.93545 5.49768 5.72075
#
# Compressibility (1/GPa) = 0.02441385
#
# Stress axis : x y z
#
# Youngs Moduli (GPa) = 51.66374 96.12248 53.10406
#
# Poissons Ratio (x) = 0.58691 -0.04629
# Poissons Ratio (y) = 0.31545 0.36397
# Poissons Ratio (z) = -0.04503 0.65882
#
# Static dielectric constant tensor:
#      x y z
#    x 3.134380 0.000000 1.298760 
#    y 0.000000 2.236530 0.000000 
#    z 1.298760 0.000000 3.896590 
# 
# From -- ./inp_files/65736.got.cif
#   From: 2010.05.17/outbox.cif.g08.bks.cpg/sg5_33_cif.got.tgz:65736.got - 2010.06.03 18:56:24.
