data_PCOD9127028
_publ_section_title
;
Structure prediction by ZEFSAII (Michael W. Deem and Ramdas Pophale) SiO2 
 PCOD9127028
Probable space group: C 2
;
_chemical_formula_sum "Si O2"
_cell_formula_units_Z 28
_cell_length_a 24.715608
_cell_length_b 7.688021
_cell_length_c 6.581627
_cell_angle_alpha 90.000000
_cell_angle_beta 68.333873
_cell_angle_gamma 90.000000
_cell_volume 1162.248239
_symmetry_space_group_name_H-M "C 2"
_symmetry_group_IT_number 5
_symmetry_cell_setting 'monoclinic'
loop_
_space_group_symop_operation_xyz
x,y,z
-x,y,-z
1/2+x,1/2+y,z
1/2-x,1/2+y,-z
loop_
_atom_site_type_symbol
_atom_site_label
_atom_site_fract_x
_atom_site_fract_y
_atom_site_fract_z
Si Si1 0.930306 0.048600 0.143907
Si Si2 0.215981 0.681826 0.547235
Si Si3 0.601927 0.683850 0.372027
Si Si4 0.552397 0.861590 0.085711
Si Si5 0.190106 0.497430 0.199155
Si Si6 0.787829 0.995451 0.746114
Si Si7 0.880214 0.701296 0.010187
O O1 0.920270 0.082750 0.397014
O O2 0.902783 0.884562 0.064711
O O3 0.903883 0.230185 0.092022
O O4 0.000000 0.034300 0.000000
O O5 0.225258 0.553920 0.346975
O O6 0.264780 0.664213 0.651119
O O7 0.158005 0.630436 0.748781
O O8 0.205187 0.860709 0.446552
O O9 0.550452 0.747572 0.294046
O O10 0.653112 0.553024 0.226463
O O11 0.638582 0.865449 0.330700
O O12 0.500000 0.871445 0.000000
O O13 0.569958 0.058869 0.096740
O O14 0.236412 0.434761 0.966815
O O15 0.159979 0.668281 0.133371
#
# Coordination Sequence:
#
# PCOD9127028 Si02
#       7
#     4   4   4   4   4   4   4
#     4  11  24  42  70 101 136 187 243 300 357 423
#     4  11  22  40  62  97 142 185 232 290 357 429
#     4  11  23  44  66 103 143 186 235 308 362 421
#     4  10  24  44  70  98 138 185 243 303 362 421
#     4  10  23  40  66 100 141 188 237 283 364 439
#     4  11  23  38  64 101 142 192 234 286 355 446
#     4  10  22  43  67 101 137 184 241 297 355 423
#
# _framework density 24.091238000000001
#
# number of rings (size 3 to 8) (size 9 to 14) (size 15 to 20)
#    0.000    1.429    1.429    3.000    2.000    6.857 
#    0.000    0.000    0.000    8.571    0.000    0.000 
#    0.000    0.000    0.000    0.000    0.000    0.000 
#
# Total GULP energy -77960.602593 kJ/mol
# GULP energy per Si atom -5568.614471 kJ/mol
# Density = 2.403641 g / cm^3
# Si number density = 24.091238 Si / 1000 Ang^3
#
#
#
# Elastic Constant Matrix: (Units=GPa)
#
#
# Indices 1 2 3 4 5 6 
#
# 1 96.4198 24.2167 70.1696 0.0000 19.2622 0.0000
# 2 24.2167 114.4055 28.8295 0.0000 9.7218 0.0000
# 3 70.1696 28.8295 110.0573 0.0000 19.1389 0.0000
# 4 0.0000 0.0000 0.0000 36.9012 0.0000 13.2375
# 5 19.2622 9.7218 19.1389 0.0000 37.6738 0.0000
# 6 0.0000 0.0000 0.0000 13.2375 0.0000 33.6783
#
#
#
# Elastic Compliance Matrix: (Units=1/GPa)
#
#
# Indices 1 2 3 4 5 6 
#
# 1 0.019997 -0.000917 -0.011817 0.000000 -0.003985 0.000000
# 2 -0.000917 0.009457 -0.001700 0.000000 -0.001108 0.000000
# 3 -0.011817 -0.001700 0.017483 0.000000 -0.002401 0.000000
# 4 0.000000 0.000000 0.000000 0.031548 0.000000 -0.012400
# 5 -0.003985 -0.001108 -0.002401 0.000000 0.030087 0.000000
# 6 0.000000 0.000000 0.000000 -0.012400 0.000000 0.034567
#
#
# Mechanical properties :
#
#
# Convention : Reuss Voigt Hill
#
# Bulk Modulus (GPa) = 55.33801 63.03491 59.18646
# Shear Modulus (GPa) = 28.08528 34.82845 31.45686
#
# Velocity S-wave (km/s) = 3.41807 3.80635 3.61742
# Velocity P-wave (km/s) = 6.21270 6.74830 6.48603
#
# Compressibility (1/GPa) = 0.01807076
#
# Stress axis : x y z
#
# Youngs Moduli (GPa) = 50.00724 105.73635 57.19811
#
# Poissons Ratio (x) = 0.09691 0.67589
# Poissons Ratio (y) = 0.04583 0.09726
# Poissons Ratio (z) = 0.59091 0.17979
#
# Static dielectric constant tensor:
#      x y z
#    x 1.997310 0.000000 0.050530 
#    y 0.000000 2.042300 0.000000 
#    z 0.050530 0.000000 1.990340 
# 
# From -- ./inp_files/10763.got.cif
#   From: 2010.05.17/outbox.cif.g08.bks.cpg/sg5_6_cif.got.tgz:10763.got - 2010.06.03 18:56:24.
