data_PCOD9127759
_publ_section_title
;
Structure prediction by ZEFSAII (Michael W. Deem and Ramdas Pophale) SiO2 
 PCOD9127759
Probable space group: C 2
;
_chemical_formula_sum "Si O2"
_cell_formula_units_Z 18
_cell_length_a 22.831482
_cell_length_b 5.115747
_cell_length_c 11.312888
_cell_angle_alpha 90.000000
_cell_angle_beta 32.560782
_cell_angle_gamma 90.000000
_cell_volume 711.140662
_symmetry_space_group_name_H-M "C 2"
_symmetry_group_IT_number 5
_symmetry_cell_setting 'monoclinic'
loop_
_space_group_symop_operation_xyz
x,y,z
-x,y,-z
1/2+x,1/2+y,z
1/2-x,1/2+y,-z
loop_
_atom_site_type_symbol
_atom_site_label
_atom_site_fract_x
_atom_site_fract_y
_atom_site_fract_z
Si Si1 0.000000 0.904470 0.000000
Si Si2 0.739961 0.881482 0.857218
Si Si3 0.758335 0.881004 0.408480
Si Si4 0.586408 0.601438 0.603365
Si Si5 0.873989 0.887788 0.871435
O O1 0.030062 0.040845 0.824560
O O2 0.118435 0.783740 0.832511
O O3 0.807017 0.953724 0.627762
O O4 0.820532 0.898962 0.832928
O O5 0.645435 0.094756 0.047189
O O6 0.694102 0.590874 0.932935
O O7 0.729034 0.666125 0.558069
O O8 0.648128 0.877609 0.515642
O O9 0.493206 0.513273 0.671320
#
# Coordination Sequence:
#
# PCOD9127759 Si02
#       5
#     2   4   4   4   4
#     4  10  24  42  62  92 130 164 206 254 306 368
#     4  10  23  42  65  93 126 161 205 255 311 364
#     4  10  24  42  61  88 124 166 209 252 303 361
#     4  11  23  41  66  93 125 166 207 253 307 368
#     4  10  23  43  65  93 124 161 207 258 307 365
#
# _framework density 25.311450000000001
#
# number of rings (size 3 to 8) (size 9 to 14) (size 15 to 20)
#    0.000    1.778    0.000    2.000    0.000   21.333 
#    0.000    6.667    0.000    0.000    0.000    0.000 
#    0.000    0.000    0.000    0.000    0.000    0.000 
#
# Total GULP energy -50114.690845 kJ/mol
# GULP energy per Si atom -5568.298983 kJ/mol
# Density = 2.525384 g / cm^3
# Si number density = 25.311450 Si / 1000 Ang^3
#
#
#
# Elastic Constant Matrix: (Units=GPa)
#
#
# Indices 1 2 3 4 5 6 
#
# 1 115.4418 8.3468 10.7903 0.0000 -44.5173 -0.0001
# 2 8.3468 75.7272 -11.7990 -0.0039 5.6768 -0.0005
# 3 10.7903 -11.7990 117.4753 -0.0012 -13.4764 -0.0001
# 4 0.0000 -0.0039 -0.0012 10.3051 0.0002 -3.5470
# 5 -44.5173 5.6768 -13.4764 0.0002 62.3187 0.0003
# 6 -0.0001 -0.0005 -0.0001 -3.5470 0.0003 32.9192
#
#
#
# Elastic Compliance Matrix: (Units=1/GPa)
#
#
# Indices 1 2 3 4 5 6 
#
# 1 0.012267 -0.002067 -0.000315 -0.000001 0.008883 0.000000
# 2 -0.002067 0.013819 0.001296 0.000006 -0.002455 0.000001
# 3 -0.000315 0.001296 0.008852 0.000002 0.001571 0.000000
# 4 -0.000001 0.000006 0.000002 0.100777 -0.000001 0.010859
# 5 0.008883 -0.002455 0.001571 -0.000001 0.022955 0.000000
# 6 0.000000 0.000001 0.000000 0.010859 0.000000 0.031547
#
#
# Mechanical properties :
#
#
# Convention : Reuss Voigt Hill
#
# Bulk Modulus (GPa) = 30.52017 35.92450 33.22234
# Shear Modulus (GPa) = 24.59283 41.19568 32.89426
#
# Velocity S-wave (km/s) = 3.12045 4.03867 3.60888
# Velocity P-wave (km/s) = 5.00669 5.99763 5.52442
#
# Compressibility (1/GPa) = 0.03276522
#
# Stress axis : x y z
#
# Youngs Moduli (GPa) = 81.52118 72.36339 112.97157
#
# Poissons Ratio (x) = 0.14958 0.03562
# Poissons Ratio (y) = 0.16851 -0.14643
# Poissons Ratio (z) = 0.02571 -0.09380
#
# Static dielectric constant tensor:
#      x y z
#    x 2.404860 0.000000 0.032110 
#    y 0.000000 2.010960 0.000000 
#    z 0.032110 0.000000 1.989020 
# 
# From -- ./inp_files/46867.got.cif
#   From: 2010.05.17/outbox.cif.g08.bks.cpg/sg5_24_cif.got.tgz:46867.got - 2010.06.03 18:56:24.
