data_PCOD9127062
_publ_section_title
;
Structure prediction by ZEFSAII (Michael W. Deem and Ramdas Pophale) SiO2 
 PCOD9127062
Probable space group: C 2
;
_chemical_formula_sum "Si O2"
_cell_formula_units_Z 28
_cell_length_a 5.278929
_cell_length_b 17.872781
_cell_length_c 15.024189
_cell_angle_alpha 90.000000
_cell_angle_beta 60.344439
_cell_angle_gamma 90.000000
_cell_volume 1231.846327
_symmetry_space_group_name_H-M "C 2"
_symmetry_group_IT_number 5
_symmetry_cell_setting 'monoclinic'
loop_
_space_group_symop_operation_xyz
x,y,z
-x,y,-z
1/2+x,1/2+y,z
1/2-x,1/2+y,-z
loop_
_atom_site_type_symbol
_atom_site_label
_atom_site_fract_x
_atom_site_fract_y
_atom_site_fract_z
Si Si1 0.332418 0.173270 0.257624
Si Si2 0.152704 0.920614 0.565787
Si Si3 0.150324 0.023306 0.240087
Si Si4 0.213067 0.260132 0.111455
Si Si5 0.087097 0.104604 0.889327
Si Si6 0.348788 0.243816 0.435807
Si Si7 0.144235 0.424049 0.071874
O O1 0.123087 0.101659 0.300850
O O2 0.245022 0.243099 0.211439
O O3 0.583365 0.130994 0.160818
O O4 0.449265 0.199972 0.331423
O O5 0.500000 0.930519 0.500000
O O6 0.090875 0.831901 0.585336
O O7 0.000000 0.945573 0.500000
O O8 0.027543 0.963421 0.672239
O O9 0.005044 0.047876 0.171857
O O10 0.464213 0.983289 0.164189
O O11 0.067876 0.340373 0.120962
O O12 0.064046 0.184351 0.103784
O O13 0.500000 0.263784 0.000000
O O14 0.000000 0.075828 0.000000
O O15 0.500000 0.218113 0.500000
O O16 0.000000 0.234301 0.500000
O O17 0.500000 0.425923 0.000000
O O18 0.000000 0.431916 0.000000
#
# Coordination Sequence:
#
# PCOD9127062 Si02
#       7
#     4   4   4   4   4   4   4
#     4  11  26  44  72 106 142 199 241 301 368 445
#     4  10  25  50  78 105 143 190 243 310 374 432
#     4  11  29  45  70 111 148 200 240 306 372 450
#     4  10  22  43  69 105 140 195 249 306 353 434
#     4  11  24  44  73 103 153 198 242 295 369 440
#     4  10  25  49  77 106 138 183 245 311 365 428
#     4  11  28  45  72 108 152 198 252 306 366 440
#
# _framework density 22.730108999999999
#
# number of rings (size 3 to 8) (size 9 to 14) (size 15 to 20)
#    0.000    1.429    1.429    0.429   14.000    2.857 
#    0.000    0.000    0.000    0.000    0.000    0.000 
#    0.000    0.000    0.000    0.000    0.000    0.000 
#
# Total GULP energy -78191.515903 kJ/mol
# GULP energy per Si atom -5585.108279 kJ/mol
# Density = 2.267837 g / cm^3
# Si number density = 22.730109 Si / 1000 Ang^3
#
#
#
# Elastic Constant Matrix: (Units=GPa)
#
#
# Indices 1 2 3 4 5 6 
#
# 1 82.6988 31.1655 20.4006 0.0000 25.4156 0.0000
# 2 31.1655 103.2606 56.9357 0.0000 15.9888 0.0000
# 3 20.4006 56.9357 95.4594 0.0000 22.8813 0.0000
# 4 0.0000 0.0000 0.0000 -16.8312 0.0000 75.8264
# 5 25.4156 15.9888 22.8813 0.0000 39.8786 0.0000
# 6 0.0000 0.0000 0.0000 75.8264 0.0000 -24.1779
#
#
#
# Elastic Compliance Matrix: (Units=1/GPa)
#
#
# Indices 1 2 3 4 5 6 
#
# 1 0.016231 -0.004132 0.001250 0.000000 -0.009405 0.000000
# 2 -0.004132 0.015515 -0.008708 0.000000 0.001409 0.000000
# 3 0.001250 -0.008708 0.017110 0.000000 -0.007122 0.000000
# 4 0.000000 0.000000 0.000000 0.004525 0.000000 0.014193
# 5 -0.009405 0.001409 -0.007122 0.000000 0.034592 0.000000
# 6 0.000000 0.000000 0.000000 0.014193 0.000000 0.003150
#
#
# Mechanical properties :
#
#
# Convention : Reuss Voigt Hill
#
# Bulk Modulus (GPa) = 38.94798 55.38026 47.16412
# Shear Modulus (GPa) = 40.69615 11.30170 25.99892
#
# Velocity S-wave (km/s) = 4.23591 2.23225 3.38569
# Velocity P-wave (km/s) = 6.41062 5.57324 6.00654
#
# Compressibility (1/GPa) = 0.02567528
#
# Stress axis : x y z
#
# Youngs Moduli (GPa) = 61.60951 64.45539 58.44633
#
# Poissons Ratio (x) = 0.26631 -0.07305
# Poissons Ratio (y) = 0.25455 0.50897
# Poissons Ratio (z) = -0.07701 0.56130
#
# Static dielectric constant tensor:
#      x y z
#    x 2.053700 0.000000 -0.210210 
#    y 0.000000 1.881140 0.000000 
#    z -0.210210 0.000000 2.074490 
# 
# From -- ./inp_files/49281.got.cif
#   From: 2010.05.17/outbox.cif.g08.bks.cpg/sg5_25_cif.got.tgz:49281.got - 2010.06.03 18:56:24.
