data_PCOD9127777
_publ_section_title
;
Structure prediction by ZEFSAII (Michael W. Deem and Ramdas Pophale) SiO2 
 PCOD9127777
Probable space group: C 2
;
_chemical_formula_sum "Si O2"
_cell_formula_units_Z 26
_cell_length_a 19.363617
_cell_length_b 8.485931
_cell_length_c 7.905749
_cell_angle_alpha 90.000000
_cell_angle_beta 124.164759
_cell_angle_gamma 90.000000
_cell_volume 1074.875684
_symmetry_space_group_name_H-M "C 2"
_symmetry_group_IT_number 5
_symmetry_cell_setting 'monoclinic'
loop_
_space_group_symop_operation_xyz
x,y,z
-x,y,-z
1/2+x,1/2+y,z
1/2-x,1/2+y,-z
loop_
_atom_site_type_symbol
_atom_site_label
_atom_site_fract_x
_atom_site_fract_y
_atom_site_fract_z
Si Si1 0.442406 0.548990 0.078756
Si Si2 0.167452 0.907773 0.519557
Si Si3 0.229361 0.594693 0.125868
Si Si4 0.586684 0.217015 0.141911
Si Si5 0.000000 0.206551 0.500000
Si Si6 0.716562 0.629054 0.301291
Si Si7 0.831717 0.404096 0.260221
O O1 0.484582 0.596599 0.313517
O O2 0.500000 0.603086 0.000000
O O3 0.422036 0.365972 0.001515
O O4 0.352430 0.632501 0.940633
O O5 0.096839 0.795514 0.342601
O O6 0.248322 0.798104 0.611134
O O7 0.188154 0.986377 0.727005
O O8 0.170718 0.053215 0.396917
O O9 0.168451 0.621429 0.203136
O O10 0.264964 0.765968 0.136962
O O11 0.171323 0.518382 0.905145
O O12 0.500000 0.126735 0.000000
O O13 0.919729 0.320438 0.414286
O O14 0.792036 0.514490 0.350617
#
# Coordination Sequence:
#
# PCOD9127777 Si02
#       7
#     4   4   4   4   2   4   4
#     4  10  23  44  72 103 141 179 241 294 349 432
#     4  11  21  41  73 101 132 184 235 284 351 417
#     4  12  24  46  70 100 142 183 232 291 347 432
#     4  10  23  42  67 106 135 177 237 286 356 415
#     4  12  28  46  68 104 144 192 234 296 368 408
#     4  11  22  45  68 109 134 185 239 286 357 427
#     4  12  27  45  68 101 145 184 237 286 361 425
#
# _framework density 24.188842999999999
#
# number of rings (size 3 to 8) (size 9 to 14) (size 15 to 20)
#    0.000    0.923    4.615    2.769    8.615    1.231 
#    0.000    1.538    0.000    0.000    0.000    0.000 
#    0.000    0.000    0.000    0.000    0.000    0.000 
#
# Total GULP energy -72604.588706 kJ/mol
# GULP energy per Si atom -5584.968362 kJ/mol
# Density = 2.413379 g / cm^3
# Si number density = 24.188843 Si / 1000 Ang^3
#
#
#
# Elastic Constant Matrix: (Units=GPa)
#
#
# Indices 1 2 3 4 5 6 
#
# 1 82.7683 13.3207 27.5428 0.0000 15.6250 0.0000
# 2 13.3207 75.0044 30.7713 0.0000 11.8669 0.0000
# 3 27.5428 30.7713 146.6745 0.0000 10.0791 0.0000
# 4 0.0000 0.0000 0.0000 47.5841 0.0000 -0.7524
# 5 15.6250 11.8669 10.0791 0.0000 37.6451 0.0000
# 6 0.0000 0.0000 0.0000 -0.7524 0.0000 31.3048
#
#
#
# Elastic Compliance Matrix: (Units=1/GPa)
#
#
# Indices 1 2 3 4 5 6 
#
# 1 0.013839 -0.000822 -0.002088 0.000000 -0.004926 0.000000
# 2 -0.000822 0.015206 -0.002781 0.000000 -0.003708 0.000000
# 3 -0.002088 -0.002781 0.007817 0.000000 -0.000350 0.000000
# 4 0.000000 0.000000 0.000000 0.021023 0.000000 0.000505
# 5 -0.004926 -0.003708 -0.000350 0.000000 0.029871 0.000000
# 6 0.000000 0.000000 0.000000 0.000505 0.000000 0.031956
#
#
# Mechanical properties :
#
#
# Convention : Reuss Voigt Hill
#
# Bulk Modulus (GPa) = 39.24500 49.74629 44.49565
# Shear Modulus (GPa) = 35.81979 38.82763 37.32371
#
# Velocity S-wave (km/s) = 3.85234 4.01083 3.93238
# Velocity P-wave (km/s) = 6.00392 6.48532 6.24926
#
# Compressibility (1/GPa) = 0.02548095
#
# Stress axis : x y z
#
# Youngs Moduli (GPa) = 72.26034 65.76323 127.92080
#
# Poissons Ratio (x) = 0.05405 0.26707
# Poissons Ratio (y) = 0.05939 0.35575
# Poissons Ratio (z) = 0.15086 0.18289
#
# Static dielectric constant tensor:
#      x y z
#    x 1.984690 0.000000 -0.015380 
#    y 0.000000 1.878400 0.000000 
#    z -0.015380 0.000000 2.023020 
# 
# From -- ./inp_files/29152.got.cif
#   From: 2010.05.17/outbox.cif.g08.bks.cpg/sg5_15_cif.got.tgz:29152.got - 2010.06.03 18:56:24.
