data_PCOD9127104
_publ_section_title
;
Structure prediction by ZEFSAII (Michael W. Deem and Ramdas Pophale) SiO2 
 PCOD9127104
Probable space group: C 2
;
_chemical_formula_sum "Si O2"
_cell_formula_units_Z 28
_cell_length_a 13.286026
_cell_length_b 12.178011
_cell_length_c 9.128845
_cell_angle_alpha 90.000000
_cell_angle_beta 123.362592
_cell_angle_gamma 90.000000
_cell_volume 1233.620182
_symmetry_space_group_name_H-M "C 2"
_symmetry_group_IT_number 5
_symmetry_cell_setting 'monoclinic'
loop_
_space_group_symop_operation_xyz
x,y,z
-x,y,-z
1/2+x,1/2+y,z
1/2-x,1/2+y,-z
loop_
_atom_site_type_symbol
_atom_site_label
_atom_site_fract_x
_atom_site_fract_y
_atom_site_fract_z
Si Si1 0.516455 0.599570 0.839059
Si Si2 0.982392 0.848572 0.730875
Si Si3 0.752690 0.719461 0.084769
Si Si4 0.315494 0.372212 0.340715
Si Si5 0.204452 0.804153 0.194275
Si Si6 0.145463 0.529184 0.621412
Si Si7 0.291806 0.607438 0.456018
O O1 0.520787 0.471974 0.801679
O O2 0.406268 0.636337 0.649375
O O3 0.500000 0.605563 0.000000
O O4 0.637766 0.665199 0.913798
O O5 0.859163 0.836737 0.533919
O O6 0.924214 0.802503 0.829258
O O7 0.082111 0.824456 0.687480
O O8 0.708932 0.809129 0.172742
O O9 0.817734 0.620033 0.226019
O O10 0.813690 0.777727 0.991954
O O11 0.308778 0.501800 0.361524
O O12 0.271721 0.707503 0.332506
O O13 0.277091 0.919115 0.276966
O O14 0.191624 0.571980 0.498208
O O15 0.000000 0.513373 0.500000
#
# Coordination Sequence:
#
# PCOD9127104 Si02
#       7
#     4   4   4   4   4   4   4
#     4  11  22  43  74 105 146 187 258 315 369 444
#     4  10  22  43  73 105 144 196 248 306 371 461
#     4  12  28  45  77 110 155 194 258 317 385 446
#     4  10  23  44  76 107 148 194 251 310 383 444
#     4  12  27  48  79 113 151 201 262 313 393 462
#     4  12  29  53  71 110 162 203 251 318 394 461
#     4  11  25  50  79 111 150 204 258 315 395 457
#
# _framework density 22.697424000000002
#
# number of rings (size 3 to 8) (size 9 to 14) (size 15 to 20)
#    0.000    0.857    4.286    1.714   12.000    1.143 
#    0.000    0.000    0.000    0.000    0.000    0.000 
#    0.000    0.000    0.000    0.000    0.000    0.000 
#
# Total GULP energy -77999.666256 kJ/mol
# GULP energy per Si atom -5571.404733 kJ/mol
# Density = 2.264576 g / cm^3
# Si number density = 22.697424 Si / 1000 Ang^3
#
#
#
# Elastic Constant Matrix: (Units=GPa)
#
#
# Indices 1 2 3 4 5 6 
#
# 1 82.0896 37.6328 36.4509 0.0000 -10.0968 0.0000
# 2 37.6328 129.7179 96.8230 0.0000 -26.2188 0.0000
# 3 36.4509 96.8230 154.3652 0.0000 -16.3105 0.0000
# 4 0.0000 0.0000 0.0000 42.0282 0.0000 -15.0540
# 5 -10.0968 -26.2188 -16.3105 0.0000 34.3034 0.0000
# 6 0.0000 0.0000 0.0000 -15.0540 0.0000 16.1028
#
#
#
# Elastic Compliance Matrix: (Units=1/GPa)
#
#
# Indices 1 2 3 4 5 6 
#
# 1 0.014277 -0.002733 -0.001509 0.000000 0.001395 0.000000
# 2 -0.002733 0.016879 -0.009122 0.000000 0.007759 0.000000
# 3 -0.001509 -0.009122 0.012395 0.000000 -0.001523 0.000000
# 4 0.000000 0.000000 0.000000 0.035772 0.000000 0.033442
# 5 0.001395 0.007759 -0.001523 0.000000 0.034769 0.000000
# 6 0.000000 0.000000 0.000000 0.033442 0.000000 0.093365
#
#
# Mechanical properties :
#
#
# Convention : Reuss Voigt Hill
#
# Bulk Modulus (GPa) = 59.44583 78.66513 69.05548
# Shear Modulus (GPa) = 20.85136 31.50462 26.17799
#
# Velocity S-wave (km/s) = 3.03424 3.72966 3.39978
# Velocity P-wave (km/s) = 6.20668 7.29936 6.77508
#
# Compressibility (1/GPa) = 0.01682204
#
# Stress axis : x y z
#
# Youngs Moduli (GPa) = 70.04443 59.24588 80.67668
#
# Poissons Ratio (x) = 0.16192 0.12178
# Poissons Ratio (y) = 0.19144 0.73591
# Poissons Ratio (z) = 0.10573 0.54042
#
# Static dielectric constant tensor:
#      x y z
#    x 2.194320 0.000000 0.226650 
#    y 0.000000 1.936070 0.000000 
#    z 0.226650 0.000000 1.953400 
# 
# From -- ./inp_files/23957.got.cif
#   From: 2010.05.17/outbox.cif.g08.bks.cpg/sg5_12_cif.got.tgz:23957.got - 2010.06.03 18:56:24.
