data_PCOD9127374
_publ_section_title
;
Structure prediction by ZEFSAII (Michael W. Deem and Ramdas Pophale) SiO2 
 PCOD9127374
Probable space group: C 2
;
_chemical_formula_sum "Si O2"
_cell_formula_units_Z 22
_cell_length_a 25.373663
_cell_length_b 5.211752
_cell_length_c 12.647545
_cell_angle_alpha 90.000000
_cell_angle_beta 32.421636
_cell_angle_gamma 90.000000
_cell_volume 896.717988
_symmetry_space_group_name_H-M "C 2"
_symmetry_group_IT_number 5
_symmetry_cell_setting 'monoclinic'
loop_
_space_group_symop_operation_xyz
x,y,z
-x,y,-z
1/2+x,1/2+y,z
1/2-x,1/2+y,-z
loop_
_atom_site_type_symbol
_atom_site_label
_atom_site_fract_x
_atom_site_fract_y
_atom_site_fract_z
Si Si1 0.890041 0.069920 0.585728
Si Si2 0.313869 0.380278 0.917027
Si Si3 0.214007 0.169332 0.608346
Si Si4 0.525348 0.348939 0.189039
Si Si5 0.000000 0.070535 0.000000
Si Si6 0.341162 0.077466 0.579047
O O1 0.899833 0.959146 0.686898
O O2 0.972830 0.060026 0.354292
O O3 0.852414 0.357706 0.646051
O O4 0.814531 0.856352 0.669499
O O5 0.368408 0.325769 0.936067
O O6 0.256145 0.127352 0.977842
O O7 0.270898 0.439048 0.501599
O O8 0.259968 0.020963 0.630449
O O9 0.099277 0.227211 0.811453
O O10 0.448406 0.118850 0.343113
O O11 0.521663 0.413500 0.071523
#
# Coordination Sequence:
#
# PCOD9127374 Si02
#       6
#     4   4   4   4   2   4
#     4  10  23  47  74 103 141 200 249 312 391 435
#     4  12  28  47  75 113 151 196 255 325 384 464
#     4  12  25  49  72 111 155 206 260 315 388 446
#     4  10  26  48  74 112 149 205 257 313 389 458
#     4  12  26  50  80 118 156 214 260 316 382 484
#     4  10  22  45  75 104 144 199 245 321 378 449
#
# _framework density 24.533912999999998
#
# number of rings (size 3 to 8) (size 9 to 14) (size 15 to 20)
#    1.091    0.000    1.818    3.818    7.636    0.727 
#    6.545    0.000    0.000    0.000    0.000    0.000 
#    0.000    0.000    0.000    0.000    0.000    0.000 
#
# Total GULP energy -61295.074692 kJ/mol
# GULP energy per Si atom -5572.279517 kJ/mol
# Density = 2.447807 g / cm^3
# Si number density = 24.533913 Si / 1000 Ang^3
#
#
#
# Elastic Constant Matrix: (Units=GPa)
#
#
# Indices 1 2 3 4 5 6 
#
# 1 174.6925 17.6022 33.9177 0.0004 6.0575 0.0007
# 2 17.6022 115.7737 41.5770 -0.0023 -1.3090 0.0002
# 3 33.9177 41.5770 126.7824 -0.0013 -12.1666 0.0007
# 4 0.0004 -0.0023 -0.0013 5.9867 0.0004 10.2694
# 5 6.0575 -1.3090 -12.1666 0.0004 43.9205 0.0003
# 6 0.0007 0.0002 0.0007 10.2694 0.0003 17.4876
#
#
#
# Elastic Compliance Matrix: (Units=1/GPa)
#
#
# Indices 1 2 3 4 5 6 
#
# 1 0.006126 -0.000354 -0.001649 0.000072 -0.001312 -0.000042
# 2 -0.000354 0.009827 -0.003180 -0.000408 -0.000539 0.000240
# 3 -0.001649 -0.003180 0.009640 -0.000195 0.002803 0.000114
# 4 0.000072 -0.000408 -0.000195-22.782851 0.000049 13.378943
# 5 -0.001312 -0.000539 0.002803 0.000049 0.023710 -0.000029
# 6 -0.000042 0.000240 0.000114 13.378943 -0.000029 -7.799433
#
#
# Mechanical properties :
#
#
# Convention : Reuss Voigt Hill
#
# Bulk Modulus (GPa) = 65.66721 67.04915 66.35818
# Shear Modulus (GPa) = -0.16384 35.08906 17.46261
#
# Velocity S-wave (km/s) = -0.25870 3.78594 2.67080
# Velocity P-wave (km/s) = 5.17057 6.81906 6.05121
#
# Compressibility (1/GPa) = 0.01522830
#
# Stress axis : x y z
#
# Youngs Moduli (GPa) = 163.24937 101.75850 103.73111
#
# Poissons Ratio (x) = 0.03604 0.17100
# Poissons Ratio (y) = 0.05781 0.32984
# Poissons Ratio (z) = 0.26912 0.32356
#
# Static dielectric constant tensor:
#      x y z
#    x 1.992510 0.000000 0.085730 
#    y 0.000000 1.904870 0.000000 
#    z 0.085730 0.000000 2.073420 
# 
# From -- ./inp_files/57962.got.cif
#   From: 2010.05.17/outbox.cif.g08.bks.cpg/sg5_29_cif.got.tgz:57962.got - 2010.06.03 18:56:24.
