data_PCOD9127690
_publ_section_title
;
Structure prediction by ZEFSAII (Michael W. Deem and Ramdas Pophale) SiO2 
 PCOD9127690
Probable space group: C 2
;
_chemical_formula_sum "Si O2"
_cell_formula_units_Z 22
_cell_length_a 8.615488
_cell_length_b 21.687087
_cell_length_c 5.487536
_cell_angle_alpha 90.000000
_cell_angle_beta 71.351343
_cell_angle_gamma 90.000000
_cell_volume 971.485720
_symmetry_space_group_name_H-M "C 2"
_symmetry_group_IT_number 5
_symmetry_cell_setting 'monoclinic'
loop_
_space_group_symop_operation_xyz
x,y,z
-x,y,-z
1/2+x,1/2+y,z
1/2-x,1/2+y,-z
loop_
_atom_site_type_symbol
_atom_site_label
_atom_site_fract_x
_atom_site_fract_y
_atom_site_fract_z
Si Si1 0.858611 0.562700 0.746487
Si Si2 0.900817 0.145296 0.298954
Si Si3 0.000000 0.672429 0.000000
Si Si4 0.183912 0.433193 0.111883
Si Si5 0.691278 0.887205 0.607108
Si Si6 0.175979 0.754025 0.538968
O O1 0.711576 0.584818 0.651069
O O2 0.820316 0.506088 0.942380
O O3 0.000000 0.538773 0.500000
O O4 0.921740 0.624351 0.848226
O O5 0.788261 0.205669 0.341985
O O6 0.000000 0.148210 0.500000
O O7 0.000000 0.142442 0.000000
O O8 0.867977 0.717498 0.190526
O O9 0.259332 0.426009 0.343973
O O10 0.000226 0.405130 0.248970
O O11 0.263454 0.399178 0.841085
O O12 0.725784 0.817568 0.505163
O O13 0.000000 0.763869 0.500000
#
# Coordination Sequence:
#
# PCOD9127690 Si02
#       6
#     4   4   2   4   4   4
#     4  12  23  46  79 107 149 193 259 297 374 459
#     4  12  28  45  69 113 150 196 239 312 379 431
#     4  12  22  44  76 114 142 198 242 312 372 444
#     4  10  23  44  73 104 136 198 240 297 360 433
#     4  10  23  41  67 108 135 186 248 291 350 430
#     4  12  27  45  72 107 153 196 248 302 374 450
#
# _framework density 22.645727000000001
#
# number of rings (size 3 to 8) (size 9 to 14) (size 15 to 20)
#    0.000    0.727    5.455    2.182    7.636    0.000 
#    0.000    2.727    0.000    0.000    0.000    0.000 
#    0.000    0.000    0.000    0.000    0.000    0.000 
#
# Total GULP energy -61419.309956 kJ/mol
# GULP energy per Si atom -5583.573632 kJ/mol
# Density = 2.259418 g / cm^3
# Si number density = 22.645727 Si / 1000 Ang^3
#
#
#
# Elastic Constant Matrix: (Units=GPa)
#
#
# Indices 1 2 3 4 5 6 
#
# 1 65.7659 24.4682 5.7032 0.0000 7.1730 0.0000
# 2 24.4682 158.5619 31.9625 0.0000 -5.9848 0.0000
# 3 5.7032 31.9625 129.9416 0.0000 18.7377 0.0000
# 4 0.0000 0.0000 0.0000 3.3094 0.0000 -3.3879
# 5 7.1730 -5.9848 18.7377 0.0000 29.3718 0.0000
# 6 0.0000 0.0000 0.0000 -3.3879 0.0000 26.7139
#
#
#
# Elastic Compliance Matrix: (Units=1/GPa)
#
#
# Indices 1 2 3 4 5 6 
#
# 1 0.016797 -0.002934 0.000729 0.000000 -0.005165 0.000000
# 2 -0.002934 0.007339 -0.002197 0.000000 0.003614 0.000000
# 3 0.000729 -0.002197 0.009135 0.000000 -0.006453 0.000000
# 4 0.000000 0.000000 0.000000 0.347251 0.000000 0.044039
# 5 -0.005165 0.003614 -0.006453 0.000000 0.040161 0.000000
# 6 0.000000 0.000000 0.000000 0.044039 0.000000 0.043019
#
#
# Mechanical properties :
#
#
# Convention : Reuss Voigt Hill
#
# Bulk Modulus (GPa) = 40.87239 53.17082 47.02160
# Shear Modulus (GPa) = 10.40233 31.35472 20.87853
#
# Velocity S-wave (km/s) = 2.14557 3.72503 3.03968
# Velocity P-wave (km/s) = 4.92197 6.48317 5.75575
#
# Compressibility (1/GPa) = 0.02446640
#
# Stress axis : x y z
#
# Youngs Moduli (GPa) = 59.53391 136.26204 109.47054
#
# Poissons Ratio (x) = 0.39979 -0.07983
# Poissons Ratio (y) = 0.17467 0.24056
# Poissons Ratio (z) = -0.04342 0.29944
#
# Static dielectric constant tensor:
#      x y z
#    x 1.926250 0.000000 0.037380 
#    y 0.000000 1.815990 0.000000 
#    z 0.037380 0.000000 2.033040 
# 
# From -- ./inp_files/2884.got.cif
#   From: 2010.05.17/outbox.cif.g08.bks.cpg/sg5_2_cif.got.tgz:2884.got - 2010.06.03 18:56:24.
