data_PCOD9127873
_publ_section_title
;
Structure prediction by ZEFSAII (Michael W. Deem and Ramdas Pophale) SiO2 
 PCOD9127873
Probable space group: C 2
;
_chemical_formula_sum "Si O2"
_cell_formula_units_Z 22
_cell_length_a 10.014673
_cell_length_b 9.980876
_cell_length_c 9.154826
_cell_angle_alpha 90.000000
_cell_angle_beta 113.441799
_cell_angle_gamma 90.000000
_cell_volume 839.546717
_symmetry_space_group_name_H-M "C 2"
_symmetry_group_IT_number 5
_symmetry_cell_setting 'monoclinic'
loop_
_space_group_symop_operation_xyz
x,y,z
-x,y,-z
1/2+x,1/2+y,z
1/2-x,1/2+y,-z
loop_
_atom_site_type_symbol
_atom_site_label
_atom_site_fract_x
_atom_site_fract_y
_atom_site_fract_z
Si Si1 0.739464 0.568610 0.672870
Si Si2 0.000000 0.084422 0.000000
Si Si3 0.000000 0.709498 0.500000
Si Si4 0.797043 0.663077 0.002751
Si Si5 0.945744 0.484282 0.276082
Si Si6 0.515603 0.386920 0.757946
Si Si7 0.500000 0.745243 0.500000
O O1 0.881009 0.502259 0.668561
O O2 0.634356 0.467508 0.714047
O O3 0.633669 0.648343 0.517901
O O4 0.799292 0.661482 0.830021
O O5 0.866421 0.167973 0.006161
O O6 0.946083 0.989261 0.842697
O O7 0.900434 0.605393 0.366488
O O8 0.930612 0.803179 0.596003
O O9 0.895146 0.780444 0.107761
O O10 0.862838 0.521793 0.092324
O O11 0.936257 0.341785 0.347766
#
# Coordination Sequence:
#
# PCOD9127873 Si02
#       7
#     4   2   2   4   4   4   2
#     4  11  25  43  70 108 138 191 238 294 364 423
#     4  10  24  44  72 102 144 184 236 302 360 420
#     4   9  21  42  62 100 131 181 232 274 370 417
#     4  10  24  46  70 107 136 190 246 292 363 424
#     4  10  24  45  71 101 146 186 235 302 358 427
#     4  10  23  43  69 102 136 186 235 295 352 433
#     4  11  27  46  68 108 149 189 234 294 370 433
#
# _framework density 26.204616999999999
#
# number of rings (size 3 to 8) (size 9 to 14) (size 15 to 20)
#    0.000    1.818    0.000    1.091   12.727    2.909 
#   19.636    0.000    0.000    0.000    0.000    0.000 
#    0.000    0.000    0.000    0.000    0.000    0.000 
#
# Total GULP energy -61564.805062 kJ/mol
# GULP energy per Si atom -5596.800460 kJ/mol
# Density = 2.614497 g / cm^3
# Si number density = 26.204617 Si / 1000 Ang^3
#
#
#
# Elastic Constant Matrix: (Units=GPa)
#
#
# Indices 1 2 3 4 5 6 
#
# 1 103.9399 18.2953 -1.1187 0.0000 -9.9106 0.0000
# 2 18.2953 70.2027 24.7713 0.0000 2.0235 0.0000
# 3 -1.1187 24.7713 109.4523 0.0000 -4.9560 0.0000
# 4 0.0000 0.0000 0.0000 43.5192 0.0000 10.9178
# 5 -9.9106 2.0235 -4.9560 0.0000 38.9140 0.0000
# 6 0.0000 0.0000 0.0000 10.9178 0.0000 29.7969
#
#
#
# Elastic Compliance Matrix: (Units=1/GPa)
#
#
# Indices 1 2 3 4 5 6 
#
# 1 0.010467 -0.003149 0.000953 0.000000 0.002951 0.000000
# 2 -0.003149 0.016490 -0.003862 0.000000 -0.002151 0.000000
# 3 0.000953 -0.003862 0.010098 0.000000 0.001730 0.000000
# 4 0.000000 0.000000 0.000000 0.025304 0.000000 -0.009272
# 5 0.002951 -0.002151 0.001730 0.000000 0.026781 0.000000
# 6 0.000000 0.000000 0.000000 -0.009272 0.000000 0.036958
#
#
# Mechanical properties :
#
#
# Convention : Reuss Voigt Hill
#
# Bulk Modulus (GPa) = 40.09591 40.83228 40.46409
# Shear Modulus (GPa) = 34.12347 38.55583 36.33965
#
# Velocity S-wave (km/s) = 3.61251 3.83996 3.72797
# Velocity P-wave (km/s) = 5.72141 5.93939 5.83142
#
# Compressibility (1/GPa) = 0.02494020
#
# Stress axis : x y z
#
# Youngs Moduli (GPa) = 95.53946 60.64377 99.02539
#
# Poissons Ratio (x) = 0.19098 -0.09440
# Poissons Ratio (y) = 0.30087 0.38239
# Poissons Ratio (z) = -0.09108 0.23418
#
# Static dielectric constant tensor:
#      x y z
#    x 2.012160 0.000000 -0.005060 
#    y 0.000000 2.106820 0.000000 
#    z -0.005060 0.000000 2.085970 
# 
# From -- ./inp_files/19051.got.cif
#   From: 2010.05.17/outbox.cif.g08.bks.cpg/sg5_10_cif.got.tgz:19051.got - 2010.06.03 18:56:24.
