data_PCOD9127002
_publ_section_title
;
Structure prediction by ZEFSAII (Michael W. Deem and Ramdas Pophale) SiO2 
 PCOD9127002
Probable space group: C 2
;
_chemical_formula_sum "Si O2"
_cell_formula_units_Z 32
_cell_length_a 29.649228
_cell_length_b 4.985879
_cell_length_c 8.830334
_cell_angle_alpha 90.000000
_cell_angle_beta 97.401454
_cell_angle_gamma 90.000000
_cell_volume 1294.489428
_symmetry_space_group_name_H-M "C 2"
_symmetry_group_IT_number 5
_symmetry_cell_setting 'monoclinic'
loop_
_space_group_symop_operation_xyz
x,y,z
-x,y,-z
1/2+x,1/2+y,z
1/2-x,1/2+y,-z
loop_
_atom_site_type_symbol
_atom_site_label
_atom_site_fract_x
_atom_site_fract_y
_atom_site_fract_z
Si Si1 0.263611 0.730740 0.923398
Si Si2 0.147624 0.865424 0.066096
Si Si3 0.615509 0.876056 0.205254
Si Si4 0.394332 0.591873 0.226127
Si Si5 0.365573 0.970165 0.442162
Si Si6 0.455432 0.943019 0.047063
Si Si7 0.959857 0.724231 0.362323
Si Si8 0.729613 0.270236 0.576209
O O1 0.307860 0.545369 0.931511
O O2 0.245924 0.821711 0.753248
O O3 0.230098 0.498883 0.975075
O O4 0.118017 0.065067 0.159314
O O5 0.152515 0.579150 0.147558
O O6 0.126365 0.855799 0.887292
O O7 0.622492 0.876226 0.385618
O O8 0.570374 0.022812 0.119151
O O9 0.440619 0.525092 0.337459
O O10 0.358079 0.727180 0.320520
O O11 0.414501 0.785036 0.107760
O O12 0.412542 0.095362 0.400053
O O13 0.322058 0.162014 0.438133
O O14 0.470418 0.134973 0.192867
O O15 0.500000 0.798381 0.000000
O O16 0.000000 0.690339 0.500000
O O17 0.738930 0.532733 0.480031
#
# Coordination Sequence:
#
# PCOD9127002 Si02
#       8
#     4   4   4   4   4   4   4   4
#     4  12  25  41  69 102 134 182 234 292 351 430
#     4  11  23  44  66  94 138 174 235 280 354 419
#     4  11  23  42  67  97 127 186 226 283 346 418
#     4  10  24  42  67  98 137 191 230 301 359 431
#     4  11  26  43  71  98 146 186 239 301 365 430
#     4  10  22  43  64  95 136 178 235 291 356 422
#     4  11  24  42  67 101 138 186 241 297 363 432
#     4  12  27  47  72 109 149 192 245 303 371 437
#
# _framework density 24.720172999999999
#
# number of rings (size 3 to 8) (size 9 to 14) (size 15 to 20)
#    0.000    1.000    1.250    4.500    5.250    3.500 
#    2.250    0.000    0.000    0.000    0.000    0.000 
#    0.000    0.000    0.000    0.000    0.000    0.000 
#
# Total GULP energy -89314.462107 kJ/mol
# GULP energy per Si atom -5582.153882 kJ/mol
# Density = 2.466391 g / cm^3
# Si number density = 24.720173 Si / 1000 Ang^3
#
#
#
# Elastic Constant Matrix: (Units=GPa)
#
#
# Indices 1 2 3 4 5 6 
#
# 1 78.4582 -10.1483 29.8515 0.0000 1.2017 0.0000
# 2 -10.1483 84.7919 17.1627 0.0000 -14.5931 0.0000
# 3 29.8515 17.1627 114.7020 0.0000 6.8769 0.0000
# 4 0.0000 0.0000 0.0000 -1.2616 0.0000 10.6176
# 5 1.2017 -14.5931 6.8769 0.0000 38.1719 0.0000
# 6 0.0000 0.0000 0.0000 10.6176 0.0000 23.7550
#
#
#
# Elastic Compliance Matrix: (Units=1/GPa)
#
#
# Indices 1 2 3 4 5 6 
#
# 1 0.014757 0.002894 -0.004359 0.000000 0.001427 0.000000
# 2 0.002894 0.013767 -0.003157 0.000000 0.005741 0.000000
# 3 -0.004359 -0.003157 0.010503 0.000000 -0.002962 0.000000
# 4 0.000000 0.000000 0.000000 -0.166466 0.000000 0.074404
# 5 0.001427 0.005741 -0.002962 0.000000 0.028881 0.000000
# 6 0.000000 0.000000 0.000000 0.074404 0.000000 0.008841
#
#
# Mechanical properties :
#
#
# Convention : Reuss Voigt Hill
#
# Bulk Modulus (GPa) = 33.57755 39.07598 36.32676
# Shear Modulus (GPa) = -70.87588 28.20547 -21.33520
#
# Velocity S-wave (km/s) = -5.36037 3.38152 -2.94099
# Velocity P-wave (km/s) = 4.96979 5.57565 1.78732
#
# Compressibility (1/GPa) = 0.02978181
#
# Stress axis : x y z
#
# Youngs Moduli (GPa) = 67.76610 72.63715 95.21346
#
# Poissons Ratio (x) = -0.21022 0.41504
# Poissons Ratio (y) = -0.19612 0.30062
# Poissons Ratio (z) = 0.29540 0.22934
#
# Static dielectric constant tensor:
#      x y z
#    x 2.130250 0.000000 -0.082350 
#    y 0.000000 2.111040 0.000000 
#    z -0.082350 0.000000 2.018140 
# 
# From -- ./inp_files/32282.got.cif
#   From: 2010.05.17/outbox.cif.g08.bks.cpg/sg5_17_cif.got.tgz:32282.got - 2010.06.03 18:56:24.
