data_PCOD9127231
_publ_section_title
;
Structure prediction by ZEFSAII (Michael W. Deem and Ramdas Pophale) SiO2 
 PCOD9127231
Probable space group: C 2
;
_chemical_formula_sum "Si O2"
_cell_formula_units_Z 18
_cell_length_a 9.968282
_cell_length_b 7.246511
_cell_length_c 10.347281
_cell_angle_alpha 90.000000
_cell_angle_beta 70.851073
_cell_angle_gamma 90.000000
_cell_volume 706.082170
_symmetry_space_group_name_H-M "C 2"
_symmetry_group_IT_number 5
_symmetry_cell_setting 'monoclinic'
loop_
_space_group_symop_operation_xyz
x,y,z
-x,y,-z
1/2+x,1/2+y,z
1/2-x,1/2+y,-z
loop_
_atom_site_type_symbol
_atom_site_label
_atom_site_fract_x
_atom_site_fract_y
_atom_site_fract_z
Si Si1 0.992926 0.289880 0.352962
Si Si2 0.309061 0.301694 0.195913
Si Si3 0.000000 0.499333 0.000000
Si Si4 0.491430 0.234124 0.356780
Si Si5 0.802417 0.215955 0.163599
O O1 0.146967 0.240391 0.246827
O O2 0.978716 0.512213 0.364508
O O3 0.000000 0.224963 0.500000
O O4 0.878481 0.237536 0.279842
O O5 0.358059 0.325667 0.329075
O O6 0.318724 0.500262 0.125136
O O7 0.418827 0.146343 0.115830
O O8 0.126500 0.347596 0.965058
O O9 0.500000 0.299839 0.500000
O O10 0.638806 0.268115 0.235768
#
# Coordination Sequence:
#
# PCOD9127231 Si02
#       5
#     4   4   2   4   4
#     4  10  22  44  71 102 134 167 218 277 335 392
#     4  11  25  44  68 101 130 178 220 268 333 390
#     4  12  26  48  64  92 144 176 222 276 316 386
#     4  10  22  44  71 102 134 167 218 277 335 392
#     4  11  25  44  68 101 130 178 220 268 333 390
#
# _framework density 25.492784
#
# number of rings (size 3 to 8) (size 9 to 14) (size 15 to 20)
#    0.000    1.333    2.222    2.000    3.111    2.667 
#    0.000    0.000    0.000    0.000    0.000    0.000 
#    0.000    0.000    0.000    0.000    0.000    0.000 
#
# Total GULP energy -50282.169298 kJ/mol
# GULP energy per Si atom -5586.907700 kJ/mol
# Density = 2.543476 g / cm^3
# Si number density = 25.492784 Si / 1000 Ang^3
#
#
#
# Elastic Constant Matrix: (Units=GPa)
#
#
# Indices 1 2 3 4 5 6 
#
# 1 118.8297 11.6235 17.4888 0.0000 14.3918 0.0000
# 2 11.6235 132.4670 37.4879 0.0000 -8.5998 0.0000
# 3 17.4888 37.4879 82.0933 0.0000 5.4381 0.0000
# 4 0.0000 0.0000 0.0000 35.1625 0.0000 5.5703
# 5 14.3918 -8.5998 5.4381 0.0000 34.2319 0.0000
# 6 0.0000 0.0000 0.0000 5.5703 0.0000 -1.4177
#
#
#
# Elastic Compliance Matrix: (Units=1/GPa)
#
#
# Indices 1 2 3 4 5 6 
#
# 1 0.009144 -0.000652 -0.001399 0.000000 -0.003786 0.000000
# 2 -0.000652 0.008997 -0.004182 0.000000 0.003199 0.000000
# 3 -0.001399 -0.004182 0.014573 0.000000 -0.002777 0.000000
# 4 0.000000 0.000000 0.000000 0.017529 0.000000 0.068872
# 5 -0.003786 0.003199 -0.002777 0.000000 0.032049 0.000000
# 6 0.000000 0.000000 0.000000 0.068872 0.000000 -0.434751
#
#
# Mechanical properties :
#
#
# Convention : Reuss Voigt Hill
#
# Bulk Modulus (GPa) = 49.38823 51.84335 50.61579
# Shear Modulus (GPa) = -15.00404 31.38132 8.18864
#
# Velocity S-wave (km/s) = -2.42866 3.51235 1.79419
# Velocity P-wave (km/s) = 3.39867 6.06873 4.91835
#
# Compressibility (1/GPa) = 0.02024774
#
# Stress axis : x y z
#
# Youngs Moduli (GPa) = 109.36571 111.14426 68.62059
#
# Poissons Ratio (x) = 0.07247 0.09603
# Poissons Ratio (y) = 0.07131 0.28694
# Poissons Ratio (z) = 0.15304 0.46476
#
# Static dielectric constant tensor:
#      x y z
#    x 1.972860 0.000000 0.064740 
#    y 0.000000 1.977710 0.000000 
#    z 0.064740 0.000000 2.072590 
# 
# From -- ./inp_files/34628.got.cif
#   From: 2010.05.17/outbox.cif.g08.bks.cpg/sg5_18_cif.got.tgz:34628.got - 2010.06.03 18:56:24.
