data_PCOD9127227
_publ_section_title
;
Structure prediction by ZEFSAII (Michael W. Deem and Ramdas Pophale) SiO2 
 PCOD9127227
Probable space group: C 2
;
_chemical_formula_sum "Si O2"
_cell_formula_units_Z 28
_cell_length_a 13.230933
_cell_length_b 13.286362
_cell_length_c 8.075045
_cell_angle_alpha 90.000000
_cell_angle_beta 69.150866
_cell_angle_gamma 90.000000
_cell_volume 1326.570941
_symmetry_space_group_name_H-M "C 2"
_symmetry_group_IT_number 5
_symmetry_cell_setting 'monoclinic'
loop_
_space_group_symop_operation_xyz
x,y,z
-x,y,-z
1/2+x,1/2+y,z
1/2-x,1/2+y,-z
loop_
_atom_site_type_symbol
_atom_site_label
_atom_site_fract_x
_atom_site_fract_y
_atom_site_fract_z
Si Si1 0.823570 0.025350 0.282218
Si Si2 0.033774 0.384365 0.787455
Si Si3 0.685157 0.509005 0.095977
Si Si4 0.418091 0.082238 0.908738
Si Si5 0.488897 0.665451 0.700695
Si Si6 0.206520 0.881887 0.398318
Si Si7 0.124234 0.666017 0.384846
O O1 0.911311 0.113546 0.260246
O O2 0.705764 0.075472 0.375691
O O3 0.835896 0.944107 0.419539
O O4 0.831127 0.984115 0.089383
O O5 0.988121 0.285154 0.725907
O O6 0.162614 0.385695 0.685468
O O7 0.978791 0.491280 0.775195
O O8 0.000000 0.372649 0.000000
O O9 0.616628 0.609127 0.171162
O O10 0.659844 0.428335 0.253780
O O11 0.811241 0.533502 0.046583
O O12 0.377271 0.169350 0.813526
O O13 0.500000 0.117630 0.000000
O O14 0.500000 0.643491 0.500000
O O15 0.169743 0.767299 0.434765
O O16 0.000000 0.651730 0.500000
#
# Coordination Sequence:
#
# PCOD9127227 Si02
#       7
#     4   4   4   4   4   4   4
#     4  11  25  48  70 101 139 184 232 293 344 414
#     4  11  22  43  71 100 142 181 235 294 339 415
#     4  11  24  43  73  99 137 185 227 286 353 405
#     4  10  22  44  70  98 135 185 228 287 346 407
#     4  12  25  42  71 106 140 184 236 289 351 416
#     4  12  24  46  70 102 141 179 235 285 350 419
#     4  11  26  44  68 101 139 179 228 288 348 410
#
# _framework density 21.107050000000001
#
# number of rings (size 3 to 8) (size 9 to 14) (size 15 to 20)
#    0.000    0.857    5.714    2.143    4.000    2.857 
#    2.571    0.000    0.000    0.000    0.000    0.000 
#    0.000    0.000    0.000    0.000    0.000    0.000 
#
# Total GULP energy -78204.717905 kJ/mol
# GULP energy per Si atom -5586.051279 kJ/mol
# Density = 2.105901 g / cm^3
# Si number density = 21.107050 Si / 1000 Ang^3
#
#
#
# Elastic Constant Matrix: (Units=GPa)
#
#
# Indices 1 2 3 4 5 6 
#
# 1 79.8708 13.9185 9.1246 0.0000 -5.4614 0.0000
# 2 13.9185 74.9986 29.6891 0.0000 8.0069 0.0000
# 3 9.1246 29.6891 94.7056 0.0000 16.8504 0.0000
# 4 0.0000 0.0000 0.0000 21.6116 0.0000 4.1067
# 5 -5.4614 8.0069 16.8504 0.0000 37.5589 0.0000
# 6 0.0000 0.0000 0.0000 4.1067 0.0000 21.9022
#
#
#
# Elastic Compliance Matrix: (Units=1/GPa)
#
#
# Indices 1 2 3 4 5 6 
#
# 1 0.013249 -0.002351 -0.001056 0.000000 0.002901 0.000000
# 2 -0.002351 0.015690 -0.004386 0.000000 -0.001719 0.000000
# 3 -0.001056 -0.004386 0.012929 0.000000 -0.005019 0.000000
# 4 0.000000 0.000000 0.000000 0.047981 0.000000 -0.008997
# 5 0.002901 -0.001719 -0.005019 0.000000 0.029665 0.000000
# 6 0.000000 0.000000 0.000000 -0.008997 0.000000 0.047344
#
#
# Mechanical properties :
#
#
# Convention : Reuss Voigt Hill
#
# Bulk Modulus (GPa) = 38.04886 39.44882 38.74884
# Shear Modulus (GPa) = 26.15018 29.33739 27.74379
#
# Velocity S-wave (km/s) = 3.52366 3.73223 3.62944
# Velocity P-wave (km/s) = 5.88393 6.10763 5.99683
#
# Compressibility (1/GPa) = 0.02628199
#
# Stress axis : x y z
#
# Youngs Moduli (GPa) = 75.47835 63.73632 77.34688
#
# Poissons Ratio (x) = 0.14982 0.08166
# Poissons Ratio (y) = 0.17742 0.33926
# Poissons Ratio (z) = 0.07969 0.27956
#
# Static dielectric constant tensor:
#      x y z
#    x 1.761570 0.000000 0.017960 
#    y 0.000000 1.743580 0.000000 
#    z 0.017960 0.000000 1.812880 
# 
# From -- ./inp_files/23765.got.cif
#   From: 2010.05.17/outbox.cif.g08.bks.cpg/sg5_12_cif.got.tgz:23765.got - 2010.06.03 18:56:24.
