data_PCOD9127154
_publ_section_title
;
Structure prediction by ZEFSAII (Michael W. Deem and Ramdas Pophale) SiO2 
 PCOD9127154
Probable space group: C 2
;
_chemical_formula_sum "Si O2"
_cell_formula_units_Z 28
_cell_length_a 31.494396
_cell_length_b 5.052000
_cell_length_c 8.744956
_cell_angle_alpha 90.000000
_cell_angle_beta 56.395195
_cell_angle_gamma 90.000000
_cell_volume 1158.868055
_symmetry_space_group_name_H-M "C 2"
_symmetry_group_IT_number 5
_symmetry_cell_setting 'monoclinic'
loop_
_space_group_symop_operation_xyz
x,y,z
-x,y,-z
1/2+x,1/2+y,z
1/2-x,1/2+y,-z
loop_
_atom_site_type_symbol
_atom_site_label
_atom_site_fract_x
_atom_site_fract_y
_atom_site_fract_z
Si Si1 0.000000 0.587780 0.000000
Si Si2 0.053368 0.014615 0.109718
Si Si3 0.252853 0.686093 0.884470
Si Si4 0.100727 0.512868 0.355400
Si Si5 0.147050 0.676633 0.943318
Si Si6 0.637665 0.518330 0.449689
Si Si7 0.406119 0.857417 0.204536
Si Si8 0.500000 0.339901 0.500000
O O1 0.030446 0.783555 0.054278
O O2 0.950563 0.501458 0.209191
O O3 0.021097 0.024167 0.324445
O O4 0.112764 0.941877 0.013740
O O5 0.052100 0.269190 0.007382
O O6 0.205912 0.721697 0.861856
O O7 0.304118 0.604128 0.694644
O O8 0.240654 0.451555 0.029182
O O9 0.105581 0.214133 0.403301
O O10 0.046254 0.647547 0.449596
O O11 0.130952 0.715536 0.409960
O O12 0.125114 0.525304 0.136524
O O13 0.134972 0.525366 0.808456
O O14 0.618290 0.614592 0.654782
#
# Coordination Sequence:
#
# PCOD9127154 Si02
#       8
#     2   4   4   4   4   4   4   2
#     4  10  22  44  66  98 140 194 226 286 358 432
#     4  10  23  43  65  98 142 179 235 288 350 425
#     4  12  24  47  76 102 135 188 240 299 360 427
#     4  11  25  45  72 103 142 181 246 286 353 422
#     4  10  24  45  68  98 139 179 238 297 356 413
#     4  12  26  46  72 106 139 188 236 298 353 437
#     4  11  26  42  71 102 149 185 235 299 362 430
#     4  10  24  40  68 102 134 190 228 292 334 426
#
# _framework density 24.161505999999999
#
# number of rings (size 3 to 8) (size 9 to 14) (size 15 to 20)
#    0.000    1.143    2.857    1.286   14.000    0.571 
#    2.571    0.000    0.000    0.000    0.000    0.000 
#    0.000    0.000    0.000    0.000    0.000    0.000 
#
# Total GULP energy -78267.766006 kJ/mol
# GULP energy per Si atom -5590.554715 kJ/mol
# Density = 2.410651 g / cm^3
# Si number density = 24.161506 Si / 1000 Ang^3
#
#
#
# Elastic Constant Matrix: (Units=GPa)
#
#
# Indices 1 2 3 4 5 6 
#
# 1 -137.3174 -179.6397 48.6571 0.0000 -51.4721 0.0000
# 2 -179.6397 -33.0754 17.4554 0.0000 -10.5836 0.0000
# 3 48.6571 17.4554 102.8799 0.0000 -7.4696 0.0000
# 4 0.0000 0.0000 0.0000 40.7626 0.0000 -20.2784
# 5 -51.4721 -10.5836 -7.4696 0.0000 36.9873 0.0000
# 6 0.0000 0.0000 0.0000 -20.2784 0.0000 24.3458
#
#
#
# Elastic Compliance Matrix: (Units=1/GPa)
#
#
# Indices 1 2 3 4 5 6 
#
# 1 0.001220 -0.006358 0.000500 0.000000 -0.000020 0.000000
# 2 -0.006358 0.007097 0.001328 0.000000 -0.006550 0.000000
# 3 0.000500 0.001328 0.009475 0.000000 0.002989 0.000000
# 4 0.000000 0.000000 0.000000 0.041890 0.000000 0.034891
# 5 -0.000020 -0.006550 0.002989 0.000000 0.025738 0.000000
# 6 0.000000 0.000000 0.000000 0.034891 0.000000 0.070137
#
#
# Mechanical properties :
#
#
# Convention : Reuss Voigt Hill
#
# Bulk Modulus (GPa) = 114.53270 -32.72969 40.90150
# Shear Modulus (GPa) = 29.84552 23.48678 26.66615
#
# Velocity S-wave (km/s) = 3.51843 3.12119 3.32575
# Velocity P-wave (km/s) = 8.00073 0.76583 5.63139
#
# Compressibility (1/GPa) = 0.00873113
#
# Stress axis : x y z
#
# Youngs Moduli (GPa) = 819.33770 140.90996 105.53725
#
# Poissons Ratio (x) = 0.89597 -0.05278
# Poissons Ratio (y) = 5.20973 -0.14011
# Poissons Ratio (z) = -0.40978 -0.18707
#
# Static dielectric constant tensor:
#      x y z
#    x 2.027790 0.000000 -0.033960 
#    y 0.000000 2.242270 0.000000 
#    z -0.033960 0.000000 1.873950 
# 
# From -- ./inp_files/31448.got.cif
#   From: 2010.05.17/outbox.cif.g08.bks.cpg/sg5_16_cif.got.tgz:31448.got - 2010.06.03 18:56:24.
