data_PCOD9127210
_publ_section_title
;
Structure prediction by ZEFSAII (Michael W. Deem and Ramdas Pophale) SiO2 
 PCOD9127210
Probable space group: C 2
;
_chemical_formula_sum "Si O2"
_cell_formula_units_Z 18
_cell_length_a 10.931298
_cell_length_b 9.174989
_cell_length_c 8.076730
_cell_angle_alpha 90.000000
_cell_angle_beta 106.206544
_cell_angle_gamma 90.000000
_cell_volume 777.861918
_symmetry_space_group_name_H-M "C 2"
_symmetry_group_IT_number 5
_symmetry_cell_setting 'monoclinic'
loop_
_space_group_symop_operation_xyz
x,y,z
-x,y,-z
1/2+x,1/2+y,z
1/2-x,1/2+y,-z
loop_
_atom_site_type_symbol
_atom_site_label
_atom_site_fract_x
_atom_site_fract_y
_atom_site_fract_z
Si Si1 0.980751 0.510910 0.732373
Si Si2 0.768563 0.052529 0.859523
Si Si3 0.000000 0.248165 0.500000
Si Si4 0.780775 0.023465 0.494459
Si Si5 0.274829 0.877677 0.847949
O O1 0.012341 0.353617 0.662221
O O2 0.867998 0.573002 0.572300
O O3 0.895901 0.481473 0.861275
O O4 0.115802 0.584560 0.800197
O O5 0.805127 0.986235 0.694884
O O6 0.822327 0.214870 0.896483
O O7 0.797185 0.945935 0.022785
O O8 0.876575 0.149403 0.476968
O O9 0.792197 0.898357 0.357474
#
# Coordination Sequence:
#
# PCOD9127210 Si02
#       5
#     4   4   2   4   4
#     4  10  22  44  69  95 136 180 222 283 335 402
#     4  12  22  45  72 101 139 181 229 281 345 408
#     4  12  20  44  72  94 134 184 220 284 338 402
#     4  10  23  44  67 100 130 179 231 272 342 402
#     4  10  26  42  69 105 134 182 226 281 343 409
#
# _framework density 23.140353000000001
#
# number of rings (size 3 to 8) (size 9 to 14) (size 15 to 20)
#    1.333    0.000    4.444    0.667    3.111    0.000 
#    8.000    3.333    0.000    0.000    0.000    0.000 
#    0.000    0.000    0.000    0.000    0.000    0.000 
#
# Total GULP energy -50143.650653 kJ/mol
# GULP energy per Si atom -5571.516739 kJ/mol
# Density = 2.308768 g / cm^3
# Si number density = 23.140353 Si / 1000 Ang^3
#
#
#
# Elastic Constant Matrix: (Units=GPa)
#
#
# Indices 1 2 3 4 5 6 
#
# 1 66.1939 -0.4397 -2.9938 0.0000 -11.2831 0.0000
# 2 -0.4397 42.5042 40.3149 0.0000 -9.0959 0.0000
# 3 -2.9938 40.3149 151.9920 0.0000 -45.9566 0.0000
# 4 0.0000 0.0000 0.0000 16.5211 0.0000 -15.7334
# 5 -11.2831 -9.0959 -45.9566 0.0000 28.5395 0.0000
# 6 0.0000 0.0000 0.0000 -15.7334 0.0000 30.3637
#
#
#
# Elastic Compliance Matrix: (Units=1/GPa)
#
#
# Indices 1 2 3 4 5 6 
#
# 1 0.017948 -0.001688 0.005426 0.000000 0.015295 0.000000
# 2 -0.001688 0.032254 -0.011073 0.000000 -0.008219 0.000000
# 3 0.005426 -0.011073 0.017939 0.000000 0.027503 0.000000
# 4 0.000000 0.000000 0.000000 0.119494 0.000000 0.061918
# 5 0.015295 -0.008219 0.027503 0.000000 0.082754 0.000000
# 6 0.000000 0.000000 0.000000 0.061918 0.000000 0.065018
#
#
# Mechanical properties :
#
#
# Convention : Reuss Voigt Hill
#
# Bulk Modulus (GPa) = 18.70160 37.16144 27.93152
# Shear Modulus (GPa) = 13.59060 30.00544 21.79802
#
# Velocity S-wave (km/s) = 2.42608 3.60484 3.07252
# Velocity P-wave (km/s) = 3.99339 5.78105 4.96828
#
# Compressibility (1/GPa) = 0.05347136
#
# Stress axis : x y z
#
# Youngs Moduli (GPa) = 55.71505 31.00404 55.74394
#
# Poissons Ratio (x) = 0.05232 -0.30246
# Poissons Ratio (y) = 0.09402 0.61727
# Poissons Ratio (z) = -0.30230 0.34332
#
# Static dielectric constant tensor:
#      x y z
#    x 1.937980 0.000000 0.015550 
#    y 0.000000 1.830680 0.000000 
#    z 0.015550 0.000000 2.023380 
# 
# From -- ./inp_files/18012.got.cif
#   From: 2010.05.17/outbox.cif.g08.bks.cpg/sg5_10_cif.got.tgz:18012.got - 2010.06.03 18:56:24.
