data_PCOD9127241
_publ_section_title
;
Structure prediction by ZEFSAII (Michael W. Deem and Ramdas Pophale) SiO2 
 PCOD9127241
Probable space group: C 2
;
_chemical_formula_sum "Si O2"
_cell_formula_units_Z 30
_cell_length_a 12.528192
_cell_length_b 10.220942
_cell_length_c 21.088484
_cell_angle_alpha 90.000000
_cell_angle_beta 149.647833
_cell_angle_gamma 90.000000
_cell_volume 1364.537912
_symmetry_space_group_name_H-M "C 2"
_symmetry_group_IT_number 5
_symmetry_cell_setting 'monoclinic'
loop_
_space_group_symop_operation_xyz
x,y,z
-x,y,-z
1/2+x,1/2+y,z
1/2-x,1/2+y,-z
loop_
_atom_site_type_symbol
_atom_site_label
_atom_site_fract_x
_atom_site_fract_y
_atom_site_fract_z
Si Si1 0.800396 0.962840 0.000660
Si Si2 0.992240 0.358742 0.732758
Si Si3 0.000000 0.256497 0.500000
Si Si4 0.060543 0.579946 0.459647
Si Si5 0.363153 0.533318 0.515099
Si Si6 0.047672 0.255797 0.950742
Si Si7 0.231853 0.370783 0.737344
Si Si8 0.319327 0.318128 0.325168
O O1 0.028832 0.893927 0.120673
O O2 0.845237 0.120765 0.022270
O O3 0.662899 0.926081 0.867437
O O4 0.677966 0.885975 0.995072
O O5 0.112854 0.298022 0.734430
O O6 0.819483 0.457620 0.616158
O O7 0.842199 0.274295 0.701973
O O8 0.126664 0.172268 0.513294
O O9 0.175421 0.316489 0.638576
O O10 0.881494 0.512042 0.325043
O O11 0.029298 0.732840 0.435200
O O12 0.000000 0.546146 0.500000
O O13 0.283239 0.535257 0.546493
O O14 0.590346 0.464205 0.624231
O O15 0.816359 0.286999 0.804851
O O16 0.000000 0.236314 0.000000
#
# Coordination Sequence:
#
# PCOD9127241 Si02
#       8
#     4   4   2   4   4   4   4   4
#     4  11  25  47  76 110 148 199 253 303 373 455
#     4  10  22  44  71  99 135 186 240 291 365 439
#     4  12  26  42  64 106 142 182 234 300 368 424
#     4  11  24  38  64  97 135 178 233 288 356 423
#     4  11  25  42  69  98 138 185 234 300 367 428
#     4  11  26  47  78 110 150 201 250 310 382 447
#     4  11  24  42  65 104 141 181 239 291 365 432
#     4  11  23  46  67 100 141 187 243 289 369 447
#
# _framework density 21.985464
#
# number of rings (size 3 to 8) (size 9 to 14) (size 15 to 20)
#    0.000    1.067    3.333    2.000    9.333    1.067 
#    0.000    3.333    0.000    0.000    0.000    0.000 
#    0.000    0.000    0.000    0.000    0.000    0.000 
#
# Total GULP energy -83519.714063 kJ/mol
# GULP energy per Si atom -5567.980938 kJ/mol
# Density = 2.193542 g / cm^3
# Si number density = 21.985464 Si / 1000 Ang^3
#
#
#
# Elastic Constant Matrix: (Units=GPa)
#
#
# Indices 1 2 3 4 5 6 
#
# 1 144.5527 35.5262 33.2470 0.0000 2.6288 0.0000
# 2 35.5262 57.3352 33.8904 0.0004 -5.5371 0.0000
# 3 33.2470 33.8904 130.6526 0.0011 -0.9706 0.0001
# 4 0.0000 0.0004 0.0011 23.0848 0.0002 2.4927
# 5 2.6288 -5.5371 -0.9706 0.0002 19.5345 0.0000
# 6 0.0000 0.0000 0.0001 2.4927 0.0000 17.8704
#
#
#
# Elastic Compliance Matrix: (Units=1/GPa)
#
#
# Indices 1 2 3 4 5 6 
#
# 1 0.008375 -0.004920 -0.000874 0.000000 -0.002565 0.000000
# 2 -0.004920 0.024116 -0.004950 0.000000 0.007252 0.000000
# 3 -0.000874 -0.004950 0.009154 0.000000 -0.000831 0.000000
# 4 0.000000 0.000000 0.000000 0.043981 -0.000001 -0.006135
# 5 -0.002565 0.007252 -0.000831 -0.000001 0.053551 0.000000
# 6 0.000000 0.000000 0.000000 -0.006135 0.000000 0.056814
#
#
# Mechanical properties :
#
#
# Convention : Reuss Voigt Hill
#
# Bulk Modulus (GPa) = 49.61013 59.76307 54.68660
# Shear Modulus (GPa) = 22.30172 27.42307 24.86239
#
# Velocity S-wave (km/s) = 3.18840 3.53558 3.36647
# Velocity P-wave (km/s) = 6.01402 6.62640 6.32762
#
# Compressibility (1/GPa) = 0.02015717
#
# Stress axis : x y z
#
# Youngs Moduli (GPa) = 119.40579 41.46596 109.24206
#
# Poissons Ratio (x) = 0.20403 0.09546
# Poissons Ratio (y) = 0.58753 0.54071
# Poissons Ratio (z) = 0.10434 0.20524
#
# Static dielectric constant tensor:
#      x y z
#    x 1.856570 0.000000 -0.017380 
#    y 0.000000 1.950170 0.000000 
#    z -0.017380 0.000000 1.773540 
# 
# From -- ./inp_files/65370.got.cif
#   From: 2010.05.17/outbox.cif.g08.bks.cpg/sg5_33_cif.got.tgz:65370.got - 2010.06.03 18:56:24.
