data_PCOD9127124
_publ_section_title
;
Structure prediction by ZEFSAII (Michael W. Deem and Ramdas Pophale) SiO2 
 PCOD9127124
Probable space group: C 2
;
_chemical_formula_sum "Si O2"
_cell_formula_units_Z 24
_cell_length_a 10.422235
_cell_length_b 9.669468
_cell_length_c 9.585314
_cell_angle_alpha 90.000000
_cell_angle_beta 118.961773
_cell_angle_gamma 90.000000
_cell_volume 845.180625
_symmetry_space_group_name_H-M "C 2"
_symmetry_group_IT_number 5
_symmetry_cell_setting 'monoclinic'
loop_
_space_group_symop_operation_xyz
x,y,z
-x,y,-z
1/2+x,1/2+y,z
1/2-x,1/2+y,-z
loop_
_atom_site_type_symbol
_atom_site_label
_atom_site_fract_x
_atom_site_fract_y
_atom_site_fract_z
Si Si1 0.759705 0.366100 0.236106
Si Si2 0.503688 0.549226 0.223076
Si Si3 0.500000 0.034504 0.000000
Si Si4 0.260851 0.628159 0.461128
Si Si5 0.763023 0.703369 0.043700
Si Si6 0.730357 0.388474 0.716253
Si Si7 0.000000 0.558473 0.500000
O O1 0.613828 0.446294 0.204424
O O2 0.765601 0.221473 0.325657
O O3 0.754543 0.334754 0.069147
O O4 0.903773 0.626792 0.054523
O O5 0.728919 0.461821 0.564679
O O6 0.386903 0.622803 0.063036
O O7 0.897530 0.457990 0.353522
O O8 0.385436 0.943400 0.855487
O O9 0.397284 0.656606 0.634781
O O10 0.108622 0.647964 0.461046
O O11 0.594778 0.465463 0.719101
O O12 0.720536 0.240535 0.786218
#
# Coordination Sequence:
#
# PCOD9127124 Si02
#       7
#     4   4   2   4   4   4   2
#     4  11  22  44  75  99 151 194 245 317 374 444
#     4  10  23  45  75 111 145 200 257 305 385 447
#     4  10  22  44  62 100 152 194 238 298 378 442
#     4  11  23  49  74 110 150 197 255 318 376 447
#     4  11  23  43  71 104 149 198 240 310 376 460
#     4  11  24  41  74 105 148 196 246 306 381 445
#     4  10  26  44  70 110 144 192 256 310 376 450
#
# _framework density 28.396301000000001
#
# number of rings (size 3 to 8) (size 9 to 14) (size 15 to 20)
#    0.000    1.333    3.333    2.500    2.333    0.000 
#    6.000   10.000    0.000    0.000    0.000    0.000 
#    0.000    0.000    0.000    0.000    0.000    0.000 
#
# Total GULP energy -67428.611696 kJ/mol
# GULP energy per Si atom -5619.050975 kJ/mol
# Density = 2.833167 g / cm^3
# Si number density = 28.396301 Si / 1000 Ang^3
#
#
#
# Elastic Constant Matrix: (Units=GPa)
#
#
# Indices 1 2 3 4 5 6 
#
# 1 171.4537 36.3989 61.9843 0.0000 27.6168 0.0000
# 2 36.3989 103.2464 45.8056 0.0000 2.3010 0.0000
# 3 61.9843 45.8056 127.3438 0.0000 -13.2098 0.0000
# 4 0.0000 0.0000 0.0000 54.1893 0.0000 -16.5477
# 5 27.6168 2.3010 -13.2098 0.0000 45.6448 0.0000
# 6 0.0000 0.0000 0.0000 -16.5477 0.0000 43.4726
#
#
#
# Elastic Compliance Matrix: (Units=1/GPa)
#
#
# Indices 1 2 3 4 5 6 
#
# 1 0.008755 -0.000887 -0.004626 0.000000 -0.006591 0.000000
# 2 -0.000887 0.011766 -0.003924 0.000000 -0.001192 0.000000
# 3 -0.004626 -0.003924 0.012193 0.000000 0.006525 0.000000
# 4 0.000000 0.000000 0.000000 0.020881 0.000000 0.007948
# 5 -0.006591 -0.001192 0.006525 0.000000 0.027845 0.000000
# 6 0.000000 0.000000 0.000000 0.007948 0.000000 0.026028
#
#
# Mechanical properties :
#
#
# Convention : Reuss Voigt Hill
#
# Bulk Modulus (GPa) = 72.25898 76.71351 74.48625
# Shear Modulus (GPa) = 38.18104 45.85168 42.01636
#
# Velocity S-wave (km/s) = 3.67083 4.02270 3.85078
# Velocity P-wave (km/s) = 6.59306 6.97496 6.78670
#
# Compressibility (1/GPa) = 0.01383911
#
# Stress axis : x y z
#
# Youngs Moduli (GPa) = 114.22173 84.99219 82.01573
#
# Poissons Ratio (x) = 0.07541 0.37940
# Poissons Ratio (y) = 0.10134 0.32182
# Poissons Ratio (z) = 0.52839 0.33350
#
# Static dielectric constant tensor:
#      x y z
#    x 2.084250 0.000000 -0.021810 
#    y 0.000000 2.315860 0.000000 
#    z -0.021810 0.000000 2.181450 
# 
# From -- ./inp_files/19445.got.cif
#   From: 2010.05.17/outbox.cif.g08.bks.cpg/sg5_10_cif.got.tgz:19445.got - 2010.06.03 18:56:24.
