data_PCOD9127426
_publ_section_title
;
Structure prediction by ZEFSAII (Michael W. Deem and Ramdas Pophale) SiO2 
 PCOD9127426
Probable space group: C 2
;
_chemical_formula_sum "Si O2"
_cell_formula_units_Z 32
_cell_length_a 11.320501
_cell_length_b 14.349885
_cell_length_c 17.923368
_cell_angle_alpha 90.000000
_cell_angle_beta 147.794840
_cell_angle_gamma 90.000000
_cell_volume 1551.751516
_symmetry_space_group_name_H-M "C 2"
_symmetry_group_IT_number 5
_symmetry_cell_setting 'monoclinic'
loop_
_space_group_symop_operation_xyz
x,y,z
-x,y,-z
1/2+x,1/2+y,z
1/2-x,1/2+y,-z
loop_
_atom_site_type_symbol
_atom_site_label
_atom_site_fract_x
_atom_site_fract_y
_atom_site_fract_z
Si Si1 0.051352 0.368480 0.875672
Si Si2 0.463848 0.657923 0.613895
Si Si3 0.621782 0.684223 0.138719
Si Si4 0.580962 0.279701 0.347770
Si Si5 0.436469 0.445235 0.380270
Si Si6 0.469429 0.403498 0.813738
Si Si7 0.762815 0.811285 0.835904
Si Si8 0.739109 0.579611 0.350334
O O1 0.098083 0.342982 0.813995
O O2 0.012572 0.273929 0.902263
O O3 0.828068 0.427307 0.767685
O O4 0.277098 0.415608 0.025573
O O5 0.303054 0.720454 0.477280
O O6 0.507875 0.553138 0.608620
O O7 0.675538 0.720123 0.747137
O O8 0.336764 0.646538 0.624559
O O9 0.658383 0.617071 0.227668
O O10 0.867814 0.717218 0.250610
O O11 0.500000 0.646573 0.000000
O O12 0.558167 0.367855 0.392957
O O13 0.554326 0.312081 0.248868
O O14 0.500000 0.426531 0.500000
O O15 0.312054 0.391542 0.801422
O O16 0.387049 0.482594 0.714299
O O17 0.000000 0.791166 0.000000
O O18 0.000000 0.566572 0.500000
#
# Coordination Sequence:
#
# PCOD9127426 Si02
#       8
#     4   4   4   4   4   4   4   4
#     4  10  22  46  71  96 133 179 229 278 348 413
#     4  12  25  44  66 103 138 180 230 283 342 408
#     4  11  22  42  73 102 131 178 234 284 335 411
#     4  11  24  43  71  98 139 179 229 283 342 411
#     4  11  26  43  69 103 134 180 231 285 343 411
#     4  11  25  45  68 100 136 181 226 283 349 408
#     4  10  24  43  69  97 137 182 222 283 356 406
#     4  12  26  44  67 102 138 183 232 277 341 416
#
# _framework density 20.621859000000001
#
# number of rings (size 3 to 8) (size 9 to 14) (size 15 to 20)
#    0.000    1.000    5.000    0.750    5.250    3.500 
#    2.250    0.000    0.000    0.000    0.000    0.000 
#    0.000    0.000    0.000    0.000    0.000    0.000 
#
# Total GULP energy -89372.786601 kJ/mol
# GULP energy per Si atom -5585.799163 kJ/mol
# Density = 2.057492 g / cm^3
# Si number density = 20.621859 Si / 1000 Ang^3
#
#
#
# Elastic Constant Matrix: (Units=GPa)
#
#
# Indices 1 2 3 4 5 6 
#
# 1 61.1026 4.5978 25.0726 0.0002 -3.8367 0.0000
# 2 4.5978 53.0335 36.8493 0.0000 17.0068 -0.0005
# 3 25.0726 36.8493 98.2464 0.0004 -7.1749 -0.0006
# 4 0.0002 0.0000 0.0004 48.2983 -0.0002 12.5152
# 5 -3.8367 17.0068 -7.1749 -0.0002 28.0192 -0.0005
# 6 0.0000 -0.0005 -0.0006 12.5152 -0.0005 41.0630
#
#
#
# Elastic Compliance Matrix: (Units=1/GPa)
#
#
# Indices 1 2 3 4 5 6 
#
# 1 0.018482 0.002481 -0.005679 0.000000 -0.000429 0.000000
# 2 0.002481 0.040173 -0.017789 0.000000 -0.028599 0.000000
# 3 -0.005679 -0.017789 0.019394 0.000000 0.014986 0.000000
# 4 0.000000 0.000000 0.000000 0.022480 0.000000 -0.006851
# 5 -0.000429 -0.028599 0.014986 0.000000 0.056828 0.000001
# 6 0.000000 0.000000 0.000000 -0.006851 0.000001 0.026441
#
#
# Mechanical properties :
#
#
# Convention : Reuss Voigt Hill
#
# Bulk Modulus (GPa) = 27.71957 38.38020 33.04989
# Shear Modulus (GPa) = 21.02627 33.20027 27.11327
#
# Velocity S-wave (km/s) = 3.19660 4.01678 3.62993
# Velocity P-wave (km/s) = 5.20532 6.33755 5.79913
#
# Compressibility (1/GPa) = 0.03607560
#
# Stress axis : x y z
#
# Youngs Moduli (GPa) = 54.10545 24.89243 51.56130
#
# Poissons Ratio (x) = -0.06176 0.29280
# Poissons Ratio (y) = -0.13423 0.91724
# Poissons Ratio (z) = 0.30724 0.44282
#
# Static dielectric constant tensor:
#      x y z
#    x 0.487640 0.000000 0.549760 
#    y 0.000000 1.719800 0.000000 
#    z 0.549760 0.000000 1.454400 
# 
# From -- ./inp_files/31055.got.cif
#   From: 2010.05.17/outbox.cif.g08.bks.cpg/sg5_16_cif.got.tgz:31055.got - 2010.06.03 18:56:24.
