data_PCOD9127665
_publ_section_title
;
Structure prediction by ZEFSAII (Michael W. Deem and Ramdas Pophale) SiO2 
 PCOD9127665
Probable space group: C 2
;
_chemical_formula_sum "Si O2"
_cell_formula_units_Z 24
_cell_length_a 8.862344
_cell_length_b 15.497450
_cell_length_c 15.456643
_cell_angle_alpha 90.000000
_cell_angle_beta 33.275160
_cell_angle_gamma 90.000000
_cell_volume 1164.736399
_symmetry_space_group_name_H-M "C 2"
_symmetry_group_IT_number 5
_symmetry_cell_setting 'monoclinic'
loop_
_space_group_symop_operation_xyz
x,y,z
-x,y,-z
1/2+x,1/2+y,z
1/2-x,1/2+y,-z
loop_
_atom_site_type_symbol
_atom_site_label
_atom_site_fract_x
_atom_site_fract_y
_atom_site_fract_z
Si Si1 0.086110 0.844430 0.364595
Si Si2 0.382720 0.945983 0.459999
Si Si3 0.075680 0.017745 0.869777
Si Si4 0.302550 0.663152 0.327062
Si Si5 0.998264 0.483045 0.100665
Si Si6 0.047642 0.101332 0.377959
O O1 0.228111 0.753377 0.316681
O O2 0.304391 0.901877 0.210226
O O3 0.000000 0.881145 0.500000
O O4 0.790394 0.856652 0.461069
O O5 0.500000 0.951552 0.500000
O O6 0.642192 0.963722 0.272761
O O7 0.162129 0.021624 0.543419
O O8 0.085583 0.094017 0.794557
O O9 0.000000 0.053777 0.000000
O O10 0.808600 0.961406 0.976438
O O11 0.481972 0.665603 0.329193
O O12 0.000000 0.632684 0.500000
O O13 0.852751 0.561185 0.222286
O O14 0.000000 0.507994 0.000000
O O15 0.000000 0.129918 0.500000
#
# Coordination Sequence:
#
# PCOD9127665 Si02
#       6
#     4   4   4   4   4   4
#     4  10  23  41  64  86 136 178 218 269 333 383
#     4  11  19  40  68  97 124 175 225 270 317 407
#     4  12  21  35  66  97 130 161 223 270 333 388
#     4  11  22  42  63  93 135 176 220 282 321 386
#     4  11  21  37  65 101 127 171 220 272 329 406
#     4  11  20  38  68  99 125 174 235 266 322 398
#
# _framework density 20.605521
#
# number of rings (size 3 to 8) (size 9 to 14) (size 15 to 20)
#    0.000    1.000    5.000    5.000    0.000    0.667 
#    0.000    3.333   18.333    0.000    0.000    0.000 
#    0.000    0.000    0.000    0.000    0.000    0.000 
#
# Total GULP energy -66879.483017 kJ/mol
# GULP energy per Si atom -5573.290251 kJ/mol
# Density = 2.055862 g / cm^3
# Si number density = 20.605521 Si / 1000 Ang^3
#
#
#
# Elastic Constant Matrix: (Units=GPa)
#
#
# Indices 1 2 3 4 5 6 
#
# 1 88.1849 33.1798 27.4149 -0.0015 9.1218 0.0038
# 2 33.1798 74.9952 36.0136 -0.0425 -2.1133 -0.0006
# 3 27.4149 36.0136 138.9482 -0.0488 0.5546 -0.0131
# 4 -0.0015 -0.0425 -0.0488 7.9106 0.0148 -9.8014
# 5 9.1218 -2.1133 0.5546 0.0148 49.8071 0.0048
# 6 0.0038 -0.0006 -0.0131 -9.8014 0.0048 17.4182
#
#
#
# Elastic Compliance Matrix: (Units=1/GPa)
#
#
# Indices 1 2 3 4 5 6 
#
# 1 0.014195 -0.005734 -0.001303 -0.000116 -0.002828 -0.000069
# 2 -0.005734 0.017570 -0.003430 0.000222 0.001834 0.000124
# 3 -0.001303 -0.003430 0.008343 0.000135 0.000000 0.000082
# 4 -0.000116 0.000222 0.000135 0.417503 -0.000118 0.234933
# 5 -0.002828 0.001834 0.000000 -0.000118 0.020673 -0.000071
# 6 -0.000069 0.000124 0.000082 0.234933 -0.000071 0.189610
#
#
# Mechanical properties :
#
#
# Convention : Reuss Voigt Hill
#
# Bulk Modulus (GPa) = 52.15488 55.03831 53.59660
# Shear Modulus (GPa) = 7.19197 28.72852 17.96025
#
# Velocity S-wave (km/s) = 1.87026 3.73797 2.95553
# Velocity P-wave (km/s) = 5.47996 6.73783 6.14118
#
# Compressibility (1/GPa) = 0.01917366
#
# Stress axis : x y z
#
# Youngs Moduli (GPa) = 70.44709 56.91531 119.86002
#
# Poissons Ratio (x) = 0.32636 0.15621
# Poissons Ratio (y) = 0.40396 0.41109
# Poissons Ratio (z) = 0.09181 0.19521
#
# Static dielectric constant tensor:
#      x y z
#    x 1.873740 -0.000010 -0.035780 
#    y -0.000010 1.779330 -0.000020 
#    z -0.035780 -0.000020 1.743440 
# 
# From -- ./inp_files/59805.got.cif
#   From: 2010.05.17/outbox.cif.g08.bks.cpg/sg5_30_cif.got.tgz:59805.got - 2010.06.03 18:56:24.
