data_PCOD9127948
_publ_section_title
;
Structure prediction by ZEFSAII (Michael W. Deem and Ramdas Pophale) SiO2 
 PCOD9127948
Probable space group: C 2
;
_chemical_formula_sum "Si O2"
_cell_formula_units_Z 14
_cell_length_a 18.687396
_cell_length_b 4.959634
_cell_length_c 14.768357
_cell_angle_alpha 90.000000
_cell_angle_beta 19.977933
_cell_angle_gamma 90.000000
_cell_volume 467.651629
_symmetry_space_group_name_H-M "C 2"
_symmetry_group_IT_number 5
_symmetry_cell_setting 'monoclinic'
loop_
_space_group_symop_operation_xyz
x,y,z
-x,y,-z
1/2+x,1/2+y,z
1/2-x,1/2+y,-z
loop_
_atom_site_type_symbol
_atom_site_label
_atom_site_fract_x
_atom_site_fract_y
_atom_site_fract_z
Si Si1 0.205318 0.493440 0.415809
Si Si2 0.513822 0.458488 0.279089
Si Si3 0.500000 0.341667 0.500000
Si Si4 0.673215 0.321286 0.901032
O O1 0.194485 0.770052 0.483315
O O2 0.190568 0.540738 0.320929
O O3 0.046722 0.269079 0.640643
O O4 0.432676 0.365465 0.160595
O O5 0.581727 0.329156 0.293512
O O6 0.659409 0.370535 0.023560
O O7 0.296550 0.561677 0.721110
#
# Coordination Sequence:
#
# PCOD9127948 Si02
#       4
#     4   4   2   4
#     4  10  24  43  69  98 125 173 229 267 318 393
#     4  11  24  44  68  96 132 174 219 271 327 385
#     4  10  26  42  66 104 136 172 218 268 336 398
#     4  10  23  44  68  96 135 172 217 274 327 387
#
# _framework density 29.936814999999999
#
# number of rings (size 3 to 8) (size 9 to 14) (size 15 to 20)
#    0.000    1.714    0.000    1.714    0.000   25.143 
#    0.000    0.000    0.000    0.000    0.000    0.000 
#    0.000    0.000    0.000    0.000    0.000    0.000 
#
# Total GULP energy -39051.277972 kJ/mol
# GULP energy per Si atom -5578.753996 kJ/mol
# Density = 2.986868 g / cm^3
# Si number density = 29.936815 Si / 1000 Ang^3
#
#
#
# Elastic Constant Matrix: (Units=GPa)
#
#
# Indices 1 2 3 4 5 6 
#
# 1 164.9631 1.0548 55.6574 0.0004 33.9465 -0.0003
# 2 1.0548 168.5144 56.8554 -0.0037 57.4983 0.0019
# 3 55.6574 56.8554 165.7872 0.0020 24.4214 -0.0001
# 4 0.0004 -0.0037 0.0020 43.2766 0.0009 26.4350
# 5 33.9465 57.4983 24.4214 0.0009 83.5116 0.0006
# 6 -0.0003 0.0019 -0.0001 26.4350 0.0006 -6.6869
#
#
#
# Elastic Compliance Matrix: (Units=1/GPa)
#
#
# Indices 1 2 3 4 5 6 
#
# 1 0.007792 0.002221 -0.002807 0.000000 -0.003876 0.000000
# 2 0.002221 0.009049 -0.002924 0.000000 -0.006278 0.000002
# 3 -0.002807 -0.002924 0.007850 0.000000 0.000858 -0.000001
# 4 0.000000 0.000000 0.000000 0.006767 0.000000 0.026751
# 5 -0.003876 -0.006278 0.000858 0.000000 0.017621 -0.000001
# 6 0.000000 0.000002 -0.000001 0.026751 -0.000001 -0.043794
#
#
# Mechanical properties :
#
#
# Convention : Reuss Voigt Hill
#
# Bulk Modulus (GPa) = 56.58876 80.71110 68.64993
# Shear Modulus (GPa) = 274.78633 49.73339 162.25986
#
# Velocity S-wave (km/s) = 9.59104 4.08030 7.37010
# Velocity P-wave (km/s) = 11.89935 7.01552 9.76760
#
# Compressibility (1/GPa) = 0.01767135
#
# Stress axis : x y z
#
# Youngs Moduli (GPa) = 128.33341 110.51148 127.38281
#
# Poissons Ratio (x) = -0.24539 0.35751
# Poissons Ratio (y) = -0.28497 0.37246
# Poissons Ratio (z) = 0.36018 0.32313
#
# Static dielectric constant tensor:
#      x y z
#    x 3.215830 0.000020 -0.098900 
#    y 0.000020 2.827650 0.000010 
#    z -0.098900 0.000010 2.241090 
# 
# From -- ./inp_files/17731.got.cif
#   From: 2010.05.17/outbox.cif.g08.bks.cpg/sg5_9_cif.got.tgz:17731.got - 2010.06.03 18:56:24.
