data_PCOD9127158
_publ_section_title
;
Structure prediction by ZEFSAII (Michael W. Deem and Ramdas Pophale) SiO2 
 PCOD9127158
Probable space group: C 2
;
_chemical_formula_sum "Si O2"
_cell_formula_units_Z 18
_cell_length_a 12.718451
_cell_length_b 9.393166
_cell_length_c 7.132906
_cell_angle_alpha 90.000000
_cell_angle_beta 118.611359
_cell_angle_gamma 90.000000
_cell_volume 748.086573
_symmetry_space_group_name_H-M "C 2"
_symmetry_group_IT_number 5
_symmetry_cell_setting 'monoclinic'
loop_
_space_group_symop_operation_xyz
x,y,z
-x,y,-z
1/2+x,1/2+y,z
1/2-x,1/2+y,-z
loop_
_atom_site_type_symbol
_atom_site_label
_atom_site_fract_x
_atom_site_fract_y
_atom_site_fract_z
Si Si1 0.000000 0.406900 0.500000
Si Si2 0.265783 0.063613 0.153606
Si Si3 0.113588 0.805570 0.872893
Si Si4 0.865826 0.873466 0.550381
Si Si5 0.633921 0.702570 0.368422
O O1 0.116518 0.505998 0.633943
O O2 0.023749 0.299848 0.343805
O O3 0.323775 0.155595 0.036343
O O4 0.168867 0.159975 0.184972
O O5 0.189874 0.931183 0.022021
O O6 0.122064 0.822545 0.652833
O O7 0.972336 0.820583 0.775041
O O8 0.868599 0.044722 0.546232
O O9 0.746464 0.799700 0.522741
#
# Coordination Sequence:
#
# PCOD9127158 Si02
#       5
#     2   4   4   4   4
#     4  12  24  46  76 100 146 190 234 296 348 422
#     4  11  25  46  72 106 141 187 240 288 357 420
#     4  10  24  43  70 101 142 183 236 292 348 422
#     4  10  22  44  67 100 145 184 234 286 355 420
#     4  11  23  43  74  99 140 188 235 285 358 409
#
# _framework density 24.061387
#
# number of rings (size 3 to 8) (size 9 to 14) (size 15 to 20)
#    0.000    1.333    2.222    4.000    6.222    0.889 
#    4.000    0.000    0.000    0.000    0.000    0.000 
#    0.000    0.000    0.000    0.000    0.000    0.000 
#
# Total GULP energy -50239.417767 kJ/mol
# GULP energy per Si atom -5582.157530 kJ/mol
# Density = 2.400662 g / cm^3
# Si number density = 24.061387 Si / 1000 Ang^3
#
#
#
# Elastic Constant Matrix: (Units=GPa)
#
#
# Indices 1 2 3 4 5 6 
#
# 1 69.3881 18.7933 7.0473 0.0000 7.3242 0.0000
# 2 18.7933 106.2678 -12.7246 0.0000 -7.5472 0.0000
# 3 7.0473 -12.7246 54.5645 0.0000 -1.3339 0.0000
# 4 0.0000 0.0000 0.0000 38.7816 0.0000 -6.5427
# 5 7.3242 -7.5472 -1.3339 0.0000 12.1506 0.0000
# 6 0.0000 0.0000 0.0000 -6.5427 0.0000 36.4791
#
#
#
# Elastic Compliance Matrix: (Units=1/GPa)
#
#
# Indices 1 2 3 4 5 6 
#
# 1 0.017445 -0.004494 -0.003636 0.000000 -0.013706 0.000000
# 2 -0.004494 0.011340 0.003473 0.000000 0.010134 0.000000
# 3 -0.003636 0.003473 0.019766 0.000000 0.006519 0.000000
# 4 0.000000 0.000000 0.000000 0.026590 0.000000 0.004769
# 5 -0.013706 0.010134 0.006519 0.000000 0.097572 0.000000
# 6 0.000000 0.000000 0.000000 0.004769 0.000000 0.028268
#
#
# Mechanical properties :
#
#
# Convention : Reuss Voigt Hill
#
# Bulk Modulus (GPa) = 25.48640 28.49471 26.99056
# Shear Modulus (GPa) = 22.38387 31.95589 27.16988
#
# Velocity S-wave (km/s) = 3.05336 3.64826 3.36399
# Velocity P-wave (km/s) = 4.80062 5.44193 5.13130
#
# Compressibility (1/GPa) = 0.03923661
#
# Stress axis : x y z
#
# Youngs Moduli (GPa) = 57.32360 88.17981 50.59251
#
# Poissons Ratio (x) = 0.39627 0.18396
# Poissons Ratio (y) = 0.25760 -0.17570
# Poissons Ratio (z) = 0.20844 -0.30623
#
# Static dielectric constant tensor:
#      x y z
#    x 2.043240 0.000000 -0.044030 
#    y 0.000000 1.921830 0.000000 
#    z -0.044030 0.000000 1.923300 
# 
# From -- ./inp_files/18402.got.cif
#   From: 2010.05.17/outbox.cif.g08.bks.cpg/sg5_10_cif.got.tgz:18402.got - 2010.06.03 18:56:24.
