data_PCOD9127638
_publ_section_title
;
Structure prediction by ZEFSAII (Michael W. Deem and Ramdas Pophale) SiO2 
 PCOD9127638
Probable space group: C 2
;
_chemical_formula_sum "Si O2"
_cell_formula_units_Z 32
_cell_length_a 11.725494
_cell_length_b 14.403348
_cell_length_c 17.310409
_cell_angle_alpha 90.000000
_cell_angle_beta 32.177242
_cell_angle_gamma 90.000000
_cell_volume 1556.876873
_symmetry_space_group_name_H-M "C 2"
_symmetry_group_IT_number 5
_symmetry_cell_setting 'monoclinic'
loop_
_space_group_symop_operation_xyz
x,y,z
-x,y,-z
1/2+x,1/2+y,z
1/2-x,1/2+y,-z
loop_
_atom_site_type_symbol
_atom_site_label
_atom_site_fract_x
_atom_site_fract_y
_atom_site_fract_z
Si Si1 0.843343 0.726690 0.163004
Si Si2 0.889942 0.886853 0.723952
Si Si3 0.171709 0.748535 0.113960
Si Si4 0.863866 0.760044 0.512275
Si Si5 0.251025 0.924927 0.849533
Si Si6 0.022499 0.320076 0.816239
Si Si7 0.485438 0.578809 0.416899
Si Si8 0.487790 0.107055 0.669551
O O1 0.756131 0.828522 0.192616
O O2 0.651153 0.657704 0.294770
O O3 0.987844 0.736184 0.156347
O O4 0.000000 0.700003 0.000000
O O5 0.829925 0.848688 0.842412
O O6 0.691777 0.863948 0.779595
O O7 0.098356 0.823781 0.583254
O O8 0.956961 0.990944 0.669172
O O9 0.143536 0.670296 0.194802
O O10 0.389562 0.746496 0.941663
O O11 0.633715 0.764289 0.681817
O O12 0.000000 0.811710 0.500000
O O13 0.992480 0.665991 0.420417
O O14 0.368682 0.896403 0.863053
O O15 0.385247 0.005896 0.731582
O O16 0.000000 0.952640 0.000000
O O17 0.500000 0.557003 0.500000
O O18 0.237901 0.604876 0.548298
#
# Coordination Sequence:
#
# PCOD9127638 Si02
#       8
#     4   4   4   4   4   4   4   4
#     4  11  24  46  68  97 138 184 224 276 342 405
#     4  10  23  40  68 102 132 170 226 284 338 400
#     4  11  23  44  68 101 133 174 230 276 342 401
#     4   9  20  40  64  93 128 171 219 276 337 393
#     4  11  23  42  64  94 138 180 220 274 344 400
#     4  11  20  41  71  92 131 177 224 281 340 391
#     4  12  23  43  69 101 137 174 225 282 334 405
#     4  11  24  41  66  99 131 179 226 270 339 404
#
# _framework density 20.55397
#
# number of rings (size 3 to 8) (size 9 to 14) (size 15 to 20)
#    0.000    1.250    3.750    3.750    0.000    5.000 
#    2.250    0.000    0.000    0.000    0.000    0.000 
#    0.000    0.000    0.000    0.000    0.000    0.000 
#
# Total GULP energy -89182.994861 kJ/mol
# GULP energy per Si atom -5573.937179 kJ/mol
# Density = 2.050719 g / cm^3
# Si number density = 20.553970 Si / 1000 Ang^3
#
#
#
# Elastic Constant Matrix: (Units=GPa)
#
#
# Indices 1 2 3 4 5 6 
#
# 1 59.1613 2.1066 28.3520 -0.0031 6.6300 0.0021
# 2 2.1066 88.0727 56.0666 -0.0015 1.0972 0.0031
# 3 28.3520 56.0666 148.1994 -0.0041 -2.1415 0.0027
# 4 -0.0031 -0.0015 -0.0041 31.2637 0.0034 -2.8029
# 5 6.6300 1.0972 -2.1415 0.0034 23.5272 -0.0010
# 6 0.0021 0.0031 0.0027 -2.8029 -0.0010 15.7675
#
#
#
# Elastic Compliance Matrix: (Units=1/GPa)
#
#
# Indices 1 2 3 4 5 6 
#
# 1 0.019856 0.002736 -0.004923 0.000002 -0.006171 -0.000002
# 2 0.002736 0.015368 -0.006367 0.000000 -0.002067 -0.000002
# 3 -0.004923 -0.006367 0.010136 0.000000 0.002607 0.000000
# 4 0.000002 0.000000 0.000000 0.032504 -0.000005 0.005778
# 5 -0.006171 -0.002067 0.002607 -0.000005 0.044577 0.000003
# 6 -0.000002 -0.000002 0.000000 0.005778 0.000003 0.064449
#
#
# Mechanical properties :
#
#
# Convention : Reuss Voigt Hill
#
# Bulk Modulus (GPa) = 35.39620 52.05375 43.72497
# Shear Modulus (GPa) = 23.42845 28.03887 25.73366
#
# Velocity S-wave (km/s) = 3.37983 3.69746 3.54221
# Velocity P-wave (km/s) = 5.69995 6.60368 6.16839
#
# Compressibility (1/GPa) = 0.02825162
#
# Stress axis : x y z
#
# Youngs Moduli (GPa) = 50.36172 65.07070 98.65854
#
# Poissons Ratio (x) = -0.17802 0.48569
# Poissons Ratio (y) = -0.13778 0.62818
# Poissons Ratio (z) = 0.24793 0.41432
#
# Static dielectric constant tensor:
#      x y z
#    x 1.850580 0.000000 0.014500 
#    y 0.000000 1.741830 0.000000 
#    z 0.014500 0.000000 1.820470 
# 
# From -- ./inp_files/60694.got.cif
#   From: 2010.05.17/outbox.cif.g08.bks.cpg/sg5_31_cif.got.tgz:60694.got - 2010.06.03 18:56:24.
