data_PCOD9127297
_publ_section_title
;
Structure prediction by ZEFSAII (Michael W. Deem and Ramdas Pophale) SiO2 
 PCOD9127297
Probable space group: C 2
;
_chemical_formula_sum "Si O2"
_cell_formula_units_Z 28
_cell_length_a 14.081663
_cell_length_b 5.115881
_cell_length_c 18.844601
_cell_angle_alpha 90.000000
_cell_angle_beta 119.748578
_cell_angle_gamma 90.000000
_cell_volume 1178.654926
_symmetry_space_group_name_H-M "C 2"
_symmetry_group_IT_number 5
_symmetry_cell_setting 'monoclinic'
loop_
_space_group_symop_operation_xyz
x,y,z
-x,y,-z
1/2+x,1/2+y,z
1/2-x,1/2+y,-z
loop_
_atom_site_type_symbol
_atom_site_label
_atom_site_fract_x
_atom_site_fract_y
_atom_site_fract_z
Si Si1 0.978995 0.595780 0.144792
Si Si2 0.262686 0.547689 0.955204
Si Si3 0.500000 0.951578 0.500000
Si Si4 0.915451 0.100108 0.756375
Si Si5 0.000000 0.869163 0.000000
Si Si6 0.804315 0.882172 0.494758
Si Si7 0.505909 0.571429 0.368612
Si Si8 0.183084 0.800947 0.644855
O O1 0.853227 0.609263 0.126116
O O2 0.024426 0.303930 0.169632
O O3 0.990921 0.694537 0.067944
O O4 0.050744 0.804267 0.215060
O O5 0.380825 0.520605 0.959513
O O6 0.266168 0.776813 0.015215
O O7 0.522947 0.764524 0.441317
O O8 0.599908 0.122757 0.567586
O O9 0.786389 0.149629 0.711843
O O10 0.957625 0.171067 0.693388
O O11 0.739371 0.615933 0.473588
O O12 0.919683 0.831832 0.576122
O O13 0.787933 0.994226 0.409252
O O14 0.383174 0.463669 0.322241
#
# Coordination Sequence:
#
# PCOD9127297 Si02
#       8
#     4   4   2   4   2   4   4   4
#     4  11  27  50  73 117 149 198 241 304 373 462
#     4  10  22  44  81 119 148 184 249 301 353 445
#     4  12  24  48  70 102 140 198 280 304 362 450
#     4  12  31  45  71 107 163 191 241 311 396 428
#     4  10  24  50  92 110 148 198 254 294 362 460
#     4  12  24  42  70  99 131 190 259 318 361 430
#     4  12  27  42  70 101 143 196 251 326 371 432
#     4  12  27  42  71 105 141 202 262 310 373 447
#
# _framework density 23.755894999999999
#
# number of rings (size 3 to 8) (size 9 to 14) (size 15 to 20)
#    0.000    0.571    4.286    2.571    6.000    7.429 
#    0.000    0.000    0.000    0.000    0.000    0.000 
#    0.000    0.000    0.000    0.000    0.000    0.000 
#
# Total GULP energy -78172.336429 kJ/mol
# GULP energy per Si atom -5583.738316 kJ/mol
# Density = 2.370183 g / cm^3
# Si number density = 23.755895 Si / 1000 Ang^3
#
#
#
# Elastic Constant Matrix: (Units=GPa)
#
#
# Indices 1 2 3 4 5 6 
#
# 1 137.8958 25.0449 16.5521 0.0000 23.1545 0.0000
# 2 25.0449 57.5008 0.8766 0.0000 1.4579 -0.0001
# 3 16.5521 0.8766 49.6361 0.0000 12.4703 0.0000
# 4 0.0000 0.0000 0.0000 21.4926 0.0000 -4.2758
# 5 23.1545 1.4579 12.4703 0.0000 47.1208 0.0000
# 6 0.0000 -0.0001 0.0000 -4.2758 0.0000 30.4843
#
#
#
# Elastic Compliance Matrix: (Units=1/GPa)
#
#
# Indices 1 2 3 4 5 6 
#
# 1 0.008775 -0.003699 -0.001935 0.000000 -0.003685 0.000000
# 2 -0.003699 0.018966 0.000631 0.000000 0.001064 0.000000
# 3 -0.001935 0.000631 0.022010 0.000000 -0.004894 0.000000
# 4 0.000000 0.000000 0.000000 0.047863 0.000000 0.006713
# 5 -0.003685 0.001064 -0.004894 0.000000 0.024295 0.000000
# 6 0.000000 0.000000 0.000000 0.006713 0.000000 0.033745
#
#
# Mechanical properties :
#
#
# Convention : Reuss Voigt Hill
#
# Bulk Modulus (GPa) = 25.16020 36.66442 30.91231
# Shear Modulus (GPa) = 27.94738 33.32349 30.63543
#
# Velocity S-wave (km/s) = 3.43365 3.74939 3.59499
# Velocity P-wave (km/s) = 5.13167 5.84904 5.50206
#
# Compressibility (1/GPa) = 0.03974532
#
# Stress axis : x y z
#
# Youngs Moduli (GPa) = 113.96375 52.72713 45.43354
#
# Poissons Ratio (x) = 0.19504 0.08791
# Poissons Ratio (y) = 0.42155 -0.02868
# Poissons Ratio (z) = 0.22051 -0.03329
#
# Static dielectric constant tensor:
#      x y z
#    x 2.515840 0.000000 -0.023160 
#    y 0.000000 1.952970 0.000000 
#    z -0.023160 0.000000 1.885300 
# 
# From -- ./inp_files/61272.got.cif
#   From: 2010.05.17/outbox.cif.g08.bks.cpg/sg5_31_cif.got.tgz:61272.got - 2010.06.03 18:56:24.
