data_PCOD9127879
_publ_section_title
;
Structure prediction by ZEFSAII (Michael W. Deem and Ramdas Pophale) SiO2 
 PCOD9127879
Probable space group: C 2
;
_chemical_formula_sum "Si O2"
_cell_formula_units_Z 18
_cell_length_a 28.229186
_cell_length_b 4.799337
_cell_length_c 11.006916
_cell_angle_alpha 90.000000
_cell_angle_beta 29.061151
_cell_angle_gamma 90.000000
_cell_volume 724.355293
_symmetry_space_group_name_H-M "C 2"
_symmetry_group_IT_number 5
_symmetry_cell_setting 'monoclinic'
loop_
_space_group_symop_operation_xyz
x,y,z
-x,y,-z
1/2+x,1/2+y,z
1/2-x,1/2+y,-z
loop_
_atom_site_type_symbol
_atom_site_label
_atom_site_fract_x
_atom_site_fract_y
_atom_site_fract_z
Si Si1 0.438525 0.200180 0.886029
Si Si2 0.500000 0.265901 0.000000
Si Si3 0.873298 0.814475 0.672923
Si Si4 0.685774 0.535995 0.664741
Si Si5 0.841574 0.315091 0.910822
O O1 0.527295 0.355786 0.620897
O O2 0.397784 0.954489 0.895227
O O3 0.484470 0.097325 0.911229
O O4 0.353521 0.412961 0.119436
O O5 0.403963 0.459389 0.221858
O O6 0.871539 0.500269 0.726294
O O7 0.864011 0.006065 0.813727
O O8 0.774991 0.854636 0.815838
O O9 0.721200 0.850264 0.582063
#
# Coordination Sequence:
#
# PCOD9127879 Si02
#       5
#     4   2   4   4   4
#     4  10  23  43  74 101 141 182 228 287 342 419
#     4   8  24  46  68 110 132 186 230 282 350 414
#     4  10  23  44  66 102 133 181 232 278 341 403
#     4  10  24  45  67 101 139 180 231 277 345 408
#     4  10  23  43  69  98 138 179 227 284 339 402
#
# _framework density 24.849682000000001
#
# number of rings (size 3 to 8) (size 9 to 14) (size 15 to 20)
#    1.333    0.889    0.000    0.667    3.111    8.000 
#    8.000    0.000    0.000    0.000    0.000    0.000 
#    0.000    0.000    0.000    0.000    0.000    0.000 
#
# Total GULP energy -50349.410093 kJ/mol
# GULP energy per Si atom -5594.378899 kJ/mol
# Density = 2.479312 g / cm^3
# Si number density = 24.849682 Si / 1000 Ang^3
#
#
#
# Elastic Constant Matrix: (Units=GPa)
#
#
# Indices 1 2 3 4 5 6 
#
# 1 159.4684 7.8723 40.1933 0.0000 -26.2069 -0.0001
# 2 7.8723 72.2342 19.8991 -0.0004 -5.9654 0.0010
# 3 40.1933 19.8991 159.6853 0.0000 -11.0554 0.0002
# 4 0.0000 -0.0004 0.0000 33.0571 0.0000 -4.8796
# 5 -26.2069 -5.9654 -11.0554 0.0000 31.7742 -0.0001
# 6 -0.0001 0.0010 0.0002 -4.8796 -0.0001 7.8058
#
#
#
# Elastic Compliance Matrix: (Units=1/GPa)
#
#
# Indices 1 2 3 4 5 6 
#
# 1 0.007596 0.000066 -0.001522 0.000000 0.005748 0.000000
# 2 0.000066 0.014477 -0.001669 0.000000 0.002192 -0.000002
# 3 -0.001522 -0.001669 0.006911 0.000000 0.000836 0.000000
# 4 0.000000 0.000000 0.000000 0.033326 0.000000 0.020833
# 5 0.005748 0.002192 0.000836 0.000000 0.036915 0.000000
# 6 0.000000 -0.000002 0.000000 0.020833 0.000000 0.141132
#
#
# Mechanical properties :
#
#
# Convention : Reuss Voigt Hill
#
# Bulk Modulus (GPa) = 43.98594 58.59078 51.28836
# Shear Modulus (GPa) = 19.67065 36.08898 27.87982
#
# Velocity S-wave (km/s) = 2.81657 3.81503 3.35317
# Velocity P-wave (km/s) = 5.32134 6.56012 5.97293
#
# Compressibility (1/GPa) = 0.02273454
#
# Stress axis : x y z
#
# Youngs Moduli (GPa) = 131.65150 69.07297 144.69030
#
# Poissons Ratio (x) = -0.00457 0.22025
# Poissons Ratio (y) = -0.00872 0.24149
# Poissons Ratio (z) = 0.20040 0.11528
#
# Static dielectric constant tensor:
#      x y z
#    x 2.003200 0.000000 0.029620 
#    y 0.000000 1.907320 0.000000 
#    z 0.029620 0.000000 1.960590 
# 
# From -- ./inp_files/48120.got.cif
#   From: 2010.05.17/outbox.cif.g08.bks.cpg/sg5_25_cif.got.tgz:48120.got - 2010.06.03 18:56:24.
