data_PCOD9127796
_publ_section_title
;
Structure prediction by ZEFSAII (Michael W. Deem and Ramdas Pophale) SiO2 
 PCOD9127796
Probable space group: C 2
;
_chemical_formula_sum "Si O2"
_cell_formula_units_Z 32
_cell_length_a 9.025732
_cell_length_b 22.605649
_cell_length_c 15.676228
_cell_angle_alpha 90.000000
_cell_angle_beta 29.949059
_cell_angle_gamma 90.000000
_cell_volume 1596.766867
_symmetry_space_group_name_H-M "C 2"
_symmetry_group_IT_number 5
_symmetry_cell_setting 'monoclinic'
loop_
_space_group_symop_operation_xyz
x,y,z
-x,y,-z
1/2+x,1/2+y,z
1/2-x,1/2+y,-z
loop_
_atom_site_type_symbol
_atom_site_label
_atom_site_fract_x
_atom_site_fract_y
_atom_site_fract_z
Si Si1 0.729531 0.453840 0.573461
Si Si2 0.633453 0.262646 0.029899
Si Si3 0.149836 0.173593 0.331858
Si Si4 0.757223 0.961553 0.050235
Si Si5 0.312315 0.045312 0.181363
Si Si6 0.655057 0.752931 0.654558
Si Si7 0.163734 0.877542 0.131891
Si Si8 0.161243 0.385677 0.639022
O O1 0.470542 0.502378 0.692918
O O2 0.570800 0.390830 0.676628
O O3 0.875467 0.437273 0.410810
O O4 0.000000 0.470164 0.500000
O O5 0.455906 0.210590 0.166262
O O6 0.611652 0.319670 0.101388
O O7 0.500000 0.270962 0.000000
O O8 0.971263 0.248047 0.834745
O O9 0.207835 0.106855 0.273067
O O10 0.000000 0.177040 0.500000
O O11 0.941758 0.204754 0.365423
O O12 0.560778 0.905065 0.176303
O O13 0.533610 0.013221 0.137118
O O14 0.897818 0.936079 0.893975
O O15 0.000000 0.975601 0.000000
O O16 0.500000 0.053301 0.000000
O O17 0.590092 0.818645 0.649606
O O18 0.000000 0.748904 0.500000
O O19 0.500000 0.878489 0.000000
O O20 0.500000 0.387015 0.500000
#
# Coordination Sequence:
#
# PCOD9127796 Si02
#       8
#     4   4   4   4   4   4   4   4
#     4  12  26  38  65 104 138 179 217 283 343 401
#     4  10  23  43  68  99 135 187 224 275 343 406
#     4  11  28  48  71  96 131 184 236 289 335 404
#     4  12  23  41  68 100 135 180 224 272 341 412
#     4  12  25  51  68  94 139 183 235 275 342 413
#     4  10  23  42  69 102 134 183 222 277 343 404
#     4  12  22  41  64 102 143 175 219 275 344 414
#     4  11  22  38  65 101 147 171 218 277 342 407
#
# _framework density 20.040496000000001
#
# number of rings (size 3 to 8) (size 9 to 14) (size 15 to 20)
#    0.000    0.750    5.000    2.250   10.500    0.500 
#    0.000    3.125    0.000    0.000    0.000    0.000 
#    0.000    0.000    0.000    0.000    0.000    0.000 
#
# Total GULP energy -89350.065423 kJ/mol
# GULP energy per Si atom -5584.379089 kJ/mol
# Density = 1.999488 g / cm^3
# Si number density = 20.040496 Si / 1000 Ang^3
#
#
#
# Elastic Constant Matrix: (Units=GPa)
#
#
# Indices 1 2 3 4 5 6 
#
# 1 97.0155 62.5263 29.7966 -0.0018 -15.4233 0.0066
# 2 62.5263 149.0556 52.2639 0.0043 0.8115 0.0015
# 3 29.7966 52.2639 119.0614 -0.0078 -11.3970 -0.0494
# 4 -0.0018 0.0043 -0.0078 32.4507 0.0021 3.0103
# 5 -15.4233 0.8115 -11.3970 0.0021 32.9229 0.0030
# 6 0.0066 0.0015 -0.0494 3.0103 0.0030 19.1546
#
#
#
# Elastic Compliance Matrix: (Units=1/GPa)
#
#
# Indices 1 2 3 4 5 6 
#
# 1 0.015827 -0.006549 -0.000373 0.000002 0.007446 -0.000007
# 2 -0.006549 0.010706 -0.003496 -0.000002 -0.004542 -0.000007
# 3 -0.000373 -0.003496 0.010362 0.000000 0.003498 0.000027
# 4 0.000002 -0.000002 0.000000 0.031272 -0.000001 -0.004915
# 5 0.007446 -0.004542 0.003498 -0.000001 0.035185 0.000002
# 6 -0.000007 -0.000007 0.000027 -0.004915 0.000002 0.052979
#
#
# Mechanical properties :
#
#
# Convention : Reuss Voigt Hill
#
# Bulk Modulus (GPa) = 62.26819 72.70070 67.48444
# Shear Modulus (GPa) = 27.39427 31.60870 29.50148
#
# Velocity S-wave (km/s) = 3.70123 3.97576 3.84095
# Velocity P-wave (km/s) = 7.02881 7.57834 7.30874
#
# Compressibility (1/GPa) = 0.01605957
#
# Stress axis : x y z
#
# Youngs Moduli (GPa) = 63.18415 93.40230 96.50833
#
# Poissons Ratio (x) = 0.61166 0.03604
# Poissons Ratio (y) = 0.41377 0.33736
# Poissons Ratio (z) = 0.02359 0.32650
#
# Static dielectric constant tensor:
#      x y z
#    x 1.718070 0.000000 -0.017570 
#    y 0.000000 1.670880 0.000000 
#    z -0.017570 0.000000 1.726900 
# 
# From -- ./inp_files/51700.got.cif
#   From: 2010.05.17/outbox.cif.g08.bks.cpg/sg5_26_cif.got.tgz:51700.got - 2010.06.03 18:56:24.
