data_PCOD9127462
_publ_section_title
;
Structure prediction by ZEFSAII (Michael W. Deem and Ramdas Pophale) SiO2 
 PCOD9127462
Probable space group: C 2
;
_chemical_formula_sum "Si O2"
_cell_formula_units_Z 20
_cell_length_a 8.964222
_cell_length_b 13.766938
_cell_length_c 7.684052
_cell_angle_alpha 90.000000
_cell_angle_beta 53.161953
_cell_angle_gamma 90.000000
_cell_volume 758.946574
_symmetry_space_group_name_H-M "C 2"
_symmetry_group_IT_number 5
_symmetry_cell_setting 'monoclinic'
loop_
_space_group_symop_operation_xyz
x,y,z
-x,y,-z
1/2+x,1/2+y,z
1/2-x,1/2+y,-z
loop_
_atom_site_type_symbol
_atom_site_label
_atom_site_fract_x
_atom_site_fract_y
_atom_site_fract_z
Si Si1 0.918837 0.302880 0.891439
Si Si2 0.962039 0.959106 0.336415
Si Si3 0.346572 0.674996 0.467095
Si Si4 0.057639 0.670385 0.156586
Si Si5 0.216560 0.473323 0.172500
O O1 0.931354 0.388396 0.744922
O O2 0.064217 0.215146 0.769267
O O3 0.715714 0.253125 0.033515
O O4 0.000000 0.356183 0.000000
O O5 0.861743 0.059747 0.463910
O O6 0.000000 0.909366 0.500000
O O7 0.832217 0.937986 0.259456
O O8 0.155839 0.972466 0.094039
O O9 0.500000 0.708875 0.500000
O O10 0.137782 0.709737 0.635021
O O11 0.129672 0.580925 0.224179
O O12 0.000000 0.638188 0.000000
#
# Coordination Sequence:
#
# PCOD9127462 Si02
#       5
#     4   4   4   4   4
#     4  12  27  48  71 113 156 194 253 315 370 449
#     4  10  22  46  77 108 148 199 255 304 375 454
#     4  11  23  46  76 109 145 199 252 305 371 448
#     4  12  24  48  78 108 156 202 247 309 385 445
#     4  11  25  47  77 108 156 199 247 319 377 437
#
# _framework density 26.352315999999998
#
# number of rings (size 3 to 8) (size 9 to 14) (size 15 to 20)
#    0.000    0.800    4.000    3.000    2.800    3.200 
#   14.400    0.000    0.000    0.000    0.000    0.000 
#    0.000    0.000    0.000    0.000    0.000    0.000 
#
# Total GULP energy -55831.869215 kJ/mol
# GULP energy per Si atom -5583.186921 kJ/mol
# Density = 2.629234 g / cm^3
# Si number density = 26.352316 Si / 1000 Ang^3
#
#
#
# Elastic Constant Matrix: (Units=GPa)
#
#
# Indices 1 2 3 4 5 6 
#
# 1 150.4249 26.9373 58.9454 0.0000 21.6967 0.0000
# 2 26.9373 87.0453 -1.5412 0.0000 -5.4581 0.0000
# 3 58.9454 -1.5412 148.6708 0.0000 -12.7758 0.0000
# 4 0.0000 0.0000 0.0000 5.5477 0.0000 11.1385
# 5 21.6967 -5.4581 -12.7758 0.0000 57.7908 0.0000
# 6 0.0000 0.0000 0.0000 11.1385 0.0000 33.7392
#
#
#
# Elastic Compliance Matrix: (Units=1/GPa)
#
#
# Indices 1 2 3 4 5 6 
#
# 1 0.009626 -0.003360 -0.004270 0.000000 -0.004875 0.000000
# 2 -0.003360 0.012737 0.001709 0.000000 0.002842 0.000000
# 3 -0.004270 0.001709 0.008755 0.000000 0.003700 0.000000
# 4 0.000000 0.000000 0.000000 0.534630 0.000000 -0.176500
# 5 -0.004875 0.002842 0.003700 0.000000 0.020221 0.000000
# 6 0.000000 0.000000 0.000000 -0.176500 0.000000 0.087908
#
#
# Mechanical properties :
#
#
# Convention : Reuss Voigt Hill
#
# Bulk Modulus (GPa) = 51.88428 61.64711 56.76570
# Shear Modulus (GPa) = 7.22392 39.53548 23.37970
#
# Velocity S-wave (km/s) = 1.65748 3.87753 2.98182
# Velocity P-wave (km/s) = 4.83678 6.59479 5.78298
#
# Compressibility (1/GPa) = 0.01927366
#
# Stress axis : x y z
#
# Youngs Moduli (GPa) = 103.88320 78.51375 114.21924
#
# Poissons Ratio (x) = 0.26383 0.48776
# Poissons Ratio (y) = 0.34908 -0.19515
# Poissons Ratio (z) = 0.44362 -0.13415
#
# Static dielectric constant tensor:
#      x y z
#    x 2.573540 0.000000 0.422410 
#    y 0.000000 2.033390 0.000000 
#    z 0.422410 0.000000 2.496490 
# 
# From -- ./inp_files/15997.got.cif
#   From: 2010.05.17/outbox.cif.g08.bks.cpg/sg5_8_cif.got.tgz:15997.got - 2010.06.03 18:56:24.
