data_PCOD9127403
_publ_section_title
;
Structure prediction by ZEFSAII (Michael W. Deem and Ramdas Pophale) SiO2 
 PCOD9127403
Probable space group: C 2
;
_chemical_formula_sum "Si O2"
_cell_formula_units_Z 28
_cell_length_a 11.073086
_cell_length_b 9.415364
_cell_length_c 15.858816
_cell_angle_alpha 90.000000
_cell_angle_beta 52.000545
_cell_angle_gamma 90.000000
_cell_volume 1302.902506
_symmetry_space_group_name_H-M "C 2"
_symmetry_group_IT_number 5
_symmetry_cell_setting 'monoclinic'
loop_
_space_group_symop_operation_xyz
x,y,z
-x,y,-z
1/2+x,1/2+y,z
1/2-x,1/2+y,-z
loop_
_atom_site_type_symbol
_atom_site_label
_atom_site_fract_x
_atom_site_fract_y
_atom_site_fract_z
Si Si1 0.872063 0.711530 0.180007
Si Si2 0.511497 0.501312 0.894051
Si Si3 0.905996 0.224302 0.817237
Si Si4 0.571529 0.897689 0.883713
Si Si5 0.707445 0.769883 0.592893
Si Si6 0.846442 0.608914 0.375528
Si Si7 0.689373 0.185191 0.275138
O O1 0.992975 0.837932 0.131415
O O2 0.742873 0.761141 0.170343
O O3 0.929931 0.565057 0.117481
O O4 0.808648 0.669517 0.299164
O O5 0.394168 0.592065 0.887055
O O6 0.676151 0.569832 0.797654
O O7 0.500000 0.512315 0.000000
O O8 0.968107 0.348347 0.850168
O O9 0.042770 0.204987 0.690863
O O10 0.738213 0.827502 0.797877
O O11 0.500000 0.840820 0.000000
O O12 0.763300 0.702382 0.482261
O O13 0.817128 0.721757 0.622796
O O14 0.693570 0.941627 0.598003
O O15 0.028748 0.632513 0.309552
#
# Coordination Sequence:
#
# PCOD9127403 Si02
#       7
#     4   4   4   4   4   4   4
#     4  12  25  40  66 100 136 168 221 273 321 385
#     4  10  23  43  67  99 131 177 221 263 324 386
#     4  10  23  46  63  95 135 170 218 270 321 393
#     4  10  22  46  68  94 133 176 215 270 326 383
#     4  10  24  45  67  97 127 173 225 265 331 389
#     4  12  25  44  68  98 132 172 218 275 328 390
#     4  10  22  46  70  92 134 171 216 269 325 393
#
# _framework density 21.490479000000001
#
# number of rings (size 3 to 8) (size 9 to 14) (size 15 to 20)
#    0.000    1.714    2.857    3.429    6.000    1.714 
#   10.286    0.000    0.000    0.000    0.000    0.000 
#    0.000    0.000    0.000    0.000    0.000    0.000 
#
# Total GULP energy -78231.668480 kJ/mol
# GULP energy per Si atom -5587.976320 kJ/mol
# Density = 2.144157 g / cm^3
# Si number density = 21.490479 Si / 1000 Ang^3
#
#
#
# Elastic Constant Matrix: (Units=GPa)
#
#
# Indices 1 2 3 4 5 6 
#
# 1 77.7415 3.1347 12.5761 0.0000 13.4841 0.0000
# 2 3.1347 116.9007 29.6492 0.0000 -0.4655 0.0000
# 3 12.5761 29.6492 145.1015 0.0000 32.7107 0.0000
# 4 0.0000 0.0000 0.0000 -8.3320 0.0000 28.4887
# 5 13.4841 -0.4655 32.7107 0.0000 14.7046 0.0000
# 6 0.0000 0.0000 0.0000 28.4887 0.0000 2.2186
#
#
#
# Elastic Compliance Matrix: (Units=1/GPa)
#
#
# Indices 1 2 3 4 5 6 
#
# 1 0.016659 -0.001756 0.004757 0.000000 -0.025913 0.000000
# 2 -0.001756 0.009813 -0.004585 0.000000 0.012122 0.000000
# 3 0.004757 -0.004585 0.016915 0.000000 -0.042135 0.000000
# 4 0.000000 0.000000 0.000000 -0.002673 0.000000 0.034320
# 5 -0.025913 0.012122 -0.042135 0.000000 0.185882 0.000000
# 6 0.000000 0.000000 0.000000 0.034320 0.000000 0.010037
#
#
# Mechanical properties :
#
#
# Convention : Reuss Voigt Hill
#
# Bulk Modulus (GPa) = 24.86527 47.82929 36.34728
# Shear Modulus (GPa) = 19.74651 21.34382 20.54517
#
# Velocity S-wave (km/s) = 3.03454 3.15489 3.09530
# Velocity P-wave (km/s) = 4.88604 5.96452 5.45201
#
# Compressibility (1/GPa) = 0.04021673
#
# Stress axis : x y z
#
# Youngs Moduli (GPa) = 60.02733 101.90954 59.11901
#
# Poissons Ratio (x) = 0.17899 -0.28122
# Poissons Ratio (y) = 0.10543 0.27109
# Poissons Ratio (z) = -0.28554 0.46730
#
# Static dielectric constant tensor:
#      x y z
#    x 1.776240 0.000000 -0.022370 
#    y 0.000000 1.792700 0.000000 
#    z -0.022370 0.000000 1.829130 
# 
# From -- ./inp_files/52186.got.cif
#   From: 2010.05.17/outbox.cif.g08.bks.cpg/sg5_27_cif.got.tgz:52186.got - 2010.06.03 18:56:24.
