data_PCOD9127057
_publ_section_title
;
Structure prediction by ZEFSAII (Michael W. Deem and Ramdas Pophale) SiO2 
 PCOD9127057
Probable space group: C 2
;
_chemical_formula_sum "Si O2"
_cell_formula_units_Z 32
_cell_length_a 11.697662
_cell_length_b 14.693023
_cell_length_c 17.908905
_cell_angle_alpha 90.000000
_cell_angle_beta 30.434651
_cell_angle_gamma 90.000000
_cell_volume 1559.215420
_symmetry_space_group_name_H-M "C 2"
_symmetry_group_IT_number 5
_symmetry_cell_setting 'monoclinic'
loop_
_space_group_symop_operation_xyz
x,y,z
-x,y,-z
1/2+x,1/2+y,z
1/2-x,1/2+y,-z
loop_
_atom_site_type_symbol
_atom_site_label
_atom_site_fract_x
_atom_site_fract_y
_atom_site_fract_z
Si Si1 0.342835 0.895280 0.662222
Si Si2 0.148426 0.151467 0.646002
Si Si3 0.068708 0.989274 0.178523
Si Si4 0.699948 0.220660 0.826429
Si Si5 0.258842 0.009719 0.837177
Si Si6 0.609146 0.115180 0.096993
Si Si7 0.145588 0.682990 0.309402
Si Si8 0.257390 0.291102 0.878884
O O1 0.500000 0.893292 0.500000
O O2 0.244676 0.798529 0.740361
O O3 0.411384 0.941334 0.702190
O O4 0.131337 0.958710 0.762526
O O5 0.389732 0.156159 0.470980
O O6 0.212641 0.185776 0.693833
O O7 0.065237 0.046970 0.684613
O O8 0.939207 0.207740 0.731877
O O9 0.191969 0.895037 0.127114
O O10 0.220686 0.067959 0.056872
O O11 0.612390 0.135499 0.826890
O O12 0.500000 0.239824 0.000000
O O13 0.389110 0.040912 0.838264
O O14 0.236716 0.104508 0.805338
O O15 0.000000 0.976965 0.000000
O O16 0.682958 0.212624 0.093070
O O17 0.121347 0.768219 0.267748
O O18 0.000000 0.282321 0.000000
#
# Coordination Sequence:
#
# PCOD9127057 Si02
#       8
#     4   4   4   4   4   4   4   4
#     4  12  26  43  69 105 138 182 249 301 355 426
#     4  11  23  43  70  96 144 183 234 288 358 427
#     4  12  23  42  66 102 136 178 237 285 353 418
#     4  12  27  43  68 103 149 191 229 299 366 425
#     4  11  20  40  72  98 133 176 239 297 336 420
#     4  11  23  44  68 101 140 180 237 294 352 419
#     4  10  22  43  69 100 129 190 233 288 351 423
#     4  11  25  41  70  97 137 183 235 293 349 423
#
# _framework density 20.523143000000001
#
# number of rings (size 3 to 8) (size 9 to 14) (size 15 to 20)
#    0.000    0.750    5.000    3.375    3.500    0.000 
#    0.000    0.000    0.000    0.000    3.250    0.000 
#    0.000    0.000    0.000    0.000    0.000    0.000 
#
# Total GULP energy -89126.596749 kJ/mol
# GULP energy per Si atom -5570.412297 kJ/mol
# Density = 2.047643 g / cm^3
# Si number density = 20.523143 Si / 1000 Ang^3
#
#
#
# Elastic Constant Matrix: (Units=GPa)
#
#
# Indices 1 2 3 4 5 6 
#
# 1 81.6864 24.4314 51.4661 -0.0072 -10.0216 -0.0107
# 2 24.4314 88.4768 42.2461 -0.0097 0.9060 -0.0064
# 3 51.4661 42.2461 102.8807 -0.0312 8.3584 -0.0465
# 4 -0.0072 -0.0097 -0.0312 6.1438 0.0110 -16.0914
# 5 -10.0216 0.9060 8.3584 0.0110 34.0299 0.0143
# 6 -0.0107 -0.0064 -0.0465 -16.0914 0.0143 -30.6054
#
#
#
# Elastic Compliance Matrix: (Units=1/GPa)
#
#
# Indices 1 2 3 4 5 6 
#
# 1 0.020071 -0.000629 -0.010473 -0.000005 0.008500 0.000016
# 2 -0.000629 0.014117 -0.005547 0.000003 0.000802 0.000004
# 3 -0.010473 -0.005547 0.017831 0.000006 -0.007316 -0.000029
# 4 -0.000005 0.000003 0.000006 0.068473 -0.000010 -0.036001
# 5 0.008500 0.000802 -0.007316 -0.000010 0.033665 0.000029
# 6 0.000016 0.000004 -0.000029 -0.036001 0.000029 -0.013746
#
#
# Mechanical properties :
#
#
# Convention : Reuss Voigt Hill
#
# Bulk Modulus (GPa) = 53.41559 56.59234 55.00396
# Shear Modulus (GPa) = 27.78543 12.24036 20.01290
#
# Velocity S-wave (km/s) = 3.68347 2.44482 3.12611
# Velocity P-wave (km/s) = 6.64636 5.96693 6.31579
#
# Compressibility (1/GPa) = 0.01872113
#
# Stress axis : x y z
#
# Youngs Moduli (GPa) = 49.82244 70.83886 56.08069
#
# Poissons Ratio (x) = 0.04453 0.58734
# Poissons Ratio (y) = 0.03132 0.31110
# Poissons Ratio (z) = 0.52179 0.39297
#
# Static dielectric constant tensor:
#      x y z
#    x 1.867770 0.000010 0.040000 
#    y 0.000010 1.779790 0.000000 
#    z 0.040000 0.000000 1.816340 
# 
# From -- ./inp_files/60698.got.cif
#   From: 2010.05.17/outbox.cif.g08.bks.cpg/sg5_31_cif.got.tgz:60698.got - 2010.06.03 18:56:24.
