data_PCOD9127762
_publ_section_title
;
Structure prediction by ZEFSAII (Michael W. Deem and Ramdas Pophale) SiO2 
 PCOD9127762
Probable space group: C 2
;
_chemical_formula_sum "Si O2"
_cell_formula_units_Z 26
_cell_length_a 8.625485
_cell_length_b 13.018548
_cell_length_c 13.511984
_cell_angle_alpha 90.000000
_cell_angle_beta 50.516455
_cell_angle_gamma 90.000000
_cell_volume 1171.046222
_symmetry_space_group_name_H-M "C 2"
_symmetry_group_IT_number 5
_symmetry_cell_setting 'monoclinic'
loop_
_space_group_symop_operation_xyz
x,y,z
-x,y,-z
1/2+x,1/2+y,z
1/2-x,1/2+y,-z
loop_
_atom_site_type_symbol
_atom_site_label
_atom_site_fract_x
_atom_site_fract_y
_atom_site_fract_z
Si Si1 0.136325 0.817520 0.526118
Si Si2 0.034025 0.180757 0.601095
Si Si3 0.623477 0.222333 0.193938
Si Si4 0.101159 0.955601 0.139698
Si Si5 0.641078 0.118214 0.852983
Si Si6 0.500000 0.592181 0.000000
Si Si7 0.226816 0.502977 0.420592
O O1 0.292928 0.742056 0.412829
O O2 0.280510 0.893124 0.525645
O O3 0.000000 0.869477 0.500000
O O4 0.994945 0.756140 0.659609
O O5 0.000000 0.207073 0.500000
O O6 0.834997 0.185279 0.746629
O O7 0.134453 0.069231 0.563087
O O8 0.631873 0.332295 0.130764
O O9 0.492233 0.135918 0.190177
O O10 0.839386 0.168772 0.116867
O O11 0.260845 0.009889 0.150651
O O12 0.113146 0.017266 0.031899
O O13 0.873550 0.983140 0.267859
O O14 0.500000 0.153497 0.000000
O O15 0.000000 0.541654 0.500000
#
# Coordination Sequence:
#
# PCOD9127762 Si02
#       7
#     4   4   4   4   4   2   4
#     4  11  24  42  66 100 136 174 228 287 345 409
#     4  11  22  39  69  96 127 175 226 279 343 401
#     4  11  26  45  70  98 138 181 231 284 346 407
#     4  10  26  44  66 100 135 176 236 274 344 416
#     4  11  23  45  68  95 139 183 222 284 340 412
#     4  12  26  42  68 102 132 184 232 280 338 416
#     4  10  23  42  65  95 134 171 222 286 341 408
#
# _framework density 22.202368
#
# number of rings (size 3 to 8) (size 9 to 14) (size 15 to 20)
#    0.000    1.231    3.077    1.385   10.769    0.000 
#    0.000    1.538    0.000    0.000    0.000    0.000 
#    0.000    0.000    0.000    0.000    0.000    0.000 
#
# Total GULP energy -72423.299581 kJ/mol
# GULP energy per Si atom -5571.023045 kJ/mol
# Density = 2.215183 g / cm^3
# Si number density = 22.202368 Si / 1000 Ang^3
#
#
#
# Elastic Constant Matrix: (Units=GPa)
#
#
# Indices 1 2 3 4 5 6 
#
# 1 82.5072 31.0348 21.8773 0.0003 -10.8788 -0.0003
# 2 31.0348 71.1042 14.8490 0.0001 -9.1882 -0.0001
# 3 21.8773 14.8490 85.9685 0.0005 -30.7801 -0.0005
# 4 0.0003 0.0001 0.0005 -112.5558 -0.0002 117.5761
# 5 -10.8788 -9.1882 -30.7801 -0.0002 23.1351 0.0002
# 6 -0.0003 -0.0001 -0.0005 117.5761 0.0002 -77.0111
#
#
#
# Elastic Compliance Matrix: (Units=1/GPa)
#
#
# Indices 1 2 3 4 5 6 
#
# 1 0.015172 -0.005925 -0.002150 0.000000 0.001921 0.000000
# 2 -0.005925 0.017172 -0.000027 0.000000 0.003998 0.000000
# 3 -0.002150 -0.000027 0.022569 0.000000 0.029005 0.000000
# 4 0.000000 0.000000 0.000000 0.014936 0.000000 0.022803
# 5 0.001921 0.003998 0.029005 0.000000 0.084306 0.000000
# 6 0.000000 0.000000 0.000000 0.022803 0.000000 0.021830
#
#
# Mechanical properties :
#
#
# Convention : Reuss Voigt Hill
#
# Bulk Modulus (GPa) = 25.83299 41.67800 33.75549
# Shear Modulus (GPa) = 24.37944 -21.83176 1.27384
#
# Velocity S-wave (km/s) = 3.31729 -3.13918 0.75828
# Velocity P-wave (km/s) = 5.13157 2.38189 4.00040
#
# Compressibility (1/GPa) = 0.03871019
#
# Stress axis : x y z
#
# Youngs Moduli (GPa) = 65.91025 58.23371 44.30878
#
# Poissons Ratio (x) = 0.34503 0.09525
# Poissons Ratio (y) = 0.39052 0.00119
# Poissons Ratio (z) = 0.14169 0.00156
#
# Static dielectric constant tensor:
#      x y z
#    x 1.960690 0.000000 -0.188070 
#    y 0.000000 1.835050 0.000000 
#    z -0.188070 0.000000 2.089290 
# 
# From -- ./inp_files/36263.got.cif
#   From: 2010.05.17/outbox.cif.g08.bks.cpg/sg5_19_cif.got.tgz:36263.got - 2010.06.03 18:56:24.
