data_PCOD9127355
_publ_section_title
;
Structure prediction by ZEFSAII (Michael W. Deem and Ramdas Pophale) SiO2 
 PCOD9127355
Probable space group: C 2
;
_chemical_formula_sum "Si O2"
_cell_formula_units_Z 26
_cell_length_a 14.044656
_cell_length_b 8.884524
_cell_length_c 12.586268
_cell_angle_alpha 90.000000
_cell_angle_beta 134.872219
_cell_angle_gamma 90.000000
_cell_volume 1112.996131
_symmetry_space_group_name_H-M "C 2"
_symmetry_group_IT_number 5
_symmetry_cell_setting 'monoclinic'
loop_
_space_group_symop_operation_xyz
x,y,z
-x,y,-z
1/2+x,1/2+y,z
1/2-x,1/2+y,-z
loop_
_atom_site_type_symbol
_atom_site_label
_atom_site_fract_x
_atom_site_fract_y
_atom_site_fract_z
Si Si1 0.500000 0.817730 0.500000
Si Si2 0.740242 0.034935 0.750144
Si Si3 0.595375 0.897073 0.934645
Si Si4 0.674722 0.202520 0.918120
Si Si5 0.804301 0.349964 0.747124
Si Si6 0.816596 0.105948 0.471626
Si Si7 0.599786 0.368747 0.285427
O O1 0.442383 0.710575 0.545554
O O2 0.618775 0.924452 0.631396
O O3 0.720835 0.100303 0.853382
O O4 0.733754 0.190200 0.677570
O O5 0.869791 0.941903 0.807561
O O6 0.696534 0.797123 0.944624
O O7 0.640719 0.855035 0.089653
O O8 0.618096 0.074876 0.949720
O O9 0.441588 0.861161 0.788286
O O10 0.552873 0.321249 0.808177
O O11 0.712088 0.490107 0.647389
O O12 0.689752 0.219194 0.374985
O O13 0.845095 0.995990 0.591682
#
# Coordination Sequence:
#
# PCOD9127355 Si02
#       7
#     2   4   4   4   4   4   4
#     4  10  26  40  66 104 134 178 230 282 352 430
#     4  10  25  43  65 102 137 180 226 287 354 418
#     4  10  24  44  67  99 129 181 237 277 348 415
#     4  11  25  45  70  98 136 181 234 289 347 420
#     4  10  22  45  71  92 140 177 229 291 346 416
#     4  11  24  42  68 102 135 179 227 288 355 425
#     4  11  25  44  68 104 137 184 223 291 364 417
#
# _framework density 23.360368999999999
#
# number of rings (size 3 to 8) (size 9 to 14) (size 15 to 20)
#    0.000    1.538    1.538    0.923   12.923    3.692 
#    0.000    0.000    0.000    0.000    0.000    0.000 
#    0.000    0.000    0.000    0.000    0.000    0.000 
#
# Total GULP energy -72599.709012 kJ/mol
# GULP energy per Si atom -5584.593001 kJ/mol
# Density = 2.330720 g / cm^3
# Si number density = 23.360369 Si / 1000 Ang^3
#
#
#
# Elastic Constant Matrix: (Units=GPa)
#
#
# Indices 1 2 3 4 5 6 
#
# 1 51.3270 36.9665 24.8461 0.0000 7.6592 0.0000
# 2 36.9665 168.7402 36.5942 0.0000 13.7707 0.0000
# 3 24.8461 36.5942 41.2781 0.0000 7.9363 0.0000
# 4 0.0000 0.0000 0.0000 13.4866 0.0000 5.3767
# 5 7.6592 13.7707 7.9363 0.0000 19.9190 0.0000
# 6 0.0000 0.0000 0.0000 5.3767 0.0000 55.3613
#
#
#
# Elastic Compliance Matrix: (Units=1/GPa)
#
#
# Indices 1 2 3 4 5 6 
#
# 1 0.029003 -0.003009 -0.014128 0.000000 -0.003443 0.000000
# 2 -0.003009 0.007784 -0.004632 0.000000 -0.002379 0.000000
# 3 -0.014128 -0.004632 0.038095 0.000000 -0.006543 0.000000
# 4 0.000000 0.000000 0.000000 0.077134 0.000000 -0.007491
# 5 -0.003443 -0.002379 -0.006543 0.000000 0.055779 0.000000
# 6 0.000000 0.000000 0.000000 -0.007491 0.000000 0.018791
#
#
# Mechanical properties :
#
#
# Convention : Reuss Voigt Hill
#
# Bulk Modulus (GPa) = 31.90503 50.90654 41.40579
# Shear Modulus (GPa) = 17.82078 28.61594 23.21836
#
# Velocity S-wave (km/s) = 2.76500 3.50377 3.15607
# Velocity P-wave (km/s) = 4.88682 6.18123 5.57174
#
# Compressibility (1/GPa) = 0.03134302
#
# Stress axis : x y z
#
# Youngs Moduli (GPa) = 34.47959 128.46550 26.25047
#
# Poissons Ratio (x) = 0.38653 0.37086
# Poissons Ratio (y) = 0.10374 0.12160
# Poissons Ratio (z) = 0.48712 0.59511
#
# Static dielectric constant tensor:
#      x y z
#    x 2.041330 0.000000 -0.032530 
#    y 0.000000 1.852210 0.000000 
#    z -0.032530 0.000000 1.841500 
# 
# From -- ./inp_files/54272.got.cif
#   From: 2010.05.17/outbox.cif.g08.bks.cpg/sg5_28_cif.got.tgz:54272.got - 2010.06.03 18:56:24.
