data_PCOD9127074
_publ_section_title
;
Structure prediction by ZEFSAII (Michael W. Deem and Ramdas Pophale) SiO2 
 PCOD9127074
Probable space group: C 2
;
_chemical_formula_sum "Si O2"
_cell_formula_units_Z 30
_cell_length_a 20.418660
_cell_length_b 10.224133
_cell_length_c 13.154866
_cell_angle_alpha 90.000000
_cell_angle_beta 147.062741
_cell_angle_gamma 90.000000
_cell_volume 1493.192263
_symmetry_space_group_name_H-M "C 2"
_symmetry_group_IT_number 5
_symmetry_cell_setting 'monoclinic'
loop_
_space_group_symop_operation_xyz
x,y,z
-x,y,-z
1/2+x,1/2+y,z
1/2-x,1/2+y,-z
loop_
_atom_site_type_symbol
_atom_site_label
_atom_site_fract_x
_atom_site_fract_y
_atom_site_fract_z
Si Si1 0.558964 0.986300 0.185221
Si Si2 0.736752 0.336330 0.083795
Si Si3 0.245325 0.632630 0.913728
Si Si4 0.993253 0.766355 0.867359
Si Si5 0.014646 0.202759 0.217318
Si Si6 0.000000 0.577851 0.500000
Si Si7 0.880873 0.366571 0.472578
Si Si8 0.801147 0.975971 0.595858
O O1 0.524528 0.845132 0.180385
O O2 0.511138 0.117215 0.176550
O O3 0.702998 0.998024 0.380019
O O4 0.500000 0.995323 0.000000
O O5 0.757090 0.479065 0.063213
O O6 0.826283 0.317911 0.295246
O O7 0.743313 0.225720 0.008123
O O8 0.607087 0.334868 0.967430
O O9 0.124217 0.653267 0.687990
O O10 0.376114 0.657514 0.032973
O O11 0.876657 0.844305 0.679528
O O12 0.000000 0.772598 0.000000
O O13 0.061660 0.245062 0.391363
O O14 0.105048 0.096883 0.284076
O O15 0.971764 0.481338 0.557967
O O16 0.779401 0.440911 0.409230
#
# Coordination Sequence:
#
# PCOD9127074 Si02
#       8
#     4   4   4   4   4   2   4   4
#     4  10  24  38  61  96 137 174 207 270 334 382
#     4  11  24  43  71  93 129 171 222 266 328 392
#     4  11  25  45  66  97 126 178 221 272 323 398
#     4  11  22  42  66  98 128 172 216 266 333 391
#     4  11  23  42  67 102 132 170 225 271 324 390
#     4  10  24  46  64  92 132 180 218 262 336 394
#     4  10  22  43  70  94 131 180 213 265 335 401
#     4  11  22  41  66 100 130 169 227 269 321 395
#
# _framework density 20.091183000000001
#
# number of rings (size 3 to 8) (size 9 to 14) (size 15 to 20)
#    0.000    1.333    2.667    3.200    7.467    2.667 
#    2.400    1.333    0.000    0.000    0.000    0.000 
#    0.000    0.000    0.000    0.000    0.000    0.000 
#
# Total GULP energy -83642.885430 kJ/mol
# GULP energy per Si atom -5576.192362 kJ/mol
# Density = 2.004545 g / cm^3
# Si number density = 20.091183 Si / 1000 Ang^3
#
#
#
# Elastic Constant Matrix: (Units=GPa)
#
#
# Indices 1 2 3 4 5 6 
#
# 1 68.1116 36.3607 35.4927 0.0000 24.8204 0.0000
# 2 36.3607 121.6116 50.6493 0.0000 -2.3712 0.0000
# 3 35.4927 50.6493 131.3656 0.0000 21.9550 0.0000
# 4 0.0000 0.0000 0.0000 27.6823 0.0000 -6.7939
# 5 24.8204 -2.3712 21.9550 0.0000 29.8174 0.0000
# 6 0.0000 0.0000 0.0000 -6.7939 0.0000 4.5729
#
#
#
# Elastic Compliance Matrix: (Units=1/GPa)
#
#
# Indices 1 2 3 4 5 6 
#
# 1 0.028294 -0.008844 -0.000206 0.000000 -0.024104 0.000000
# 2 -0.008844 0.013011 -0.004596 0.000000 0.011780 0.000000
# 3 -0.000206 -0.004596 0.010802 0.000000 -0.008147 0.000000
# 4 0.000000 0.000000 0.000000 0.056855 0.000000 0.084469
# 5 -0.024104 0.011780 -0.008147 0.000000 0.060538 0.000000
# 6 0.000000 0.000000 0.000000 0.084469 0.000000 0.344176
#
#
# Mechanical properties :
#
#
# Convention : Reuss Voigt Hill
#
# Bulk Modulus (GPa) = 40.29858 62.89937 51.59897
# Shear Modulus (GPa) = 9.10352 25.65359 17.37855
#
# Velocity S-wave (km/s) = 2.13095 3.57719 2.94425
# Velocity P-wave (km/s) = 5.11429 6.95964 6.10707
#
# Compressibility (1/GPa) = 0.02481477
#
# Stress axis : x y z
#
# Youngs Moduli (GPa) = 35.34316 76.85867 92.57772
#
# Poissons Ratio (x) = 0.67971 0.01910
# Poissons Ratio (y) = 0.31256 0.42548
# Poissons Ratio (z) = 0.00729 0.35324
#
# Static dielectric constant tensor:
#      x y z
#    x 1.781700 0.000000 -0.031420 
#    y 0.000000 1.691120 0.000000 
#    z -0.031420 0.000000 1.838960 
# 
# From -- ./inp_files/57637.got.cif
#   From: 2010.05.17/outbox.cif.g08.bks.cpg/sg5_29_cif.got.tgz:57637.got - 2010.06.03 18:56:24.
