data_PCOD9127797
_publ_section_title
;
Structure prediction by ZEFSAII (Michael W. Deem and Ramdas Pophale) SiO2 
 PCOD9127797
Probable space group: C 2
;
_chemical_formula_sum "Si O2"
_cell_formula_units_Z 24
_cell_length_a 7.360490
_cell_length_b 8.504374
_cell_length_c 25.798759
_cell_angle_alpha 90.000000
_cell_angle_beta 145.199281
_cell_angle_gamma 90.000000
_cell_volume 921.666775
_symmetry_space_group_name_H-M "C 2"
_symmetry_group_IT_number 5
_symmetry_cell_setting 'monoclinic'
loop_
_space_group_symop_operation_xyz
x,y,z
-x,y,-z
1/2+x,1/2+y,z
1/2-x,1/2+y,-z
loop_
_atom_site_type_symbol
_atom_site_label
_atom_site_fract_x
_atom_site_fract_y
_atom_site_fract_z
Si Si1 0.338573 0.799860 0.866202
Si Si2 0.895470 0.294022 0.534009
Si Si3 0.890586 0.970492 0.032568
Si Si4 0.438242 0.794057 0.200903
Si Si5 0.675990 0.489923 0.631232
Si Si6 0.274683 0.483513 0.700408
O O1 0.468497 0.640572 0.921935
O O2 0.447069 0.782765 0.831576
O O3 0.969680 0.843654 0.774049
O O4 0.515605 0.939427 0.939876
O O5 0.539431 0.357229 0.446282
O O6 0.000000 0.256428 0.500000
O O7 0.131065 0.424941 0.612887
O O8 0.952138 0.141273 0.582170
O O9 0.073988 0.850637 0.113299
O O10 0.000000 0.931127 0.000000
O O11 0.662770 0.924575 0.279612
O O12 0.495647 0.633481 0.245269
O O13 0.971769 0.530512 0.663724
#
# Coordination Sequence:
#
# PCOD9127797 Si02
#       6
#     4   4   4   4   4   4
#     4  11  24  45  70 100 138 178 224 275 329 395
#     4  12  26  47  69  97 135 174 224 278 333 402
#     4  10  23  42  69 102 136 179 225 272 330 391
#     4  11  24  45  68  98 138 176 223 276 328 395
#     4  12  26  46  70  99 133 175 223 277 338 397
#     4  12  25  43  70 100 135 176 221 278 336 394
#
# _framework density 26.039778999999999
#
# number of rings (size 3 to 8) (size 9 to 14) (size 15 to 20)
#    0.000    0.667    0.000    8.500    0.000    9.333 
#    0.000    4.167    0.000    0.000    0.000    0.000 
#    0.000    0.000    0.000    0.000    0.000    0.000 
#
# Total GULP energy -67283.481064 kJ/mol
# GULP energy per Si atom -5606.956755 kJ/mol
# Density = 2.598051 g / cm^3
# Si number density = 26.039779 Si / 1000 Ang^3
#
#
#
# Elastic Constant Matrix: (Units=GPa)
#
#
# Indices 1 2 3 4 5 6 
#
# 1 25.0765 -9.4436 16.3501 0.0000 -9.6786 0.0000
# 2 -9.4436 103.2730 59.3089 0.0000 -9.5000 0.0000
# 3 16.3501 59.3089 214.2974 0.0000 -5.6667 0.0000
# 4 0.0000 0.0000 0.0000 84.9069 0.0000 -5.9418
# 5 -9.6786 -9.5000 -5.6667 0.0000 46.3048 0.0000
# 6 0.0000 0.0000 0.0000 -5.9418 0.0000 25.7733
#
#
#
# Elastic Compliance Matrix: (Units=1/GPa)
#
#
# Indices 1 2 3 4 5 6 
#
# 1 0.052231 0.009504 -0.006296 0.000000 0.012097 0.000000
# 2 0.009504 0.013426 -0.004330 0.000000 0.004211 0.000000
# 3 -0.006296 -0.004330 0.006307 0.000000 -0.001432 0.000000
# 4 0.000000 0.000000 0.000000 0.011971 0.000000 0.002760
# 5 0.012097 0.004211 -0.001432 0.000000 0.024813 0.000000
# 6 0.000000 0.000000 0.000000 0.002760 0.000000 0.039436
#
#
# Mechanical properties :
#
#
# Convention : Reuss Voigt Hill
#
# Bulk Modulus (GPa) = 14.34255 52.78642 33.56448
# Shear Modulus (GPa) = 28.79083 49.82576 39.30829
#
# Velocity S-wave (km/s) = 3.32874 4.37904 3.88951
# Velocity P-wave (km/s) = 4.50487 6.77373 5.75228
#
# Compressibility (1/GPa) = 0.06972260
#
# Stress axis : x y z
#
# Youngs Moduli (GPa) = 19.14574 74.48223 158.55095
#
# Poissons Ratio (x) = -0.70791 0.99817
# Poissons Ratio (y) = -0.18197 0.68646
# Poissons Ratio (z) = 0.12053 0.32248
#
# Static dielectric constant tensor:
#      x y z
#    x 2.016850 0.000000 0.021760 
#    y 0.000000 2.067310 0.000000 
#    z 0.021760 0.000000 1.963740 
# 
# From -- ./inp_files/71549.got.cif
#   From: 2010.05.17/outbox.cif.g08.bks.cpg/sg5_36_cif.got.tgz:71549.got - 2010.06.03 18:56:24.
