data_PCOD9127509
_publ_section_title
;
Structure prediction by ZEFSAII (Michael W. Deem and Ramdas Pophale) SiO2 
 PCOD9127509
Probable space group: C 2
;
_chemical_formula_sum "Si O2"
_cell_formula_units_Z 26
_cell_length_a 8.366236
_cell_length_b 11.450116
_cell_length_c 13.194372
_cell_angle_alpha 90.000000
_cell_angle_beta 69.902464
_cell_angle_gamma 90.000000
_cell_volume 1186.983655
_symmetry_space_group_name_H-M "C 2"
_symmetry_group_IT_number 5
_symmetry_cell_setting 'monoclinic'
loop_
_space_group_symop_operation_xyz
x,y,z
-x,y,-z
1/2+x,1/2+y,z
1/2-x,1/2+y,-z
loop_
_atom_site_type_symbol
_atom_site_label
_atom_site_fract_x
_atom_site_fract_y
_atom_site_fract_z
Si Si1 0.000000 0.469700 0.500000
Si Si2 0.694369 0.046791 0.654255
Si Si3 0.943763 0.914600 0.829716
Si Si4 0.208228 0.811166 0.627090
Si Si5 0.118171 0.170266 0.075381
Si Si6 0.000000 0.749719 0.000000
Si Si7 0.936809 0.403464 0.128376
Si Si8 0.500000 0.397277 0.500000
O O1 0.902497 0.538302 0.432822
O O2 0.879184 0.382695 0.587549
O O3 0.724898 0.182847 0.667796
O O4 0.587205 0.993651 0.772799
O O5 0.871990 0.978994 0.594193
O O6 0.757119 0.863334 0.847886
O O7 0.073227 0.889856 0.713915
O O8 0.919269 0.051283 0.856811
O O9 0.020488 0.839326 0.903597
O O10 0.129896 0.814195 0.531661
O O11 0.323287 0.180322 0.020052
O O12 0.053753 0.293890 0.134495
O O13 0.000000 0.160695 0.000000
O O14 0.000000 0.439891 0.000000
#
# Coordination Sequence:
#
# PCOD9127509 Si02
#       8
#     2   4   4   4   4   2   4   2
#     4  10  26  46  72 108 138 192 248 302 376 430
#     4  11  24  46  73 104 145 189 242 308 361 443
#     4  12  26  44  71 107 141 194 247 304 372 440
#     4  11  25  45  70 106 138 184 243 299 371 432
#     4  11  26  48  69 102 151 196 249 308 352 447
#     4  12  26  44  74 102 144 202 246 292 372 436
#     4  11  25  48  68 105 152 196 240 305 372 436
#     4  10  22  48  70 100 138 184 242 304 364 424
#
# _framework density 21.904261999999999
#
# number of rings (size 3 to 8) (size 9 to 14) (size 15 to 20)
#    0.000    0.923    5.385    0.923    5.385    1.231 
#   11.077    0.000    0.000    0.000    0.000    0.000 
#    0.000    0.000    0.000    0.000    0.000    0.000 
#
# Total GULP energy -72541.398115 kJ/mol
# GULP energy per Si atom -5580.107547 kJ/mol
# Density = 2.185441 g / cm^3
# Si number density = 21.904262 Si / 1000 Ang^3
#
#
#
# Elastic Constant Matrix: (Units=GPa)
#
#
# Indices 1 2 3 4 5 6 
#
# 1 99.5957 26.9376 25.4363 0.0000 -16.9909 0.0000
# 2 26.9376 133.8609 51.6151 0.0000 -16.2508 0.0000
# 3 25.4363 51.6151 107.5973 0.0000 -24.9994 0.0000
# 4 0.0000 0.0000 0.0000 36.8713 0.0000 5.8925
# 5 -16.9909 -16.2508 -24.9994 0.0000 43.0025 0.0000
# 6 0.0000 0.0000 0.0000 5.8925 0.0000 33.0813
#
#
#
# Elastic Compliance Matrix: (Units=1/GPa)
#
#
# Indices 1 2 3 4 5 6 
#
# 1 0.011285 -0.001399 -0.001253 0.000000 0.003202 0.000000
# 2 -0.001399 0.009380 -0.004016 0.000000 0.000657 0.000000
# 3 -0.001253 -0.004016 0.012775 0.000000 0.005414 0.000000
# 4 0.000000 0.000000 0.000000 0.027916 0.000000 -0.004972
# 5 0.003202 0.000657 0.005414 0.000000 0.027915 0.000000
# 6 0.000000 0.000000 0.000000 -0.004972 0.000000 0.031114
#
#
# Mechanical properties :
#
#
# Convention : Reuss Voigt Hill
#
# Bulk Modulus (GPa) = 49.74239 61.00355 55.37297
# Shear Modulus (GPa) = 35.60656 38.39535 37.00095
#
# Velocity S-wave (km/s) = 4.03619 4.19127 4.11446
# Velocity P-wave (km/s) = 6.66929 7.16470 6.92143
#
# Compressibility (1/GPa) = 0.02010358
#
# Stress axis : x y z
#
# Youngs Moduli (GPa) = 88.61148 106.60448 78.28052
#
# Poissons Ratio (x) = 0.14917 0.09806
# Poissons Ratio (y) = 0.12399 0.31441
# Poissons Ratio (z) = 0.11100 0.42817
#
# Static dielectric constant tensor:
#      x y z
#    x 1.761150 0.000000 -0.002830 
#    y 0.000000 1.777780 0.000000 
#    z -0.002830 0.000000 1.776750 
# 
# From -- ./inp_files/50237.got.cif
#   From: 2010.05.17/outbox.cif.g08.bks.cpg/sg5_26_cif.got.tgz:50237.got - 2010.06.03 18:56:24.
