data_PCOD9127816
_publ_section_title
;
Structure prediction by ZEFSAII (Michael W. Deem and Ramdas Pophale) SiO2 
 PCOD9127816
Probable space group: C 2
;
_chemical_formula_sum "Si O2"
_cell_formula_units_Z 30
_cell_length_a 9.108508
_cell_length_b 23.617551
_cell_length_c 11.677643
_cell_angle_alpha 90.000000
_cell_angle_beta 141.080405
_cell_angle_gamma 90.000000
_cell_volume 1578.175887
_symmetry_space_group_name_H-M "C 2"
_symmetry_group_IT_number 5
_symmetry_cell_setting 'monoclinic'
loop_
_space_group_symop_operation_xyz
x,y,z
-x,y,-z
1/2+x,1/2+y,z
1/2-x,1/2+y,-z
loop_
_atom_site_type_symbol
_atom_site_label
_atom_site_fract_x
_atom_site_fract_y
_atom_site_fract_z
Si Si1 0.917138 0.263930 0.065681
Si Si2 0.831224 0.022401 0.497105
Si Si3 0.057005 0.947074 0.215444
Si Si4 0.741205 0.724346 0.796631
Si Si5 0.500000 0.632325 0.500000
Si Si6 0.760090 0.348338 0.615923
Si Si7 0.395743 0.313557 0.714803
Si Si8 0.896473 0.455107 0.205897
O O1 0.909889 0.229681 0.179866
O O2 0.100378 0.314326 0.201947
O O3 0.656449 0.288414 0.887027
O O4 0.000000 0.233825 0.000000
O O5 0.566820 0.008404 0.304034
O O6 0.000000 0.998646 0.500000
O O7 0.891880 0.989800 0.650248
O O8 0.880729 0.089296 0.518249
O O9 0.091170 0.881065 0.264460
O O10 0.241963 0.957783 0.226511
O O11 0.792367 0.952817 0.009730
O O12 0.670049 0.673764 0.670987
O O13 0.750225 0.782256 0.726620
O O14 0.000000 0.714994 0.000000
O O15 0.500000 0.365061 0.500000
O O16 0.714038 0.307967 0.477853
O O17 0.929386 0.400926 0.688050
#
# Coordination Sequence:
#
# PCOD9127816 Si02
#       8
#     4   4   4   4   2   4   4   4
#     4  11  22  38  59  94 136 164 211 262 326 399
#     4  10  24  42  66  91 124 165 223 271 323 375
#     4  11  23  39  62  96 135 169 210 264 331 401
#     4  10  23  42  71  93 123 170 226 272 324 384
#     4  10  24  48  70  92 118 172 240 276 310 378
#     4  12  22  34  57  92 138 179 208 249 318 397
#     4  11  22  37  63  98 132 176 210 259 330 398
#     4  11  23  37  61  92 130 174 213 258 328 388
#
# _framework density 19.009288000000002
#
# number of rings (size 3 to 8) (size 9 to 14) (size 15 to 20)
#    0.400    0.800    4.000    2.400    3.733    2.667 
#    0.000    0.000   14.667    0.000    0.000    0.000 
#    0.000    0.000    0.000    0.000    0.000    0.000 
#
# Total GULP energy -83680.621332 kJ/mol
# GULP energy per Si atom -5578.708089 kJ/mol
# Density = 1.896602 g / cm^3
# Si number density = 19.009288 Si / 1000 Ang^3
#
#
#
# Elastic Constant Matrix: (Units=GPa)
#
#
# Indices 1 2 3 4 5 6 
#
# 1 100.1015 29.5830 47.0839 0.0000 -5.8365 0.0000
# 2 29.5830 86.3393 48.4410 0.0000 -12.3195 0.0000
# 3 47.0839 48.4410 120.9853 0.0000 1.4784 0.0000
# 4 0.0000 0.0000 0.0000 3.9944 0.0000 6.8483
# 5 -5.8365 -12.3195 1.4784 0.0000 38.0310 0.0000
# 6 0.0000 0.0000 0.0000 6.8483 0.0000 12.7084
#
#
#
# Elastic Compliance Matrix: (Units=1/GPa)
#
#
# Indices 1 2 3 4 5 6 
#
# 1 0.012574 -0.001719 -0.004224 0.000000 0.001537 0.000000
# 2 -0.001719 0.016220 -0.005889 0.000000 0.005219 0.000000
# 3 -0.004224 -0.005889 0.012304 0.000000 -0.003034 0.000000
# 4 0.000000 0.000000 0.000000 3.288748 0.000000 -1.772229
# 5 0.001537 0.005219 -0.003034 0.000000 0.028339 0.000000
# 6 0.000000 0.000000 0.000000 -1.772229 0.000000 1.033701
#
#
# Mechanical properties :
#
#
# Convention : Reuss Voigt Hill
#
# Bulk Modulus (GPa) = 57.35842 61.96020 59.65931
# Shear Modulus (GPa) = 1.13087 23.10132 12.11610
#
# Velocity S-wave (km/s) = 0.77214 3.48985 2.52737
# Velocity P-wave (km/s) = 5.57085 6.99315 6.32212
#
# Compressibility (1/GPa) = 0.01743423
#
# Stress axis : x y z
#
# Youngs Moduli (GPa) = 79.52687 61.65200 81.27247
#
# Poissons Ratio (x) = 0.10599 0.34329
# Poissons Ratio (y) = 0.13673 0.47862
# Poissons Ratio (z) = 0.33592 0.36307
#
# Static dielectric constant tensor:
#      x y z
#    x 1.707600 0.000000 -0.017920 
#    y 0.000000 1.644990 0.000000 
#    z -0.017920 0.000000 1.681180 
# 
# From -- ./inp_files/37540.got.cif
#   From: 2010.05.17/outbox.cif.g08.bks.cpg/sg5_19_cif.got.tgz:37540.got - 2010.06.03 18:56:24.
