data_PCOD9127684
_publ_section_title
;
Structure prediction by ZEFSAII (Michael W. Deem and Ramdas Pophale) SiO2 
 PCOD9127684
Probable space group: C 2
;
_chemical_formula_sum "Si O2"
_cell_formula_units_Z 20
_cell_length_a 13.187026
_cell_length_b 4.693298
_cell_length_c 24.728393
_cell_angle_alpha 90.000000
_cell_angle_beta 154.081353
_cell_angle_gamma 90.000000
_cell_volume 668.954002
_symmetry_space_group_name_H-M "C 2"
_symmetry_group_IT_number 5
_symmetry_cell_setting 'monoclinic'
loop_
_space_group_symop_operation_xyz
x,y,z
-x,y,-z
1/2+x,1/2+y,z
1/2-x,1/2+y,-z
loop_
_atom_site_type_symbol
_atom_site_label
_atom_site_fract_x
_atom_site_fract_y
_atom_site_fract_z
Si Si1 0.911258 0.764310 0.567065
Si Si2 0.304417 0.418840 0.122614
Si Si3 0.384249 0.862590 0.846529
Si Si4 0.183234 0.485156 0.302306
Si Si5 0.164159 0.419429 0.784924
O O1 0.757494 0.486706 0.484069
O O2 0.892781 0.393285 0.673886
O O3 0.120022 0.663891 0.708985
O O4 0.215589 0.227607 0.134509
O O5 0.567189 0.300368 0.246207
O O6 0.256654 0.729264 0.122321
O O7 0.147327 0.349246 0.996716
O O8 0.440127 0.836397 0.808509
O O9 0.279866 0.183694 0.800537
O O10 0.445785 0.421984 0.411460
#
# Coordination Sequence:
#
# PCOD9127684 Si02
#       5
#     4   4   4   4   4
#     4  10  24  43  69 101 139 197 262 301 354 450
#     4  10  23  41  66 111 147 184 239 309 376 469
#     4  10  23  43  73 105 150 203 236 310 396 432
#     4   8  24  40  70  99 148 180 255 291 384 438
#     4  10  23  42  63 109 148 182 237 310 378 460
#
# _framework density 29.897423
#
# number of rings (size 3 to 8) (size 9 to 14) (size 15 to 20)
#    2.400    0.000    0.000    0.600    5.600    6.400 
#    3.600    1.000    0.000    2.400    0.000    0.000 
#    0.000    0.000    0.000    0.000    0.000    0.000 
#
# Total GULP energy -55688.211164 kJ/mol
# GULP energy per Si atom -5568.821116 kJ/mol
# Density = 2.982938 g / cm^3
# Si number density = 29.897423 Si / 1000 Ang^3
#
#
#
# Elastic Constant Matrix: (Units=GPa)
#
#
# Indices 1 2 3 4 5 6 
#
# 1 194.0640 51.4118 11.2332 0.0017 12.0985 0.0040
# 2 51.4118 226.5971 49.5095 -0.0048 17.7950 0.0193
# 3 11.2332 49.5095 106.1865 0.0120 12.3988 0.0083
# 4 0.0017 -0.0048 0.0120 11.9345 -0.0056 9.4886
# 5 12.0985 17.7950 12.3988 -0.0056 48.0702 -0.0048
# 6 0.0040 0.0193 0.0083 9.4886 -0.0048 53.3357
#
#
#
# Elastic Compliance Matrix: (Units=1/GPa)
#
#
# Indices 1 2 3 4 5 6 
#
# 1 0.005525 -0.001196 0.000087 -0.000002 -0.000970 0.000000
# 2 -0.001196 0.005249 -0.002195 0.000006 -0.001076 -0.000003
# 3 0.000087 -0.002195 0.010660 -0.000014 -0.001959 0.000001
# 4 -0.000002 0.000006 -0.000014 0.097595 0.000011 -0.017363
# 5 -0.000970 -0.001076 -0.001959 0.000011 0.021951 0.000001
# 6 0.000000 -0.000003 0.000001 -0.017363 0.000001 0.021838
#
#
# Mechanical properties :
#
#
# Convention : Reuss Voigt Hill
#
# Bulk Modulus (GPa) = 67.45475 83.46184 75.45830
# Shear Modulus (GPa) = 28.67480 50.31428 39.49454
#
# Velocity S-wave (km/s) = 3.10030 4.10676 3.63850
# Velocity P-wave (km/s) = 5.95205 7.10380 6.55328
#
# Compressibility (1/GPa) = 0.01482475
#
# Stress axis : x y z
#
# Youngs Moduli (GPa) = 180.98406 190.52606 93.80520
#
# Poissons Ratio (x) = 0.22794 -0.00812
# Poissons Ratio (y) = 0.21652 0.20590
# Poissons Ratio (z) = -0.01567 0.41821
#
# Static dielectric constant tensor:
#      x y z
#    x 2.471700 -0.000020 -0.089440 
#    y -0.000020 2.369920 0.000050 
#    z -0.089440 0.000050 2.925080 
# 
# From -- ./inp_files/68563.got.cif
#   From: 2010.05.17/outbox.cif.g08.bks.cpg/sg5_35_cif.got.tgz:68563.got - 2010.06.03 18:56:24.
