data_PCOD9127001
_publ_section_title
;
Structure prediction by ZEFSAII (Michael W. Deem and Ramdas Pophale) SiO2 
 PCOD9127001
Probable space group: C 2
;
_chemical_formula_sum "Si O2"
_cell_formula_units_Z 24
_cell_length_a 6.672730
_cell_length_b 8.626536
_cell_length_c 19.766067
_cell_angle_alpha 90.000000
_cell_angle_beta 57.086199
_cell_angle_gamma 90.000000
_cell_volume 955.158108
_symmetry_space_group_name_H-M "C 2"
_symmetry_group_IT_number 5
_symmetry_cell_setting 'monoclinic'
loop_
_space_group_symop_operation_xyz
x,y,z
-x,y,-z
1/2+x,1/2+y,z
1/2-x,1/2+y,-z
loop_
_atom_site_type_symbol
_atom_site_label
_atom_site_fract_x
_atom_site_fract_y
_atom_site_fract_z
Si Si1 0.939333 0.451310 0.269571
Si Si2 0.933779 0.144389 0.815531
Si Si3 0.093091 0.956387 0.672602
Si Si4 0.893352 0.606154 0.886824
Si Si5 0.389196 0.649900 0.594080
Si Si6 0.738053 0.787019 0.026634
O O1 0.681152 0.398290 0.283859
O O2 0.835902 0.532041 0.355380
O O3 0.082213 0.294976 0.230987
O O4 0.069525 0.580035 0.199585
O O5 0.667389 0.081718 0.858771
O O6 0.947600 0.195711 0.891007
O O7 0.110499 0.028962 0.744308
O O8 0.079009 0.090011 0.616424
O O9 0.281642 0.820735 0.626274
O O10 0.768924 0.462163 0.946803
O O11 0.762179 0.756244 0.942262
O O12 0.500000 0.639514 0.500000
O O13 0.000000 0.728456 0.000000
#
# Coordination Sequence:
#
# PCOD9127001 Si02
#       6
#     4   4   4   4   4   4
#     4   8  19  38  59  84 120 156 209 255 319 376
#     4   9  17  38  57  85 116 162 200 261 307 383
#     4   9  21  41  61  92 123 159 207 256 319 381
#     4   9  17  34  54  81 119 151 205 249 305 371
#     4  10  22  43  64  94 125 160 209 263 318 391
#     4   9  18  32  54  79 116 155 205 247 305 364
#
# _framework density 25.126729000000001
#
# number of rings (size 3 to 8) (size 9 to 14) (size 15 to 20)
#    1.000    2.000    0.000    0.000    0.000    2.667 
#    6.000   14.167    0.000    0.000    0.000    0.000 
#    0.000    0.000    0.000    0.000    0.000    0.000 
#
# Total GULP energy -66851.506735 kJ/mol
# GULP energy per Si atom -5570.958895 kJ/mol
# Density = 2.506954 g / cm^3
# Si number density = 25.126729 Si / 1000 Ang^3
#
#
#
# Elastic Constant Matrix: (Units=GPa)
#
#
# Indices 1 2 3 4 5 6 
#
# 1 66.4167 17.2683 40.6741 0.0000 10.5312 0.0000
# 2 17.2683 65.5104 84.4401 0.0000 -12.9694 0.0000
# 3 40.6741 84.4401 221.3332 0.0000 -11.0477 0.0000
# 4 0.0000 0.0000 0.0000 50.7161 0.0000 -8.6829
# 5 10.5312 -12.9694 -11.0477 0.0000 35.7769 0.0000
# 6 0.0000 0.0000 0.0000 -8.6829 0.0000 30.3864
#
#
#
# Elastic Compliance Matrix: (Units=1/GPa)
#
#
# Indices 1 2 3 4 5 6 
#
# 1 0.018622 -0.002916 -0.002677 0.000000 -0.007365 0.000000
# 2 -0.002916 0.032590 -0.011441 0.000000 0.009140 0.000000
# 3 -0.002677 -0.011441 0.009351 0.000000 -0.000472 0.000000
# 4 0.000000 0.000000 0.000000 0.020732 0.000000 0.005924
# 5 -0.007365 0.009140 -0.000472 0.000000 0.033287 0.000000
# 6 0.000000 0.000000 0.000000 0.005924 0.000000 0.034602
#
#
# Mechanical properties :
#
#
# Convention : Reuss Voigt Hill
#
# Bulk Modulus (GPa) = 37.74352 70.89171 54.31761
# Shear Modulus (GPa) = 26.03013 37.43439 31.73226
#
# Velocity S-wave (km/s) = 3.22212 3.86401 3.55757
# Velocity P-wave (km/s) = 5.37555 6.94135 6.20802
#
# Compressibility (1/GPa) = 0.02649462
#
# Stress axis : x y z
#
# Youngs Moduli (GPa) = 53.69968 30.68408 106.93485
#
# Poissons Ratio (x) = 0.08947 0.28630
# Poissons Ratio (y) = 0.15658 1.22348
# Poissons Ratio (z) = 0.14377 0.35107
#
# Static dielectric constant tensor:
#      x y z
#    x 2.150250 0.000000 0.105420 
#    y 0.000000 2.015090 0.000000 
#    z 0.105420 0.000000 1.967070 
# 
# From -- ./inp_files/64247.got.cif
#   From: 2010.05.17/outbox.cif.g08.bks.cpg/sg5_33_cif.got.tgz:64247.got - 2010.06.03 18:56:24.
