data_PCOD9127096
_publ_section_title
;
Structure prediction by ZEFSAII (Michael W. Deem and Ramdas Pophale) SiO2 
 PCOD9127096
Probable space group: C 2
;
_chemical_formula_sum "Si O2"
_cell_formula_units_Z 26
_cell_length_a 13.992062
_cell_length_b 15.138247
_cell_length_c 7.891980
_cell_angle_alpha 90.000000
_cell_angle_beta 139.508753
_cell_angle_gamma 90.000000
_cell_volume 1085.450457
_symmetry_space_group_name_H-M "C 2"
_symmetry_group_IT_number 5
_symmetry_cell_setting 'monoclinic'
loop_
_space_group_symop_operation_xyz
x,y,z
-x,y,-z
1/2+x,1/2+y,z
1/2-x,1/2+y,-z
loop_
_atom_site_type_symbol
_atom_site_label
_atom_site_fract_x
_atom_site_fract_y
_atom_site_fract_z
Si Si1 0.500000 0.940310 0.500000
Si Si2 0.195207 0.137578 0.904147
Si Si3 0.813991 0.685654 0.428485
Si Si4 0.540200 0.060181 0.865024
Si Si5 0.214698 0.822940 0.128598
Si Si6 0.417230 0.563557 0.708672
Si Si7 0.615209 0.364476 0.378563
O O1 0.350272 0.886984 0.272883
O O2 0.475409 0.996790 0.635848
O O3 0.220451 0.228313 0.838488
O O4 0.033609 0.105905 0.736340
O O5 0.280056 0.146605 0.198844
O O6 0.285896 0.065442 0.923290
O O7 0.969002 0.655242 0.718236
O O8 0.699434 0.638714 0.400258
O O9 0.805771 0.791116 0.399916
O O10 0.500000 0.036938 0.000000
O O11 0.169706 0.832389 0.265699
O O12 0.060611 0.850725 0.833998
O O13 0.356431 0.468526 0.570112
O O14 0.500000 0.543589 0.000000
#
# Coordination Sequence:
#
# PCOD9127096 Si02
#       7
#     2   4   4   4   4   4   4
#     4  12  26  48  74 104 148 188 244 324 370 422
#     4  11  23  45  72 105 149 192 246 309 372 437
#     4  11  23  43  75 106 147 198 244 306 374 437
#     4  12  24  45  75 106 141 192 250 299 372 452
#     4  11  24  42  72 102 141 191 244 299 375 436
#     4  10  22  43  72 103 141 198 250 306 366 442
#     4  11  22  43  73 100 146 199 250 299 375 451
#
# _framework density 23.953188999999998
#
# number of rings (size 3 to 8) (size 9 to 14) (size 15 to 20)
#    0.000    0.923    4.615    2.769    2.154    0.000 
#    5.538    0.000   13.538    0.000    0.000    0.000 
#    0.000    0.000    0.000    0.000    0.000    0.000 
#
# Total GULP energy -72764.494128 kJ/mol
# GULP energy per Si atom -5597.268779 kJ/mol
# Density = 2.389867 g / cm^3
# Si number density = 23.953189 Si / 1000 Ang^3
#
#
#
# Elastic Constant Matrix: (Units=GPa)
#
#
# Indices 1 2 3 4 5 6 
#
# 1 185.3563 69.0538 52.2620 0.0000 14.5345 0.0000
# 2 69.0538 150.5434 55.3862 0.0000 9.8383 0.0000
# 3 52.2620 55.3862 48.7742 0.0000 -3.0095 0.0000
# 4 0.0000 0.0000 0.0000 37.3578 0.0000 3.5900
# 5 14.5345 9.8383 -3.0095 0.0000 43.1205 0.0000
# 6 0.0000 0.0000 0.0000 3.5900 0.0000 35.3930
#
#
#
# Elastic Compliance Matrix: (Units=1/GPa)
#
#
# Indices 1 2 3 4 5 6 
#
# 1 0.008210 -0.000415 -0.008528 0.000000 -0.003268 0.000000
# 2 -0.000415 0.011989 -0.013387 0.000000 -0.003530 0.000000
# 3 -0.008528 -0.013387 0.045404 0.000000 0.009098 0.000000
# 4 0.000000 0.000000 0.000000 0.027032 0.000000 -0.002742
# 5 -0.003268 -0.003530 0.009098 0.000000 0.025733 0.000000
# 6 0.000000 0.000000 0.000000 -0.002742 0.000000 0.028532
#
#
# Mechanical properties :
#
#
# Convention : Reuss Voigt Hill
#
# Bulk Modulus (GPa) = 47.74923 82.00866 64.87894
# Shear Modulus (GPa) = 25.18378 37.03904 31.11141
#
# Velocity S-wave (km/s) = 3.24601 3.93658 3.60785
# Velocity P-wave (km/s) = 5.83322 7.41442 6.67083
#
# Compressibility (1/GPa) = 0.02094275
#
# Stress axis : x y z
#
# Youngs Moduli (GPa) = 121.79788 83.41013 22.02470
#
# Poissons Ratio (x) = 0.03462 0.18782
# Poissons Ratio (y) = 0.05055 0.29485
# Poissons Ratio (z) = 1.03866 1.11663
#
# Static dielectric constant tensor:
#      x y z
#    x 1.918840 0.000000 -0.002400 
#    y 0.000000 1.942250 0.000000 
#    z -0.002400 0.000000 1.963640 
# 
# From -- ./inp_files/24840.got.cif
#   From: 2010.05.17/outbox.cif.g08.bks.cpg/sg5_13_cif.got.tgz:24840.got - 2010.06.03 18:56:24.
