data_PCOD9127388
_publ_section_title
;
Structure prediction by ZEFSAII (Michael W. Deem and Ramdas Pophale) SiO2 
 PCOD9127388
Probable space group: C 2
;
_chemical_formula_sum "Si O2"
_cell_formula_units_Z 30
_cell_length_a 23.005303
_cell_length_b 8.690112
_cell_length_c 19.189847
_cell_angle_alpha 90.000000
_cell_angle_beta 19.977009
_cell_angle_gamma 90.000000
_cell_volume 1310.682285
_symmetry_space_group_name_H-M "C 2"
_symmetry_group_IT_number 5
_symmetry_cell_setting 'monoclinic'
loop_
_space_group_symop_operation_xyz
x,y,z
-x,y,-z
1/2+x,1/2+y,z
1/2-x,1/2+y,-z
loop_
_atom_site_type_symbol
_atom_site_label
_atom_site_fract_x
_atom_site_fract_y
_atom_site_fract_z
Si Si1 0.251812 0.180240 0.971408
Si Si2 0.164947 0.343616 0.412468
Si Si3 0.845905 0.424472 0.280040
Si Si4 0.000000 0.648205 0.000000
Si Si5 0.334218 0.283008 0.732587
Si Si6 0.021766 0.061327 0.346049
Si Si7 0.320424 0.645187 0.214080
Si Si8 0.986497 0.454183 0.276227
O O1 0.285594 0.170356 0.850735
O O2 0.433361 0.124266 0.799121
O O3 0.114419 0.080850 0.168065
O O4 0.153573 0.343275 0.091018
O O5 0.330838 0.252421 0.198448
O O6 0.009200 0.224331 0.580347
O O7 0.179293 0.513932 0.365213
O O8 0.143908 0.390679 0.518201
O O9 0.979929 0.533569 0.088284
O O10 0.662610 0.493575 0.464702
O O11 0.826767 0.247215 0.276376
O O12 0.897234 0.437721 0.302507
O O13 0.500000 0.252036 0.500000
O O14 0.373238 0.446153 0.723929
O O15 0.193564 0.268095 0.832247
O O16 0.500000 0.564767 0.000000
#
# Coordination Sequence:
#
# PCOD9127388 Si02
#       8
#     4   4   4   2   4   4   4   4
#     4  11  24  46  69 103 146 195 249 304 377 443
#     4  10  24  46  68 112 152 185 252 317 381 436
#     4  11  24  44  78 105 140 204 257 302 375 466
#     4  10  22  46  66 106 152 188 240 312 386 446
#     4  12  24  46  75 104 153 200 247 307 374 463
#     4  10  24  48  72 102 157 203 249 302 385 462
#     4  12  24  42  77 113 144 191 256 317 379 439
#     4  11  25  46  73 106 147 196 255 308 375 452
#
# _framework density 22.888843000000001
#
# number of rings (size 3 to 8) (size 9 to 14) (size 15 to 20)
#    0.000    1.067    4.000    1.600    0.000    4.267 
#    2.400    3.333    0.000    0.000    0.000    0.000 
#    0.000    0.000    0.000    0.000    0.000    0.000 
#
# Total GULP energy -83531.281124 kJ/mol
# GULP energy per Si atom -5568.752075 kJ/mol
# Density = 2.283675 g / cm^3
# Si number density = 22.888843 Si / 1000 Ang^3
#
#
#
# Elastic Constant Matrix: (Units=GPa)
#
#
# Indices 1 2 3 4 5 6 
#
# 1 74.3665 23.8598 -1.5512 -0.0002 12.1501 0.0001
# 2 23.8598 66.7797 25.4994 -0.0002 3.4666 0.0001
# 3 -1.5512 25.4994 90.2757 -0.0003 33.4127 0.0001
# 4 -0.0002 -0.0002 -0.0003 9.8214 0.0001 12.1632
# 5 12.1501 3.4666 33.4127 0.0001 41.9977 0.0000
# 6 0.0001 0.0001 0.0001 12.1632 0.0000 23.3630
#
#
#
# Elastic Compliance Matrix: (Units=1/GPa)
#
#
# Indices 1 2 3 4 5 6 
#
# 1 0.017695 -0.008143 0.006024 0.000001 -0.009239 -0.000001
# 2 -0.008143 0.020878 -0.008889 0.000000 0.007704 0.000000
# 3 0.006024 -0.008889 0.019935 0.000002 -0.016869 -0.000001
# 4 0.000001 0.000000 0.000002 0.286610 -0.000003 -0.149214
# 5 -0.009239 0.007704 -0.016869 -0.000003 0.039268 0.000002
# 6 -0.000001 0.000000 -0.000001 -0.149214 0.000002 0.120486
#
#
# Mechanical properties :
#
#
# Convention : Reuss Voigt Hill
#
# Bulk Modulus (GPa) = 27.40293 36.33756 31.87024
# Shear Modulus (GPa) = 9.27556 27.27734 18.27645
#
# Velocity S-wave (km/s) = 2.01525 3.45589 2.82882
# Velocity P-wave (km/s) = 4.17291 5.64220 4.96223
#
# Compressibility (1/GPa) = 0.03649244
#
# Stress axis : x y z
#
# Youngs Moduli (GPa) = 56.51460 47.89733 50.16352
#
# Poissons Ratio (x) = 0.39001 -0.30217
# Poissons Ratio (y) = 0.46017 0.44588
# Poissons Ratio (z) = -0.34042 0.42574
#
# Static dielectric constant tensor:
#      x y z
#    x 1.834640 0.000000 -0.024910 
#    y 0.000000 1.910180 0.000000 
#    z -0.024910 0.000000 2.001160 
# 
# From -- ./inp_files/67370.got.cif
#   From: 2010.05.17/outbox.cif.g08.bks.cpg/sg5_34_cif.got.tgz:67370.got - 2010.06.03 18:56:24.
