data_PCOD9127013
_publ_section_title
;
Structure prediction by ZEFSAII (Michael W. Deem and Ramdas Pophale) SiO2 
 PCOD9127013
Probable space group: C 2
;
_chemical_formula_sum "Si O2"
_cell_formula_units_Z 28
_cell_length_a 14.715563
_cell_length_b 14.627722
_cell_length_c 8.998728
_cell_angle_alpha 90.000000
_cell_angle_beta 134.287105
_cell_angle_gamma 90.000000
_cell_volume 1386.617492
_symmetry_space_group_name_H-M "C 2"
_symmetry_group_IT_number 5
_symmetry_cell_setting 'monoclinic'
loop_
_space_group_symop_operation_xyz
x,y,z
-x,y,-z
1/2+x,1/2+y,z
1/2-x,1/2+y,-z
loop_
_atom_site_type_symbol
_atom_site_label
_atom_site_fract_x
_atom_site_fract_y
_atom_site_fract_z
Si Si1 0.128978 0.565670 0.051955
Si Si2 0.876952 0.388745 0.452863
Si Si3 0.020358 0.988936 0.362180
Si Si4 0.259008 0.532238 0.900186
Si Si5 0.227326 0.400478 0.351710
Si Si6 0.345520 0.702079 0.803438
Si Si7 0.168795 0.176297 0.557048
O O1 0.194999 0.476695 0.196183
O O2 0.216294 0.648932 0.205631
O O3 0.148914 0.552469 0.897842
O O4 0.000000 0.574321 0.000000
O O5 0.774571 0.452248 0.254058
O O6 0.870197 0.407567 0.621488
O O7 0.867661 0.278491 0.438055
O O8 0.000000 0.413526 0.500000
O O9 0.070048 0.092434 0.447676
O O10 0.000000 0.945473 0.500000
O O11 0.134291 0.927862 0.424901
O O12 0.888752 0.999634 0.127640
O O13 0.290302 0.626586 0.850776
O O14 0.209682 0.304223 0.249404
O O15 0.304120 0.677395 0.588116
O O16 0.500000 0.703953 0.000000
#
# Coordination Sequence:
#
# PCOD9127013 Si02
#       7
#     4   4   4   4   4   4   4
#     4  11  23  42  64  93 134 173 213 270 325 385
#     4  11  25  42  65  96 131 174 219 268 315 392
#     4  11  20  43  65  98 129 170 212 271 320 386
#     4  12  24  39  73  98 124 173 225 262 322 385
#     4  10  23  41  65  92 137 166 213 270 330 367
#     4  11  23  40  66  99 125 172 222 265 315 396
#     4  10  22  43  66  91 133 170 213 269 326 375
#
# _framework density 20.193024000000001
#
# number of rings (size 3 to 8) (size 9 to 14) (size 15 to 20)
#    0.000    1.143    4.286    3.429    0.000    2.286 
#    5.143    0.714    0.000    0.000    0.000    0.000 
#    0.000    0.000    0.000    0.000    0.000    0.000 
#
# Total GULP energy -78014.905798 kJ/mol
# GULP energy per Si atom -5572.493271 kJ/mol
# Density = 2.014706 g / cm^3
# Si number density = 20.193024 Si / 1000 Ang^3
#
#
#
# Elastic Constant Matrix: (Units=GPa)
#
#
# Indices 1 2 3 4 5 6 
#
# 1 99.8175 47.1725 22.8092 0.0000 -7.9387 0.0000
# 2 47.1725 91.2240 38.1045 0.0000 -6.5403 0.0000
# 3 22.8092 38.1045 57.9690 0.0000 -14.9826 0.0000
# 4 0.0000 0.0000 0.0000 21.7898 0.0000 -6.3330
# 5 -7.9387 -6.5403 -14.9826 0.0000 21.6565 0.0000
# 6 0.0000 0.0000 0.0000 -6.3330 0.0000 9.8177
#
#
#
# Elastic Compliance Matrix: (Units=1/GPa)
#
#
# Indices 1 2 3 4 5 6 
#
# 1 0.013434 -0.006672 -0.000181 0.000000 0.002785 0.000000
# 2 -0.006672 0.018566 -0.010670 0.000000 -0.004220 0.000000
# 3 -0.000181 -0.010670 0.028599 0.000000 0.016497 0.000000
# 4 0.000000 0.000000 0.000000 0.056482 0.000000 0.036435
# 5 0.002785 -0.004220 0.016497 0.000000 0.057335 0.000000
# 6 0.000000 0.000000 0.000000 0.036435 0.000000 0.125360
#
#
# Mechanical properties :
#
#
# Convention : Reuss Voigt Hill
#
# Bulk Modulus (GPa) = 39.13120 51.68699 45.40909
# Shear Modulus (GPa) = 14.56288 20.04774 17.30531
#
# Velocity S-wave (km/s) = 2.68840 3.15430 2.93062
# Velocity P-wave (km/s) = 5.39048 6.23844 5.82990
#
# Compressibility (1/GPa) = 0.02555506
#
# Stress axis : x y z
#
# Youngs Moduli (GPa) = 74.43798 53.86146 34.96627
#
# Poissons Ratio (x) = 0.35935 0.00632
# Poissons Ratio (y) = 0.49663 0.37308
# Poissons Ratio (z) = 0.01345 0.57468
#
# Static dielectric constant tensor:
#      x y z
#    x 1.834690 0.000000 0.034840 
#    y 0.000000 1.705340 0.000000 
#    z 0.034840 0.000000 1.726460 
# 
# From -- ./inp_files/20559.got.cif
#   From: 2010.05.17/outbox.cif.g08.bks.cpg/sg5_11_cif.got.tgz:20559.got - 2010.06.03 18:56:24.
