data_PCOD9127847
_publ_section_title
;
Structure prediction by ZEFSAII (Michael W. Deem and Ramdas Pophale) SiO2 
 PCOD9127847
Probable space group: C 2
;
_chemical_formula_sum "Si O2"
_cell_formula_units_Z 28
_cell_length_a 8.077034
_cell_length_b 7.303744
_cell_length_c 23.140185
_cell_angle_alpha 90.000000
_cell_angle_beta 52.964369
_cell_angle_gamma 90.000000
_cell_volume 1089.705760
_symmetry_space_group_name_H-M "C 2"
_symmetry_group_IT_number 5
_symmetry_cell_setting 'monoclinic'
loop_
_space_group_symop_operation_xyz
x,y,z
-x,y,-z
1/2+x,1/2+y,z
1/2-x,1/2+y,-z
loop_
_atom_site_type_symbol
_atom_site_label
_atom_site_fract_x
_atom_site_fract_y
_atom_site_fract_z
Si Si1 0.842494 0.683520 0.626045
Si Si2 0.140195 0.737032 0.818487
Si Si3 0.800765 0.820736 0.309325
Si Si4 0.207521 0.056002 0.422680
Si Si5 0.279580 0.822884 0.224751
Si Si6 0.266361 0.682406 0.044456
Si Si7 0.809795 0.262176 0.909402
O O1 0.743709 0.485324 0.637229
O O2 0.727946 0.748741 0.708724
O O3 0.084029 0.635271 0.590557
O O4 0.800478 0.836993 0.586942
O O5 0.260662 0.854992 0.744710
O O6 0.151780 0.534384 0.788945
O O7 0.240232 0.713515 0.859977
O O8 0.906759 0.795026 0.884517
O O9 0.701182 0.646880 0.360628
O O10 0.046413 0.801076 0.252507
O O11 0.000000 0.107568 0.500000
O O12 0.442628 0.731977 0.146893
O O13 0.248890 0.475715 0.070644
O O14 0.500000 0.753174 0.000000
O O15 0.219468 0.672930 0.985867
#
# Coordination Sequence:
#
# PCOD9127847 Si02
#       7
#     4   4   4   4   4   4   4
#     4  11  26  46  80 110 157 203 261 320 391 476
#     4  11  23  42  68  97 142 189 257 314 385 458
#     4  11  25  45  78 106 153 200 254 320 386 466
#     4  11  28  50  77 119 161 204 265 318 402 475
#     4  10  23  43  66 103 140 189 252 310 382 453
#     4  11  24  41  61  93 139 186 246 305 387 452
#     4  11  25  41  67  96 140 187 245 313 381 458
#
# _framework density 25.695008000000001
#
# number of rings (size 3 to 8) (size 9 to 14) (size 15 to 20)
#    0.000    1.143    1.429    3.000    6.000    8.571 
#    0.000    0.000    0.000    0.000    0.000    0.000 
#    0.000    0.000    0.000    0.000    0.000    0.000 
#
# Total GULP energy -78368.206309 kJ/mol
# GULP energy per Si atom -5597.729022 kJ/mol
# Density = 2.563652 g / cm^3
# Si number density = 25.695008 Si / 1000 Ang^3
#
#
#
# Elastic Constant Matrix: (Units=GPa)
#
#
# Indices 1 2 3 4 5 6 
#
# 1 76.5890 1.6281 36.7799 0.0000 -14.4492 0.0000
# 2 1.6281 89.3494 21.4345 0.0000 -10.4364 0.0000
# 3 36.7799 21.4345 174.1716 0.0000 -22.5037 0.0000
# 4 0.0000 0.0000 0.0000 26.7683 0.0000 -1.8630
# 5 -14.4492 -10.4364 -22.5037 0.0000 20.4185 0.0000
# 6 0.0000 0.0000 0.0000 -1.8630 0.0000 22.6900
#
#
#
# Elastic Compliance Matrix: (Units=1/GPa)
#
#
# Indices 1 2 3 4 5 6 
#
# 1 0.015913 0.001364 -0.002313 0.000000 0.009410 0.000000
# 2 0.001364 0.012114 -0.000996 0.000000 0.006059 0.000000
# 3 -0.002313 -0.000996 0.007084 0.000000 0.005662 0.000000
# 4 0.000000 0.000000 0.000000 0.037572 0.000000 0.003085
# 5 0.009410 0.006059 0.005662 0.000000 0.064971 0.000000
# 6 0.000000 0.000000 0.000000 0.003085 0.000000 0.044326
#
#
# Mechanical properties :
#
#
# Convention : Reuss Voigt Hill
#
# Bulk Modulus (GPa) = 32.02871 51.08834 41.55852
# Shear Modulus (GPa) = 25.47427 32.65985 29.06706
#
# Velocity S-wave (km/s) = 3.15208 3.56906 3.36703
# Velocity P-wave (km/s) = 5.07341 6.07536 5.59685
#
# Compressibility (1/GPa) = 0.03122199
#
# Stress axis : x y z
#
# Youngs Moduli (GPa) = 62.83982 82.55032 141.16525
#
# Poissons Ratio (x) = -0.11259 0.32645
# Poissons Ratio (y) = -0.08571 0.14059
# Poissons Ratio (z) = 0.14532 0.08222
#
# Static dielectric constant tensor:
#      x y z
#    x 2.127940 0.000000 -0.011410 
#    y 0.000000 2.057760 0.000000 
#    z -0.011410 0.000000 1.948390 
# 
# From -- ./inp_files/70143.got.cif
#   From: 2010.05.17/outbox.cif.g08.bks.cpg/sg5_36_cif.got.tgz:70143.got - 2010.06.03 18:56:24.
