data_PCOD9127018
_publ_section_title
;
Structure prediction by ZEFSAII (Michael W. Deem and Ramdas Pophale) SiO2 
 PCOD9127018
Probable space group: C 2
;
_chemical_formula_sum "Si O2"
_cell_formula_units_Z 32
_cell_length_a 13.004307
_cell_length_b 13.983475
_cell_length_c 18.460504
_cell_angle_alpha 90.000000
_cell_angle_beta 151.132337
_cell_angle_gamma 90.000000
_cell_volume 1620.699616
_symmetry_space_group_name_H-M "C 2"
_symmetry_group_IT_number 5
_symmetry_cell_setting 'monoclinic'
loop_
_space_group_symop_operation_xyz
x,y,z
-x,y,-z
1/2+x,1/2+y,z
1/2-x,1/2+y,-z
loop_
_atom_site_type_symbol
_atom_site_label
_atom_site_fract_x
_atom_site_fract_y
_atom_site_fract_z
Si Si1 0.823025 0.325950 0.827384
Si Si2 0.401096 0.519809 0.153385
Si Si3 0.245038 0.643548 0.346804
Si Si4 0.597910 0.335568 0.336800
Si Si5 0.276993 0.152108 0.833781
Si Si6 0.563144 0.812707 0.341055
Si Si7 0.000269 0.465582 0.813215
Si Si8 0.256744 0.177429 0.344863
O O1 0.596790 0.332573 0.726951
O O2 0.805508 0.231899 0.767074
O O3 0.882738 0.410432 0.807437
O O4 0.000000 0.322673 0.000000
O O5 0.519547 0.418869 0.235493
O O6 0.293868 0.560379 0.161904
O O7 0.582180 0.596087 0.247171
O O8 0.214297 0.510196 0.979097
O O9 0.500000 0.649213 0.500000
O O10 0.145759 0.735426 0.325497
O O11 0.181466 0.633271 0.224040
O O12 0.151505 0.544129 0.318706
O O13 0.809219 0.358135 0.513557
O O14 0.098671 0.232873 0.730745
O O15 0.500000 0.189573 0.000000
O O16 0.452211 0.887396 0.219127
O O17 0.728236 0.754753 0.391883
O O18 0.500000 0.143506 0.500000
#
# Coordination Sequence:
#
# PCOD9127018 Si02
#       8
#     4   4   4   4   4   4   4   4
#     4  11  23  41  68  94 129 167 216 266 328 385
#     4  11  25  41  68  97 131 169 220 264 327 389
#     4  12  27  42  65  96 135 173 226 267 327 389
#     4  12  25  42  64  96 132 173 219 269 320 389
#     4  11  23  45  69  94 132 177 212 273 330 392
#     4  10  24  43  67  96 131 167 221 269 328 387
#     4  11  25  41  68 101 127 169 219 275 325 392
#     4  10  22  43  66  95 129 172 209 266 328 391
#
# _framework density 19.74456
#
# number of rings (size 3 to 8) (size 9 to 14) (size 15 to 20)
#    0.000    1.000    5.000    0.750    7.000    0.500 
#    0.000    0.000    0.000    0.000    0.000    0.000 
#    0.000    0.000    0.000    0.000    0.000    0.000 
#
# Total GULP energy -89316.161504 kJ/mol
# GULP energy per Si atom -5582.260094 kJ/mol
# Density = 1.969962 g / cm^3
# Si number density = 19.744560 Si / 1000 Ang^3
#
#
#
# Elastic Constant Matrix: (Units=GPa)
#
#
# Indices 1 2 3 4 5 6 
#
# 1 30.8760 19.4894 7.9854 0.0035 -0.8289 -0.0004
# 2 19.4894 84.3540 22.6195 0.0031 1.6497 0.0036
# 3 7.9854 22.6195 101.1069 0.0043 9.1937 0.0098
# 4 0.0035 0.0031 0.0043 20.8009 0.0006 4.0751
# 5 -0.8289 1.6497 9.1937 0.0006 22.4307 0.0034
# 6 -0.0004 0.0036 0.0098 4.0751 0.0034 3.8468
#
#
#
# Elastic Compliance Matrix: (Units=1/GPa)
#
#
# Indices 1 2 3 4 5 6 
#
# 1 0.038177 -0.008510 -0.001347 -0.000010 0.002589 0.000024
# 2 -0.008510 0.014510 -0.002543 0.000002 -0.000339 -0.000010
# 3 -0.001347 -0.002543 0.010962 0.000003 -0.004356 -0.000025
# 4 -0.000010 0.000002 0.000003 0.060665 0.000006 -0.064265
# 5 0.002589 -0.000339 -0.004356 0.000006 0.046488 -0.000036
# 6 0.000024 -0.000010 -0.000025 -0.064265 -0.000036 0.328032
#
#
# Mechanical properties :
#
#
# Convention : Reuss Voigt Hill
#
# Bulk Modulus (GPa) = 25.74084 35.16950 30.45517
# Shear Modulus (GPa) = 9.31824 20.49854 14.90839
#
# Velocity S-wave (km/s) = 2.17477 3.22559 2.75082
# Velocity P-wave (km/s) = 4.40130 5.63236 5.05445
#
# Compressibility (1/GPa) = 0.03884877
#
# Stress axis : x y z
#
# Youngs Moduli (GPa) = 26.19375 68.92020 91.22514
#
# Poissons Ratio (x) = 0.58651 0.12286
# Poissons Ratio (y) = 0.22291 0.23199
# Poissons Ratio (z) = 0.03528 0.17527
#
# Static dielectric constant tensor:
#      x y z
#    x 1.854800 0.000000 -0.203990 
#    y 0.000000 1.699800 0.000000 
#    z -0.203990 0.000000 1.981760 
# 
# From -- ./inp_files/60718.got.cif
#   From: 2010.05.17/outbox.cif.g08.bks.cpg/sg5_31_cif.got.tgz:60718.got - 2010.06.03 18:56:24.
