data_PCOD9127933
_publ_section_title
;
Structure prediction by ZEFSAII (Michael W. Deem and Ramdas Pophale) SiO2 
 PCOD9127933
Probable space group: C 2
;
_chemical_formula_sum "Si O2"
_cell_formula_units_Z 18
_cell_length_a 5.284303
_cell_length_b 23.046187
_cell_length_c 6.729828
_cell_angle_alpha 90.000000
_cell_angle_beta 86.399571
_cell_angle_gamma 90.000000
_cell_volume 817.961243
_symmetry_space_group_name_H-M "C 2"
_symmetry_group_IT_number 5
_symmetry_cell_setting 'monoclinic'
loop_
_space_group_symop_operation_xyz
x,y,z
-x,y,-z
1/2+x,1/2+y,z
1/2-x,1/2+y,-z
loop_
_atom_site_type_symbol
_atom_site_label
_atom_site_fract_x
_atom_site_fract_y
_atom_site_fract_z
Si Si1 0.754327 0.521500 0.873278
Si Si2 0.267125 0.199597 0.379163
Si Si3 0.757391 0.304281 0.877547
Si Si4 0.500000 0.087456 0.500000
Si Si5 0.255917 0.412500 0.374965
O O1 0.720398 0.453992 0.816578
O O2 0.819404 0.552658 0.659545
O O3 0.500000 0.541493 0.000000
O O4 0.000000 0.528328 0.000000
O O5 0.500000 0.224269 0.500000
O O6 0.254464 0.236859 0.181950
O O7 0.336267 0.131635 0.370196
O O8 0.000000 0.206493 0.500000
O O9 0.771263 0.345772 0.686960
O O10 0.500000 0.319899 0.000000
O O11 0.000000 0.315377 0.000000
O O12 0.500000 0.420760 0.500000
O O13 0.000000 0.429881 0.500000
#
# Coordination Sequence:
#
# PCOD9127933 Si02
#       5
#     4   4   4   2   4
#     4  12  27  46  74 109 143 190 244 295 359 425
#     4  10  23  44  67  92 137 185 237 275 357 415
#     4  12  24  42  68 106 142 174 238 298 351 428
#     4  10  28  48  74 100 154 188 248 290 356 422
#     4  12  24  44  75 100 144 188 230 293 369 425
#
# _framework density 22.005932999999999
#
# number of rings (size 3 to 8) (size 9 to 14) (size 15 to 20)
#    0.667    0.000    1.111    6.667    3.111    0.889 
#    0.000    0.000    0.000    0.000    0.000    0.000 
#    0.000    0.000    0.000    0.000    0.000    0.000 
#
# Total GULP energy -50303.731694 kJ/mol
# GULP energy per Si atom -5589.303522 kJ/mol
# Density = 2.195585 g / cm^3
# Si number density = 22.005933 Si / 1000 Ang^3
#
#
#
# Elastic Constant Matrix: (Units=GPa)
#
#
# Indices 1 2 3 4 5 6 
#
# 1 204.4912 22.7482 56.0401 0.0000 -10.2535 0.0000
# 2 22.7482 88.4965 31.8256 0.0000 -8.9427 0.0000
# 3 56.0401 31.8256 74.7306 0.0000 -22.9729 0.0000
# 4 0.0000 0.0000 0.0000 49.4125 0.0000 -14.7084
# 5 -10.2535 -8.9427 -22.9729 0.0000 44.0528 0.0000
# 6 0.0000 0.0000 0.0000 -14.7084 0.0000 188.4809
#
#
#
# Elastic Compliance Matrix: (Units=1/GPa)
#
#
# Indices 1 2 3 4 5 6 
#
# 1 0.006206 0.000106 -0.005059 0.000000 -0.001172 0.000000
# 2 0.000106 0.013349 -0.005863 0.000000 -0.000323 0.000000
# 3 -0.005059 -0.005863 0.022561 0.000000 0.009398 0.000000
# 4 0.000000 0.000000 0.000000 0.020719 0.000000 0.001617
# 5 -0.001172 -0.000323 0.009398 0.000000 0.027262 0.000000
# 6 0.000000 0.000000 0.000000 0.001617 0.000000 0.005432
#
#
# Mechanical properties :
#
#
# Convention : Reuss Voigt Hill
#
# Bulk Modulus (GPa) = 48.82361 65.43845 57.13103
# Shear Modulus (GPa) = 40.32555 73.52953 56.92754
#
# Velocity S-wave (km/s) = 4.28540 5.78671 5.09169
# Velocity P-wave (km/s) = 6.83527 8.62840 7.78364
#
# Compressibility (1/GPa) = 0.02048190
#
# Stress axis : x y z
#
# Youngs Moduli (GPa) = 161.13056 74.91367 44.32353
#
# Poissons Ratio (x) = -0.00792 0.22425
# Poissons Ratio (y) = -0.01703 0.25989
# Poissons Ratio (z) = 0.81522 0.43925
#
# Static dielectric constant tensor:
#      x y z
#    x 1.592360 0.000000 0.057110 
#    y 0.000000 1.794290 0.000000 
#    z 0.057110 0.000000 1.747500 
# 
# From -- ./inp_files/849.got.cif
#   From: 2010.05.17/outbox.cif.g08.bks.cpg/sg5_1_cif.got.tgz:849.got - 2010.06.03 18:56:24.
