data_PCOD9127399
_publ_section_title
;
Structure prediction by ZEFSAII (Michael W. Deem and Ramdas Pophale) SiO2 
 PCOD9127399
Probable space group: C 2
;
_chemical_formula_sum "Si O2"
_cell_formula_units_Z 14
_cell_length_a 7.100623
_cell_length_b 13.662655
_cell_length_c 7.270719
_cell_angle_alpha 90.000000
_cell_angle_beta 60.672324
_cell_angle_gamma 90.000000
_cell_volume 614.953265
_symmetry_space_group_name_H-M "C 2"
_symmetry_group_IT_number 5
_symmetry_cell_setting 'monoclinic'
loop_
_space_group_symop_operation_xyz
x,y,z
-x,y,-z
1/2+x,1/2+y,z
1/2-x,1/2+y,-z
loop_
_atom_site_type_symbol
_atom_site_label
_atom_site_fract_x
_atom_site_fract_y
_atom_site_fract_z
Si Si1 0.500000 0.672200 0.000000
Si Si2 0.818915 0.828719 0.829354
Si Si3 0.542316 0.530703 0.284655
Si Si4 0.767712 0.367969 0.699023
O O1 0.673426 0.743312 0.823253
O O2 0.384450 0.606330 0.902726
O O3 0.072844 0.803762 0.705450
O O4 0.747348 0.847387 0.076055
O O5 0.803445 0.936952 0.749453
O O6 0.500000 0.578876 0.500000
O O7 0.331875 0.476276 0.296887
O O8 0.000000 0.355224 0.500000
#
# Coordination Sequence:
#
# PCOD9127399 Si02
#       4
#     2   4   4   4
#     4  12  22  44  72 106 140 174 238 284 340 424
#     4   9  22  41  72  99 137 184 223 285 345 399
#     4  10  22  46  68 104 138 181 231 281 352 398
#     4   9  19  43  69  96 136 181 224 276 342 403
#
# _framework density 22.76596
#
# number of rings (size 3 to 8) (size 9 to 14) (size 15 to 20)
#    1.714    0.571    2.857    0.000    4.000    1.143 
#    0.000   12.857    0.000    0.000    0.000    0.000 
#    0.000    0.000    0.000    0.000    0.000    0.000 
#
# Total GULP energy -39003.942572 kJ/mol
# GULP energy per Si atom -5571.991796 kJ/mol
# Density = 2.271414 g / cm^3
# Si number density = 22.765960 Si / 1000 Ang^3
#
#
#
# Elastic Constant Matrix: (Units=GPa)
#
#
# Indices 1 2 3 4 5 6 
#
# 1 34.9764 19.3158 19.8980 0.0000 -17.9395 0.0000
# 2 19.3158 73.0578 22.7658 0.0000 1.3657 0.0000
# 3 19.8980 22.7658 95.8494 0.0000 -18.9675 0.0000
# 4 0.0000 0.0000 0.0000 15.1030 0.0000 -12.9537
# 5 -17.9395 1.3657 -18.9675 0.0000 51.8201 0.0000
# 6 0.0000 0.0000 0.0000 -12.9537 0.0000 14.0053
#
#
#
# Elastic Compliance Matrix: (Units=1/GPa)
#
#
# Indices 1 2 3 4 5 6 
#
# 1 0.043864 -0.010682 -0.003782 0.000000 0.014082 0.000000
# 2 -0.010682 0.017541 -0.002989 0.000000 -0.005254 0.000000
# 3 -0.003782 -0.002989 0.012597 0.000000 0.003380 0.000000
# 4 0.000000 0.000000 0.000000 0.320309 0.000000 0.296258
# 5 0.014082 -0.005254 0.003380 0.000000 0.025548 0.000000
# 6 0.000000 0.000000 0.000000 0.296258 0.000000 0.345416
#
#
# Mechanical properties :
#
#
# Convention : Reuss Voigt Hill
#
# Bulk Modulus (GPa) = 25.57720 36.42698 31.00209
# Shear Modulus (GPa) = 6.14845 25.64594 15.89719
#
# Velocity S-wave (km/s) = 1.64517 3.35998 2.64538
# Velocity P-wave (km/s) = 3.85591 5.57566 4.79354
#
# Compressibility (1/GPa) = 0.03909732
#
# Stress axis : x y z
#
# Youngs Moduli (GPa) = 22.79750 57.00769 79.38433
#
# Poissons Ratio (x) = 0.60896 0.30025
# Poissons Ratio (y) = 0.24352 0.23725
# Poissons Ratio (z) = 0.08623 0.17037
#
# Static dielectric constant tensor:
#      x y z
#    x 1.868040 0.000000 -0.016630 
#    y 0.000000 1.877570 0.000000 
#    z -0.016630 0.000000 1.847860 
# 
# From -- ./inp_files/14440.got.cif
#   From: 2010.05.17/outbox.cif.g08.bks.cpg/sg5_8_cif.got.tgz:14440.got - 2010.06.03 18:56:24.
