data_PCOD9127934
_publ_section_title
;
Structure prediction by ZEFSAII (Michael W. Deem and Ramdas Pophale) SiO2 
 PCOD9127934
Probable space group: C 2
;
_chemical_formula_sum "Si O2"
_cell_formula_units_Z 28
_cell_length_a 16.218637
_cell_length_b 7.788059
_cell_length_c 9.524629
_cell_angle_alpha 90.000000
_cell_angle_beta 73.100750
_cell_angle_gamma 90.000000
_cell_volume 1151.120304
_symmetry_space_group_name_H-M "C 2"
_symmetry_group_IT_number 5
_symmetry_cell_setting 'monoclinic'
loop_
_space_group_symop_operation_xyz
x,y,z
-x,y,-z
1/2+x,1/2+y,z
1/2-x,1/2+y,-z
loop_
_atom_site_type_symbol
_atom_site_label
_atom_site_fract_x
_atom_site_fract_y
_atom_site_fract_z
Si Si1 0.435675 0.802700 0.657325
Si Si2 0.906082 0.515459 0.115799
Si Si3 0.089933 0.194735 0.745817
Si Si4 0.514243 0.325635 0.824949
Si Si5 0.253061 0.344787 0.534023
Si Si6 0.249576 0.675895 0.728878
Si Si7 0.914057 0.707357 0.629089
O O1 0.500000 0.742382 0.500000
O O2 0.499521 0.786026 0.755549
O O3 0.348842 0.695645 0.722631
O O4 0.412822 0.001533 0.645063
O O5 0.879497 0.316090 0.141266
O O6 0.818961 0.621220 0.116975
O O7 0.931840 0.649731 0.229664
O O8 0.000000 0.512525 0.000000
O O9 0.163352 0.240876 0.597682
O O10 0.065146 0.997997 0.763749
O O11 0.429488 0.298736 0.772076
O O12 0.500000 0.341243 0.000000
O O13 0.238057 0.524182 0.619741
O O14 0.267853 0.343627 0.359479
O O15 0.331280 0.265190 0.583373
O O16 0.000000 0.755506 0.500000
#
# Coordination Sequence:
#
# PCOD9127934 Si02
#       7
#     4   4   4   4   4   4   4
#     4  11  22  40  65 105 147 177 227 290 365 419
#     4  10  23  44  67  93 134 183 234 283 338 414
#     4  11  23  42  70 100 135 185 225 292 348 421
#     4  11  24  43  73  97 135 186 238 277 355 418
#     4  11  24  37  66 105 140 173 234 283 366 419
#     4  11  23  38  66 104 139 186 224 295 361 418
#     4  11  24  41  68 105 139 184 229 293 354 421
#
# _framework density 24.324128999999999
#
# number of rings (size 3 to 8) (size 9 to 14) (size 15 to 20)
#    0.000    1.143    2.857    3.000   10.000    1.143 
#    0.000    0.000   37.714    0.000    0.000    0.000 
#    0.000    0.000    0.000    0.000    0.000    0.000 
#
# Total GULP energy -78011.369832 kJ/mol
# GULP energy per Si atom -5572.240702 kJ/mol
# Density = 2.426877 g / cm^3
# Si number density = 24.324129 Si / 1000 Ang^3
#
#
#
# Elastic Constant Matrix: (Units=GPa)
#
#
# Indices 1 2 3 4 5 6 
#
# 1 174.0502 22.9916 41.5564 0.0000 -20.6640 0.0000
# 2 22.9916 101.8141 6.8279 0.0000 -14.8323 0.0000
# 3 41.5564 6.8279 72.1941 0.0000 -23.8551 0.0000
# 4 0.0000 0.0000 0.0000 26.2383 0.0000 -11.2935
# 5 -20.6640 -14.8323 -23.8551 0.0000 42.7428 0.0000
# 6 0.0000 0.0000 0.0000 -11.2935 0.0000 44.0081
#
#
#
# Elastic Compliance Matrix: (Units=1/GPa)
#
#
# Indices 1 2 3 4 5 6 
#
# 1 0.006853 -0.001175 -0.003524 0.000000 0.000939 0.000000
# 2 -0.001175 0.010550 0.000859 0.000000 0.003572 0.000000
# 3 -0.003524 0.000859 0.018801 0.000000 0.009088 0.000000
# 4 0.000000 0.000000 0.000000 0.042845 0.000000 0.010995
# 5 0.000939 0.003572 0.009088 0.000000 0.030161 0.000000
# 6 0.000000 0.000000 0.000000 0.010995 0.000000 0.025545
#
#
# Mechanical properties :
#
#
# Convention : Reuss Voigt Hill
#
# Bulk Modulus (GPa) = 35.05571 54.53448 44.79509
# Shear Modulus (GPa) = 32.90711 41.04332 36.97522
#
# Velocity S-wave (km/s) = 3.68211 4.11219 3.90308
# Velocity P-wave (km/s) = 5.70267 6.70935 6.22639
#
# Compressibility (1/GPa) = 0.02852602
#
# Stress axis : x y z
#
# Youngs Moduli (GPa) = 145.91281 94.78775 53.18751
#
# Poissons Ratio (x) = 0.11133 0.18741
# Poissons Ratio (y) = 0.17138 -0.04567
# Poissons Ratio (z) = 0.51413 -0.08140
#
# Static dielectric constant tensor:
#      x y z
#    x 1.977910 0.000000 -0.036840 
#    y 0.000000 2.034520 0.000000 
#    z -0.036840 0.000000 2.111700 
# 
# From -- ./inp_files/41713.got.cif
#   From: 2010.05.17/outbox.cif.g08.bks.cpg/sg5_21_cif.got.tgz:41713.got - 2010.06.03 18:56:24.
