data_PCOD9127202
_publ_section_title
;
Structure prediction by ZEFSAII (Michael W. Deem and Ramdas Pophale) SiO2 
 PCOD9127202
Probable space group: C 2
;
_chemical_formula_sum "Si O2"
_cell_formula_units_Z 32
_cell_length_a 12.550285
_cell_length_b 12.283261
_cell_length_c 15.757644
_cell_angle_alpha 90.000000
_cell_angle_beta 35.868984
_cell_angle_gamma 90.000000
_cell_volume 1423.334846
_symmetry_space_group_name_H-M "C 2"
_symmetry_group_IT_number 5
_symmetry_cell_setting 'monoclinic'
loop_
_space_group_symop_operation_xyz
x,y,z
-x,y,-z
1/2+x,1/2+y,z
1/2-x,1/2+y,-z
loop_
_atom_site_type_symbol
_atom_site_label
_atom_site_fract_x
_atom_site_fract_y
_atom_site_fract_z
Si Si1 0.960335 0.323100 0.126599
Si Si2 0.819548 0.201662 0.578153
Si Si3 0.154722 0.458278 0.212146
Si Si4 0.656928 0.404259 0.063772
Si Si5 0.259934 0.964531 0.385689
Si Si6 0.035216 0.833378 0.654402
Si Si7 0.659126 0.157477 0.325991
Si Si8 0.632341 0.260816 0.851638
O O1 0.833058 0.420428 0.247529
O O2 0.848799 0.215674 0.227578
O O3 0.000000 0.326741 0.000000
O O4 0.158759 0.334731 0.040679
O O5 0.707636 0.281233 0.591453
O O6 0.707134 0.179309 0.735779
O O7 0.000000 0.253509 0.500000
O O8 0.835747 0.080441 0.534503
O O9 0.190521 0.538718 0.266902
O O10 0.220568 0.337451 0.197139
O O11 0.943711 0.462977 0.323686
O O12 0.270229 0.491144 0.052742
O O13 0.569066 0.415522 0.214243
O O14 0.499109 0.342355 0.114843
O O15 0.112967 0.882630 0.518460
O O16 0.909074 0.733122 0.708207
O O17 0.500000 0.154696 0.500000
O O18 0.500000 0.200098 0.000000
#
# Coordination Sequence:
#
# PCOD9127202 Si02
#       8
#     4   4   4   4   4   4   4   4
#     4  11  23  39  63  94 132 177 216 278 336 394
#     4  11  24  40  65  95 127 175 217 269 328 396
#     4  10  22  44  68  99 127 170 224 273 338 395
#     4   9  21  41  66  92 130 176 210 274 336 387
#     4  11  24  41  67  94 134 171 226 275 331 408
#     4  11  22  44  65  97 135 172 221 280 335 397
#     4  12  24  41  68 104 133 174 223 285 336 402
#     4   9  20  43  66  91 129 170 210 274 321 393
#
# _framework density 22.482410999999999
#
# number of rings (size 3 to 8) (size 9 to 14) (size 15 to 20)
#    0.000    1.500    3.750    0.750    1.750    4.500 
#    0.000    2.500    0.000    0.000    0.000    0.000 
#    0.000    0.000    0.000    0.000    0.000    0.000 
#
# Total GULP energy -89159.797684 kJ/mol
# GULP energy per Si atom -5572.487355 kJ/mol
# Density = 2.243124 g / cm^3
# Si number density = 22.482411 Si / 1000 Ang^3
#
#
#
# Elastic Constant Matrix: (Units=GPa)
#
#
# Indices 1 2 3 4 5 6 
#
# 1 73.6956 -6.2333 15.8882 -0.0001 -9.9705 0.0000
# 2 -6.2333 39.5957 10.7660 -0.0001 4.7584 0.0001
# 3 15.8882 10.7660 109.1867 -0.0003 23.3743 0.0002
# 4 -0.0001 -0.0001 -0.0003 20.7969 0.0002 11.7829
# 5 -9.9705 4.7584 23.3743 0.0002 44.9097 -0.0001
# 6 0.0000 0.0001 0.0002 11.7829 -0.0001 8.7979
#
#
#
# Elastic Compliance Matrix: (Units=1/GPa)
#
#
# Indices 1 2 3 4 5 6 
#
# 1 0.015236 0.002770 -0.003547 0.000000 0.004935 0.000000
# 2 0.002770 0.026556 -0.002871 0.000001 -0.000705 -0.000002
# 3 -0.003547 -0.002871 0.011323 0.000001 -0.006376 -0.000002
# 4 0.000000 0.000001 0.000001 0.199358 -0.000002 -0.266999
# 5 0.004935 -0.000705 -0.006376 -0.000002 0.026756 0.000003
# 6 0.000000 -0.000002 -0.000002 -0.266999 0.000003 0.471252
#
#
# Mechanical properties :
#
#
# Convention : Reuss Voigt Hill
#
# Bulk Modulus (GPa) = 21.82447 29.25776 25.54112
# Shear Modulus (GPa) = 6.46788 28.37137 17.41963
#
# Velocity S-wave (km/s) = 1.69797 3.55623 2.78656
# Velocity P-wave (km/s) = 3.68410 5.46847 4.66245
#
# Compressibility (1/GPa) = 0.04582013
#
# Stress axis : x y z
#
# Youngs Moduli (GPa) = 65.63443 37.65556 88.31728
#
# Poissons Ratio (x) = -0.10430 0.31323
# Poissons Ratio (y) = -0.18179 0.25353
# Poissons Ratio (z) = 0.23278 0.10810
#
# Static dielectric constant tensor:
#      x y z
#    x 1.864900 0.000000 0.024550 
#    y 0.000000 1.776840 0.000000 
#    z 0.024550 0.000000 1.927530 
# 
# From -- ./inp_files/61704.got.cif
#   From: 2010.05.17/outbox.cif.g08.bks.cpg/sg5_31_cif.got.tgz:61704.got - 2010.06.03 18:56:24.
