data_PCOD9127087
_publ_section_title
;
Structure prediction by ZEFSAII (Michael W. Deem and Ramdas Pophale) SiO2 
 PCOD9127087
Probable space group: C 2
;
_chemical_formula_sum "Si O2"
_cell_formula_units_Z 18
_cell_length_a 14.276542
_cell_length_b 5.286064
_cell_length_c 8.784275
_cell_angle_alpha 90.000000
_cell_angle_beta 94.827760
_cell_angle_gamma 90.000000
_cell_volume 660.568467
_symmetry_space_group_name_H-M "C 2"
_symmetry_group_IT_number 5
_symmetry_cell_setting 'monoclinic'
loop_
_space_group_symop_operation_xyz
x,y,z
-x,y,-z
1/2+x,1/2+y,z
1/2-x,1/2+y,-z
loop_
_atom_site_type_symbol
_atom_site_label
_atom_site_fract_x
_atom_site_fract_y
_atom_site_fract_z
Si Si1 0.408672 0.434850 0.377688
Si Si2 0.126860 0.625127 0.904216
Si Si3 0.500000 0.714978 0.000000
Si Si4 0.170325 0.273204 0.175470
Si Si5 0.613612 0.927266 0.501723
O O1 0.500000 0.465937 0.500000
O O2 0.422863 0.346360 0.204976
O O3 0.357739 0.703491 0.379424
O O4 0.352910 0.206507 0.451187
O O5 0.047530 0.404167 0.881042
O O6 0.230197 0.651311 0.845719
O O7 0.158038 0.536862 0.079321
O O8 0.410094 0.592099 0.909521
O O9 0.144805 0.333031 0.342835
O O10 0.500000 0.956667 0.500000
#
# Coordination Sequence:
#
# PCOD9127087 Si02
#       5
#     4   4   2   4   4
#     4  10  22  43  71 107 152 209 263 320 405 477
#     4  10  23  44  70 112 153 206 264 331 396 482
#     4   8  20  44  68 102 164 198 258 334 400 464
#     4  10  23  44  70 112 153 206 264 331 396 482
#     4  10  22  43  71 107 152 209 263 320 405 477
#
# _framework density 27.249257
#
# number of rings (size 3 to 8) (size 9 to 14) (size 15 to 20)
#    1.333    0.889    0.000    2.667    0.000    5.333 
#    8.000    0.000    0.000    0.000    0.000    0.000 
#    0.000    0.000    0.000    0.000    0.000    0.000 
#
# Total GULP energy -50112.581472 kJ/mol
# GULP energy per Si atom -5568.064608 kJ/mol
# Density = 2.718724 g / cm^3
# Si number density = 27.249257 Si / 1000 Ang^3
#
#
#
# Elastic Constant Matrix: (Units=GPa)
#
#
# Indices 1 2 3 4 5 6 
#
# 1 183.5040 18.5475 34.3119 0.0000 1.5714 0.0000
# 2 18.5475 95.4929 17.2989 0.0000 -15.9286 0.0000
# 3 34.3119 17.2989 167.1251 0.0000 -25.0914 0.0000
# 4 0.0000 0.0000 0.0000 38.2933 0.0000 9.6828
# 5 1.5714 -15.9286 -25.0914 0.0000 47.7033 0.0000
# 6 0.0000 0.0000 0.0000 9.6828 0.0000 -5.8816
#
#
#
# Elastic Compliance Matrix: (Units=1/GPa)
#
#
# Indices 1 2 3 4 5 6 
#
# 1 0.005807 -0.001103 -0.001262 0.000000 -0.001223 0.000000
# 2 -0.001103 0.011363 -0.000407 0.000000 0.003617 0.000000
# 3 -0.001262 -0.000407 0.006808 0.000000 0.003487 0.000000
# 4 0.000000 0.000000 0.000000 0.018439 0.000000 0.030355
# 5 -0.001223 0.003617 0.003487 0.000000 0.024045 0.000000
# 6 0.000000 0.000000 0.000000 0.030355 0.000000 -0.120049
#
#
# Mechanical properties :
#
#
# Convention : Reuss Voigt Hill
#
# Bulk Modulus (GPa) = 54.24434 65.15984 59.70209
# Shear Modulus (GPa) = -119.33835 41.08725 -39.12555
#
# Velocity S-wave (km/s) = -6.62496 3.88729 -3.79336
# Velocity P-wave (km/s) = 6.21050 6.64172 1.66466
#
# Compressibility (1/GPa) = 0.01843510
#
# Stress axis : x y z
#
# Youngs Moduli (GPa) = 172.19388 88.00283 146.88228
#
# Poissons Ratio (x) = 0.09711 0.18533
# Poissons Ratio (y) = 0.19001 0.05973
# Poissons Ratio (z) = 0.21727 0.03579
#
# Static dielectric constant tensor:
#      x y z
#    x 2.250500 0.000000 0.010620 
#    y 0.000000 2.300280 0.000000 
#    z 0.010620 0.000000 2.175850 
# 
# From -- ./inp_files/25857.got.cif
#   From: 2010.05.17/outbox.cif.g08.bks.cpg/sg5_13_cif.got.tgz:25857.got - 2010.06.03 18:56:24.
