data_PCOD9127785
_publ_section_title
;
Structure prediction by ZEFSAII (Michael W. Deem and Ramdas Pophale) SiO2 
 PCOD9127785
Probable space group: C 2
;
_chemical_formula_sum "Si O2"
_cell_formula_units_Z 22
_cell_length_a 13.297222
_cell_length_b 5.054984
_cell_length_c 32.420247
_cell_angle_alpha 90.000000
_cell_angle_beta 157.195548
_cell_angle_gamma 90.000000
_cell_volume 844.629932
_symmetry_space_group_name_H-M "C 2"
_symmetry_group_IT_number 5
_symmetry_cell_setting 'monoclinic'
loop_
_space_group_symop_operation_xyz
x,y,z
-x,y,-z
1/2+x,1/2+y,z
1/2-x,1/2+y,-z
loop_
_atom_site_type_symbol
_atom_site_label
_atom_site_fract_x
_atom_site_fract_y
_atom_site_fract_z
Si Si1 0.429080 0.511160 0.411303
Si Si2 0.403754 0.140869 0.646402
Si Si3 0.332135 0.537636 0.192513
Si Si4 0.156253 0.548245 0.943903
Si Si5 0.500000 0.709558 0.000000
Si Si6 0.799964 0.536815 0.318040
O O1 0.661103 0.653984 0.523552
O O2 0.211703 0.441810 0.363546
O O3 0.330579 0.730624 0.341774
O O4 0.499881 0.234261 0.417265
O O5 0.482399 0.378048 0.705928
O O6 0.643035 0.071746 0.708117
O O7 0.151963 0.370845 0.092621
O O8 0.527968 0.649964 0.231757
O O9 0.124550 0.656767 0.146416
O O10 0.167359 0.241814 0.961116
O O11 0.275681 0.568563 0.943013
#
# Coordination Sequence:
#
# PCOD9127785 Si02
#       6
#     4   4   4   4   2   4
#     4  10  24  43  66  98 134 174 220 272 332 398
#     4  10  23  42  67  98 135 175 222 273 329 397
#     4  10  25  43  69 103 134 178 230 276 332 402
#     4  10  24  45  69  96 130 175 226 279 335 395
#     4  10  24  48  70  96 140 180 222 282 340 392
#     4  11  24  43  68  97 133 175 219 274 336 395
#
# _framework density 26.046907999999998
#
# number of rings (size 3 to 8) (size 9 to 14) (size 15 to 20)
#    0.000    1.818    0.000    1.091    0.000   29.091 
#    0.000    0.000    0.000    0.000    0.000    0.000 
#    0.000    0.000    0.000    0.000    0.000    0.000 
#
# Total GULP energy -61274.495891 kJ/mol
# GULP energy per Si atom -5570.408717 kJ/mol
# Density = 2.598762 g / cm^3
# Si number density = 26.046908 Si / 1000 Ang^3
#
#
#
# Elastic Constant Matrix: (Units=GPa)
#
#
# Indices 1 2 3 4 5 6 
#
# 1 259.1667 38.0220 27.8158 -0.0031 47.2271 0.0048
# 2 38.0220 83.7579 25.0106 -0.0037 -23.1300 0.0332
# 3 27.8158 25.0106 68.0571 0.0021 10.9362 0.0064
# 4 -0.0031 -0.0037 0.0021 34.2839 -0.0042 -6.9437
# 5 47.2271 -23.1300 10.9362 -0.0042 41.3877 0.0014
# 6 0.0048 0.0332 0.0064 -6.9437 0.0014 39.9943
#
#
#
# Elastic Compliance Matrix: (Units=1/GPa)
#
#
# Indices 1 2 3 4 5 6 
#
# 1 0.006972 -0.007112 0.001756 -0.000001 -0.012394 0.000005
# 2 -0.007112 0.025122 -0.010324 0.000002 0.024883 -0.000019
# 3 0.001756 -0.010324 0.019862 -0.000003 -0.013021 0.000005
# 4 -0.000001 0.000002 -0.000003 0.030231 0.000005 0.005249
# 5 -0.012394 0.024883 -0.013021 0.000005 0.055652 -0.000018
# 6 0.000005 -0.000019 0.000005 0.005249 -0.000018 0.025915
#
#
# Mechanical properties :
#
#
# Convention : Reuss Voigt Hill
#
# Bulk Modulus (GPa) = 48.55302 65.85316 57.20309
# Shear Modulus (GPa) = 24.75491 44.47538 34.61515
#
# Velocity S-wave (km/s) = 3.08620 4.13669 3.64944
# Velocity P-wave (km/s) = 5.60183 6.93928 6.30612
#
# Compressibility (1/GPa) = 0.02059604
#
# Stress axis : x y z
#
# Youngs Moduli (GPa) = 143.43009 39.80572 50.34633
#
# Poissons Ratio (x) = 0.28310 -0.08839
# Poissons Ratio (y) = 1.02007 0.51977
# Poissons Ratio (z) = -0.25182 0.41095
#
# Static dielectric constant tensor:
#      x y z
#    x 2.040360 0.000010 0.127390 
#    y 0.000010 2.085110 0.000010 
#    z 0.127390 0.000010 2.059850 
# 
# From -- ./inp_files/71650.got.cif
#   From: 2010.05.17/outbox.cif.g08.bks.cpg/sg5_36_cif.got.tgz:71650.got - 2010.06.03 18:56:24.
