data_PCOD9127229
_publ_section_title
;
Structure prediction by ZEFSAII (Michael W. Deem and Ramdas Pophale) SiO2 
 PCOD9127229
Probable space group: C 2
;
_chemical_formula_sum "Si O2"
_cell_formula_units_Z 22
_cell_length_a 18.321536
_cell_length_b 7.485133
_cell_length_c 10.048817
_cell_angle_alpha 90.000000
_cell_angle_beta 36.907497
_cell_angle_gamma 90.000000
_cell_volume 827.574933
_symmetry_space_group_name_H-M "C 2"
_symmetry_group_IT_number 5
_symmetry_cell_setting 'monoclinic'
loop_
_space_group_symop_operation_xyz
x,y,z
-x,y,-z
1/2+x,1/2+y,z
1/2-x,1/2+y,-z
loop_
_atom_site_type_symbol
_atom_site_label
_atom_site_fract_x
_atom_site_fract_y
_atom_site_fract_z
Si Si1 0.391372 0.751350 0.513245
Si Si2 0.858144 0.357886 0.844374
Si Si3 0.601757 0.246644 0.129324
Si Si4 0.500000 0.217261 0.000000
Si Si5 0.346760 0.387459 0.540401
Si Si6 0.783580 0.551276 0.496834
O O1 0.330293 0.566342 0.650403
O O2 0.621493 0.883134 0.342563
O O3 0.328344 0.865695 0.492751
O O4 0.534323 0.719164 0.276020
O O5 0.892464 0.532528 0.875157
O O6 0.717554 0.305258 0.048232
O O7 0.579280 0.303820 0.006743
O O8 0.478127 0.310652 0.376569
O O9 0.394398 0.112100 0.236709
O O10 0.333248 0.495475 0.418729
O O11 0.266673 0.210877 0.629220
#
# Coordination Sequence:
#
# PCOD9127229 Si02
#       6
#     4   4   4   2   4   4
#     4  11  23  45  68 102 140 191 226 297 344 427
#     4  11  24  46  69 100 151 179 242 289 354 418
#     4  11  24  45  73 105 142 191 235 292 353 425
#     4  10  22  44  70  98 146 178 234 298 342 414
#     4  11  22  42  72  98 143 182 235 284 357 408
#     4  11  22  43  69 102 140 184 238 287 350 421
#
# _framework density 26.583694000000001
#
# number of rings (size 3 to 8) (size 9 to 14) (size 15 to 20)
#    0.000    1.091    5.455    2.182    2.545    0.000 
#   13.091    3.636    0.000    0.000    0.000    0.000 
#    0.000    0.000    0.000    0.000    0.000    0.000 
#
# Total GULP energy -61326.203157 kJ/mol
# GULP energy per Si atom -5575.109378 kJ/mol
# Density = 2.652319 g / cm^3
# Si number density = 26.583694 Si / 1000 Ang^3
#
#
#
# Elastic Constant Matrix: (Units=GPa)
#
#
# Indices 1 2 3 4 5 6 
#
# 1 93.7601 17.8257 22.9261 0.0000 -22.2015 0.0000
# 2 17.8257 133.1357 15.7272 -0.0009 -15.6547 0.0001
# 3 22.9261 15.7272 96.9450 -0.0003 -26.7118 0.0000
# 4 0.0000 -0.0009 -0.0003 24.2094 0.0001 -14.9273
# 5 -22.2015 -15.6547 -26.7118 0.0001 44.9323 0.0001
# 6 0.0000 0.0001 0.0000 -14.9273 0.0001 49.6469
#
#
#
# Elastic Compliance Matrix: (Units=1/GPa)
#
#
# Indices 1 2 3 4 5 6 
#
# 1 0.012355 -0.000905 -0.001411 0.000000 0.004950 0.000000
# 2 -0.000905 0.007930 -0.000519 0.000000 0.002007 0.000000
# 3 -0.001411 -0.000519 0.012546 0.000000 0.006581 0.000000
# 4 0.000000 0.000000 0.000000 0.050707 0.000000 0.015246
# 5 0.004950 0.002007 0.006581 0.000000 0.029313 0.000000
# 6 0.000000 0.000000 0.000000 0.015246 0.000000 0.024726
#
#
# Mechanical properties :
#
#
# Convention : Reuss Voigt Hill
#
# Bulk Modulus (GPa) = 36.81975 48.53323 42.67649
# Shear Modulus (GPa) = 32.82971 41.58183 37.20577
#
# Velocity S-wave (km/s) = 3.51801 3.95927 3.74514
# Velocity P-wave (km/s) = 5.51202 6.26079 5.89830
#
# Compressibility (1/GPa) = 0.02715934
#
# Stress axis : x y z
#
# Youngs Moduli (GPa) = 80.93979 126.10870 79.70540
#
# Poissons Ratio (x) = 0.11419 0.11245
# Poissons Ratio (y) = 0.07329 0.04140
# Poissons Ratio (z) = 0.11419 0.06550
#
# Static dielectric constant tensor:
#      x y z
#    x 2.167830 0.000000 -0.001420 
#    y 0.000000 2.102190 0.000000 
#    z -0.001420 0.000000 2.250140 
# 
# From -- ./inp_files/55548.got.cif
#   From: 2010.05.17/outbox.cif.g08.bks.cpg/sg5_28_cif.got.tgz:55548.got - 2010.06.03 18:56:24.
