data_PCOD9127277
_publ_section_title
;
Structure prediction by ZEFSAII (Michael W. Deem and Ramdas Pophale) SiO2 
 PCOD9127277
Probable space group: C 2
;
_chemical_formula_sum "Si O2"
_cell_formula_units_Z 14
_cell_length_a 12.699885
_cell_length_b 8.862578
_cell_length_c 10.001010
_cell_angle_alpha 90.000000
_cell_angle_beta 35.611731
_cell_angle_gamma 90.000000
_cell_volume 655.454624
_symmetry_space_group_name_H-M "C 2"
_symmetry_group_IT_number 5
_symmetry_cell_setting 'monoclinic'
loop_
_space_group_symop_operation_xyz
x,y,z
-x,y,-z
1/2+x,1/2+y,z
1/2-x,1/2+y,-z
loop_
_atom_site_type_symbol
_atom_site_label
_atom_site_fract_x
_atom_site_fract_y
_atom_site_fract_z
Si Si1 0.869803 0.790550 0.413952
Si Si2 0.500000 0.524198 0.500000
Si Si3 0.564619 0.960337 0.582137
Si Si4 0.630159 0.109304 0.990852
O O1 0.908340 0.916097 0.484174
O O2 0.703475 0.838159 0.493949
O O3 0.839437 0.626394 0.511629
O O4 0.046148 0.761079 0.140285
O O5 0.336579 0.614626 0.735540
O O6 0.500000 0.934181 0.500000
O O7 0.406672 0.985784 0.855020
O O8 0.500000 0.070916 0.000000
#
# Coordination Sequence:
#
# PCOD9127277 Si02
#       4
#     4   2   4   4
#     4  10  22  44  74 110 146 195 244 303 376 431
#     4  12  20  48  74 104 156 192 238 320 360 440
#     4  10  22  47  74 113 147 188 254 302 371 443
#     4  10  23  44  71 107 142 195 242 298 374 430
#
# _framework density 21.359221999999999
#
# number of rings (size 3 to 8) (size 9 to 14) (size 15 to 20)
#    1.714    0.000    4.286    0.000    0.000    2.286 
#   20.571    0.000    0.000    0.000    0.000    0.000 
#    0.000    0.000    0.000    0.000    0.000    0.000 
#
# Total GULP energy -39078.227288 kJ/mol
# GULP energy per Si atom -5582.603898 kJ/mol
# Density = 2.131061 g / cm^3
# Si number density = 21.359222 Si / 1000 Ang^3
#
#
#
# Elastic Constant Matrix: (Units=GPa)
#
#
# Indices 1 2 3 4 5 6 
#
# 1 159.8579 35.8790 40.0521 0.0000 18.4074 0.0000
# 2 35.8790 67.7439 35.8735 0.0000 -4.3243 0.0000
# 3 40.0521 35.8735 142.9486 0.0000 -6.9657 0.0000
# 4 0.0000 0.0000 0.0000 29.0760 0.0000 -3.8565
# 5 18.4074 -4.3243 -6.9657 0.0000 39.0716 0.0000
# 6 0.0000 0.0000 0.0000 -3.8565 0.0000 27.6757
#
#
#
# Elastic Compliance Matrix: (Units=1/GPa)
#
#
# Indices 1 2 3 4 5 6 
#
# 1 0.007980 -0.003703 -0.001523 0.000000 -0.004441 0.000000
# 2 -0.003703 0.018792 -0.003523 0.000000 0.003197 0.000000
# 3 -0.001523 -0.003523 0.008395 0.000000 0.001824 0.000000
# 4 0.000000 0.000000 0.000000 0.035040 0.000000 0.004883
# 5 -0.004441 0.003197 0.001824 0.000000 0.028365 0.000000
# 6 0.000000 0.000000 0.000000 0.004883 0.000000 0.036813
#
#
# Mechanical properties :
#
#
# Convention : Reuss Voigt Hill
#
# Bulk Modulus (GPa) = 56.59456 66.01775 61.30616
# Shear Modulus (GPa) = 31.49153 36.41438 33.95295
#
# Velocity S-wave (km/s) = 3.84393 4.13347 3.99132
# Velocity P-wave (km/s) = 6.80111 7.33186 7.07147
#
# Compressibility (1/GPa) = 0.01766954
#
# Stress axis : x y z
#
# Youngs Moduli (GPa) = 125.31935 53.21341 119.11720
#
# Poissons Ratio (x) = 0.19706 0.18139
# Poissons Ratio (y) = 0.46409 0.41960
# Poissons Ratio (z) = 0.19084 0.18745
#
# Static dielectric constant tensor:
#      x y z
#    x 1.739530 0.000000 0.012780 
#    y 0.000000 1.792990 0.000000 
#    z 0.012780 0.000000 1.779410 
# 
# From -- ./inp_files/4244.got.cif
#   From: 2010.05.17/outbox.cif.g08.bks.cpg/sg5_3_cif.got.tgz:4244.got - 2010.06.03 18:56:24.
