data_PCOD9127654
_publ_section_title
;
Structure prediction by ZEFSAII (Michael W. Deem and Ramdas Pophale) SiO2 
 PCOD9127654
Probable space group: C 2
;
_chemical_formula_sum "Si O2"
_cell_formula_units_Z 28
_cell_length_a 20.101921
_cell_length_b 6.715235
_cell_length_c 11.269605
_cell_angle_alpha 90.000000
_cell_angle_beta 107.800455
_cell_angle_gamma 90.000000
_cell_volume 1448.446093
_symmetry_space_group_name_H-M "C 2"
_symmetry_group_IT_number 5
_symmetry_cell_setting 'monoclinic'
loop_
_space_group_symop_operation_xyz
x,y,z
-x,y,-z
1/2+x,1/2+y,z
1/2-x,1/2+y,-z
loop_
_atom_site_type_symbol
_atom_site_label
_atom_site_fract_x
_atom_site_fract_y
_atom_site_fract_z
Si Si1 0.337974 0.077700 0.758932
Si Si2 0.906483 0.948596 0.070476
Si Si3 0.189880 0.634960 0.842519
Si Si4 0.328023 0.833402 0.967931
Si Si5 0.430394 0.418520 0.801147
Si Si6 0.215929 0.372842 0.648817
Si Si7 0.325545 0.687462 0.605842
O O1 0.399108 0.211420 0.736564
O O2 0.271986 0.225538 0.743957
O O3 0.366225 0.972419 0.893624
O O4 0.315285 0.901334 0.660780
O O5 0.862917 0.793824 0.127676
O O6 0.986856 0.937880 0.152872
O O7 0.905724 0.916437 0.926472
O O8 0.874124 0.169348 0.058441
O O9 0.264552 0.735796 0.861223
O O10 0.171661 0.505429 0.716821
O O11 0.204833 0.475440 0.952815
O O12 0.393363 0.590678 0.705094
O O13 0.263970 0.531574 0.603085
O O14 0.173601 0.236848 0.533320
#
# Coordination Sequence:
#
# PCOD9127654 Si02
#       7
#     4   4   4   4   4   4   4
#     4  11  20  38  64  92 127 160 204 265 314 371
#     4  11  23  40  60  92 129 166 203 257 317 380
#     4  12  23  36  61  98 130 159 202 260 325 375
#     4  12  21  37  63  94 129 159 197 261 329 373
#     4  10  23  41  60  90 128 167 213 253 310 381
#     4  11  23  37  63 100 124 162 212 264 315 369
#     4  11  21  39  63  94 125 163 214 261 309 368
#
# _framework density 19.331060000000001
#
# number of rings (size 3 to 8) (size 9 to 14) (size 15 to 20)
#    0.000    0.857    7.143    1.714    0.000    1.143 
#    0.000    0.000    0.000    5.143    0.000    0.000 
#    0.000    0.000    0.000    0.000    0.000    0.000 
#
# Total GULP energy -78065.325365 kJ/mol
# GULP energy per Si atom -5576.094669 kJ/mol
# Density = 1.928706 g / cm^3
# Si number density = 19.331060 Si / 1000 Ang^3
#
#
#
# Elastic Constant Matrix: (Units=GPa)
#
#
# Indices 1 2 3 4 5 6 
#
# 1 76.4440 41.1260 33.2115 0.0000 14.6396 0.0000
# 2 41.1260 118.1560 40.7130 0.0000 7.3548 0.0000
# 3 33.2115 40.7130 96.0173 0.0000 5.9257 0.0000
# 4 0.0000 0.0000 0.0000 41.5306 0.0000 -10.7167
# 5 14.6396 7.3548 5.9257 0.0000 20.6665 0.0000
# 6 0.0000 0.0000 0.0000 -10.7167 0.0000 14.1843
#
#
#
# Elastic Compliance Matrix: (Units=1/GPa)
#
#
# Indices 1 2 3 4 5 6 
#
# 1 0.019473 -0.004694 -0.004069 0.000000 -0.010957 0.000000
# 2 -0.004694 0.011158 -0.003123 0.000000 0.000250 0.000000
# 3 -0.004069 -0.003123 0.013132 0.000000 0.000228 0.000000
# 4 0.000000 0.000000 0.000000 0.029910 0.000000 0.022598
# 5 -0.010957 0.000250 0.000228 0.000000 0.055995 0.000000
# 6 0.000000 0.000000 0.000000 0.022598 0.000000 0.087574
#
#
# Mechanical properties :
#
#
# Convention : Reuss Voigt Hill
#
# Bulk Modulus (GPa) = 50.02153 57.85761 53.93957
# Shear Modulus (GPa) = 20.18764 26.98073 23.58419
#
# Velocity S-wave (km/s) = 3.23509 3.73999 3.49666
# Velocity P-wave (km/s) = 6.31560 6.97458 6.65326
#
# Compressibility (1/GPa) = 0.01999139
#
# Stress axis : x y z
#
# Youngs Moduli (GPa) = 51.35375 89.62477 76.14805
#
# Poissons Ratio (x) = 0.42067 0.30985
# Poissons Ratio (y) = 0.24104 0.23780
# Poissons Ratio (z) = 0.20896 0.27989
#
# Static dielectric constant tensor:
#      x y z
#    x 1.646020 0.000000 -0.022880 
#    y 0.000000 1.717100 0.000000 
#    z -0.022880 0.000000 1.724750 
# 
# From -- ./inp_files/45629.got.cif
#   From: 2010.05.17/outbox.cif.g08.bks.cpg/sg5_23_cif.got.tgz:45629.got - 2010.06.03 18:56:24.
