data_PCOD9127059
_publ_section_title
;
Structure prediction by ZEFSAII (Michael W. Deem and Ramdas Pophale) SiO2 
 PCOD9127059
Probable space group: C 2
;
_chemical_formula_sum "Si O2"
_cell_formula_units_Z 24
_cell_length_a 10.279220
_cell_length_b 7.523790
_cell_length_c 20.638180
_cell_angle_alpha 90.000000
_cell_angle_beta 40.904658
_cell_angle_gamma 90.000000
_cell_volume 1045.149440
_symmetry_space_group_name_H-M "C 2"
_symmetry_group_IT_number 5
_symmetry_cell_setting 'monoclinic'
loop_
_space_group_symop_operation_xyz
x,y,z
-x,y,-z
1/2+x,1/2+y,z
1/2-x,1/2+y,-z
loop_
_atom_site_type_symbol
_atom_site_label
_atom_site_fract_x
_atom_site_fract_y
_atom_site_fract_z
Si Si1 0.211035 0.859490 0.928888
Si Si2 0.868786 0.480985 0.733508
Si Si3 0.202247 0.467967 0.386857
Si Si4 0.017654 0.499666 0.059135
Si Si5 0.201561 0.898021 0.391346
Si Si6 0.643917 0.393857 0.265386
O O1 0.303844 0.875500 0.822281
O O2 0.860031 0.672827 0.011567
O O3 0.364404 0.933381 0.923159
O O4 0.000000 0.957887 0.000000
O O5 0.800121 0.416481 0.688453
O O6 0.801442 0.686119 0.764734
O O7 0.107397 0.472522 0.644505
O O8 0.205671 0.683076 0.390168
O O9 0.410405 0.408584 0.339099
O O10 0.000000 0.409725 0.500000
O O11 0.788711 0.511014 0.167009
O O12 0.000000 0.385046 0.000000
O O13 0.192168 0.949382 0.320149
O O14 0.000000 0.959079 0.500000
#
# Coordination Sequence:
#
# PCOD9127059 Si02
#       6
#     4   4   4   4   4   4
#     4  11  28  45  69  98 133 188 233 292 350 406
#     4  11  25  42  70 102 141 180 229 288 345 413
#     4  10  24  44  72 104 142 184 225 279 346 418
#     4  11  28  44  68 100 133 185 238 291 344 415
#     4  10  22  43  69 101 141 181 228 281 343 419
#     4  11  25  42  70 103 140 180 233 283 344 419
#
# _framework density 22.963224
#
# number of rings (size 3 to 8) (size 9 to 14) (size 15 to 20)
#    0.000    1.333    1.667    1.000   11.667    3.333 
#    0.000    0.000    0.000    0.000    0.000    0.000 
#    0.000    0.000    0.000    0.000    0.000    0.000 
#
# Total GULP energy -66994.617238 kJ/mol
# GULP energy per Si atom -5582.884770 kJ/mol
# Density = 2.291096 g / cm^3
# Si number density = 22.963224 Si / 1000 Ang^3
#
#
#
# Elastic Constant Matrix: (Units=GPa)
#
#
# Indices 1 2 3 4 5 6 
#
# 1 96.5073 0.2711 -21.0949 0.0000 -1.6851 0.0000
# 2 0.2711 80.0547 21.0416 0.0000 11.1045 0.0000
# 3 -21.0949 21.0416 85.0155 0.0000 -1.2014 0.0000
# 4 0.0000 0.0000 0.0000 24.3034 0.0000 -8.7180
# 5 -1.6851 11.1045 -1.2014 0.0000 48.5652 0.0000
# 6 0.0000 0.0000 0.0000 -8.7180 0.0000 1.6311
#
#
#
# Elastic Compliance Matrix: (Units=1/GPa)
#
#
# Indices 1 2 3 4 5 6 
#
# 1 0.011025 -0.000910 0.002970 0.000000 0.000664 0.000000
# 2 -0.000910 0.013931 -0.003721 0.000000 -0.003309 0.000000
# 3 0.002970 -0.003721 0.013439 0.000000 0.001286 0.000000
# 4 0.000000 0.000000 0.000000 -0.044855 0.000000 -0.239748
# 5 0.000664 -0.003309 0.001286 0.000000 0.021402 0.000000
# 6 0.000000 0.000000 0.000000 -0.239748 0.000000 -0.668351
#
#
# Mechanical properties :
#
#
# Convention : Reuss Voigt Hill
#
# Bulk Modulus (GPa) = 28.51078 29.11258 28.81168
# Shear Modulus (GPa) = -7.83213 32.32391 12.24589
#
# Velocity S-wave (km/s) = -1.84882 3.75592 2.31180
# Velocity P-wave (km/s) = 2.80808 5.61379 4.43847
#
# Compressibility (1/GPa) = 0.03507445
#
# Stress axis : x y z
#
# Youngs Moduli (GPa) = 90.70019 71.77983 74.41220
#
# Poissons Ratio (x) = 0.06533 -0.22103
# Poissons Ratio (y) = 0.08255 0.27686
# Poissons Ratio (z) = -0.26941 0.26707
#
# Static dielectric constant tensor:
#      x y z
#    x 1.827860 0.000000 0.016800 
#    y 0.000000 1.936510 0.000000 
#    z 0.016800 0.000000 1.868110 
# 
# From -- ./inp_files/64295.got.cif
#   From: 2010.05.17/outbox.cif.g08.bks.cpg/sg5_33_cif.got.tgz:64295.got - 2010.06.03 18:56:24.
