data_PCOD9127025
_publ_section_title
;
Structure prediction by ZEFSAII (Michael W. Deem and Ramdas Pophale) SiO2 
 PCOD9127025
Probable space group: C 2
;
_chemical_formula_sum "Si O2"
_cell_formula_units_Z 28
_cell_length_a 12.432398
_cell_length_b 8.677233
_cell_length_c 14.517146
_cell_angle_alpha 90.000000
_cell_angle_beta 128.141452
_cell_angle_gamma 90.000000
_cell_volume 1231.713592
_symmetry_space_group_name_H-M "C 2"
_symmetry_group_IT_number 5
_symmetry_cell_setting 'monoclinic'
loop_
_space_group_symop_operation_xyz
x,y,z
-x,y,-z
1/2+x,1/2+y,z
1/2-x,1/2+y,-z
loop_
_atom_site_type_symbol
_atom_site_label
_atom_site_fract_x
_atom_site_fract_y
_atom_site_fract_z
Si Si1 0.143859 0.854360 0.976872
Si Si2 0.836894 0.558518 0.419816
Si Si3 0.642616 0.528793 0.628816
Si Si4 0.851717 0.346613 0.256878
Si Si5 0.000000 0.116802 0.000000
Si Si6 0.000000 0.604935 0.000000
Si Si7 0.274262 0.855786 0.847813
Si Si8 0.828684 0.360768 0.594379
O O1 0.254822 0.843600 0.117162
O O2 0.041178 0.714375 0.938328
O O3 0.208659 0.842760 0.912572
O O4 0.064043 0.011124 0.954610
O O5 0.810903 0.485228 0.304843
O O6 0.814020 0.417415 0.480664
O O7 0.747677 0.703360 0.411574
O O8 0.000000 0.597521 0.500000
O O9 0.500000 0.523759 0.500000
O O10 0.655111 0.689190 0.688511
O O11 0.660326 0.390232 0.711924
O O12 0.762334 0.496138 0.619907
O O13 0.008531 0.355296 0.305895
O O14 0.880788 0.218401 0.892558
O O15 0.126426 0.502491 0.096146
#
# Coordination Sequence:
#
# PCOD9127025 Si02
#       8
#     4   4   4   4   2   2   4   4
#     4  11  24  45  71 107 138 183 236 302 363 422
#     4  10  22  43  66  98 137 189 244 291 346 425
#     4  12  26  48  71 106 147 193 242 291 355 437
#     4  11  25  43  70 103 143 182 242 298 357 428
#     4  10  26  44  72 106 140 180 244 294 362 430
#     4  10  22  48  70 104 138 180 234 294 368 426
#     4  11  25  45  73 102 146 183 234 301 356 430
#     4  11  24  44  69  97 141 191 234 292 356 413
#
# _framework density 22.732555999999999
#
# number of rings (size 3 to 8) (size 9 to 14) (size 15 to 20)
#    0.000    1.143    1.429    4.286    6.000    0.000 
#    7.714    0.000    0.000    0.000    0.000    0.000 
#    0.000    0.000    0.000    0.000    0.000    0.000 
#
# Total GULP energy -78350.784201 kJ/mol
# GULP energy per Si atom -5596.484586 kJ/mol
# Density = 2.268082 g / cm^3
# Si number density = 22.732556 Si / 1000 Ang^3
#
#
#
# Elastic Constant Matrix: (Units=GPa)
#
#
# Indices 1 2 3 4 5 6 
#
# 1 172.7749 72.0662 58.6652 0.0000 -5.4183 0.0000
# 2 72.0662 118.3759 38.1801 0.0000 15.9845 0.0000
# 3 58.6652 38.1801 89.8427 0.0000 -22.9289 0.0000
# 4 0.0000 0.0000 0.0000 36.5596 0.0000 -15.5380
# 5 -5.4183 15.9845 -22.9289 0.0000 20.0992 0.0000
# 6 0.0000 0.0000 0.0000 -15.5380 0.0000 197.2774
#
#
#
# Elastic Compliance Matrix: (Units=1/GPa)
#
#
# Indices 1 2 3 4 5 6 
#
# 1 0.008926 -0.004790 -0.003113 0.000000 0.002664 0.000000
# 2 -0.004790 0.020527 -0.014236 0.000000 -0.033857 0.000000
# 3 -0.003113 -0.014236 0.030879 0.000000 0.045709 0.000000
# 4 0.000000 0.000000 0.000000 0.028300 0.000000 0.002229
# 5 0.002664 -0.033857 0.045709 0.000000 0.129541 0.000000
# 6 0.000000 0.000000 0.000000 0.002229 0.000000 0.005245
#
#
# Mechanical properties :
#
#
# Convention : Reuss Voigt Hill
#
# Bulk Modulus (GPa) = 62.29189 79.86851 71.08020
# Shear Modulus (GPa) = 18.31182 64.92604 41.61893
#
# Velocity S-wave (km/s) = 2.84127 5.35003 4.28344
# Velocity P-wave (km/s) = 6.18266 8.56586 7.46992
#
# Compressibility (1/GPa) = 0.01605345
#
# Stress axis : x y z
#
# Youngs Moduli (GPa) = 112.02609 48.71601 32.38473
#
# Poissons Ratio (x) = 0.23335 0.10082
# Poissons Ratio (y) = 0.53660 0.46104
# Poissons Ratio (z) = 0.34877 0.69353
#
# Static dielectric constant tensor:
#      x y z
#    x 1.776490 0.000000 0.017700 
#    y 0.000000 1.890200 0.000000 
#    z 0.017700 0.000000 1.830920 
# 
# From -- ./inp_files/52527.got.cif
#   From: 2010.05.17/outbox.cif.g08.bks.cpg/sg5_27_cif.got.tgz:52527.got - 2010.06.03 18:56:24.
