data_PCOD9127884
_publ_section_title
;
Structure prediction by ZEFSAII (Michael W. Deem and Ramdas Pophale) SiO2 
 PCOD9127884
Probable space group: C 2
;
_chemical_formula_sum "Si O2"
_cell_formula_units_Z 28
_cell_length_a 15.592301
_cell_length_b 8.447154
_cell_length_c 11.170392
_cell_angle_alpha 90.000000
_cell_angle_beta 126.084966
_cell_angle_gamma 90.000000
_cell_volume 1188.989541
_symmetry_space_group_name_H-M "C 2"
_symmetry_group_IT_number 5
_symmetry_cell_setting 'monoclinic'
loop_
_space_group_symop_operation_xyz
x,y,z
-x,y,-z
1/2+x,1/2+y,z
1/2-x,1/2+y,-z
loop_
_atom_site_type_symbol
_atom_site_label
_atom_site_fract_x
_atom_site_fract_y
_atom_site_fract_z
Si Si1 0.167982 0.116790 0.504256
Si Si2 0.517988 0.848125 0.665625
Si Si3 0.115241 0.044422 0.865718
Si Si4 0.400267 0.167345 0.619471
Si Si5 0.231924 0.521491 0.809600
Si Si6 0.082458 0.925853 0.204520
Si Si7 0.350577 0.342354 0.340066
O O1 0.073662 0.234101 0.466026
O O2 0.275386 0.189199 0.543023
O O3 0.123429 0.019000 0.355798
O O4 0.195884 0.996352 0.632519
O O5 0.585161 0.720593 0.798179
O O6 0.614815 0.951637 0.691046
O O7 0.442903 0.989190 0.653541
O O8 0.103247 0.923228 0.743564
O O9 0.031249 0.008470 0.903146
O O10 0.229596 0.022807 0.021190
O O11 0.449120 0.252778 0.774892
O O12 0.414458 0.255134 0.502693
O O13 0.318589 0.428838 0.802578
O O14 0.228182 0.704062 0.765325
#
# Coordination Sequence:
#
# PCOD9127884 Si02
#       7
#     4   4   4   4   4   4   4
#     4  10  23  45  68 108 144 181 242 315 373 435
#     4  11  26  42  75 108 142 192 247 300 375 437
#     4  11  26  47  69 102 152 198 250 290 360 445
#     4  11  23  45  73 106 144 184 246 312 380 434
#     4  12  25  47  72 104 147 202 251 298 360 446
#     4  10  23  43  70 103 144 191 241 308 366 426
#     4  11  25  44  72 102 149 190 238 311 370 429
#
# _framework density 23.549408
#
# number of rings (size 3 to 8) (size 9 to 14) (size 15 to 20)
#    0.000    1.143    1.429    3.857    4.000   10.286 
#    0.000    0.000    3.143    0.000    0.000    0.000 
#    0.000    0.000    0.000    0.000    0.000    0.000 
#
# Total GULP energy -78006.958455 kJ/mol
# GULP energy per Si atom -5571.925604 kJ/mol
# Density = 2.349581 g / cm^3
# Si number density = 23.549408 Si / 1000 Ang^3
#
#
#
# Elastic Constant Matrix: (Units=GPa)
#
#
# Indices 1 2 3 4 5 6 
#
# 1 141.5099 35.2096 28.5400 0.0000 -10.5207 0.0000
# 2 35.2096 135.1416 33.7824 0.0000 -6.9608 0.0000
# 3 28.5400 33.7824 74.9518 0.0000 2.9155 0.0000
# 4 0.0000 0.0000 0.0000 9.6772 0.0000 0.5526
# 5 -10.5207 -6.9608 2.9155 0.0000 23.7682 0.0000
# 6 0.0000 0.0000 0.0000 0.5526 0.0000 37.7934
#
#
#
# Elastic Compliance Matrix: (Units=1/GPa)
#
#
# Indices 1 2 3 4 5 6 
#
# 1 0.008192 -0.001280 -0.002682 0.000000 0.003580 0.000000
# 2 -0.001280 0.008745 -0.003549 0.000000 0.002430 0.000000
# 3 -0.002682 -0.003549 0.016126 0.000000 -0.004205 0.000000
# 4 0.000000 0.000000 0.000000 0.103422 0.000000 -0.001512
# 5 0.003580 0.002430 -0.004205 0.000000 0.044885 0.000000
# 6 0.000000 0.000000 0.000000 -0.001512 0.000000 0.026482
#
#
# Mechanical properties :
#
#
# Convention : Reuss Voigt Hill
#
# Bulk Modulus (GPa) = 55.42383 60.74081 58.08232
# Shear Modulus (GPa) = 21.84475 31.18585 26.51530
#
# Velocity S-wave (km/s) = 3.04898 3.64300 3.35915
# Velocity P-wave (km/s) = 5.99844 6.59881 6.30577
#
# Compressibility (1/GPa) = 0.01804278
#
# Stress axis : x y z
#
# Youngs Moduli (GPa) = 122.06892 114.34640 62.01047
#
# Poissons Ratio (x) = 0.14631 0.16631
# Poissons Ratio (y) = 0.15619 0.22008
# Poissons Ratio (z) = 0.32738 0.40582
#
# Static dielectric constant tensor:
#      x y z
#    x 1.977200 0.000000 -0.012850 
#    y 0.000000 1.908910 0.000000 
#    z -0.012850 0.000000 1.969790 
# 
# From -- ./inp_files/41779.got.cif
#   From: 2010.05.17/outbox.cif.g08.bks.cpg/sg5_21_cif.got.tgz:41779.got - 2010.06.03 18:56:24.
