data_PCOD9127647
_publ_section_title
;
Structure prediction by ZEFSAII (Michael W. Deem and Ramdas Pophale) SiO2 
 PCOD9127647
Probable space group: C 2
;
_chemical_formula_sum "Si O2"
_cell_formula_units_Z 20
_cell_length_a 9.355762
_cell_length_b 6.852525
_cell_length_c 12.566859
_cell_angle_alpha 90.000000
_cell_angle_beta 82.701908
_cell_angle_gamma 90.000000
_cell_volume 799.141797
_symmetry_space_group_name_H-M "C 2"
_symmetry_group_IT_number 5
_symmetry_cell_setting 'monoclinic'
loop_
_space_group_symop_operation_xyz
x,y,z
-x,y,-z
1/2+x,1/2+y,z
1/2-x,1/2+y,-z
loop_
_atom_site_type_symbol
_atom_site_label
_atom_site_fract_x
_atom_site_fract_y
_atom_site_fract_z
Si Si1 0.828587 0.050130 0.089812
Si Si2 0.841346 0.739633 0.247458
Si Si3 0.907844 0.465847 0.406437
Si Si4 0.911753 0.256611 0.863759
Si Si5 0.627264 0.520300 0.558417
O O1 0.915784 0.221314 0.145934
O O2 0.898464 0.854927 0.138010
O O3 0.662499 0.971801 0.112356
O O4 0.856750 0.120560 0.967689
O O5 0.936085 0.572778 0.293099
O O6 0.679503 0.678239 0.228494
O O7 0.829814 0.898053 0.342903
O O8 0.752215 0.533500 0.460117
O O9 0.911645 0.234938 0.398937
O O10 0.000000 0.517601 0.500000
O O11 0.500000 0.433479 0.500000
#
# Coordination Sequence:
#
# PCOD9127647 Si02
#       5
#     4   4   4   4   4
#     4   9  21  42  70 101 143 184 249 300 372 440
#     4  10  23  40  72  97 144 191 238 298 380 433
#     4  11  24  40  64 103 136 185 238 297 364 444
#     4   9  21  42  70 100 143 186 247 303 367 444
#     4  11  24  40  67  96 143 179 241 299 361 443
#
# _framework density 25.026848999999999
#
# number of rings (size 3 to 8) (size 9 to 14) (size 15 to 20)
#    1.200    0.800    2.000    0.600    2.800    1.600 
#    0.000    8.000    0.000    0.000    0.000    0.000 
#    0.000    0.000    0.000    0.000    0.000    0.000 
#
# Total GULP energy -55673.743332 kJ/mol
# GULP energy per Si atom -5567.374333 kJ/mol
# Density = 2.496989 g / cm^3
# Si number density = 25.026849 Si / 1000 Ang^3
#
#
#
# Elastic Constant Matrix: (Units=GPa)
#
#
# Indices 1 2 3 4 5 6 
#
# 1 114.5443 36.7671 50.7962 0.0000 18.8643 0.0000
# 2 36.7671 133.9547 59.4938 0.0000 19.7406 0.0000
# 3 50.7962 59.4938 163.2929 0.0000 36.2775 0.0000
# 4 0.0000 0.0000 0.0000 61.5174 0.0000 15.1989
# 5 18.8643 19.7406 36.2775 0.0000 56.2441 0.0000
# 6 0.0000 0.0000 0.0000 15.1989 0.0000 25.4727
#
#
#
# Elastic Compliance Matrix: (Units=1/GPa)
#
#
# Indices 1 2 3 4 5 6 
#
# 1 0.010539 -0.001631 -0.002365 0.000000 -0.001437 0.000000
# 2 -0.001631 0.009229 -0.002635 0.000000 -0.000993 0.000000
# 3 -0.002365 -0.002635 0.008682 0.000000 -0.003882 0.000000
# 4 0.000000 0.000000 0.000000 0.019066 0.000000 -0.011376
# 5 -0.001437 -0.000993 -0.003882 0.000000 0.021114 0.000000
# 6 0.000000 0.000000 0.000000 -0.011376 0.000000 0.046046
#
#
# Mechanical properties :
#
#
# Convention : Reuss Voigt Hill
#
# Bulk Modulus (GPa) = 65.83430 78.43399 72.13414
# Shear Modulus (GPa) = 37.59389 46.29584 41.94486
#
# Velocity S-wave (km/s) = 3.87995 4.30565 4.09833
# Velocity P-wave (km/s) = 6.81430 7.49174 7.16103
#
# Compressibility (1/GPa) = 0.01518965
#
# Stress axis : x y z
#
# Youngs Moduli (GPa) = 94.88451 108.35104 115.18015
#
# Poissons Ratio (x) = 0.17667 0.27242
# Poissons Ratio (y) = 0.15471 0.30347
# Poissons Ratio (z) = 0.22442 0.28548
#
# Static dielectric constant tensor:
#      x y z
#    x 2.058300 0.000000 0.010400 
#    y 0.000000 2.006130 0.000000 
#    z 0.010400 0.000000 1.961290 
# 
# From -- ./inp_files/49799.got.cif
#   From: 2010.05.17/outbox.cif.g08.bks.cpg/sg5_25_cif.got.tgz:49799.got - 2010.06.03 18:56:24.
