data_PCOD9127913
_publ_section_title
;
Structure prediction by ZEFSAII (Michael W. Deem and Ramdas Pophale) SiO2 
 PCOD9127913
Probable space group: C 2
;
_chemical_formula_sum "Si O2"
_cell_formula_units_Z 32
_cell_length_a 21.501219
_cell_length_b 14.028382
_cell_length_c 14.859345
_cell_angle_alpha 90.000000
_cell_angle_beta 19.177034
_cell_angle_gamma 90.000000
_cell_volume 1472.278439
_symmetry_space_group_name_H-M "C 2"
_symmetry_group_IT_number 5
_symmetry_cell_setting 'monoclinic'
loop_
_space_group_symop_operation_xyz
x,y,z
-x,y,-z
1/2+x,1/2+y,z
1/2-x,1/2+y,-z
loop_
_atom_site_type_symbol
_atom_site_label
_atom_site_fract_x
_atom_site_fract_y
_atom_site_fract_z
Si Si1 0.514023 0.368690 0.335636
Si Si2 0.845659 0.013145 0.985358
Si Si3 0.861541 0.093918 0.270528
Si Si4 0.896931 0.353202 0.042975
Si Si5 0.177002 0.324277 0.311853
Si Si6 0.333948 0.901785 0.479947
Si Si7 0.575633 0.258250 0.723494
Si Si8 0.288191 0.218891 0.826495
O O1 0.321899 0.385334 0.653689
O O2 0.440501 0.307322 0.351689
O O3 0.685443 0.305865 0.140594
O O4 0.584712 0.467566 0.201795
O O5 0.745348 0.111737 0.098332
O O6 0.735035 0.926238 0.185884
O O7 0.014836 0.044343 0.820281
O O8 0.713295 0.168792 0.516628
O O9 0.742226 0.006018 0.392057
O O10 0.000000 0.127373 0.000000
O O11 0.866982 0.249788 0.035797
O O12 0.000000 0.353919 0.000000
O O13 0.015543 0.410386 0.806724
O O14 0.115171 0.348924 0.497440
O O15 0.000000 0.283855 0.500000
O O16 0.359671 0.254829 0.054718
O O17 0.175255 0.833411 0.653282
O O18 0.500000 0.216405 0.500000
#
# Coordination Sequence:
#
# PCOD9127913 Si02
#       8
#     4   4   4   4   4   4   4   4
#     4  10  23  44  64 104 148 179 232 300 367 429
#     4  11  22  42  72 107 137 188 242 309 356 423
#     4  12  24  42  74 111 138 185 257 308 348 434
#     4  11  22  41  69 103 142 189 234 296 363 422
#     4  11  25  46  72 104 151 190 237 303 372 434
#     4  12  23  45  74 104 139 191 243 299 369 425
#     4  11  24  42  72 104 144 188 240 300 364 426
#     4  10  24  40  67 104 135 184 241 294 356 436
#
# _framework density 21.735019000000001
#
# number of rings (size 3 to 8) (size 9 to 14) (size 15 to 20)
#    0.000    1.000    5.000    1.500    8.750    1.000 
#    0.000    5.000    0.000    0.000    0.000    0.000 
#    0.000    0.000    0.000    0.000    0.000    0.000 
#
# Total GULP energy -89281.483175 kJ/mol
# GULP energy per Si atom -5580.092698 kJ/mol
# Density = 2.168555 g / cm^3
# Si number density = 21.735019 Si / 1000 Ang^3
#
#
#
# Elastic Constant Matrix: (Units=GPa)
#
#
# Indices 1 2 3 4 5 6 
#
# 1 90.2264 17.2767 39.5257 0.0017 -1.4023 -0.0003
# 2 17.2767 84.4998 39.1468 0.0031 -1.3436 0.0002
# 3 39.5257 39.1468 123.1145 0.0021 7.2557 0.0004
# 4 0.0017 0.0031 0.0021 20.0352 0.0003 -0.4755
# 5 -1.4023 -1.3436 7.2557 0.0003 31.5969 0.0000
# 6 -0.0003 0.0002 0.0004 -0.4755 0.0000 26.7530
#
#
#
# Elastic Compliance Matrix: (Units=1/GPa)
#
#
# Indices 1 2 3 4 5 6 
#
# 1 0.013015 -0.000776 -0.004018 -0.000001 0.001467 0.000000
# 2 -0.000776 0.014008 -0.004296 -0.000002 0.001548 0.000000
# 3 -0.004018 -0.004296 0.010948 0.000000 -0.002875 0.000000
# 4 -0.000001 -0.000002 0.000000 0.049933 -0.000001 0.000888
# 5 0.001467 0.001548 -0.002875 -0.000001 0.032440 0.000000
# 6 0.000000 0.000000 0.000000 0.000888 0.000000 0.037395
#
#
# Mechanical properties :
#
#
# Convention : Reuss Voigt Hill
#
# Bulk Modulus (GPa) = 50.53050 54.41545 52.47297
# Shear Modulus (GPa) = 27.39486 29.13647 28.26566
#
# Velocity S-wave (km/s) = 3.55407 3.66530 3.61011
# Velocity P-wave (km/s) = 6.33567 6.55765 6.44762
#
# Compressibility (1/GPa) = 0.01979003
#
# Stress axis : x y z
#
# Youngs Moduli (GPa) = 76.83521 71.38802 91.34091
#
# Poissons Ratio (x) = 0.05541 0.36701
# Poissons Ratio (y) = 0.05964 0.39241
# Poissons Ratio (z) = 0.30873 0.30669
#
# Static dielectric constant tensor:
#      x y z
#    x 1.855570 0.000000 0.009670 
#    y 0.000000 1.804640 0.000000 
#    z 0.009670 0.000000 1.876260 
# 
# From -- ./inp_files/57169.got.cif
#   From: 2010.05.17/outbox.cif.g08.bks.cpg/sg5_29_cif.got.tgz:57169.got - 2010.06.03 18:56:24.
