data_PCOD9127538
_publ_section_title
;
Structure prediction by ZEFSAII (Michael W. Deem and Ramdas Pophale) SiO2 
 PCOD9127538
Probable space group: C 2
;
_chemical_formula_sum "Si O2"
_cell_formula_units_Z 22
_cell_length_a 9.277680
_cell_length_b 11.422815
_cell_length_c 19.549352
_cell_angle_alpha 90.000000
_cell_angle_beta 153.565370
_cell_angle_gamma 90.000000
_cell_volume 922.310394
_symmetry_space_group_name_H-M "C 2"
_symmetry_group_IT_number 5
_symmetry_cell_setting 'monoclinic'
loop_
_space_group_symop_operation_xyz
x,y,z
-x,y,-z
1/2+x,1/2+y,z
1/2-x,1/2+y,-z
loop_
_atom_site_type_symbol
_atom_site_label
_atom_site_fract_x
_atom_site_fract_y
_atom_site_fract_z
Si Si1 0.500000 0.482530 0.000000
Si Si2 0.331496 0.655931 0.734429
Si Si3 0.081425 0.321013 0.720707
Si Si4 0.776668 0.786614 0.561574
Si Si5 0.202044 0.950013 0.835106
Si Si6 0.602496 0.146633 0.925143
O O1 0.289363 0.407993 0.856438
O O2 0.250153 0.567789 0.930110
O O3 0.385485 0.736083 0.690094
O O4 0.427242 0.520558 0.760878
O O5 0.981862 0.677302 0.618863
O O6 0.610128 0.696305 0.905886
O O7 0.358616 0.246257 0.799636
O O8 0.850831 0.354633 0.560216
O O9 0.500000 0.758216 0.500000
O O10 0.030221 0.868306 0.708413
O O11 0.392770 0.057540 0.881477
O O12 0.500000 0.886187 0.000000
#
# Coordination Sequence:
#
# PCOD9127538 Si02
#       6
#     2   4   4   4   4   4
#     4  12  24  44  78 104 146 194 242 302 368 438
#     4  10  22  49  73  98 152 193 239 306 359 435
#     4  11  24  49  71 109 150 191 245 304 376 431
#     4  12  28  41  73 113 148 194 240 306 369 435
#     4   9  22  46  74 104 138 196 249 291 363 436
#     4  10  23  43  78 108 138 197 250 300 358 442
#
# _framework density 23.853141999999998
#
# number of rings (size 3 to 8) (size 9 to 14) (size 15 to 20)
#    0.000    1.455    1.818    2.727    7.636    2.909 
#    0.000    0.000    0.000    0.000    0.000    0.000 
#    0.000    0.000    0.000    0.000    0.000    0.000 
#
# Total GULP energy -61526.889650 kJ/mol
# GULP energy per Si atom -5593.353605 kJ/mol
# Density = 2.379885 g / cm^3
# Si number density = 23.853142 Si / 1000 Ang^3
#
#
#
# Elastic Constant Matrix: (Units=GPa)
#
#
# Indices 1 2 3 4 5 6 
#
# 1 138.6165 53.5366 69.5034 0.0055 9.4027 0.0066
# 2 53.5366 63.5034 62.6503 -0.0019 -4.0631 0.0009
# 3 69.5034 62.6503 173.4517 0.0375 -25.4395 0.0272
# 4 0.0055 -0.0019 0.0375 43.0988 0.0107 26.0303
# 5 9.4027 -4.0631 -25.4395 0.0107 44.3668 0.0038
# 6 0.0066 0.0009 0.0272 26.0303 0.0038 51.7011
#
#
#
# Elastic Compliance Matrix: (Units=1/GPa)
#
#
# Indices 1 2 3 4 5 6 
#
# 1 0.011826 -0.007631 -0.002677 0.000002 -0.004740 -0.000001
# 2 -0.007631 0.029783 -0.007711 0.000009 -0.000076 0.000000
# 3 -0.002677 -0.007711 0.010485 -0.000010 0.005873 0.000000
# 4 0.000002 0.000009 -0.000010 0.033341 -0.000012 -0.016786
# 5 -0.004740 -0.000076 0.005873 -0.000012 0.026905 0.000002
# 6 -0.000001 0.000000 0.000000 -0.016786 0.000002 0.027793
#
#
# Mechanical properties :
#
#
# Convention : Reuss Voigt Hill
#
# Bulk Modulus (GPa) = 62.28930 82.99466 72.64198
# Shear Modulus (GPa) = 27.54470 40.49211 34.01840
#
# Velocity S-wave (km/s) = 3.40187 4.12461 3.78055
# Velocity P-wave (km/s) = 6.44985 7.58636 7.04107
#
# Compressibility (1/GPa) = 0.01605412
#
# Stress axis : x y z
#
# Youngs Moduli (GPa) = 84.56255 33.57592 95.37728
#
# Poissons Ratio (x) = 0.25623 0.25536
# Poissons Ratio (y) = 0.64533 0.73544
# Poissons Ratio (z) = 0.22641 0.25890
#
# Static dielectric constant tensor:
#      x y z
#    x 1.743180 -0.000010 -0.080190 
#    y -0.000010 1.903610 0.000000 
#    z -0.080190 0.000000 1.908750 
# 
# From -- ./inp_files/59761.got.cif
#   From: 2010.05.17/outbox.cif.g08.bks.cpg/sg5_30_cif.got.tgz:59761.got - 2010.06.03 18:56:24.
