data_PCOD9127743
_publ_section_title
;
Structure prediction by ZEFSAII (Michael W. Deem and Ramdas Pophale) SiO2 
 PCOD9127743
Probable space group: C 2
;
_chemical_formula_sum "Si O2"
_cell_formula_units_Z 28
_cell_length_a 12.218065
_cell_length_b 7.284680
_cell_length_c 15.425709
_cell_angle_alpha 90.000000
_cell_angle_beta 59.209798
_cell_angle_gamma 90.000000
_cell_volume 1179.438218
_symmetry_space_group_name_H-M "C 2"
_symmetry_group_IT_number 5
_symmetry_cell_setting 'monoclinic'
loop_
_space_group_symop_operation_xyz
x,y,z
-x,y,-z
1/2+x,1/2+y,z
1/2-x,1/2+y,-z
loop_
_atom_site_type_symbol
_atom_site_label
_atom_site_fract_x
_atom_site_fract_y
_atom_site_fract_z
Si Si1 0.438187 0.552750 0.662649
Si Si2 0.297301 0.097415 0.357402
Si Si3 0.699867 0.875336 0.941512
Si Si4 0.798334 0.260737 0.872549
Si Si5 0.492950 0.316020 0.787872
Si Si6 0.112356 0.362505 0.515007
Si Si7 0.893529 0.053134 0.113994
O O1 0.319328 0.509665 0.648622
O O2 0.388050 0.681721 0.761577
O O3 0.483309 0.369490 0.690948
O O4 0.547603 0.672047 0.574094
O O5 0.417458 0.139120 0.246461
O O6 0.233579 0.293072 0.411025
O O7 0.343229 0.984804 0.422391
O O8 0.636499 0.765254 0.889170
O O9 0.849403 0.815846 0.881276
O O10 0.700191 0.092288 0.928726
O O11 0.645996 0.808407 0.055627
O O12 0.730357 0.439765 0.864138
O O13 0.562339 0.478006 0.812399
O O14 0.000000 0.446985 0.500000
O O15 0.000000 0.001658 0.000000
#
# Coordination Sequence:
#
# PCOD9127743 Si02
#       7
#     4   4   4   4   4   4   4
#     4  10  23  42  62  92 129 161 213 270 315 378
#     4  11  23  41  67  93 124 167 208 260 329 389
#     4  11  24  40  66  96 132 179 221 270 324 374
#     4  11  21  40  64  93 132 172 220 268 318 381
#     4  11  24  41  64  94 129 169 216 271 315 387
#     4  10  24  42  65  95 125 163 208 265 324 389
#     4  12  23  43  64  93 137 175 221 272 318 383
#
# _framework density 23.740116
#
# number of rings (size 3 to 8) (size 9 to 14) (size 15 to 20)
#    0.000    1.143    4.286    1.714    2.000    4.000 
#    0.000    0.000    0.000    0.000    0.000    0.000 
#    0.000    0.000    0.000    0.000    0.000    0.000 
#
# Total GULP energy -78281.227762 kJ/mol
# GULP energy per Si atom -5591.516269 kJ/mol
# Density = 2.368608 g / cm^3
# Si number density = 23.740116 Si / 1000 Ang^3
#
#
#
# Elastic Constant Matrix: (Units=GPa)
#
#
# Indices 1 2 3 4 5 6 
#
# 1 149.5363 26.2763 19.5968 0.0000 25.5019 0.0000
# 2 26.2763 56.6919 -3.1839 0.0000 15.9796 0.0000
# 3 19.5968 -3.1839 63.1868 0.0000 9.1945 0.0000
# 4 0.0000 0.0000 0.0000 34.8448 0.0000 12.2455
# 5 25.5019 15.9796 9.1945 0.0000 39.3274 0.0000
# 6 0.0000 0.0000 0.0000 12.2455 0.0000 30.1024
#
#
#
# Elastic Compliance Matrix: (Units=1/GPa)
#
#
# Indices 1 2 3 4 5 6 
#
# 1 0.008079 -0.002854 -0.002128 0.000000 -0.003581 0.000000
# 2 -0.002854 0.021246 0.003046 0.000000 -0.007494 0.000000
# 3 -0.002128 0.003046 0.017204 0.000000 -0.003880 0.000000
# 4 0.000000 0.000000 0.000000 0.033486 0.000000 -0.013622
# 5 -0.003581 -0.007494 -0.003880 0.000000 0.031702 0.000000
# 6 0.000000 0.000000 0.000000 -0.013622 0.000000 0.038761
#
#
# Mechanical properties :
#
#
# Convention : Reuss Voigt Hill
#
# Bulk Modulus (GPa) = 23.44367 39.42152 31.43259
# Shear Modulus (GPa) = 29.66153 35.96997 32.81575
#
# Velocity S-wave (km/s) = 3.53856 3.89672 3.72195
# Velocity P-wave (km/s) = 5.15672 6.07350 5.63379
#
# Compressibility (1/GPa) = 0.04265543
#
# Stress axis : x y z
#
# Youngs Moduli (GPa) = 123.78452 47.06866 58.12531
#
# Poissons Ratio (x) = 0.13436 0.12370
# Poissons Ratio (y) = 0.35334 -0.17706
# Poissons Ratio (z) = 0.26344 -0.14338
#
# Static dielectric constant tensor:
#      x y z
#    x 1.975540 0.000000 -0.033470 
#    y 0.000000 1.872320 0.000000 
#    z -0.033470 0.000000 1.920210 
# 
# From -- ./inp_files/52235.got.cif
#   From: 2010.05.17/outbox.cif.g08.bks.cpg/sg5_27_cif.got.tgz:52235.got - 2010.06.03 18:56:24.
