data_PCOD9127983
_publ_section_title
;
Structure prediction by ZEFSAII (Michael W. Deem and Ramdas Pophale) SiO2 
 PCOD9127983
Probable space group: C 2
;
_chemical_formula_sum "Si O2"
_cell_formula_units_Z 20
_cell_length_a 5.175024
_cell_length_b 18.389759
_cell_length_c 8.163960
_cell_angle_alpha 90.000000
_cell_angle_beta 92.977975
_cell_angle_gamma 90.000000
_cell_volume 775.894007
_symmetry_space_group_name_H-M "C 2"
_symmetry_group_IT_number 5
_symmetry_cell_setting 'monoclinic'
loop_
_space_group_symop_operation_xyz
x,y,z
-x,y,-z
1/2+x,1/2+y,z
1/2-x,1/2+y,-z
loop_
_atom_site_type_symbol
_atom_site_label
_atom_site_fract_x
_atom_site_fract_y
_atom_site_fract_z
Si Si1 0.500000 0.555650 0.000000
Si Si2 0.000000 0.292757 0.000000
Si Si3 0.750740 0.981262 0.700447
Si Si4 0.500000 0.102954 0.500000
Si Si5 0.000000 0.266002 0.500000
Si Si6 0.747537 0.881391 0.304498
Si Si7 0.266724 0.677472 0.216309
O O1 0.300702 0.510800 0.884654
O O2 0.651763 0.606050 0.877414
O O3 0.215833 0.240959 0.919808
O O4 0.839583 0.340794 0.865251
O O5 0.480111 0.939993 0.681583
O O6 0.985425 0.924717 0.686153
O O7 0.725809 0.048284 0.571875
O O8 0.552915 0.152181 0.340998
O O9 0.779450 0.321226 0.553631
O O10 0.966646 0.212842 0.348213
#
# Coordination Sequence:
#
# PCOD9127983 Si02
#       7
#     2   2   4   2   2   4   4
#     4  11  24  46  74 104 150 197 250 308 374 449
#     4   9  22  48  76 108 150 197 254 312 378 449
#     4  12  27  47  76 110 152 198 250 311 378 450
#     4  12  27  46  78 112 153 198 254 314 378 450
#     4  10  23  44  72 106 151 198 252 310 376 450
#     4  11  25  46  74 110 149 197 250 312 378 450
#     4  10  23  45  72 108 148 198 251 310 375 446
#
# _framework density 25.776719
#
# number of rings (size 3 to 8) (size 9 to 14) (size 15 to 20)
#    0.000    1.200    0.000    4.200    0.000   12.000 
#    0.000    8.000    0.000    0.000    0.000    0.000 
#    0.000    0.000    0.000    0.000    0.000    0.000 
#
# Total GULP energy -55933.302644 kJ/mol
# GULP energy per Si atom -5593.330264 kJ/mol
# Density = 2.571805 g / cm^3
# Si number density = 25.776719 Si / 1000 Ang^3
#
#
#
# Elastic Constant Matrix: (Units=GPa)
#
#
# Indices 1 2 3 4 5 6 
#
# 1 125.2045 62.0666 39.6170 0.0000 -4.8590 0.0000
# 2 62.0666 133.7783 67.7635 0.0000 -9.8871 0.0000
# 3 39.6170 67.7635 167.1704 0.0000 -12.0658 0.0000
# 4 0.0000 0.0000 0.0000 87.0714 0.0000 -9.6776
# 5 -4.8590 -9.8871 -12.0658 0.0000 39.6732 0.0000
# 6 0.0000 0.0000 0.0000 -9.6776 0.0000 13.3775
#
#
#
# Elastic Compliance Matrix: (Units=1/GPa)
#
#
# Indices 1 2 3 4 5 6 
#
# 1 0.010427 -0.004515 -0.000644 0.000000 -0.000044 0.000000
# 2 -0.004515 0.011418 -0.003469 0.000000 0.001238 0.000000
# 3 -0.000644 -0.003469 0.007641 0.000000 0.001380 0.000000
# 4 0.000000 0.000000 0.000000 0.012489 0.000000 0.009035
# 5 -0.000044 0.001238 0.001380 0.000000 0.025929 0.000000
# 6 0.000000 0.000000 0.000000 0.009035 0.000000 0.081288
#
#
# Mechanical properties :
#
#
# Convention : Reuss Voigt Hill
#
# Bulk Modulus (GPa) = 81.76778 85.00526 83.38652
# Shear Modulus (GPa) = 29.32127 45.13816 37.22971
#
# Velocity S-wave (km/s) = 3.37636 4.18918 3.80454
# Velocity P-wave (km/s) = 6.85494 7.51319 7.19160
#
# Compressibility (1/GPa) = 0.01222976
#
# Stress axis : x y z
#
# Youngs Moduli (GPa) = 95.90452 87.57807 130.88127
#
# Poissons Ratio (x) = 0.39538 0.08432
# Poissons Ratio (y) = 0.43297 0.45407
# Poissons Ratio (z) = 0.06178 0.30383
#
# Static dielectric constant tensor:
#      x y z
#    x 2.019870 0.000000 -0.053060 
#    y 0.000000 2.055700 0.000000 
#    z -0.053060 0.000000 2.093690 
# 
# From -- ./inp_files/12114.got.cif
#   From: 2010.05.17/outbox.cif.g08.bks.cpg/sg5_7_cif.got.tgz:12114.got - 2010.06.03 18:56:24.
