data_PCOD9127218
_publ_section_title
;
Structure prediction by ZEFSAII (Michael W. Deem and Ramdas Pophale) SiO2 
 PCOD9127218
Probable space group: C 2
;
_chemical_formula_sum "Si O2"
_cell_formula_units_Z 26
_cell_length_a 9.288066
_cell_length_b 12.487122
_cell_length_c 10.802034
_cell_angle_alpha 90.000000
_cell_angle_beta 84.576241
_cell_angle_gamma 90.000000
_cell_volume 1247.223894
_symmetry_space_group_name_H-M "C 2"
_symmetry_group_IT_number 5
_symmetry_cell_setting 'monoclinic'
loop_
_space_group_symop_operation_xyz
x,y,z
-x,y,-z
1/2+x,1/2+y,z
1/2-x,1/2+y,-z
loop_
_atom_site_type_symbol
_atom_site_label
_atom_site_fract_x
_atom_site_fract_y
_atom_site_fract_z
Si Si1 0.996294 0.420900 0.243236
Si Si2 0.415248 0.138977 0.691103
Si Si3 0.000000 0.312323 0.500000
Si Si4 0.741971 0.144639 0.554443
Si Si5 0.385933 0.318975 0.899646
Si Si6 0.197104 0.021572 0.220354
Si Si7 0.873542 0.230215 0.923949
O O1 0.964647 0.386962 0.386689
O O2 0.850229 0.462850 0.194287
O O3 0.096735 0.525153 0.239157
O O4 0.059320 0.318018 0.172456
O O5 0.582438 0.155284 0.631294
O O6 0.305343 0.132004 0.584600
O O7 0.388749 0.234536 0.787479
O O8 0.859720 0.240154 0.544649
O O9 0.816506 0.051638 0.632566
O O10 0.407488 0.435399 0.834940
O O11 0.500000 0.301050 0.000000
O O12 0.237083 0.294345 0.981878
O O13 0.194146 0.133544 0.148331
O O14 0.000000 0.184723 0.000000
#
# Coordination Sequence:
#
# PCOD9127218 Si02
#       7
#     4   4   2   4   4   4   4
#     4  11  23  44  74 100 141 187 241 296 367 428
#     4  10  24  45  71 101 140 189 238 299 369 433
#     4  12  22  42  76 104 136 186 240 304 366 428
#     4  10  22  44  70 103 136 178 245 301 358 431
#     4  12  26  44  71 103 149 190 238 299 366 438
#     4  11  23  46  68 102 144 181 244 298 356 424
#     4  12  26  46  71 107 140 194 245 296 359 441
#
# _framework density 20.846298000000001
#
# number of rings (size 3 to 8) (size 9 to 14) (size 15 to 20)
#    0.000    0.923    3.077    5.077    2.154    0.615 
#    2.769    4.615    0.000    0.000    0.000    0.000 
#    0.000    0.000    0.000    0.000    0.000    0.000 
#
# Total GULP energy -72554.924922 kJ/mol
# GULP energy per Si atom -5581.148071 kJ/mol
# Density = 2.079885 g / cm^3
# Si number density = 20.846298 Si / 1000 Ang^3
#
#
#
# Elastic Constant Matrix: (Units=GPa)
#
#
# Indices 1 2 3 4 5 6 
#
# 1 54.8878 15.1035 25.3805 0.0000 19.6727 0.0000
# 2 15.1035 142.3671 58.6120 0.0000 5.6803 0.0000
# 3 25.3805 58.6120 123.9266 0.0000 21.2305 0.0000
# 4 0.0000 0.0000 0.0000 103.0181 0.0000 28.3809
# 5 19.6727 5.6803 21.2305 0.0000 29.0892 0.0000
# 6 0.0000 0.0000 0.0000 28.3809 0.0000 35.3038
#
#
#
# Elastic Compliance Matrix: (Units=1/GPa)
#
#
# Indices 1 2 3 4 5 6 
#
# 1 0.024891 -0.001251 -0.001902 0.000000 -0.015201 0.000000
# 2 -0.001251 0.008843 -0.004315 0.000000 0.002268 0.000000
# 3 -0.001902 -0.004315 0.011583 0.000000 -0.006325 0.000000
# 4 0.000000 0.000000 0.000000 0.012468 0.000000 -0.010023
# 5 -0.015201 0.002268 -0.006325 0.000000 0.048831 0.000000
# 6 0.000000 0.000000 0.000000 -0.010023 0.000000 0.036383
#
#
# Mechanical properties :
#
#
# Convention : Reuss Voigt Hill
#
# Bulk Modulus (GPa) = 32.91465 57.70816 45.31141
# Shear Modulus (GPa) = 29.75102 48.28794 39.01948
#
# Velocity S-wave (km/s) = 3.78188 4.81810 4.33109
# Velocity P-wave (km/s) = 5.90708 7.66126 6.84063
#
# Compressibility (1/GPa) = 0.03038160
#
# Stress axis : x y z
#
# Youngs Moduli (GPa) = 40.17505 113.08883 86.33380
#
# Poissons Ratio (x) = 0.14149 0.16419
# Poissons Ratio (y) = 0.05027 0.37249
# Poissons Ratio (z) = 0.07640 0.48793
#
# Static dielectric constant tensor:
#      x y z
#    x 1.712520 0.000000 -0.116570 
#    y 0.000000 1.735060 0.000000 
#    z -0.116570 0.000000 1.488060 
# 
# From -- ./inp_files/35451.got.cif
#   From: 2010.05.17/outbox.cif.g08.bks.cpg/sg5_18_cif.got.tgz:35451.got - 2010.06.03 18:56:24.
