data_PCOD9127900
_publ_section_title
;
Structure prediction by ZEFSAII (Michael W. Deem and Ramdas Pophale) SiO2 
 PCOD9127900
Probable space group: C 2
;
_chemical_formula_sum "Si O2"
_cell_formula_units_Z 24
_cell_length_a 13.970112
_cell_length_b 6.817248
_cell_length_c 13.945012
_cell_angle_alpha 90.000000
_cell_angle_beta 126.180473
_cell_angle_gamma 90.000000
_cell_volume 1071.984088
_symmetry_space_group_name_H-M "C 2"
_symmetry_group_IT_number 5
_symmetry_cell_setting 'monoclinic'
loop_
_space_group_symop_operation_xyz
x,y,z
-x,y,-z
1/2+x,1/2+y,z
1/2-x,1/2+y,-z
loop_
_atom_site_type_symbol
_atom_site_label
_atom_site_fract_x
_atom_site_fract_y
_atom_site_fract_z
Si Si1 0.320098 0.895350 0.059459
Si Si2 0.988232 0.071851 0.242299
Si Si3 0.094934 0.673069 0.723355
Si Si4 0.220807 0.926784 0.287947
Si Si5 0.640376 0.184424 0.070539
Si Si6 0.579370 0.864706 0.455397
O O1 0.396209 0.703733 0.128842
O O2 0.191352 0.842407 0.024537
O O3 0.375450 0.063484 0.159567
O O4 0.330144 0.972793 0.957855
O O5 0.055360 0.215786 0.355876
O O6 0.087857 0.987668 0.231404
O O7 0.927464 0.898604 0.267236
O O8 0.200548 0.598105 0.715801
O O9 0.975739 0.572780 0.610483
O O10 0.210732 0.744092 0.208412
O O11 0.288707 0.875352 0.425959
O O12 0.500000 0.197780 0.000000
O O13 0.500000 0.802554 0.500000
#
# Coordination Sequence:
#
# PCOD9127900 Si02
#       6
#     4   4   4   4   4   4
#     4  10  25  45  69 101 138 185 237 294 347 418
#     4  11  23  43  75 103 141 190 236 289 360 418
#     4   9  21  44  67  95 143 180 229 292 348 412
#     4  10  23  43  72 107 142 184 241 288 357 424
#     4  11  25  48  70  99 146 185 240 294 347 424
#     4   9  21  43  63 104 144 177 236 292 345 429
#
# _framework density 22.388393000000001
#
# number of rings (size 3 to 8) (size 9 to 14) (size 15 to 20)
#    0.000    2.000    0.000    2.000    7.000    3.333 
#    3.000    3.333    0.000    0.000    0.000    0.000 
#    0.000    0.000    0.000    0.000    0.000    0.000 
#
# Total GULP energy -67088.877047 kJ/mol
# GULP energy per Si atom -5590.739754 kJ/mol
# Density = 2.233744 g / cm^3
# Si number density = 22.388393 Si / 1000 Ang^3
#
#
#
# Elastic Constant Matrix: (Units=GPa)
#
#
# Indices 1 2 3 4 5 6 
#
# 1 108.0051 46.1109 45.1093 0.0000 20.3207 0.0000
# 2 46.1109 122.7086 61.8053 0.0000 -1.6731 0.0000
# 3 45.1093 61.8053 108.4007 0.0000 4.4343 0.0000
# 4 0.0000 0.0000 0.0000 30.7042 0.0000 -10.4086
# 5 20.3207 -1.6731 4.4343 0.0000 30.2329 0.0000
# 6 0.0000 0.0000 0.0000 -10.4086 0.0000 24.9126
#
#
#
# Elastic Compliance Matrix: (Units=1/GPa)
#
#
# Indices 1 2 3 4 5 6 
#
# 1 0.013928 -0.003683 -0.003325 0.000000 -0.009077 0.000000
# 2 -0.003683 0.012484 -0.005749 0.000000 0.004009 0.000000
# 3 -0.003325 -0.005749 0.013891 0.000000 -0.000121 0.000000
# 4 0.000000 0.000000 0.000000 0.037943 0.000000 0.015853
# 5 -0.009077 0.004009 -0.000121 0.000000 0.039418 0.000000
# 6 0.000000 0.000000 0.000000 0.015853 0.000000 0.046764
#
#
# Mechanical properties :
#
#
# Convention : Reuss Voigt Hill
#
# Bulk Modulus (GPa) = 67.61572 71.68505 69.65038
# Shear Modulus (GPa) = 25.65816 29.57586 27.61701
#
# Velocity S-wave (km/s) = 3.38900 3.63855 3.51599
# Velocity P-wave (km/s) = 6.75134 7.05269 6.90366
#
# Compressibility (1/GPa) = 0.01478946
#
# Stress axis : x y z
#
# Youngs Moduli (GPa) = 71.79977 80.10466 71.98730
#
# Poissons Ratio (x) = 0.29502 0.23933
# Poissons Ratio (y) = 0.26443 0.41386
# Poissons Ratio (z) = 0.23871 0.46053
#
# Static dielectric constant tensor:
#      x y z
#    x 1.834420 0.000000 -0.005120 
#    y 0.000000 1.831500 0.000000 
#    z -0.005120 0.000000 1.873180 
# 
# From -- ./inp_files/53896.got.cif
#   From: 2010.05.17/outbox.cif.g08.bks.cpg/sg5_27_cif.got.tgz:53896.got - 2010.06.03 18:56:24.
