data_PCOD9127860
_publ_section_title
;
Structure prediction by ZEFSAII (Michael W. Deem and Ramdas Pophale) SiO2 
 PCOD9127860
Probable space group: C 2
;
_chemical_formula_sum "Si O2"
_cell_formula_units_Z 20
_cell_length_a 6.039971
_cell_length_b 19.491885
_cell_length_c 7.193404
_cell_angle_alpha 90.000000
_cell_angle_beta 75.443813
_cell_angle_gamma 90.000000
_cell_volume 819.698937
_symmetry_space_group_name_H-M "C 2"
_symmetry_group_IT_number 5
_symmetry_cell_setting 'monoclinic'
loop_
_space_group_symop_operation_xyz
x,y,z
-x,y,-z
1/2+x,1/2+y,z
1/2-x,1/2+y,-z
loop_
_atom_site_type_symbol
_atom_site_label
_atom_site_fract_x
_atom_site_fract_y
_atom_site_fract_z
Si Si1 0.462902 0.912400 0.786687
Si Si2 0.312944 0.303623 0.689502
Si Si3 0.273625 0.537117 0.669396
Si Si4 0.921069 0.655370 0.803911
Si Si5 0.500000 0.380193 0.000000
Si Si6 0.000000 0.063948 0.000000
O O1 0.568078 0.839134 0.700734
O O2 0.190424 0.917701 0.833829
O O3 0.609269 0.972781 0.664989
O O4 0.500000 0.919734 0.000000
O O5 0.500000 0.327427 0.500000
O O6 0.347701 0.222594 0.706248
O O7 0.371180 0.333214 0.879610
O O8 0.500000 0.538488 0.500000
O O9 0.358366 0.528953 0.864777
O O10 0.125337 0.606991 0.685148
O O11 0.693744 0.609824 0.862380
O O12 0.000000 0.672982 0.000000
#
# Coordination Sequence:
#
# PCOD9127860 Si02
#       6
#     4   4   4   4   2   2
#     4  10  23  44  71  97 133 178 228 277 339 405
#     4  11  24  41  68 101 135 174 229 274 337 404
#     4  11  25  45  68 102 135 179 229 275 338 407
#     4  10  23  43  67  99 136 181 223 273 339 401
#     4  10  24  47  68  96 135 180 216 290 329 408
#     4  10  24  43  70  94 139 178 214 286 325 406
#
# _framework density 24.399204999999998
#
# number of rings (size 3 to 8) (size 9 to 14) (size 15 to 20)
#    0.000    1.600    1.000    2.400    7.000    8.000 
#    0.000    6.000    0.000    0.000    0.000    0.000 
#    0.000    0.000    0.000    0.000    0.000    0.000 
#
# Total GULP energy -55926.376786 kJ/mol
# GULP energy per Si atom -5592.637679 kJ/mol
# Density = 2.434367 g / cm^3
# Si number density = 24.399205 Si / 1000 Ang^3
#
#
#
# Elastic Constant Matrix: (Units=GPa)
#
#
# Indices 1 2 3 4 5 6 
#
# 1 120.3469 75.3843 41.7328 0.0000 -33.3301 0.0000
# 2 75.3843 163.4886 63.6080 0.0000 -40.5930 0.0000
# 3 41.7328 63.6080 130.3047 0.0000 -40.7414 0.0000
# 4 0.0000 0.0000 0.0000 9.3941 0.0000 -24.3893
# 5 -33.3301 -40.5930 -40.7414 0.0000 70.2430 0.0000
# 6 0.0000 0.0000 0.0000 -24.3893 0.0000 20.4835
#
#
#
# Elastic Compliance Matrix: (Units=1/GPa)
#
#
# Indices 1 2 3 4 5 6 
#
# 1 0.012253 -0.004677 -0.000816 0.000000 0.002637 0.000000
# 2 -0.004677 0.009786 -0.002693 0.000000 0.001874 0.000000
# 3 -0.000816 -0.002693 0.010557 0.000000 0.004179 0.000000
# 4 0.000000 0.000000 0.000000 -0.050902 0.000000 -0.060608
# 5 0.002637 0.001874 0.004179 0.000000 0.018995 0.000000
# 6 0.000000 0.000000 0.000000 -0.060608 0.000000 -0.023345
#
#
# Mechanical properties :
#
#
# Convention : Reuss Voigt Hill
#
# Bulk Modulus (GPa) = 61.64241 86.17669 73.90955
# Shear Modulus (GPa) = -5722.20892 35.58512 -2843.31190
#
# Velocity S-wave (km/s) = -48.48026 3.82311 -34.17396
# Velocity P-wave (km/s) = 55.75358 7.40840 39.07414
#
# Compressibility (1/GPa) = 0.01622260
#
# Stress axis : x y z
#
# Youngs Moduli (GPa) = 81.61544 102.18180 94.72125
#
# Poissons Ratio (x) = 0.47792 0.07733
# Poissons Ratio (y) = 0.38173 0.25512
# Poissons Ratio (z) = 0.06663 0.27521
#
# Static dielectric constant tensor:
#      x y z
#    x 1.970080 0.000000 0.023250 
#    y 0.000000 1.957610 0.000000 
#    z 0.023250 0.000000 1.971730 
# 
# From -- ./inp_files/12415.got.cif
#   From: 2010.05.17/outbox.cif.g08.bks.cpg/sg5_7_cif.got.tgz:12415.got - 2010.06.03 18:56:24.
