data_PCOD9127267
_publ_section_title
;
Structure prediction by ZEFSAII (Michael W. Deem and Ramdas Pophale) SiO2 
 PCOD9127267
Probable space group: C 2
;
_chemical_formula_sum "Si O2"
_cell_formula_units_Z 18
_cell_length_a 7.726707
_cell_length_b 18.709245
_cell_length_c 8.918946
_cell_angle_alpha 90.000000
_cell_angle_beta 35.167636
_cell_angle_gamma 90.000000
_cell_volume 742.616503
_symmetry_space_group_name_H-M "C 2"
_symmetry_group_IT_number 5
_symmetry_cell_setting 'monoclinic'
loop_
_space_group_symop_operation_xyz
x,y,z
-x,y,-z
1/2+x,1/2+y,z
1/2-x,1/2+y,-z
loop_
_atom_site_type_symbol
_atom_site_label
_atom_site_fract_x
_atom_site_fract_y
_atom_site_fract_z
Si Si1 0.919307 0.756050 0.887901
Si Si2 0.000000 0.093103 0.500000
Si Si3 0.646621 0.612975 0.059314
Si Si4 0.022719 0.476538 0.150719
Si Si5 0.310573 0.833269 0.373033
O O1 0.580890 0.787525 0.107176
O O2 0.913995 0.671151 0.864415
O O3 0.000000 0.771430 0.000000
O O4 0.176059 0.791723 0.608202
O O5 0.275482 0.038222 0.325076
O O6 0.029930 0.128950 0.313022
O O7 0.690220 0.526801 0.031346
O O8 0.500000 0.626554 0.000000
O O9 0.951958 0.410930 0.307413
O O10 0.000000 0.443571 0.000000
O O11 0.000000 0.844480 0.500000
#
# Coordination Sequence:
#
# PCOD9127267 Si02
#       5
#     4   2   4   4   4
#     4  12  28  49  72 111 157 202 254 322 390 460
#     4  10  22  44  76 100 150 190 248 320 380 448
#     4  11  26  47  75 112 148 201 261 319 387 469
#     4  10  22  44  73 106 146 197 250 312 387 454
#     4  12  25  47  77 109 150 203 256 309 389 467
#
# _framework density 24.238620999999998
#
# number of rings (size 3 to 8) (size 9 to 14) (size 15 to 20)
#    0.000    0.889    1.111    6.000    9.333    1.778 
#    4.000    0.000    0.000    0.000    0.000    0.000 
#    0.000    0.000    0.000    0.000    0.000    0.000 
#
# Total GULP energy -50176.532924 kJ/mol
# GULP energy per Si atom -5575.170325 kJ/mol
# Density = 2.418345 g / cm^3
# Si number density = 24.238621 Si / 1000 Ang^3
#
#
#
# Elastic Constant Matrix: (Units=GPa)
#
#
# Indices 1 2 3 4 5 6 
#
# 1 93.9479 22.8724 48.9671 0.0000 33.6911 0.0000
# 2 22.8724 158.0869 76.6944 0.0000 11.9627 0.0000
# 3 48.9671 76.6944 138.4076 0.0000 18.8390 0.0000
# 4 0.0000 0.0000 0.0000 50.0215 0.0000 -4.3753
# 5 33.6911 11.9627 18.8390 0.0000 42.2175 0.0000
# 6 0.0000 0.0000 0.0000 -4.3753 0.0000 15.3337
#
#
#
# Elastic Compliance Matrix: (Units=1/GPa)
#
#
# Indices 1 2 3 4 5 6 
#
# 1 0.017253 0.000791 -0.004938 0.000000 -0.011789 0.000000
# 2 0.000791 0.008692 -0.004978 0.000000 -0.000873 0.000000
# 3 -0.004938 -0.004978 0.011713 0.000000 0.000124 0.000000
# 4 0.000000 0.000000 0.000000 0.020503 0.000000 0.005850
# 5 -0.011789 -0.000873 0.000124 0.000000 0.033287 0.000000
# 6 0.000000 0.000000 0.000000 0.005850 0.000000 0.066885
#
#
# Mechanical properties :
#
#
# Convention : Reuss Voigt Hill
#
# Bulk Modulus (GPa) = 51.51856 76.39001 63.95429
# Shear Modulus (GPa) = 27.31463 37.64177 32.47820
#
# Velocity S-wave (km/s) = 3.36058 3.94504 3.66448
# Velocity P-wave (km/s) = 6.02983 7.23432 6.65937
#
# Compressibility (1/GPa) = 0.01941048
#
# Stress axis : x y z
#
# Youngs Moduli (GPa) = 57.96085 115.04794 85.37340
#
# Poissons Ratio (x) = -0.09105 0.42156
# Poissons Ratio (y) = -0.04587 0.42495
# Poissons Ratio (z) = 0.28620 0.57266
#
# Static dielectric constant tensor:
#      x y z
#    x 2.037800 0.000000 -0.090880 
#    y 0.000000 1.897970 0.000000 
#    z -0.090880 0.000000 2.080530 
# 
# From -- ./inp_files/16642.got.cif
#   From: 2010.05.17/outbox.cif.g08.bks.cpg/sg5_9_cif.got.tgz:16642.got - 2010.06.03 18:56:24.
