data_PCOD9127362
_publ_section_title
;
Structure prediction by ZEFSAII (Michael W. Deem and Ramdas Pophale) SiO2 
 PCOD9127362
Probable space group: C 2
;
_chemical_formula_sum "Si O2"
_cell_formula_units_Z 22
_cell_length_a 7.095469
_cell_length_b 18.380782
_cell_length_c 11.878122
_cell_angle_alpha 90.000000
_cell_angle_beta 33.328118
_cell_angle_gamma 90.000000
_cell_volume 851.152844
_symmetry_space_group_name_H-M "C 2"
_symmetry_group_IT_number 5
_symmetry_cell_setting 'monoclinic'
loop_
_space_group_symop_operation_xyz
x,y,z
-x,y,-z
1/2+x,1/2+y,z
1/2-x,1/2+y,-z
loop_
_atom_site_type_symbol
_atom_site_label
_atom_site_fract_x
_atom_site_fract_y
_atom_site_fract_z
Si Si1 0.500000 0.317940 0.000000
Si Si2 0.852413 0.941604 0.258092
Si Si3 0.775527 0.241492 0.266360
Si Si4 0.875997 0.547065 0.933349
Si Si5 0.779010 0.398535 0.264439
Si Si6 0.969698 0.698832 0.843692
O O1 0.355439 0.381013 0.161019
O O2 0.341574 0.250323 0.163511
O O3 0.500000 0.949427 0.500000
O O4 0.117914 0.911963 0.221880
O O5 0.983297 0.019461 0.144473
O O6 0.500000 0.228942 0.500000
O O7 0.979491 0.320472 0.171340
O O8 0.566115 0.241451 0.254832
O O9 0.083986 0.187213 0.088583
O O10 0.047425 0.614925 0.783998
O O11 0.032003 0.472812 0.806416
O O12 0.000000 0.558483 0.000000
O O13 0.500000 0.387458 0.500000
#
# Coordination Sequence:
#
# PCOD9127362 Si02
#       6
#     2   4   4   4   4   4
#     4  12  24  40  70 100 134 166 226 286 324 390
#     4  11  26  42  70 102 132 174 231 279 325 389
#     4  10  23  43  70  95 131 174 225 269 332 397
#     4  10  23  46  68  95 139 181 217 272 342 400
#     4  10  22  45  72  94 128 184 230 266 329 406
#     4  11  23  43  68  99 132 175 215 277 338 393
#
# _framework density 25.847296
#
# number of rings (size 3 to 8) (size 9 to 14) (size 15 to 20)
#    0.000    1.455    2.727    1.091   12.727    2.182 
#    6.545    0.909    0.000    0.000    0.000    0.000 
#    0.000    0.000    0.000    0.000    0.000    0.000 
#
# Total GULP energy -61292.395022 kJ/mol
# GULP energy per Si atom -5572.035911 kJ/mol
# Density = 2.578847 g / cm^3
# Si number density = 25.847296 Si / 1000 Ang^3
#
#
#
# Elastic Constant Matrix: (Units=GPa)
#
#
# Indices 1 2 3 4 5 6 
#
# 1 93.4166 22.1495 -14.0184 -0.0001 26.0117 0.0000
# 2 22.1495 169.6017 2.8589 0.0000 7.6169 0.0000
# 3 -14.0184 2.8589 117.9161 0.0001 16.9959 0.0000
# 4 -0.0001 0.0000 0.0001 8.2530 0.0002 5.6654
# 5 26.0117 7.6169 16.9959 0.0002 35.7480 0.0000
# 6 0.0000 0.0000 0.0000 5.6654 0.0000 29.5242
#
#
#
# Elastic Compliance Matrix: (Units=1/GPa)
#
#
# Indices 1 2 3 4 5 6 
#
# 1 0.015027 -0.001469 0.003600 0.000000 -0.012333 0.000000
# 2 -0.001469 0.006097 -0.000311 0.000000 -0.000082 0.000000
# 3 0.003600 -0.000311 0.009967 0.000000 -0.007292 0.000000
# 4 0.000000 0.000000 0.000000 0.139551 -0.000001 -0.026778
# 5 -0.012333 -0.000082 -0.007292 -0.000001 0.040432 0.000000
# 6 0.000000 0.000000 0.000000 -0.026778 0.000000 0.039009
#
#
# Mechanical properties :
#
#
# Convention : Reuss Voigt Hill
#
# Bulk Modulus (GPa) = 28.79267 44.76826 36.78047
# Shear Modulus (GPa) = 19.37829 39.36799 29.37314
#
# Velocity S-wave (km/s) = 2.74108 3.90692 3.37473
# Velocity P-wave (km/s) = 4.60236 6.14084 5.42640
#
# Compressibility (1/GPa) = 0.03473106
#
# Stress axis : x y z
#
# Youngs Moduli (GPa) = 66.54507 164.01535 100.33002
#
# Poissons Ratio (x) = 0.24099 -0.36116
# Poissons Ratio (y) = 0.09778 0.03117
# Poissons Ratio (z) = -0.23955 0.05095
#
# Static dielectric constant tensor:
#      x y z
#    x 1.951800 0.000000 -0.015130 
#    y 0.000000 1.982580 0.000000 
#    z -0.015130 0.000000 1.985060 
# 
# From -- ./inp_files/51309.got.cif
#   From: 2010.05.17/outbox.cif.g08.bks.cpg/sg5_26_cif.got.tgz:51309.got - 2010.06.03 18:56:24.
