data_PCOD9127098
_publ_section_title
;
Structure prediction by ZEFSAII (Michael W. Deem and Ramdas Pophale) SiO2 
 PCOD9127098
Probable space group: C 2
;
_chemical_formula_sum "Si O2"
_cell_formula_units_Z 26
_cell_length_a 13.304206
_cell_length_b 8.698959
_cell_length_c 11.845193
_cell_angle_alpha 90.000000
_cell_angle_beta 131.817674
_cell_angle_gamma 90.000000
_cell_volume 1021.673750
_symmetry_space_group_name_H-M "C 2"
_symmetry_group_IT_number 5
_symmetry_cell_setting 'monoclinic'
loop_
_space_group_symop_operation_xyz
x,y,z
-x,y,-z
1/2+x,1/2+y,z
1/2-x,1/2+y,-z
loop_
_atom_site_type_symbol
_atom_site_label
_atom_site_fract_x
_atom_site_fract_y
_atom_site_fract_z
Si Si1 0.640367 0.211720 0.949059
Si Si2 0.500000 0.538126 0.500000
Si Si3 0.773581 0.932723 0.177261
Si Si4 0.169351 0.929096 0.165501
Si Si5 0.697957 0.783480 0.535811
Si Si6 0.535736 0.953143 0.727950
Si Si7 0.621635 0.749831 0.242112
O O1 0.716136 0.300721 0.907156
O O2 0.534592 0.102210 0.805871
O O3 0.730691 0.091426 0.087455
O O4 0.601065 0.344584 0.007717
O O5 0.418186 0.445443 0.345602
O O6 0.610518 0.645318 0.522138
O O7 0.687094 0.326021 0.290734
O O8 0.666661 0.882443 0.190946
O O9 0.323605 0.949128 0.232339
O O10 0.117632 0.092605 0.171130
O O11 0.726970 0.745234 0.426723
O O12 0.593985 0.928480 0.448185
O O13 0.512189 0.805532 0.793004
#
# Coordination Sequence:
#
# PCOD9127098 Si02
#       7
#     4   2   4   4   4   4   4
#     4  12  24  45  77 109 151 203 247 311 394 453
#     4  12  24  44  72 108 150 200 246 318 374 458
#     4  12  25  46  72 108 150 201 253 310 384 455
#     4  12  21  47  81 108 152 207 249 316 393 444
#     4  10  22  43  72 109 148 191 254 314 372 448
#     4  10  22  44  73 111 153 196 253 311 381 452
#     4  10  26  43  75 111 146 201 259 316 370 463
#
# _framework density 25.448437999999999
#
# number of rings (size 3 to 8) (size 9 to 14) (size 15 to 20)
#    0.923    0.000    6.154    0.000    2.154    1.846 
#    0.000    3.077    0.000    0.000    0.000    0.000 
#    0.000    0.000    0.000    0.000    0.000    0.000 
#
# Total GULP energy -72760.132185 kJ/mol
# GULP energy per Si atom -5596.933245 kJ/mol
# Density = 2.539052 g / cm^3
# Si number density = 25.448438 Si / 1000 Ang^3
#
#
#
# Elastic Constant Matrix: (Units=GPa)
#
#
# Indices 1 2 3 4 5 6 
#
# 1 82.4731 47.8421 32.2991 0.0000 -27.8007 0.0000
# 2 47.8421 117.8599 42.4390 0.0000 -21.1082 0.0000
# 3 32.2991 42.4390 163.3658 0.0000 -19.3936 0.0000
# 4 0.0000 0.0000 0.0000 41.5305 0.0000 30.4472
# 5 -27.8007 -21.1082 -19.3936 0.0000 40.9478 0.0000
# 6 0.0000 0.0000 0.0000 30.4472 0.0000 -60.6187
#
#
#
# Elastic Compliance Matrix: (Units=1/GPa)
#
#
# Indices 1 2 3 4 5 6 
#
# 1 0.019032 -0.005603 -0.001183 0.000000 0.009473 0.000000
# 2 -0.005603 0.011634 -0.001753 0.000000 0.001363 0.000000
# 3 -0.001183 -0.001753 0.007001 0.000000 0.001610 0.000000
# 4 0.000000 0.000000 0.000000 0.017598 0.000000 0.008839
# 5 0.009473 0.001363 0.001610 0.000000 0.032318 0.000000
# 6 0.000000 0.000000 0.000000 0.008839 0.000000 -0.012057
#
#
# Mechanical properties :
#
#
# Convention : Reuss Voigt Hill
#
# Bulk Modulus (GPa) = 48.56577 67.65101 58.10839
# Shear Modulus (GPa) = 50.26772 20.44650 35.35711
#
# Velocity S-wave (km/s) = 4.44923 2.83759 3.73146
# Velocity P-wave (km/s) = 6.74682 6.11369 6.43804
#
# Compressibility (1/GPa) = 0.02059064
#
# Stress axis : x y z
#
# Youngs Moduli (GPa) = 52.54363 85.95252 142.82737
#
# Poissons Ratio (x) = 0.48160 0.16892
# Poissons Ratio (y) = 0.29440 0.25034
# Poissons Ratio (z) = 0.06214 0.15065
#
# Static dielectric constant tensor:
#      x y z
#    x 2.142860 0.000000 0.036210 
#    y 0.000000 1.974330 0.000000 
#    z 0.036210 0.000000 2.039180 
# 
# From -- ./inp_files/41812.got.cif
#   From: 2010.05.17/outbox.cif.g08.bks.cpg/sg5_21_cif.got.tgz:41812.got - 2010.06.03 18:56:24.
