data_PCOD9127055
_publ_section_title
;
Structure prediction by ZEFSAII (Michael W. Deem and Ramdas Pophale) SiO2 
 PCOD9127055
Probable space group: C 2
;
_chemical_formula_sum "Si O2"
_cell_formula_units_Z 20
_cell_length_a 7.422318
_cell_length_b 25.563022
_cell_length_c 8.274357
_cell_angle_alpha 90.000000
_cell_angle_beta 143.292152
_cell_angle_gamma 90.000000
_cell_volume 938.414405
_symmetry_space_group_name_H-M "C 2"
_symmetry_group_IT_number 5
_symmetry_cell_setting 'monoclinic'
loop_
_space_group_symop_operation_xyz
x,y,z
-x,y,-z
1/2+x,1/2+y,z
1/2-x,1/2+y,-z
loop_
_atom_site_type_symbol
_atom_site_label
_atom_site_fract_x
_atom_site_fract_y
_atom_site_fract_z
Si Si1 0.710039 0.511950 0.991127
Si Si2 0.854229 0.615338 0.226477
Si Si3 0.359746 0.234265 0.227114
Si Si4 0.500000 0.867489 0.500000
Si Si5 0.500000 0.297272 0.000000
Si Si6 0.790939 0.947872 0.481878
O O1 0.866426 0.568865 0.105352
O O2 0.972529 0.469213 0.191072
O O3 0.500000 0.509652 0.000000
O O4 0.486275 0.496824 0.687364
O O5 0.968236 0.673800 0.276091
O O6 0.000000 0.596468 0.500000
O O7 0.500000 0.622528 0.000000
O O8 0.500000 0.251754 0.500000
O O9 0.455159 0.265147 0.134626
O O10 0.000000 0.236205 0.000000
O O11 0.700757 0.832043 0.761238
O O12 0.727966 0.906220 0.574253
O O13 0.000000 0.921640 0.500000
#
# Coordination Sequence:
#
# PCOD9127055 Si02
#       6
#     4   4   4   2   2   4
#     4  11  19  39  67  92 132 176 211 260 325 395
#     4   9  18  34  64  97 128 176 208 249 332 395
#     4  10  22  43  68  98 138 168 217 279 327 399
#     4  12  26  46  66  92 132 176 226 280 334 388
#     4  12  26  44  72  98 124 180 230 276 342 384
#     4  12  25  42  63  94 129 170 220 275 325 388
#
# _framework density 21.312546999999999
#
# number of rings (size 3 to 8) (size 9 to 14) (size 15 to 20)
#    0.000    1.200    2.000    5.400    0.000    2.400 
#    3.600    0.000    0.000    0.000    0.000    0.000 
#    0.000    0.000    0.000    0.000    0.000    0.000 
#
# Total GULP energy -55833.206555 kJ/mol
# GULP energy per Si atom -5583.320656 kJ/mol
# Density = 2.126404 g / cm^3
# Si number density = 21.312547 Si / 1000 Ang^3
#
#
#
# Elastic Constant Matrix: (Units=GPa)
#
#
# Indices 1 2 3 4 5 6 
#
# 1 108.8049 37.8324 24.2535 0.0000 -17.0336 0.0000
# 2 37.8324 91.3776 26.1681 0.0000 -15.9852 0.0000
# 3 24.2535 26.1681 132.9107 0.0000 -1.7039 0.0000
# 4 0.0000 0.0000 0.0000 21.8644 0.0000 17.1277
# 5 -17.0336 -15.9852 -1.7039 0.0000 26.1478 0.0000
# 6 0.0000 0.0000 0.0000 17.1277 0.0000 -81.4539
#
#
#
# Elastic Compliance Matrix: (Units=1/GPa)
#
#
# Indices 1 2 3 4 5 6 
#
# 1 0.011525 -0.003455 -0.001355 0.000000 0.005307 0.000000
# 2 -0.003455 0.014048 -0.002056 0.000000 0.006203 0.000000
# 3 -0.001355 -0.002056 0.008155 0.000000 -0.001608 0.000000
# 4 0.000000 0.000000 0.000000 0.039268 0.000000 0.008257
# 5 0.005307 0.006203 -0.001608 0.000000 0.045389 0.000000
# 6 0.000000 0.000000 0.000000 0.008257 0.000000 -0.010541
#
#
# Mechanical properties :
#
#
# Convention : Reuss Voigt Hill
#
# Bulk Modulus (GPa) = 50.00835 56.62236 53.31535
# Shear Modulus (GPa) = 38.98879 9.63427 24.31153
#
# Velocity S-wave (km/s) = 4.28177 2.12845 3.38111
# Velocity P-wave (km/s) = 6.92531 5.71539 6.34924
#
# Compressibility (1/GPa) = 0.01999666
#
# Stress axis : x y z
#
# Youngs Moduli (GPa) = 86.76780 71.18421 122.62098
#
# Poissons Ratio (x) = 0.24596 0.16612
# Poissons Ratio (y) = 0.29980 0.25209
# Poissons Ratio (z) = 0.11755 0.14634
#
# Static dielectric constant tensor:
#      x y z
#    x 1.774640 0.000000 -0.006610 
#    y 0.000000 1.831230 0.000000 
#    z -0.006610 0.000000 1.775700 
# 
# From -- ./inp_files/17292.got.cif
#   From: 2010.05.17/outbox.cif.g08.bks.cpg/sg5_9_cif.got.tgz:17292.got - 2010.06.03 18:56:24.
