data_PCOD9127882
_publ_section_title
;
Structure prediction by ZEFSAII (Michael W. Deem and Ramdas Pophale) SiO2 
 PCOD9127882
Probable space group: C 2
;
_chemical_formula_sum "Si O2"
_cell_formula_units_Z 22
_cell_length_a 11.597922
_cell_length_b 11.972283
_cell_length_c 9.055622
_cell_angle_alpha 90.000000
_cell_angle_beta 41.864548
_cell_angle_gamma 90.000000
_cell_volume 839.157245
_symmetry_space_group_name_H-M "C 2"
_symmetry_group_IT_number 5
_symmetry_cell_setting 'monoclinic'
loop_
_space_group_symop_operation_xyz
x,y,z
-x,y,-z
1/2+x,1/2+y,z
1/2-x,1/2+y,-z
loop_
_atom_site_type_symbol
_atom_site_label
_atom_site_fract_x
_atom_site_fract_y
_atom_site_fract_z
Si Si1 0.340884 0.704500 0.753404
Si Si2 0.511949 0.163897 0.770233
Si Si3 0.609780 0.930268 0.163997
Si Si4 0.500000 0.777735 0.000000
Si Si5 0.516046 0.413341 0.311191
Si Si6 0.370600 0.622079 0.331846
O O1 0.500000 0.665000 0.500000
O O2 0.350960 0.839680 0.746415
O O3 0.436597 0.665859 0.813475
O O4 0.141483 0.668390 0.960467
O O5 0.490898 0.282449 0.712332
O O6 0.720412 0.159513 0.588538
O O7 0.476001 0.048162 0.718209
O O8 0.508974 0.866046 0.128382
O O9 0.794900 0.951412 0.915720
O O10 0.348296 0.691016 0.200638
O O11 0.500000 0.431775 0.500000
O O12 0.386334 0.488620 0.336027
#
# Coordination Sequence:
#
# PCOD9127882 Si02
#       6
#     4   4   4   2   4   4
#     4  10  23  45  64  99 139 178 230 299 340 413
#     4  11  25  42  69 105 135 186 236 277 357 422
#     4  10  23  43  69  99 137 186 235 284 356 415
#     4  10  24  46  72  94 146 194 234 292 348 412
#     4  11  24  45  71 103 143 185 232 296 350 416
#     4  11  24  44  69  99 137 185 239 285 346 419
#
# _framework density 26.21678
#
# number of rings (size 3 to 8) (size 9 to 14) (size 15 to 20)
#    0.000    1.455    1.818    1.636    7.636    1.455 
#    6.545    0.909    0.000    0.000    0.000    0.000 
#    0.000    0.000    0.000    0.000    0.000    0.000 
#
# Total GULP energy -61243.365248 kJ/mol
# GULP energy per Si atom -5567.578659 kJ/mol
# Density = 2.615711 g / cm^3
# Si number density = 26.216780 Si / 1000 Ang^3
#
#
#
# Elastic Constant Matrix: (Units=GPa)
#
#
# Indices 1 2 3 4 5 6 
#
# 1 38.3238 23.4927 41.1265 0.0000 -25.4654 0.0000
# 2 23.4927 226.5979 28.7214 0.0000 -7.0603 0.0000
# 3 41.1265 28.7214 190.2465 0.0000 -9.6621 0.0000
# 4 0.0000 0.0000 0.0000 -322.5735 0.0000 -46.8391
# 5 -25.4654 -7.0603 -9.6621 0.0000 47.7430 0.0000
# 6 0.0000 0.0000 0.0000 -46.8391 0.0000 -11.0921
#
#
#
# Elastic Compliance Matrix: (Units=1/GPa)
#
#
# Indices 1 2 3 4 5 6 
#
# 1 0.059109 -0.003871 -0.010732 0.000000 0.028783 0.000000
# 2 -0.003871 0.004766 0.000049 0.000000 -0.001350 0.000000
# 3 -0.010732 0.000049 0.007354 0.000000 -0.004229 0.000000
# 4 0.000000 0.000000 0.000000 -0.008014 0.000000 0.033841
# 5 0.028783 -0.001350 -0.004229 0.000000 0.035243 0.000000
# 6 0.000000 0.000000 0.000000 0.033841 0.000000 -0.233055
#
#
# Mechanical properties :
#
#
# Convention : Reuss Voigt Hill
#
# Bulk Modulus (GPa) = 23.74102 71.31660 47.52881
# Shear Modulus (GPa) = -54.67532 -33.06267 -43.86900
#
# Velocity S-wave (km/s) = -4.57169 -3.55509 -4.09506
# Velocity P-wave (km/s) = 4.33495 3.22648 2.04715
#
# Compressibility (1/GPa) = 0.04212119
#
# Stress axis : x y z
#
# Youngs Moduli (GPa) = 16.91797 209.81073 135.97823
#
# Poissons Ratio (x) = 0.81219 1.45926
# Poissons Ratio (y) = 0.06549 -0.00662
# Poissons Ratio (z) = 0.18156 -0.01022
#
# Static dielectric constant tensor:
#      x y z
#    x 2.562960 0.000000 0.116320 
#    y 0.000000 2.076930 0.000000 
#    z 0.116320 0.000000 2.028780 
# 
# From -- ./inp_files/42654.got.cif
#   From: 2010.05.17/outbox.cif.g08.bks.cpg/sg5_22_cif.got.tgz:42654.got - 2010.06.03 18:56:24.
