data_PCOD9127060
_publ_section_title
;
Structure prediction by ZEFSAII (Michael W. Deem and Ramdas Pophale) SiO2 
 PCOD9127060
Probable space group: C 2
;
_chemical_formula_sum "Si O2"
_cell_formula_units_Z 26
_cell_length_a 7.981515
_cell_length_b 20.275138
_cell_length_c 8.651120
_cell_angle_alpha 90.000000
_cell_angle_beta 130.160817
_cell_angle_gamma 90.000000
_cell_volume 1069.916037
_symmetry_space_group_name_H-M "C 2"
_symmetry_group_IT_number 5
_symmetry_cell_setting 'monoclinic'
loop_
_space_group_symop_operation_xyz
x,y,z
-x,y,-z
1/2+x,1/2+y,z
1/2-x,1/2+y,-z
loop_
_atom_site_type_symbol
_atom_site_label
_atom_site_fract_x
_atom_site_fract_y
_atom_site_fract_z
Si Si1 0.500000 0.460551 0.500000
Si Si2 0.500000 0.251200 0.500000
Si Si3 0.773242 0.923763 0.848188
Si Si4 0.689046 0.147956 0.212563
Si Si5 0.093903 0.530227 0.383792
Si Si6 0.000000 0.333091 0.500000
Si Si7 0.588314 0.709005 0.365085
Si Si8 0.263172 0.353086 0.154219
O O1 0.345382 0.503560 0.523132
O O2 0.330634 0.416021 0.300417
O O3 0.283053 0.207352 0.361789
O O4 0.436512 0.299391 0.320557
O O5 0.701368 0.882561 0.653723
O O6 0.571999 0.972048 0.760236
O O7 0.804400 0.871504 0.002949
O O8 0.000000 0.962930 0.000000
O O9 0.600668 0.084439 0.250288
O O10 0.776860 0.193450 0.399737
O O11 0.906758 0.152985 0.236041
O O12 0.500000 0.178244 0.000000
O O13 0.000000 0.549893 0.500000
O O14 0.977109 0.285008 0.636036
O O15 0.000000 0.337099 0.000000
#
# Coordination Sequence:
#
# PCOD9127060 Si02
#       8
#     2   2   4   4   4   2   4   4
#     4  11  24  45  68 100 163 186 235 294 354 442
#     4  11  24  40  73 111 146 186 245 298 370 448
#     4  12  24  41  67 112 150 187 241 290 374 453
#     4  10  25  49  72  98 134 194 249 310 365 411
#     4  12  26  47  77 103 148 201 245 300 370 436
#     4  10  22  43  69 103 149 188 236 296 376 432
#     4  10  24  47  74  99 144 191 243 310 364 421
#     4  11  23  39  66 110 153 192 226 293 367 444
#
# _framework density 24.300971000000001
#
# number of rings (size 3 to 8) (size 9 to 14) (size 15 to 20)
#    0.000    1.231    2.308    3.692    5.385    6.154 
#    5.538    0.000    0.000    0.000    0.000    0.000 
#    0.000    0.000    0.000    0.000    0.000    0.000 
#
# Total GULP energy -72384.049322 kJ/mol
# GULP energy per Si atom -5568.003794 kJ/mol
# Density = 2.424566 g / cm^3
# Si number density = 24.300971 Si / 1000 Ang^3
#
#
#
# Elastic Constant Matrix: (Units=GPa)
#
#
# Indices 1 2 3 4 5 6 
#
# 1 132.0140 29.9941 14.2536 0.0000 30.1967 0.0000
# 2 29.9941 48.0083 13.6343 0.0000 20.8506 0.0000
# 3 14.2536 13.6343 111.1258 0.0000 24.7213 0.0000
# 4 0.0000 0.0000 0.0000 7.1879 0.0000 13.8029
# 5 30.1967 20.8506 24.7213 0.0000 36.0496 0.0000
# 6 0.0000 0.0000 0.0000 13.8029 0.0000 10.5613
#
#
#
# Elastic Compliance Matrix: (Units=1/GPa)
#
#
# Indices 1 2 3 4 5 6 
#
# 1 0.009809 -0.003407 0.000648 0.000000 -0.006691 0.000000
# 2 -0.003407 0.029004 -0.000029 0.000000 -0.013902 0.000000
# 3 0.000648 -0.000029 0.010663 0.000000 -0.007839 0.000000
# 4 0.000000 0.000000 0.000000 -0.092153 0.000000 0.120438
# 5 -0.006691 -0.013902 -0.007839 0.000000 0.046760 0.000000
# 6 0.000000 0.000000 0.000000 0.120438 0.000000 -0.062719
#
#
# Mechanical properties :
#
#
# Convention : Reuss Voigt Hill
#
# Bulk Modulus (GPa) = 22.77810 45.21247 33.99529
# Shear Modulus (GPa) = -130.11997 26.31084 -51.90456
#
# Velocity S-wave (km/s) = -7.32540 3.29402 -4.62660
# Velocity P-wave (km/s) = 7.88384 5.75439 3.81063
#
# Compressibility (1/GPa) = 0.04390181
#
# Stress axis : x y z
#
# Youngs Moduli (GPa) = 101.94212 34.47767 93.78239
#
# Poissons Ratio (x) = 0.11746 -0.06079
# Poissons Ratio (y) = 0.34730 0.00271
# Poissons Ratio (z) = -0.06608 0.00100
#
# Static dielectric constant tensor:
#      x y z
#    x 2.794010 0.000000 0.005770 
#    y 0.000000 1.956640 0.000000 
#    z 0.005770 0.000000 1.904260 
# 
# From -- ./inp_files/17106.got.cif
#   From: 2010.05.17/outbox.cif.g08.bks.cpg/sg5_9_cif.got.tgz:17106.got - 2010.06.03 18:56:24.
