data_PCOD9127570
_publ_section_title
;
Structure prediction by ZEFSAII (Michael W. Deem and Ramdas Pophale) SiO2 
 PCOD9127570
Probable space group: C 2
;
_chemical_formula_sum "Si O2"
_cell_formula_units_Z 30
_cell_length_a 12.492448
_cell_length_b 20.312989
_cell_length_c 12.127843
_cell_angle_alpha 90.000000
_cell_angle_beta 26.228128
_cell_angle_gamma 90.000000
_cell_volume 1360.111271
_symmetry_space_group_name_H-M "C 2"
_symmetry_group_IT_number 5
_symmetry_cell_setting 'monoclinic'
loop_
_space_group_symop_operation_xyz
x,y,z
-x,y,-z
1/2+x,1/2+y,z
1/2-x,1/2+y,-z
loop_
_atom_site_type_symbol
_atom_site_label
_atom_site_fract_x
_atom_site_fract_y
_atom_site_fract_z
Si Si1 0.000000 0.503760 0.000000
Si Si2 0.057997 0.070297 0.135850
Si Si3 0.196716 0.474583 0.411414
Si Si4 0.123051 0.211707 0.001665
Si Si5 0.364166 0.942187 0.901705
Si Si6 0.495613 0.348890 0.882821
Si Si7 0.682161 0.614518 0.420530
Si Si8 0.657190 0.234164 0.588542
O O1 0.173769 0.554552 0.771314
O O2 0.880926 0.456194 0.016832
O O3 0.989461 0.087197 0.324275
O O4 0.156118 0.133087 0.983578
O O5 0.811276 0.046162 0.308587
O O6 0.223963 0.006386 0.984618
O O7 0.373042 0.416901 0.215560
O O8 0.000000 0.473505 0.500000
O O9 0.119099 0.452671 0.605883
O O10 0.909338 0.229092 0.287690
O O11 0.398017 0.236795 0.764203
O O12 0.000000 0.229516 0.000000
O O13 0.240698 0.875641 0.967273
O O14 0.650374 0.300645 0.664386
O O15 0.500000 0.315777 0.000000
O O16 0.500000 0.645732 0.500000
O O17 0.846439 0.669995 0.327144
#
# Coordination Sequence:
#
# PCOD9127570 Si02
#       8
#     2   4   4   4   4   4   4   4
#     4  12  22  40  70  98 146 182 234 302 368 440
#     4  10  23  38  64 101 138 174 231 287 366 432
#     4  11  23  39  67 100 136 178 235 297 353 434
#     4  11  26  48  74 105 145 191 238 305 366 441
#     4  11  23  42  65 101 138 182 236 289 364 428
#     4  11  26  46  69  99 139 187 248 303 356 427
#     4  11  23  40  66 104 142 183 234 301 366 439
#     4  11  28  47  73 106 142 193 252 299 365 435
#
# _framework density 22.057019
#
# number of rings (size 3 to 8) (size 9 to 14) (size 15 to 20)
#    0.000    1.067    4.000    1.200    8.400    0.533 
#    1.200    1.333    0.000    0.000    0.000    0.000 
#    0.000    0.000    0.000    0.000    0.000    0.000 
#
# Total GULP energy -83643.133164 kJ/mol
# GULP energy per Si atom -5576.208878 kJ/mol
# Density = 2.200682 g / cm^3
# Si number density = 22.057019 Si / 1000 Ang^3
#
#
#
# Elastic Constant Matrix: (Units=GPa)
#
#
# Indices 1 2 3 4 5 6 
#
# 1 119.5586 16.8948 17.8625 -0.2647 -6.4504 0.1367
# 2 16.8948 54.1072 11.9766 -0.3910 10.0918 0.2297
# 3 17.8625 11.9766 61.1971 -0.4714 6.3222 0.2638
# 4 -0.2647 -0.3910 -0.4714 20.1970 0.1569 3.5120
# 5 -6.4504 10.0918 6.3222 0.1569 33.8647 -0.0539
# 6 0.1367 0.2297 0.2638 3.5120 -0.0539 15.6977
#
#
#
# Elastic Compliance Matrix: (Units=1/GPa)
#
#
# Indices 1 2 3 4 5 6 
#
# 1 0.009316 -0.002944 -0.002465 -0.000020 0.003112 0.000018
# 2 -0.002944 0.021177 -0.002621 0.000422 -0.006385 -0.000356
# 3 -0.002465 -0.002621 0.017891 0.000418 -0.003031 -0.000345
# 4 -0.000020 0.000422 0.000418 0.051541 -0.000465 -0.011546
# 5 0.003112 -0.006385 -0.003031 -0.000465 0.032593 0.000333
# 6 0.000018 -0.000356 -0.000345 -0.011546 0.000333 0.066299
#
#
# Mechanical properties :
#
#
# Convention : Reuss Voigt Hill
#
# Bulk Modulus (GPa) = 30.93628 36.48119 33.70874
# Shear Modulus (GPa) = 22.15815 26.49383 24.32599
#
# Velocity S-wave (km/s) = 3.17296 3.46952 3.32455
# Velocity P-wave (km/s) = 5.24210 5.71188 5.48202
#
# Compressibility (1/GPa) = 0.03232451
#
# Stress axis : x y z
#
# Youngs Moduli (GPa) = 107.33977 47.22199 55.89457
#
# Poissons Ratio (x) = 0.13902 0.13777
# Poissons Ratio (y) = 0.31601 0.14648
# Poissons Ratio (z) = 0.26458 0.12375
#
# Static dielectric constant tensor:
#      x y z
#    x 1.943480 0.000020 -0.031640 
#    y 0.000020 1.771430 0.000170 
#    z -0.031640 0.000170 1.919030 
# 
# From -- ./inp_files/40714.got.cif
#   From: 2010.05.17/outbox.cif.g08.bks.cpg/sg5_21_cif.got.tgz:40714.got - 2010.06.03 18:56:24.
