data_PCOD9127594
_publ_section_title
;
Structure prediction by ZEFSAII (Michael W. Deem and Ramdas Pophale) SiO2 
 PCOD9127594
Probable space group: C 2
;
_chemical_formula_sum "Si O2"
_cell_formula_units_Z 30
_cell_length_a 7.408677
_cell_length_b 14.598666
_cell_length_c 11.387907
_cell_angle_alpha 90.000000
_cell_angle_beta 76.495271
_cell_angle_gamma 90.000000
_cell_volume 1197.624451
_symmetry_space_group_name_H-M "C 2"
_symmetry_group_IT_number 5
_symmetry_cell_setting 'monoclinic'
loop_
_space_group_symop_operation_xyz
x,y,z
-x,y,-z
1/2+x,1/2+y,z
1/2-x,1/2+y,-z
loop_
_atom_site_type_symbol
_atom_site_label
_atom_site_fract_x
_atom_site_fract_y
_atom_site_fract_z
Si Si1 0.000000 0.875000 0.000000
Si Si2 0.243740 0.621790 0.864546
Si Si3 0.774078 0.362097 0.529057
Si Si4 0.750158 0.969412 0.233642
Si Si5 0.380693 0.669454 0.275994
Si Si6 0.309772 0.979691 0.300972
Si Si7 0.345198 0.209698 0.889253
Si Si8 0.190411 0.659073 0.539296
O O1 0.872597 0.927255 0.112230
O O2 0.133508 0.805436 0.048899
O O3 0.407442 0.681978 0.785876
O O4 0.264414 0.517188 0.814136
O O5 0.047734 0.662795 0.850471
O O6 0.253649 0.640637 0.002384
O O7 0.712600 0.429188 0.642332
O O8 0.733049 0.403406 0.404645
O O9 0.684452 0.264872 0.576726
O O10 0.000000 0.356066 0.500000
O O11 0.805415 0.074538 0.235649
O O12 0.528414 0.959503 0.248989
O O13 0.250947 0.733902 0.218751
O O14 0.349535 0.665032 0.417302
O O15 0.284635 0.075040 0.377625
O O16 0.000000 0.637301 0.500000
#
# Coordination Sequence:
#
# PCOD9127594 Si02
#       8
#     2   4   4   4   4   4   4   4
#     4  10  26  40  76 102 140 200 236 302 374 414
#     4  10  23  39  75  97 137 188 235 294 352 421
#     4  10  25  42  69 106 145 184 238 303 365 433
#     4  11  23  43  71 100 146 190 237 300 366 431
#     4  12  24  43  73 102 140 187 249 288 362 438
#     4  11  22  48  69 103 143 185 245 297 365 432
#     4  10  24  47  67 107 141 188 243 296 353 435
#     4  12  24  42  71 102 138 194 230 302 370 427
#
# _framework density 25.049590999999999
#
# number of rings (size 3 to 8) (size 9 to 14) (size 15 to 20)
#    0.000    1.333    4.000    0.800    9.333    3.200 
#    0.000    0.000    2.933    0.000    0.000    0.000 
#    0.000    0.000    0.000    0.000    0.000    0.000 
#
# Total GULP energy -83898.769317 kJ/mol
# GULP energy per Si atom -5593.251288 kJ/mol
# Density = 2.499258 g / cm^3
# Si number density = 25.049591 Si / 1000 Ang^3
#
#
#
# Elastic Constant Matrix: (Units=GPa)
#
#
# Indices 1 2 3 4 5 6 
#
# 1 65.1020 -14.6786 35.2174 0.0000 -9.8520 0.0000
# 2 -14.6786 67.4118 30.9923 0.0000 14.3911 0.0000
# 3 35.2174 30.9923 155.2141 0.0000 -21.3456 0.0000
# 4 0.0000 0.0000 0.0000 48.4025 0.0000 -0.0597
# 5 -9.8520 14.3911 -21.3456 0.0000 33.7724 0.0000
# 6 0.0000 0.0000 0.0000 -0.0597 0.0000 16.6716
#
#
#
# Elastic Compliance Matrix: (Units=1/GPa)
#
#
# Indices 1 2 3 4 5 6 
#
# 1 0.020280 0.007586 -0.006294 0.000000 -0.001295 0.000000
# 2 0.007586 0.022862 -0.008018 0.000000 -0.012597 0.000000
# 3 -0.006294 -0.008018 0.010612 0.000000 0.008288 0.000000
# 4 0.000000 0.000000 0.000000 0.020660 0.000000 0.000074
# 5 -0.001295 -0.012597 0.008288 0.000000 0.039838 0.000000
# 6 0.000000 0.000000 0.000000 0.000074 0.000000 0.059982
#
#
# Mechanical properties :
#
#
# Convention : Reuss Voigt Hill
#
# Bulk Modulus (GPa) = 24.81400 43.42112 34.11756
# Shear Modulus (GPa) = 24.86068 35.51576 30.18822
#
# Velocity S-wave (km/s) = 3.15375 3.76948 3.47528
# Velocity P-wave (km/s) = 4.81549 6.02636 5.45463
#
# Compressibility (1/GPa) = 0.04029984
#
# Stress axis : x y z
#
# Youngs Moduli (GPa) = 49.30993 43.74137 94.23569
#
# Poissons Ratio (x) = -0.33182 0.59314
# Poissons Ratio (y) = -0.37406 0.75563
# Poissons Ratio (z) = 0.31037 0.35074
#
# Static dielectric constant tensor:
#      x y z
#    x 2.044730 0.000000 0.077120 
#    y 0.000000 1.981590 0.000000 
#    z 0.077120 0.000000 2.115350 
# 
# From -- ./inp_files/36370.got.cif
#   From: 2010.05.17/outbox.cif.g08.bks.cpg/sg5_19_cif.got.tgz:36370.got - 2010.06.03 18:56:24.
