data_PCOD9127914
_publ_section_title
;
Structure prediction by ZEFSAII (Michael W. Deem and Ramdas Pophale) SiO2 
 PCOD9127914
Probable space group: C 2
;
_chemical_formula_sum "Si O2"
_cell_formula_units_Z 28
_cell_length_a 17.842100
_cell_length_b 12.258699
_cell_length_c 7.307774
_cell_angle_alpha 90.000000
_cell_angle_beta 68.132303
_cell_angle_gamma 90.000000
_cell_volume 1483.355159
_symmetry_space_group_name_H-M "C 2"
_symmetry_group_IT_number 5
_symmetry_cell_setting 'monoclinic'
loop_
_space_group_symop_operation_xyz
x,y,z
-x,y,-z
1/2+x,1/2+y,z
1/2-x,1/2+y,-z
loop_
_atom_site_type_symbol
_atom_site_label
_atom_site_fract_x
_atom_site_fract_y
_atom_site_fract_z
Si Si1 0.050192 0.136700 0.267158
Si Si2 0.244150 0.143736 0.132599
Si Si3 0.802580 0.502150 0.738134
Si Si4 0.833131 0.844507 0.217083
Si Si5 0.950316 0.382408 0.732151
Si Si6 0.500000 0.465835 0.000000
Si Si7 0.500000 0.049921 0.000000
Si Si8 0.349557 0.133681 0.355170
O O1 0.147108 0.138888 0.213672
O O2 0.032718 0.260262 0.215674
O O3 0.000000 0.121948 0.500000
O O4 0.021965 0.045621 0.149484
O O5 0.290917 0.261253 0.107280
O O6 0.276579 0.090980 0.292618
O O7 0.276642 0.079044 0.928188
O O8 0.724741 0.447716 0.717662
O O9 0.858365 0.404643 0.759991
O O10 0.850953 0.570310 0.542308
O O11 0.835327 0.763118 0.388691
O O12 0.921841 0.889536 0.098187
O O13 0.000000 0.397915 0.500000
O O14 0.969404 0.471574 0.866735
O O15 0.571096 0.118569 0.841674
#
# Coordination Sequence:
#
# PCOD9127914 Si02
#       8
#     4   4   4   4   4   2   2   4
#     4  11  25  42  65  96 132 167 220 263 323 398
#     4  10  23  44  64  94 131 167 217 268 316 395
#     4  12  21  44  67  90 130 175 212 269 329 375
#     4  10  24  44  65  95 133 164 218 271 317 392
#     4  11  21  38  63  95 127 168 216 269 320 380
#     4  12  24  46  66  94 138 174 208 274 332 376
#     4  12  20  38  64  92 128 168 210 274 326 362
#     4  10  24  40  64  96 128 163 222 268 314 398
#
# _framework density 18.876128999999999
#
# number of rings (size 3 to 8) (size 9 to 14) (size 15 to 20)
#    0.857    0.286    5.714    0.857    2.000    0.000 
#    7.714    0.000    0.000    0.000    0.000    0.000 
#    0.000    0.000    0.000    0.000    0.000    0.000 
#
# Total GULP energy -77964.047569 kJ/mol
# GULP energy per Si atom -5568.860541 kJ/mol
# Density = 1.883317 g / cm^3
# Si number density = 18.876129 Si / 1000 Ang^3
#
#
#
# Elastic Constant Matrix: (Units=GPa)
#
#
# Indices 1 2 3 4 5 6 
#
# 1 115.3824 30.9874 26.2995 0.0000 -17.1194 0.0000
# 2 30.9874 90.7840 34.1331 0.0000 -2.0284 0.0000
# 3 26.2995 34.1331 66.7214 0.0000 -7.3939 0.0000
# 4 0.0000 0.0000 0.0000 15.1611 0.0000 -7.4677
# 5 -17.1194 -2.0284 -7.3939 0.0000 26.7793 0.0000
# 6 0.0000 0.0000 0.0000 -7.4677 0.0000 27.4247
#
#
#
# Elastic Compliance Matrix: (Units=1/GPa)
#
#
# Indices 1 2 3 4 5 6 
#
# 1 0.010802 -0.002729 -0.002186 0.000000 0.006095 0.000000
# 2 -0.002729 0.014350 -0.006538 0.000000 -0.002463 0.000000
# 3 -0.002186 -0.006538 0.019584 0.000000 0.003514 0.000000
# 4 0.000000 0.000000 0.000000 0.076175 0.000000 0.020742
# 5 0.006095 -0.002463 0.003514 0.000000 0.042023 0.000000
# 6 0.000000 0.000000 0.000000 0.020742 0.000000 0.042111
#
#
# Mechanical properties :
#
#
# Convention : Reuss Voigt Hill
#
# Bulk Modulus (GPa) = 45.81126 50.63644 48.22385
# Shear Modulus (GPa) = 21.25590 25.97090 23.61340
#
# Velocity S-wave (km/s) = 3.35934 3.71328 3.54074
# Velocity P-wave (km/s) = 6.27447 6.72819 6.50529
#
# Compressibility (1/GPa) = 0.02182870
#
# Stress axis : x y z
#
# Youngs Moduli (GPa) = 92.57138 69.68690 51.06259
#
# Poissons Ratio (x) = 0.19017 0.11165
# Poissons Ratio (y) = 0.25262 0.33386
# Poissons Ratio (z) = 0.20240 0.45564
#
# Static dielectric constant tensor:
#      x y z
#    x 1.710250 0.000000 0.005880 
#    y 0.000000 1.673750 0.000000 
#    z 0.005880 0.000000 1.620820 
# 
# From -- ./inp_files/8532.got.cif
#   From: 2010.05.17/outbox.cif.g08.bks.cpg/sg5_5_cif.got.tgz:8532.got - 2010.06.03 18:56:24.
