data_PCOD9127956
_publ_section_title
;
Structure prediction by ZEFSAII (Michael W. Deem and Ramdas Pophale) SiO2 
 PCOD9127956
Probable space group: C 2
;
_chemical_formula_sum "Si O2"
_cell_formula_units_Z 32
_cell_length_a 22.809766
_cell_length_b 5.150622
_cell_length_c 18.593681
_cell_angle_alpha 90.000000
_cell_angle_beta 139.323803
_cell_angle_gamma 90.000000
_cell_volume 1423.800600
_symmetry_space_group_name_H-M "C 2"
_symmetry_group_IT_number 5
_symmetry_cell_setting 'monoclinic'
loop_
_space_group_symop_operation_xyz
x,y,z
-x,y,-z
1/2+x,1/2+y,z
1/2-x,1/2+y,-z
loop_
_atom_site_type_symbol
_atom_site_label
_atom_site_fract_x
_atom_site_fract_y
_atom_site_fract_z
Si Si1 0.026031 0.707800 0.274683
Si Si2 0.486940 0.516906 0.605197
Si Si3 0.158217 0.002501 0.313885
Si Si4 0.632586 0.852174 0.903888
Si Si5 0.640815 0.483991 0.639579
Si Si6 0.739702 0.485197 0.240085
Si Si7 0.296330 0.353085 0.953563
Si Si8 0.157454 0.361673 0.450645
O O1 0.976565 0.867554 0.290805
O O2 0.120028 0.649100 0.403596
O O3 0.967567 0.456172 0.202958
O O4 0.064229 0.856065 0.241221
O O5 0.572563 0.586142 0.637106
O O6 0.419567 0.388777 0.484077
O O7 0.421922 0.734754 0.576861
O O8 0.174490 0.061342 0.245578
O O9 0.160063 0.236161 0.373605
O O10 0.248009 0.847567 0.422320
O O11 0.694815 0.876694 0.890679
O O12 0.672219 0.065295 0.996236
O O13 0.645895 0.567355 0.948962
O O14 0.697035 0.233589 0.715011
O O15 0.704462 0.729457 0.684101
O O16 0.696841 0.409603 0.124053
#
# Coordination Sequence:
#
# PCOD9127956 Si02
#       8
#     4   4   4   4   4   4   4   4
#     4  11  24  40  69  91 132 178 229 270 321 398
#     4  10  24  38  60 101 132 175 213 277 324 397
#     4  11  24  39  64  94 134 181 227 258 323 388
#     4  10  23  44  70 100 125 166 220 281 345 396
#     4  11  25  39  64  98 141 171 217 262 337 406
#     4  12  25  43  68  95 134 181 216 272 337 399
#     4  10  23  44  70  97 130 161 217 289 346 396
#     4  11  22  40  63  92 133 178 223 270 310 393
#
# _framework density 22.475059000000002
#
# number of rings (size 3 to 8) (size 9 to 14) (size 15 to 20)
#    0.000    1.250    2.500    2.250   10.500    2.000 
#    0.000    0.625    0.000    0.000    0.000    0.000 
#    0.000    0.000    0.000    0.000    0.000    0.000 
#
# Total GULP energy -89339.847001 kJ/mol
# GULP energy per Si atom -5583.740438 kJ/mol
# Density = 2.242390 g / cm^3
# Si number density = 22.475059 Si / 1000 Ang^3
#
#
#
# Elastic Constant Matrix: (Units=GPa)
#
#
# Indices 1 2 3 4 5 6 
#
# 1 117.3966 -4.2485 50.3456 -0.0004 -27.6288 -0.0004
# 2 -4.2485 46.5227 1.9294 -0.0011 1.0948 -0.0011
# 3 50.3456 1.9294 72.4599 -0.0006 -11.4086 -0.0003
# 4 -0.0004 -0.0011 -0.0006 37.1476 -0.0002 4.9029
# 5 -27.6288 1.0948 -11.4086 -0.0002 38.9920 -0.0002
# 6 -0.0004 -0.0011 -0.0003 4.9029 -0.0002 21.6802
#
#
#
# Elastic Compliance Matrix: (Units=1/GPa)
#
#
# Indices 1 2 3 4 5 6 
#
# 1 0.013991 0.001461 -0.008602 0.000000 0.007356 0.000000
# 2 0.001461 0.021696 -0.001600 0.000000 -0.000042 0.000001
# 3 -0.008602 -0.001600 0.019778 0.000000 -0.000263 0.000000
# 4 0.000000 0.000000 0.000000 0.027748 0.000000 -0.006275
# 5 0.007356 -0.000042 -0.000263 0.000000 0.030783 0.000000
# 6 0.000000 0.000001 0.000000 -0.006275 0.000000 0.047544
#
#
# Mechanical properties :
#
#
# Convention : Reuss Voigt Hill
#
# Bulk Modulus (GPa) = 26.32616 36.93691 31.63153
# Shear Modulus (GPa) = 26.08488 32.12082 29.10285
#
# Velocity S-wave (km/s) = 3.41048 3.78455 3.60237
# Velocity P-wave (km/s) = 5.21990 5.96384 5.60423
#
# Compressibility (1/GPa) = 0.03798504
#
# Stress axis : x y z
#
# Youngs Moduli (GPa) = 71.47395 46.09214 50.55997
#
# Poissons Ratio (x) = -0.06736 0.43491
# Poissons Ratio (y) = -0.10445 0.08088
# Poissons Ratio (z) = 0.61481 0.07373
#
# Static dielectric constant tensor:
#      x y z
#    x 1.840950 0.000000 0.000010 
#    y 0.000000 1.866250 0.000000 
#    z 0.000010 0.000000 1.874430 
# 
# From -- ./inp_files/63175.got.cif
#   From: 2010.05.17/outbox.cif.g08.bks.cpg/sg5_32_cif.got.tgz:63175.got - 2010.06.03 18:56:24.
