data_PCOD9127431
_publ_section_title
;
Structure prediction by ZEFSAII (Michael W. Deem and Ramdas Pophale) SiO2 
 PCOD9127431
Probable space group: C 2
;
_chemical_formula_sum "Si O2"
_cell_formula_units_Z 24
_cell_length_a 20.936665
_cell_length_b 5.862312
_cell_length_c 8.175401
_cell_angle_alpha 90.000000
_cell_angle_beta 79.530782
_cell_angle_gamma 90.000000
_cell_volume 986.721970
_symmetry_space_group_name_H-M "C 2"
_symmetry_group_IT_number 5
_symmetry_cell_setting 'monoclinic'
loop_
_space_group_symop_operation_xyz
x,y,z
-x,y,-z
1/2+x,1/2+y,z
1/2-x,1/2+y,-z
loop_
_atom_site_type_symbol
_atom_site_label
_atom_site_fract_x
_atom_site_fract_y
_atom_site_fract_z
Si Si1 0.382459 0.186510 0.513501
Si Si2 0.945086 0.986573 0.768439
Si Si3 0.129545 0.545242 0.816254
Si Si4 0.500000 0.830292 0.500000
Si Si5 0.179388 0.923024 0.011013
Si Si6 0.500000 0.121587 0.000000
Si Si7 0.754548 0.236145 0.267766
O O1 0.411508 0.371970 0.623985
O O2 0.382546 0.232577 0.320310
O O3 0.305715 0.164949 0.591885
O O4 0.433859 0.978869 0.513558
O O5 0.989869 0.177070 0.666892
O O6 0.884697 0.064781 0.910284
O O7 0.978895 0.790424 0.861396
O O8 0.178997 0.364432 0.714328
O O9 0.157277 0.673883 0.962195
O O10 0.059050 0.470410 0.908355
O O11 0.220749 0.022759 0.845938
O O12 0.222115 0.905901 0.151912
#
# Coordination Sequence:
#
# PCOD9127431 Si02
#       7
#     4   4   4   2   4   2   4
#     4  11  27  43  66 107 139 177 230 279 339 415
#     4  10  24  44  69 100 139 174 227 286 338 410
#     4  11  24  43  68  98 140 179 219 291 332 400
#     4  12  24  44  72  96 144 182 212 290 354 396
#     4  10  23  42  67  95 131 179 233 274 331 401
#     4  10  22  46  72 104 136 172 234 282 336 410
#     4  11  24  42  67  98 135 183 227 273 336 402
#
# _framework density 24.322959999999998
#
# number of rings (size 3 to 8) (size 9 to 14) (size 15 to 20)
#    0.000    1.333    1.667    2.500    4.667    5.333 
#    0.000    1.667    0.000    0.000    0.000    0.000 
#    0.000    0.000    0.000    0.000    0.000    0.000 
#
# Total GULP energy -66990.109392 kJ/mol
# GULP energy per Si atom -5582.509116 kJ/mol
# Density = 2.426760 g / cm^3
# Si number density = 24.322960 Si / 1000 Ang^3
#
#
#
# Elastic Constant Matrix: (Units=GPa)
#
#
# Indices 1 2 3 4 5 6 
#
# 1 148.9433 39.7656 63.3884 0.0000 -49.4032 0.0000
# 2 39.7656 40.8961 11.1829 0.0000 -25.3279 0.0000
# 3 63.3884 11.1829 92.0340 0.0000 -34.5575 0.0000
# 4 0.0000 0.0000 0.0000 31.3194 0.0000 1.0125
# 5 -49.4032 -25.3279 -34.5575 0.0000 62.3748 0.0000
# 6 0.0000 0.0000 0.0000 1.0125 0.0000 28.5292
#
#
#
# Elastic Compliance Matrix: (Units=1/GPa)
#
#
# Indices 1 2 3 4 5 6 
#
# 1 0.012920 -0.008943 -0.006734 0.000000 0.002871 0.000000
# 2 -0.008943 0.038978 0.005943 0.000000 0.012036 0.000000
# 3 -0.006734 0.005943 0.017280 0.000000 0.006653 0.000000
# 4 0.000000 0.000000 0.000000 0.031966 0.000000 -0.001134
# 5 0.002871 0.012036 0.006653 0.000000 0.026879 0.000000
# 6 0.000000 0.000000 0.000000 -0.001134 0.000000 0.035092
#
#
# Mechanical properties :
#
#
# Convention : Reuss Voigt Hill
#
# Bulk Modulus (GPa) = 20.11717 56.72748 38.42233
# Shear Modulus (GPa) = 25.10645 35.61379 30.36012
#
# Velocity S-wave (km/s) = 3.21629 3.83064 3.53683
# Velocity P-wave (km/s) = 4.69910 6.55274 5.70175
#
# Compressibility (1/GPa) = 0.04970877
#
# Stress axis : x y z
#
# Youngs Moduli (GPa) = 77.40099 25.65564 57.87187
#
# Poissons Ratio (x) = 0.22945 0.38970
# Poissons Ratio (y) = 0.69223 -0.34394
# Poissons Ratio (z) = 0.52121 -0.15248
#
# Static dielectric constant tensor:
#      x y z
#    x 2.014750 0.000000 -0.021440 
#    y 0.000000 1.950980 0.000000 
#    z -0.021440 0.000000 1.911850 
# 
# From -- ./inp_files/30265.got.cif
#   From: 2010.05.17/outbox.cif.g08.bks.cpg/sg5_16_cif.got.tgz:30265.got - 2010.06.03 18:56:24.
