data_PCOD9127798
_publ_section_title
;
Structure prediction by ZEFSAII (Michael W. Deem and Ramdas Pophale) SiO2 
 PCOD9127798
Probable space group: C 2
;
_chemical_formula_sum "Si O2"
_cell_formula_units_Z 24
_cell_length_a 20.658106
_cell_length_b 8.249528
_cell_length_c 9.250136
_cell_angle_alpha 90.000000
_cell_angle_beta 43.152727
_cell_angle_gamma 90.000000
_cell_volume 1078.174778
_symmetry_space_group_name_H-M "C 2"
_symmetry_group_IT_number 5
_symmetry_cell_setting 'monoclinic'
loop_
_space_group_symop_operation_xyz
x,y,z
-x,y,-z
1/2+x,1/2+y,z
1/2-x,1/2+y,-z
loop_
_atom_site_type_symbol
_atom_site_label
_atom_site_fract_x
_atom_site_fract_y
_atom_site_fract_z
Si Si1 0.685501 0.248290 0.619161
Si Si2 0.500000 0.718145 0.000000
Si Si3 0.206293 0.915694 0.867967
Si Si4 0.478695 0.436460 0.241658
Si Si5 0.500000 0.286448 0.500000
Si Si6 0.178058 0.412863 0.808743
Si Si7 0.314863 0.109519 0.915993
O O1 0.729280 0.372471 0.666534
O O2 0.578521 0.298967 0.751778
O O3 0.745395 0.286165 0.378408
O O4 0.685958 0.076734 0.699002
O O5 0.453646 0.601978 0.198687
O O6 0.421790 0.828482 0.054591
O O7 0.257238 0.058199 0.869174
O O8 0.230491 0.759285 0.924978
O O9 0.092486 0.932473 0.050706
O O10 0.456999 0.401963 0.444921
O O11 0.418922 0.172494 0.700156
O O12 0.184877 0.468602 0.963543
#
# Coordination Sequence:
#
# PCOD9127798 Si02
#       7
#     4   2   4   4   2   4   4
#     4  11  24  45  71 101 142 187 236 291 351 417
#     4  12  26  44  72 106 142 186 234 302 336 420
#     4  10  23  42  69 102 140 186 228 291 349 413
#     4  11  24  44  72 102 141 187 234 289 354 412
#     4  10  26  46  74  98 140 196 226 292 356 416
#     4  11  28  44  72 107 142 186 239 291 351 417
#     4  10  25  45  70 102 140 184 236 287 355 419
#
# _framework density 22.259841999999999
#
# number of rings (size 3 to 8) (size 9 to 14) (size 15 to 20)
#    0.000    1.333    1.667    1.000   16.333    0.000 
#    0.000    0.833    0.000    0.000    0.000    0.000 
#    0.000    0.000    0.000    0.000    0.000    0.000 
#
# Total GULP energy -67035.778304 kJ/mol
# GULP energy per Si atom -5586.314859 kJ/mol
# Density = 2.220918 g / cm^3
# Si number density = 22.259842 Si / 1000 Ang^3
#
#
#
# Elastic Constant Matrix: (Units=GPa)
#
#
# Indices 1 2 3 4 5 6 
#
# 1 129.5145 51.6317 39.9857 0.0000 32.4148 0.0000
# 2 51.6317 73.6951 29.6318 0.0000 26.5674 0.0000
# 3 39.9857 29.6318 106.8804 0.0000 29.3172 0.0000
# 4 0.0000 0.0000 0.0000 41.5163 0.0000 9.8997
# 5 32.4148 26.5674 29.3172 0.0000 44.5347 0.0000
# 6 0.0000 0.0000 0.0000 9.8997 0.0000 42.0245
#
#
#
# Elastic Compliance Matrix: (Units=1/GPa)
#
#
# Indices 1 2 3 4 5 6 
#
# 1 0.011596 -0.006134 -0.001619 0.000000 -0.003715 0.000000
# 2 -0.006134 0.021050 -0.001612 0.000000 -0.007031 0.000000
# 3 -0.001619 -0.001612 0.011986 0.000000 -0.005751 0.000000
# 4 0.000000 0.000000 0.000000 0.025520 0.000000 -0.006012
# 5 -0.003715 -0.007031 -0.005751 0.000000 0.033139 0.000000
# 6 0.000000 0.000000 0.000000 -0.006012 0.000000 0.025212
#
#
# Mechanical properties :
#
#
# Convention : Reuss Voigt Hill
#
# Bulk Modulus (GPa) = 38.60646 61.39871 50.00258
# Shear Modulus (GPa) = 32.07838 38.20451 35.14144
#
# Velocity S-wave (km/s) = 3.80028 4.14732 3.97759
# Velocity P-wave (km/s) = 6.05288 7.11170 6.60355
#
# Compressibility (1/GPa) = 0.02590240
#
# Stress axis : x y z
#
# Youngs Moduli (GPa) = 86.23535 47.50530 83.42945
#
# Poissons Ratio (x) = 0.29141 0.13503
# Poissons Ratio (y) = 0.52898 0.13452
# Poissons Ratio (z) = 0.13957 0.07660
#
# Static dielectric constant tensor:
#      x y z
#    x 1.793560 0.000000 0.004050 
#    y 0.000000 1.836330 0.000000 
#    z 0.004050 0.000000 1.861280 
# 
# From -- ./inp_files/22822.got.cif
#   From: 2010.05.17/outbox.cif.g08.bks.cpg/sg5_12_cif.got.tgz:22822.got - 2010.06.03 18:56:24.
