data_PCOD9127689
_publ_section_title
;
Structure prediction by ZEFSAII (Michael W. Deem and Ramdas Pophale) SiO2 
 PCOD9127689
Probable space group: C 2
;
_chemical_formula_sum "Si O2"
_cell_formula_units_Z 24
_cell_length_a 23.099391
_cell_length_b 5.905768
_cell_length_c 14.020424
_cell_angle_alpha 90.000000
_cell_angle_beta 150.369938
_cell_angle_gamma 90.000000
_cell_volume 945.615910
_symmetry_space_group_name_H-M "C 2"
_symmetry_group_IT_number 5
_symmetry_cell_setting 'monoclinic'
loop_
_space_group_symop_operation_xyz
x,y,z
-x,y,-z
1/2+x,1/2+y,z
1/2-x,1/2+y,-z
loop_
_atom_site_type_symbol
_atom_site_label
_atom_site_fract_x
_atom_site_fract_y
_atom_site_fract_z
Si Si1 0.774231 0.125000 0.081050
Si Si2 0.486012 0.608181 0.135706
Si Si3 0.075975 0.748845 0.396483
Si Si4 0.184804 0.024904 0.268540
Si Si5 0.001881 0.340234 0.360234
Si Si6 0.268030 0.634811 0.282798
O O1 0.914384 0.168392 0.283691
O O2 0.723800 0.086848 0.114512
O O3 0.742982 0.382245 0.997537
O O4 0.502277 0.364343 0.208263
O O5 0.594875 0.610497 0.219150
O O6 0.496182 0.773847 0.239771
O O7 0.367686 0.630196 0.905152
O O8 0.185072 0.597451 0.515183
O O9 0.986815 0.609936 0.335865
O O10 0.152152 0.937533 0.560034
O O11 0.185404 0.755761 0.242790
O O12 0.131528 0.324905 0.588518
#
# Coordination Sequence:
#
# PCOD9127689 Si02
#       6
#     4   4   4   4   4   4
#     4  12  29  46  77 108 144 194 246 315 372 449
#     4  10  23  41  67 103 142 189 245 301 370 441
#     4  10  24  40  73  96 144 187 240 306 366 448
#     4  10  23  41  67 103 142 189 245 301 370 441
#     4  10  24  45  67 102 141 190 243 303 370 449
#     4  10  24  45  67 102 141 190 243 303 370 449
#
# _framework density 25.380282000000001
#
# number of rings (size 3 to 8) (size 9 to 14) (size 15 to 20)
#    0.000    1.667    0.000    1.500   21.000    0.000 
#    0.000    3.333    0.000    0.000    0.000    0.000 
#    0.000    0.000    0.000    0.000    0.000    0.000 
#
# Total GULP energy -66886.661959 kJ/mol
# GULP energy per Si atom -5573.888497 kJ/mol
# Density = 2.532252 g / cm^3
# Si number density = 25.380282 Si / 1000 Ang^3
#
#
#
# Elastic Constant Matrix: (Units=GPa)
#
#
# Indices 1 2 3 4 5 6 
#
# 1 74.4759 23.6896 23.9734 0.0000 -11.3270 0.0000
# 2 23.6896 77.0549 5.5978 0.0000 -4.5720 0.0000
# 3 23.9734 5.5978 78.3523 0.0000 -2.0524 0.0000
# 4 0.0000 0.0000 0.0000 47.1724 0.0000 11.3606
# 5 -11.3270 -4.5720 -2.0524 0.0000 42.7214 0.0000
# 6 0.0000 0.0000 0.0000 11.3606 0.0000 29.9894
#
#
#
# Elastic Compliance Matrix: (Units=1/GPa)
#
#
# Indices 1 2 3 4 5 6 
#
# 1 0.017023 -0.004662 -0.004776 0.000000 0.003785 0.000000
# 2 -0.004662 0.014401 0.000406 0.000000 0.000325 0.000000
# 3 -0.004776 0.000406 0.014181 0.000000 -0.000542 0.000000
# 4 0.000000 0.000000 0.000000 0.023327 0.000000 -0.008837
# 5 0.003785 0.000325 -0.000542 0.000000 0.024420 0.000000
# 6 0.000000 0.000000 0.000000 -0.008837 0.000000 0.036693
#
#
# Mechanical properties :
#
#
# Convention : Reuss Voigt Hill
#
# Bulk Modulus (GPa) = 36.31013 37.37831 36.84422
# Shear Modulus (GPa) = 31.78856 35.75147 33.77001
#
# Velocity S-wave (km/s) = 3.54289 3.75725 3.65164
# Velocity P-wave (km/s) = 5.57437 5.79498 5.68575
#
# Compressibility (1/GPa) = 0.02754052
#
# Stress axis : x y z
#
# Youngs Moduli (GPa) = 58.74324 69.44062 70.51645
#
# Poissons Ratio (x) = 0.32373 0.33681
# Poissons Ratio (y) = 0.27386 -0.02864
# Poissons Ratio (z) = 0.28058 -0.02820
#
# Static dielectric constant tensor:
#      x y z
#    x 2.080880 0.000000 0.043700 
#    y 0.000000 2.162920 0.000000 
#    z 0.043700 0.000000 2.034370 
# 
# From -- ./inp_files/58259.got.cif
#   From: 2010.05.17/outbox.cif.g08.bks.cpg/sg5_30_cif.got.tgz:58259.got - 2010.06.03 18:56:24.
