data_PCOD9127295
_publ_section_title
;
Structure prediction by ZEFSAII (Michael W. Deem and Ramdas Pophale) SiO2 
 PCOD9127295
Probable space group: C 2
;
_chemical_formula_sum "Si O2"
_cell_formula_units_Z 22
_cell_length_a 7.632371
_cell_length_b 21.266412
_cell_length_c 5.362389
_cell_angle_alpha 90.000000
_cell_angle_beta 85.978110
_cell_angle_gamma 90.000000
_cell_volume 868.242753
_symmetry_space_group_name_H-M "C 2"
_symmetry_group_IT_number 5
_symmetry_cell_setting 'monoclinic'
loop_
_space_group_symop_operation_xyz
x,y,z
-x,y,-z
1/2+x,1/2+y,z
1/2-x,1/2+y,-z
loop_
_atom_site_type_symbol
_atom_site_label
_atom_site_fract_x
_atom_site_fract_y
_atom_site_fract_z
Si Si1 0.500000 0.643991 0.000000
Si Si2 0.000000 0.929429 0.000000
Si Si3 0.195540 0.033424 0.731368
Si Si4 0.184591 0.234712 0.346402
Si Si5 0.000000 0.662512 0.500000
Si Si6 0.000000 0.580326 0.000000
Si Si7 0.000000 0.466482 0.500000
Si Si8 0.164466 0.361726 0.122712
O O1 0.415201 0.597587 0.220180
O O2 0.644673 0.688083 0.117360
O O3 0.172992 0.889710 0.046688
O O4 0.061681 0.976472 0.777785
O O5 0.330986 0.013266 0.499914
O O6 0.329812 0.038509 0.953815
O O7 0.327026 0.204196 0.510767
O O8 0.243861 0.304853 0.272283
O O9 0.000000 0.240843 0.500000
O O10 0.992130 0.622811 0.247107
O O11 0.068558 0.418006 0.282971
O O12 0.000000 0.330935 0.000000
#
# Coordination Sequence:
#
# PCOD9127295 Si02
#       8
#     2   2   4   4   2   2   2   4
#     4  11  22  50  73 115 156 205 270 324 422 473
#     4   9  24  43  72 114 147 213 268 336 386 485
#     4  10  22  44  78 108 158 205 262 335 393 485
#     4  12  26  46  77 114 157 215 262 341 403 499
#     4  12  29  48  78 116 166 205 272 334 416 494
#     4  12  24  49  75 115 161 212 264 330 418 494
#     4  10  23  46  72 114 148 213 264 322 400 478
#     4  11  24  48  77 110 159 207 269 334 403 475
#
# _framework density 25.338535
#
# number of rings (size 3 to 8) (size 9 to 14) (size 15 to 20)
#    0.000    1.091    3.636    1.636    5.091    2.182 
#    0.000    4.545    0.000    0.000    0.000    0.000 
#    0.000    0.000    0.000    0.000    0.000    0.000 
#
# Total GULP energy -61477.604332 kJ/mol
# GULP energy per Si atom -5588.873121 kJ/mol
# Density = 2.528086 g / cm^3
# Si number density = 25.338535 Si / 1000 Ang^3
#
#
#
# Elastic Constant Matrix: (Units=GPa)
#
#
# Indices 1 2 3 4 5 6 
#
# 1 154.0787 52.4938 38.8050 0.0000 -18.1342 0.0000
# 2 52.4938 150.0453 50.6073 0.0000 -13.4743 0.0000
# 3 38.8050 50.6073 88.8643 0.0000 -1.8528 0.0000
# 4 0.0000 0.0000 0.0000 236.4407 0.0000 -208.6133
# 5 -18.1342 -13.4743 -1.8528 0.0000 51.1632 0.0000
# 6 0.0000 0.0000 0.0000 -208.6133 0.0000 225.7824
#
#
#
# Elastic Compliance Matrix: (Units=1/GPa)
#
#
# Indices 1 2 3 4 5 6 
#
# 1 0.007971 -0.001766 -0.002428 0.000000 0.002272 0.000000
# 2 -0.001766 0.008851 -0.004237 0.000000 0.001552 0.000000
# 3 -0.002428 -0.004237 0.014696 0.000000 -0.001444 0.000000
# 4 0.000000 0.000000 0.000000 0.022888 0.000000 0.021148
# 5 0.002272 0.001552 -0.001444 0.000000 0.020707 0.000000
# 6 0.000000 0.000000 0.000000 0.021148 0.000000 0.023969
#
#
# Mechanical properties :
#
#
# Convention : Reuss Voigt Hill
#
# Bulk Modulus (GPa) = 68.22840 75.20005 71.71422
# Shear Modulus (GPa) = 41.38135 119.41608 80.39872
#
# Velocity S-wave (km/s) = 4.04560 6.87245 5.63903
# Velocity P-wave (km/s) = 6.98625 9.62895 8.41202
#
# Compressibility (1/GPa) = 0.01465665
#
# Stress axis : x y z
#
# Youngs Moduli (GPa) = 125.46144 112.98413 68.04542
#
# Poissons Ratio (x) = 0.19949 0.16519
# Poissons Ratio (y) = 0.22153 0.28831
# Poissons Ratio (z) = 0.30458 0.47872
#
# Static dielectric constant tensor:
#      x y z
#    x 1.996220 0.000000 -0.025720 
#    y 0.000000 2.031530 0.000000 
#    z -0.025720 0.000000 2.034590 
# 
# From -- ./inp_files/2984.got.cif
#   From: 2010.05.17/outbox.cif.g08.bks.cpg/sg5_2_cif.got.tgz:2984.got - 2010.06.03 18:56:24.
