data_PCOD9127239
_publ_section_title
;
Structure prediction by ZEFSAII (Michael W. Deem and Ramdas Pophale) SiO2 
 PCOD9127239
Probable space group: C 2
;
_chemical_formula_sum "Si O2"
_cell_formula_units_Z 26
_cell_length_a 8.838637
_cell_length_b 17.717901
_cell_length_c 11.671075
_cell_angle_alpha 90.000000
_cell_angle_beta 41.303693
_cell_angle_gamma 90.000000
_cell_volume 1206.383317
_symmetry_space_group_name_H-M "C 2"
_symmetry_group_IT_number 5
_symmetry_cell_setting 'monoclinic'
loop_
_space_group_symop_operation_xyz
x,y,z
-x,y,-z
1/2+x,1/2+y,z
1/2-x,1/2+y,-z
loop_
_atom_site_type_symbol
_atom_site_label
_atom_site_fract_x
_atom_site_fract_y
_atom_site_fract_z
Si Si1 0.744143 0.245460 0.651413
Si Si2 0.863702 0.357284 0.294607
Si Si3 0.500000 0.184584 0.000000
Si Si4 0.669933 0.444612 0.999083
Si Si5 0.520562 0.385039 0.674176
Si Si6 0.876587 0.115248 0.955710
Si Si7 0.753798 0.182255 0.408490
O O1 0.684849 0.225452 0.814479
O O2 0.558873 0.305524 0.715380
O O3 0.744994 0.180791 0.552380
O O4 0.000000 0.278669 0.500000
O O5 0.750050 0.396792 0.470472
O O6 0.689848 0.376137 0.291630
O O7 0.846011 0.267161 0.325100
O O8 0.107426 0.392517 0.127852
O O9 0.656346 0.146590 0.011220
O O10 0.500000 0.413604 0.000000
O O11 0.543423 0.443297 0.192617
O O12 0.706650 0.532940 0.955045
O O13 0.078608 0.122722 0.746405
O O14 0.000000 0.151169 0.000000
O O15 0.500000 0.176410 0.500000
#
# Coordination Sequence:
#
# PCOD9127239 Si02
#       7
#     4   4   2   4   4   4   4
#     4  11  23  40  64 108 134 169 228 290 353 417
#     4  10  22  44  71  98 134 179 231 288 344 414
#     4  12  26  44  74 100 140 184 224 294 356 422
#     4  11  27  44  64  99 139 185 229 286 346 414
#     4  10  23  41  68 100 130 177 229 282 352 406
#     4  11  27  47  67 102 143 189 239 286 352 423
#     4  11  21  46  71 101 142 178 237 296 352 421
#
# _framework density 21.552019999999999
#
# number of rings (size 3 to 8) (size 9 to 14) (size 15 to 20)
#    0.000    1.231    4.615    1.385    9.692    0.000 
#    8.308    0.000    0.000    0.000    0.000    0.000 
#    0.000    0.000    0.000    0.000    0.000    0.000 
#
# Total GULP energy -72513.472036 kJ/mol
# GULP energy per Si atom -5577.959387 kJ/mol
# Density = 2.150297 g / cm^3
# Si number density = 21.552020 Si / 1000 Ang^3
#
#
#
# Elastic Constant Matrix: (Units=GPa)
#
#
# Indices 1 2 3 4 5 6 
#
# 1 119.8075 12.3732 35.3947 0.0012 4.7429 -0.0011
# 2 12.3732 27.7077 30.6776 0.0000 -10.4805 0.0001
# 3 35.3947 30.6776 96.1631 0.0009 -2.0693 -0.0008
# 4 0.0012 0.0000 0.0009 89.0117 -0.0009 -83.7529
# 5 4.7429 -10.4805 -2.0693 -0.0009 48.9799 0.0008
# 6 -0.0011 0.0001 -0.0008 -83.7529 0.0008 129.8462
#
#
#
# Elastic Compliance Matrix: (Units=1/GPa)
#
#
# Indices 1 2 3 4 5 6 
#
# 1 0.009446 -0.001295 -0.003092 0.000000 -0.001322 0.000000
# 2 -0.001295 0.062872 -0.019306 0.000000 0.012763 0.000000
# 3 -0.003092 -0.019306 0.017630 0.000000 -0.003087 0.000000
# 4 0.000000 0.000000 0.000000 0.028580 0.000000 0.018434
# 5 -0.001322 0.012763 -0.003087 0.000000 0.023145 0.000000
# 6 0.000000 0.000000 0.000000 0.018434 0.000000 0.019592
#
#
# Mechanical properties :
#
#
# Convention : Reuss Voigt Hill
#
# Bulk Modulus (GPa) = 23.49512 44.50768 34.00140
# Shear Modulus (GPa) = 22.43773 64.58308 43.51041
#
# Velocity S-wave (km/s) = 3.23010 5.48007 4.49804
# Velocity P-wave (km/s) = 4.98364 7.79344 6.54119
#
# Compressibility (1/GPa) = 0.04256203
#
# Stress axis : x y z
#
# Youngs Moduli (GPa) = 105.86088 15.90525 56.72253
#
# Poissons Ratio (x) = 0.02059 0.17540
# Poissons Ratio (y) = 0.13707 1.09509
# Poissons Ratio (z) = 0.32735 0.30707
#
# Static dielectric constant tensor:
#      x y z
#    x 1.767620 0.000000 -0.005520 
#    y 0.000000 1.794410 0.000000 
#    z -0.005520 0.000000 1.790350 
# 
# From -- ./inp_files/37291.got.cif
#   From: 2010.05.17/outbox.cif.g08.bks.cpg/sg5_19_cif.got.tgz:37291.got - 2010.06.03 18:56:24.
