data_PCOD9127380
_publ_section_title
;
Structure prediction by ZEFSAII (Michael W. Deem and Ramdas Pophale) SiO2 
 PCOD9127380
Probable space group: C 2
;
_chemical_formula_sum "Si O2"
_cell_formula_units_Z 22
_cell_length_a 23.230174
_cell_length_b 5.853979
_cell_length_c 7.179259
_cell_angle_alpha 90.000000
_cell_angle_beta 81.210159
_cell_angle_gamma 90.000000
_cell_volume 964.833736
_symmetry_space_group_name_H-M "C 2"
_symmetry_group_IT_number 5
_symmetry_cell_setting 'monoclinic'
loop_
_space_group_symop_operation_xyz
x,y,z
-x,y,-z
1/2+x,1/2+y,z
1/2-x,1/2+y,-z
loop_
_atom_site_type_symbol
_atom_site_label
_atom_site_fract_x
_atom_site_fract_y
_atom_site_fract_z
Si Si1 0.858233 0.770960 0.677365
Si Si2 0.550467 0.947287 0.200945
Si Si3 0.885112 0.070385 0.000441
Si Si4 0.000000 0.142727 0.500000
Si Si5 0.059074 0.778495 0.720475
Si Si6 0.258663 0.676212 0.100690
O O1 0.893886 0.602440 0.793502
O O2 0.891178 0.755392 0.463658
O O3 0.790525 0.706822 0.716787
O O4 0.866879 0.000779 0.797668
O O5 0.547687 0.807579 0.395162
O O6 0.489202 0.082021 0.223522
O O7 0.566989 0.767897 0.034922
O O8 0.825923 0.157174 0.125519
O O9 0.911700 0.864112 0.105832
O O10 0.979553 0.983353 0.344359
O O11 0.246560 0.421268 0.012067
#
# Coordination Sequence:
#
# PCOD9127380 Si02
#       6
#     4   4   4   2   4   4
#     4  11  22  45  71 102 148 192 244 311 365 448
#     4  12  22  45  69 102 148 190 238 305 376 443
#     4  11  26  44  72 111 144 197 247 307 368 454
#     4  12  22  40  64 102 142 190 236 296 378 428
#     4  12  25  44  69 110 147 191 248 300 377 451
#     4  10  22  45  77 106 146 199 253 309 376 439
#
# _framework density 22.801856000000001
#
# number of rings (size 3 to 8) (size 9 to 14) (size 15 to 20)
#    0.000    0.727    7.273    0.000    0.000    5.818 
#    0.000    9.091    0.000    0.000    0.000    0.000 
#    0.000    0.000    0.000    0.000    0.000    0.000 
#
# Total GULP energy -61323.705801 kJ/mol
# GULP energy per Si atom -5574.882346 kJ/mol
# Density = 2.274996 g / cm^3
# Si number density = 22.801856 Si / 1000 Ang^3
#
#
#
# Elastic Constant Matrix: (Units=GPa)
#
#
# Indices 1 2 3 4 5 6 
#
# 1 120.7951 43.6618 54.9091 0.0000 -42.4583 0.0000
# 2 43.6618 100.8097 37.9126 0.0000 -14.1997 0.0000
# 3 54.9091 37.9126 81.7801 0.0000 -17.6112 0.0000
# 4 0.0000 0.0000 0.0000 39.6917 0.0000 -5.6657
# 5 -42.4583 -14.1997 -17.6112 0.0000 45.7779 0.0000
# 6 0.0000 0.0000 0.0000 -5.6657 0.0000 33.9997
#
#
#
# Elastic Compliance Matrix: (Units=1/GPa)
#
#
# Indices 1 2 3 4 5 6 
#
# 1 0.016874 -0.002828 -0.007455 0.000000 0.011905 0.000000
# 2 -0.002828 0.012615 -0.004003 0.000000 -0.000250 0.000000
# 3 -0.007455 -0.004003 0.018898 0.000000 -0.000886 0.000000
# 4 0.000000 0.000000 0.000000 0.025808 0.000000 0.004301
# 5 0.011905 -0.000250 -0.000886 0.000000 0.032468 0.000000
# 6 0.000000 0.000000 0.000000 0.004301 0.000000 0.030129
#
#
# Mechanical properties :
#
#
# Convention : Reuss Voigt Hill
#
# Bulk Modulus (GPa) = 50.46597 64.03909 57.25253
# Shear Modulus (GPa) = 29.07505 35.02064 32.04785
#
# Velocity S-wave (km/s) = 3.57475 3.92327 3.75306
# Velocity P-wave (km/s) = 6.26250 6.97630 6.62901
#
# Compressibility (1/GPa) = 0.01981533
#
# Stress axis : x y z
#
# Youngs Moduli (GPa) = 59.26348 79.27213 52.91445
#
# Poissons Ratio (x) = 0.22416 0.39447
# Poissons Ratio (y) = 0.16758 0.21183
# Poissons Ratio (z) = 0.44180 0.31735
#
# Static dielectric constant tensor:
#      x y z
#    x 1.817140 0.000000 -0.014740 
#    y 0.000000 1.922990 0.000000 
#    z -0.014740 0.000000 1.880580 
# 
# From -- ./inp_files/30247.got.cif
#   From: 2010.05.17/outbox.cif.g08.bks.cpg/sg5_16_cif.got.tgz:30247.got - 2010.06.03 18:56:24.
