data_PCOD9127550
_publ_section_title
;
Structure prediction by ZEFSAII (Michael W. Deem and Ramdas Pophale) SiO2 
 PCOD9127550
Probable space group: C 2
;
_chemical_formula_sum "Si O2"
_cell_formula_units_Z 26
_cell_length_a 13.732834
_cell_length_b 5.806898
_cell_length_c 14.292666
_cell_angle_alpha 90.000000
_cell_angle_beta 84.876633
_cell_angle_gamma 90.000000
_cell_volume 1135.217332
_symmetry_space_group_name_H-M "C 2"
_symmetry_group_IT_number 5
_symmetry_cell_setting 'monoclinic'
loop_
_space_group_symop_operation_xyz
x,y,z
-x,y,-z
1/2+x,1/2+y,z
1/2-x,1/2+y,-z
loop_
_atom_site_type_symbol
_atom_site_label
_atom_site_fract_x
_atom_site_fract_y
_atom_site_fract_z
Si Si1 0.018948 0.184940 0.320920
Si Si2 0.855990 0.480855 0.557453
Si Si3 0.671836 0.828856 0.937168
Si Si4 0.000000 0.858506 0.500000
Si Si5 0.716815 0.560628 0.231527
Si Si6 0.688564 0.761416 0.631813
Si Si7 0.830339 0.824083 0.087273
O O1 0.066224 0.396867 0.373232
O O2 0.101553 0.108515 0.241258
O O3 0.909819 0.241956 0.298970
O O4 0.006278 0.997219 0.403508
O O5 0.902989 0.704889 0.506693
O O6 0.757372 0.541778 0.618809
O O7 0.841105 0.309536 0.472934
O O8 0.623490 0.577100 0.928317
O O9 0.750290 0.865965 0.845931
O O10 0.616399 0.077624 0.938749
O O11 0.736113 0.822505 0.025971
O O12 0.747475 0.467402 0.330189
O O13 0.782374 0.775613 0.192568
#
# Coordination Sequence:
#
# PCOD9127550 Si02
#       7
#     4   4   4   2   4   4   4
#     4  12  24  42  58  93 127 166 219 261 319 376
#     4  12  24  43  62  82 129 175 214 260 325 372
#     4   8  16  34  57  91 121 163 205 256 328 387
#     4  12  20  44  62  78 128 180 204 258 314 380
#     4  10  23  34  62  95 123 161 218 264 317 385
#     4  12  23  40  62  90 123 170 215 269 314 376
#     4   8  16  33  60  88 123 161 207 254 328 389
#
# _framework density 22.903103999999999
#
# number of rings (size 3 to 8) (size 9 to 14) (size 15 to 20)
#    0.923    0.615    4.615    1.846    2.154    0.000 
#    0.000    0.000    0.000    0.923    0.000    2.154 
#    0.000    0.000    0.000    0.000    0.000    0.000 
#
# Total GULP energy -72468.514532 kJ/mol
# GULP energy per Si atom -5574.501118 kJ/mol
# Density = 2.285098 g / cm^3
# Si number density = 22.903104 Si / 1000 Ang^3
#
#
#
# Elastic Constant Matrix: (Units=GPa)
#
#
# Indices 1 2 3 4 5 6 
#
# 1 93.1866 10.9191 -2.1821 0.0000 -12.0331 0.0000
# 2 10.9191 125.9769 -4.1803 0.0000 -2.7292 0.0000
# 3 -2.1821 -4.1803 45.2811 0.0000 6.2010 0.0000
# 4 0.0000 0.0000 0.0000 26.8379 0.0000 -7.4435
# 5 -12.0331 -2.7292 6.2010 0.0000 6.9201 0.0000
# 6 0.0000 0.0000 0.0000 -7.4435 0.0000 19.8068
#
#
#
# Elastic Compliance Matrix: (Units=1/GPa)
#
#
# Indices 1 2 3 4 5 6 
#
# 1 0.014274 -0.000749 -0.003123 0.000000 0.027324 0.000000
# 2 -0.000749 0.008051 0.000514 0.000000 0.001413 0.000000
# 3 -0.003123 0.000514 0.025872 0.000000 -0.028412 0.000000
# 4 0.000000 0.000000 0.000000 0.041596 0.000000 0.015632
# 5 0.027324 0.001413 -0.028412 0.000000 0.218036 0.000000
# 6 0.000000 0.000000 0.000000 0.015632 0.000000 0.056362
#
#
# Mechanical properties :
#
#
# Convention : Reuss Voigt Hill
#
# Bulk Modulus (GPa) = 24.10803 30.39533 27.25168
# Shear Modulus (GPa) = 12.99599 28.03881 20.51740
#
# Velocity S-wave (km/s) = 2.38467 3.50270 2.99630
# Velocity P-wave (km/s) = 4.25807 5.44598 4.88824
#
# Compressibility (1/GPa) = 0.04147995
#
# Stress axis : x y z
#
# Youngs Moduli (GPa) = 70.05708 124.21555 38.65180
#
# Poissons Ratio (x) = 0.09302 0.12071
# Poissons Ratio (y) = 0.05247 -0.01986
# Poissons Ratio (z) = 0.21880 -0.06381
#
# Static dielectric constant tensor:
#      x y z
#    x 1.843610 0.000000 -0.005490 
#    y 0.000000 1.939430 0.000000 
#    z -0.005490 0.000000 1.849970 
# 
# From -- ./inp_files/60974.got.cif
#   From: 2010.05.17/outbox.cif.g08.bks.cpg/sg5_31_cif.got.tgz:60974.got - 2010.06.03 18:56:24.
