data_PCOD9127664
_publ_section_title
;
Structure prediction by ZEFSAII (Michael W. Deem and Ramdas Pophale) SiO2 
 PCOD9127664
Probable space group: C 2
;
_chemical_formula_sum "Si O2"
_cell_formula_units_Z 28
_cell_length_a 22.753689
_cell_length_b 9.195290
_cell_length_c 9.213661
_cell_angle_alpha 90.000000
_cell_angle_beta 43.349210
_cell_angle_gamma 90.000000
_cell_volume 1323.287054
_symmetry_space_group_name_H-M "C 2"
_symmetry_group_IT_number 5
_symmetry_cell_setting 'monoclinic'
loop_
_space_group_symop_operation_xyz
x,y,z
-x,y,-z
1/2+x,1/2+y,z
1/2-x,1/2+y,-z
loop_
_atom_site_type_symbol
_atom_site_label
_atom_site_fract_x
_atom_site_fract_y
_atom_site_fract_z
Si Si1 0.508463 0.087830 0.157635
Si Si2 0.299841 0.079666 0.229352
Si Si3 0.110444 0.339816 0.516861
Si Si4 0.075875 0.768307 0.469677
Si Si5 0.644560 0.578609 0.281774
Si Si6 0.791793 0.265221 0.392406
Si Si7 0.254424 0.084957 0.801323
O O1 0.457685 0.226278 0.310425
O O2 0.464871 0.952066 0.316523
O O3 0.500000 0.072405 0.000000
O O4 0.608555 0.092341 0.008662
O O5 0.226648 0.080356 0.240981
O O6 0.286798 0.210388 0.366959
O O7 0.290746 0.928685 0.333982
O O8 0.097139 0.226816 0.411518
O O9 0.129846 0.257984 0.634474
O O10 0.195172 0.436915 0.329223
O O11 0.167952 0.690787 0.285516
O O12 0.000000 0.714628 0.500000
O O13 0.089970 0.937528 0.417654
O O14 0.683254 0.569042 0.052152
O O15 0.789129 0.158073 0.260596
#
# Coordination Sequence:
#
# PCOD9127664 Si02
#       7
#     4   4   4   4   4   4   4
#     4  11  22  43  67  91 126 169 206 255 325 383
#     4  11  22  40  68  93 125 165 212 260 317 373
#     4  10  23  41  63  98 130 159 211 270 311 376
#     4  11  24  44  61  93 130 163 210 260 316 381
#     4  11  24  42  64  93 126 166 214 265 308 372
#     4  11  20  40  65  99 121 162 214 265 300 381
#     4  11  21  41  68  92 124 174 214 252 316 381
#
# _framework density 21.15943
#
# number of rings (size 3 to 8) (size 9 to 14) (size 15 to 20)
#    0.000    1.143    4.286    2.571    0.000    1.143 
#    2.571    1.429    0.000    0.000    0.000    0.000 
#    0.000    0.000    0.000    0.000    0.000    0.000 
#
# Total GULP energy -78227.801401 kJ/mol
# GULP energy per Si atom -5587.700100 kJ/mol
# Density = 2.111127 g / cm^3
# Si number density = 21.159430 Si / 1000 Ang^3
#
#
#
# Elastic Constant Matrix: (Units=GPa)
#
#
# Indices 1 2 3 4 5 6 
#
# 1 54.7397 2.2843 21.8430 0.0000 -1.8651 0.0000
# 2 2.2843 111.3262 65.5748 0.0000 -4.0794 0.0000
# 3 21.8430 65.5748 149.0277 0.0000 -4.0694 0.0000
# 4 0.0000 0.0000 0.0000 12.6781 0.0000 4.1636
# 5 -1.8651 -4.0794 -4.0694 0.0000 22.2360 0.0000
# 6 0.0000 0.0000 0.0000 4.1636 0.0000 16.6155
#
#
#
# Elastic Compliance Matrix: (Units=1/GPa)
#
#
# Indices 1 2 3 4 5 6 
#
# 1 0.019689 0.001786 -0.003636 0.000000 0.001314 0.000000
# 2 0.001786 0.012322 -0.005646 0.000000 0.001377 0.000000
# 3 -0.003636 -0.005646 0.009739 0.000000 0.000442 0.000000
# 4 0.000000 0.000000 0.000000 0.085949 0.000000 -0.021537
# 5 0.001314 0.001377 0.000442 0.000000 0.045416 0.000000
# 6 0.000000 0.000000 0.000000 -0.021537 0.000000 0.065582
#
#
# Mechanical properties :
#
#
# Convention : Reuss Voigt Hill
#
# Bulk Modulus (GPa) = 37.37102 54.94420 46.15761
# Shear Modulus (GPa) = 19.03969 25.33203 22.18586
#
# Velocity S-wave (km/s) = 3.00296 3.46381 3.24158
# Velocity P-wave (km/s) = 5.45194 6.48232 5.98933
#
# Compressibility (1/GPa) = 0.02675870
#
# Stress axis : x y z
#
# Youngs Moduli (GPa) = 50.78899 81.15454 102.67476
#
# Poissons Ratio (x) = -0.14492 0.37330
# Poissons Ratio (y) = -0.09069 0.57971
# Poissons Ratio (z) = 0.18465 0.45821
#
# Static dielectric constant tensor:
#      x y z
#    x 1.794920 0.000000 0.006850 
#    y 0.000000 1.786030 0.000000 
#    z 0.006850 0.000000 1.750410 
# 
# From -- ./inp_files/31732.got.cif
#   From: 2010.05.17/outbox.cif.g08.bks.cpg/sg5_16_cif.got.tgz:31732.got - 2010.06.03 18:56:24.
