data_PCOD9127048
_publ_section_title
;
Structure prediction by ZEFSAII (Michael W. Deem and Ramdas Pophale) SiO2 
 PCOD9127048
Probable space group: C 2
;
_chemical_formula_sum "Si O2"
_cell_formula_units_Z 20
_cell_length_a 14.338156
_cell_length_b 11.683590
_cell_length_c 7.497200
_cell_angle_alpha 90.000000
_cell_angle_beta 44.053342
_cell_angle_gamma 90.000000
_cell_volume 873.289585
_symmetry_space_group_name_H-M "C 2"
_symmetry_group_IT_number 5
_symmetry_cell_setting 'monoclinic'
loop_
_space_group_symop_operation_xyz
x,y,z
-x,y,-z
1/2+x,1/2+y,z
1/2-x,1/2+y,-z
loop_
_atom_site_type_symbol
_atom_site_label
_atom_site_fract_x
_atom_site_fract_y
_atom_site_fract_z
Si Si1 0.321921 0.677900 0.736925
Si Si2 0.350938 0.922317 0.565816
Si Si3 0.983910 0.641555 0.724059
Si Si4 0.611512 0.587231 0.992882
Si Si5 0.757964 0.236257 0.454333
O O1 0.361796 0.812476 0.680697
O O2 0.321183 0.655800 0.524401
O O3 0.404871 0.611205 0.774154
O O4 0.165380 0.662094 0.004464
O O5 0.294201 0.862800 0.465247
O O6 0.472260 0.007306 0.348353
O O7 0.235010 0.000666 0.805569
O O8 0.101117 0.707436 0.667667
O O9 0.000000 0.684707 0.500000
O O10 0.670983 0.704582 0.826837
O O11 0.500000 0.551371 0.000000
#
# Coordination Sequence:
#
# PCOD9127048 Si02
#       5
#     4   4   4   4   4
#     4  10  22  43  68  94 133 179 219 280 339 397
#     4   9  23  41  68  96 131 173 224 272 336 407
#     4  11  19  41  72  95 134 173 227 283 321 413
#     4  11  23  44  62  94 139 169 222 289 327 401
#     4   9  22  42  63  97 130 171 228 270 336 407
#
# _framework density 22.901910000000001
#
# number of rings (size 3 to 8) (size 9 to 14) (size 15 to 20)
#    1.200    0.800    4.000    0.600    2.800    2.400 
#    7.200    0.000    0.000    0.000    0.000    0.000 
#    0.000    0.000    0.000    0.000    0.000    0.000 
#
# Total GULP energy -55703.089805 kJ/mol
# GULP energy per Si atom -5570.308980 kJ/mol
# Density = 2.284978 g / cm^3
# Si number density = 22.901910 Si / 1000 Ang^3
#
#
#
# Elastic Constant Matrix: (Units=GPa)
#
#
# Indices 1 2 3 4 5 6 
#
# 1 147.6091 13.7843 33.8333 0.0000 -12.8678 0.0000
# 2 13.7843 84.5547 19.2709 0.0000 -8.5479 0.0000
# 3 33.8333 19.2709 80.0682 0.0000 2.8177 0.0000
# 4 0.0000 0.0000 0.0000 8.9787 0.0000 11.0591
# 5 -12.8678 -8.5479 2.8177 0.0000 57.1484 0.0000
# 6 0.0000 0.0000 0.0000 11.0591 0.0000 30.3565
#
#
#
# Elastic Compliance Matrix: (Units=1/GPa)
#
#
# Indices 1 2 3 4 5 6 
#
# 1 0.007710 -0.000331 -0.003243 0.000000 0.001846 0.000000
# 2 -0.000331 0.012765 -0.003002 0.000000 0.001983 0.000000
# 3 -0.003243 -0.003002 0.014649 0.000000 -0.001902 0.000000
# 4 0.000000 0.000000 0.000000 0.202031 0.000000 -0.073601
# 5 0.001846 0.001983 -0.001902 0.000000 0.018304 0.000000
# 6 0.000000 0.000000 0.000000 -0.073601 0.000000 0.059755
#
#
# Mechanical properties :
#
#
# Convention : Reuss Voigt Hill
#
# Bulk Modulus (GPa) = 45.51345 49.55655 47.53500
# Shear Modulus (GPa) = 14.89462 35.65295 25.27379
#
# Velocity S-wave (km/s) = 2.55299 3.94987 3.32560
# Velocity P-wave (km/s) = 5.34853 6.51825 5.96214
#
# Compressibility (1/GPa) = 0.02197153
#
# Stress axis : x y z
#
# Youngs Moduli (GPa) = 129.70370 78.33721 68.26286
#
# Poissons Ratio (x) = 0.02594 0.22139
# Poissons Ratio (y) = 0.04294 0.20494
# Poissons Ratio (z) = 0.42065 0.23519
#
# Static dielectric constant tensor:
#      x y z
#    x 1.968570 0.000000 -0.018800 
#    y 0.000000 1.826720 0.000000 
#    z -0.018800 0.000000 1.902690 
# 
# From -- ./inp_files/23221.got.cif
#   From: 2010.05.17/outbox.cif.g08.bks.cpg/sg5_12_cif.got.tgz:23221.got - 2010.06.03 18:56:24.
