data_PCOD9127757
_publ_section_title
;
Structure prediction by ZEFSAII (Michael W. Deem and Ramdas Pophale) SiO2 
 PCOD9127757
Probable space group: C 2
;
_chemical_formula_sum "Si O2"
_cell_formula_units_Z 30
_cell_length_a 19.181671
_cell_length_b 6.680858
_cell_length_c 10.519565
_cell_angle_alpha 90.000000
_cell_angle_beta 90.176176
_cell_angle_gamma 90.000000
_cell_volume 1348.076094
_symmetry_space_group_name_H-M "C 2"
_symmetry_group_IT_number 5
_symmetry_cell_setting 'monoclinic'
loop_
_space_group_symop_operation_xyz
x,y,z
-x,y,-z
1/2+x,1/2+y,z
1/2-x,1/2+y,-z
loop_
_atom_site_type_symbol
_atom_site_label
_atom_site_fract_x
_atom_site_fract_y
_atom_site_fract_z
Si Si1 0.463630 0.797790 0.713413
Si Si2 0.711603 0.128862 0.779903
Si Si3 0.890448 0.295025 0.166411
Si Si4 0.310795 0.244295 0.758882
Si Si5 0.500000 0.116453 0.500000
Si Si6 0.332732 0.861253 0.893845
Si Si7 0.093360 0.939214 0.425757
Si Si8 0.306380 0.515789 0.365522
O O1 0.527171 0.782061 0.812336
O O2 0.388715 0.814618 0.782333
O O3 0.459746 0.603870 0.624024
O O4 0.481914 0.979719 0.619601
O O5 0.755593 0.271212 0.874942
O O6 0.701909 0.280989 0.663634
O O7 0.638409 0.018803 0.802971
O O8 0.762795 0.937753 0.775842
O O9 0.853760 0.133202 0.260437
O O10 0.865005 0.273078 0.022013
O O11 0.381043 0.323579 0.698714
O O12 0.269555 0.111245 0.654461
O O13 0.322987 0.101305 0.879475
O O14 0.562818 0.272351 0.519250
O O15 0.157316 0.043886 0.498959
#
# Coordination Sequence:
#
# PCOD9127757 Si02
#       8
#     4   4   4   4   2   4   4   4
#     4  12  25  46  67 103 136 191 231 287 359 421
#     4  10  23  44  68 101 139 178 236 288 351 411
#     4  11  25  43  71  99 141 179 241 286 349 417
#     4  10  23  42  65 101 134 183 232 281 354 419
#     4  12  24  42  70  90 138 180 230 286 358 424
#     4  11  24  44  71  98 138 185 236 291 347 422
#     4  12  24  43  69  97 143 178 234 292 354 434
#     4  10  24  41  66 107 133 184 231 288 356 414
#
# _framework density 22.253937000000001
#
# number of rings (size 3 to 8) (size 9 to 14) (size 15 to 20)
#    0.000    1.067    2.667    3.200    7.467    1.067 
#    0.000    0.000    0.000    0.000    0.000    0.000 
#    0.000    0.000    0.000    0.000    0.000    0.000 
#
# Total GULP energy -83720.413771 kJ/mol
# GULP energy per Si atom -5581.360918 kJ/mol
# Density = 2.220329 g / cm^3
# Si number density = 22.253937 Si / 1000 Ang^3
#
#
#
# Elastic Constant Matrix: (Units=GPa)
#
#
# Indices 1 2 3 4 5 6 
#
# 1 78.7638 22.9071 13.0117 0.0000 16.1494 0.0000
# 2 22.9071 105.7510 22.2266 0.0000 -1.8508 0.0000
# 3 13.0117 22.2266 71.3724 0.0000 13.9628 0.0000
# 4 0.0000 0.0000 0.0000 24.0923 0.0000 -3.6857
# 5 16.1494 -1.8508 13.9628 0.0000 43.0265 0.0000
# 6 0.0000 0.0000 0.0000 -3.6857 0.0000 32.7124
#
#
#
# Elastic Compliance Matrix: (Units=1/GPa)
#
#
# Indices 1 2 3 4 5 6 
#
# 1 0.014855 -0.003179 -0.000641 0.000000 -0.005504 0.000000
# 2 -0.003179 0.010898 -0.003352 0.000000 0.002750 0.000000
# 3 -0.000641 -0.003352 0.016180 0.000000 -0.005154 0.000000
# 4 0.000000 0.000000 0.000000 0.042235 0.000000 0.004759
# 5 -0.005504 0.002750 -0.005154 0.000000 0.027098 0.000000
# 6 0.000000 0.000000 0.000000 0.004759 0.000000 0.031106
#
#
# Mechanical properties :
#
#
# Convention : Reuss Voigt Hill
#
# Bulk Modulus (GPa) = 36.24813 41.35314 38.80063
# Shear Modulus (GPa) = 30.13619 33.14902 31.64260
#
# Velocity S-wave (km/s) = 3.68393 3.86369 3.77488
# Velocity P-wave (km/s) = 5.86676 6.20701 6.03928
#
# Compressibility (1/GPa) = 0.02758763
#
# Stress axis : x y z
#
# Youngs Moduli (GPa) = 67.31546 91.76387 61.80417
#
# Poissons Ratio (x) = 0.29176 0.03963
# Poissons Ratio (y) = 0.21403 0.20717
# Poissons Ratio (z) = 0.04317 0.30759
#
# Static dielectric constant tensor:
#      x y z
#    x 1.855170 0.000000 -0.031530 
#    y 0.000000 1.825630 0.000000 
#    z -0.031530 0.000000 1.822720 
# 
# From -- ./inp_files/45688.got.cif
#   From: 2010.05.17/outbox.cif.g08.bks.cpg/sg5_23_cif.got.tgz:45688.got - 2010.06.03 18:56:24.
