data_PCOD9127791
_publ_section_title
;
Structure prediction by ZEFSAII (Michael W. Deem and Ramdas Pophale) SiO2 
 PCOD9127791
Probable space group: C 2
;
_chemical_formula_sum "Si O2"
_cell_formula_units_Z 20
_cell_length_a 18.242151
_cell_length_b 4.975130
_cell_length_c 25.386429
_cell_angle_alpha 90.000000
_cell_angle_beta 159.957694
_cell_angle_gamma 90.000000
_cell_volume 789.612133
_symmetry_space_group_name_H-M "C 2"
_symmetry_group_IT_number 5
_symmetry_cell_setting 'monoclinic'
loop_
_space_group_symop_operation_xyz
x,y,z
-x,y,-z
1/2+x,1/2+y,z
1/2-x,1/2+y,-z
loop_
_atom_site_type_symbol
_atom_site_label
_atom_site_fract_x
_atom_site_fract_y
_atom_site_fract_z
Si Si1 0.368125 0.780790 0.561693
Si Si2 0.819188 0.731812 0.917326
Si Si3 0.068242 0.033045 0.602900
Si Si4 0.659727 0.495296 0.915013
Si Si5 0.644583 0.556786 0.205109
O O1 0.251013 0.563817 0.519918
O O2 0.612279 0.824326 0.745103
O O3 0.379748 0.624402 0.514069
O O4 0.720902 0.539220 0.896014
O O5 0.000000 0.618672 0.000000
O O6 0.946744 0.965187 0.034812
O O7 0.204800 0.301294 0.687900
O O8 0.000000 0.932139 0.500000
O O9 0.223831 0.802810 0.729705
O O10 0.445503 0.612827 0.796913
O O11 0.669775 0.185959 0.939021
#
# Coordination Sequence:
#
# PCOD9127791 Si02
#       5
#     4   4   4   4   4
#     4  12  30  51  74 115 158 205 248 314 399 451
#     4  11  25  50  78 112 150 199 258 325 363 455
#     4  12  27  48  79 108 156 205 252 307 385 465
#     4  10  23  42  68 106 145 187 243 311 375 429
#     4  11  24  48  76 113 143 203 261 312 372 446
#
# _framework density 25.328889
#
# number of rings (size 3 to 8) (size 9 to 14) (size 15 to 20)
#    0.000    0.800    2.000    4.200    5.600    4.800 
#    0.000    0.000    0.000    0.000    0.000    0.000 
#    0.000    0.000    0.000    0.000    0.000    0.000 
#
# Total GULP energy -55969.303439 kJ/mol
# GULP energy per Si atom -5596.930344 kJ/mol
# Density = 2.527124 g / cm^3
# Si number density = 25.328889 Si / 1000 Ang^3
#
#
#
# Elastic Constant Matrix: (Units=GPa)
#
#
# Indices 1 2 3 4 5 6 
#
# 1 120.5401 3.4879 23.4937 -0.0282 2.6259 -0.1213
# 2 3.4879 117.3321 21.4726 -0.0489 10.8089 -0.1031
# 3 23.4937 21.4726 94.4310 0.0392 4.8384 0.0542
# 4 -0.0282 -0.0489 0.0392 31.1578 -0.0076 20.2431
# 5 2.6259 10.8089 4.8384 -0.0076 36.4127 -0.0551
# 6 -0.1213 -0.1031 0.0542 20.2431 -0.0551 35.9030
#
#
#
# Elastic Compliance Matrix: (Units=1/GPa)
#
#
# Indices 1 2 3 4 5 6 
#
# 1 0.008727 0.000178 -0.002191 -0.000016 -0.000391 0.000042
# 2 0.000178 0.009108 -0.001990 -0.000001 -0.002452 0.000026
# 3 -0.002191 -0.001990 0.011628 0.000001 -0.000797 -0.000033
# 4 -0.000016 -0.000001 0.000001 0.050648 -0.000031 -0.028557
# 5 -0.000391 -0.002452 -0.000797 -0.000031 0.028325 0.000054
# 6 0.000042 0.000026 -0.000033 -0.028557 0.000054 0.043954
#
#
# Mechanical properties :
#
#
# Convention : Reuss Voigt Hill
#
# Bulk Modulus (GPa) = 46.60799 47.69019 47.14909
# Shear Modulus (GPa) = 29.84222 39.61797 34.73010
#
# Velocity S-wave (km/s) = 3.43620 3.95921 3.70694
# Velocity P-wave (km/s) = 5.84674 6.30633 6.08088
#
# Compressibility (1/GPa) = 0.02145555
#
# Stress axis : x y z
#
# Youngs Moduli (GPa) = 114.59305 109.79920 85.99780
#
# Poissons Ratio (x) = -0.01951 0.18846
# Poissons Ratio (y) = -0.02036 0.17110
# Poissons Ratio (z) = 0.25113 0.21845
#
# Static dielectric constant tensor:
#      x y z
#    x 2.116050 0.000000 0.002270 
#    y 0.000000 1.937350 0.000000 
#    z 0.002270 0.000000 1.993800 
# 
# From -- ./inp_files/70818.got.cif
#   From: 2010.05.17/outbox.cif.g08.bks.cpg/sg5_36_cif.got.tgz:70818.got - 2010.06.03 18:56:24.
