data_PCOD9127351
_publ_section_title
;
Structure prediction by ZEFSAII (Michael W. Deem and Ramdas Pophale) SiO2 
 PCOD9127351
Probable space group: C 2
;
_chemical_formula_sum "Si O2"
_cell_formula_units_Z 18
_cell_length_a 12.639195
_cell_length_b 12.561555
_cell_length_c 5.043319
_cell_angle_alpha 90.000000
_cell_angle_beta 91.771985
_cell_angle_gamma 90.000000
_cell_volume 800.334481
_symmetry_space_group_name_H-M "C 2"
_symmetry_group_IT_number 5
_symmetry_cell_setting 'monoclinic'
loop_
_space_group_symop_operation_xyz
x,y,z
-x,y,-z
1/2+x,1/2+y,z
1/2-x,1/2+y,-z
loop_
_atom_site_type_symbol
_atom_site_label
_atom_site_fract_x
_atom_site_fract_y
_atom_site_fract_z
Si Si1 0.903785 0.594590 0.677045
Si Si2 0.819915 0.087400 0.616432
Si Si3 0.109897 0.198373 0.884904
Si Si4 0.500000 0.904326 0.000000
Si Si5 0.000000 0.916137 0.500000
Si Si6 0.500000 0.269351 0.000000
O O1 0.796978 0.574554 0.510038
O O2 0.000000 0.630807 0.500000
O O3 0.906654 0.689364 0.894823
O O4 0.943218 0.483083 0.795291
O O5 0.812661 0.136525 0.909724
O O6 0.898712 0.987011 0.585323
O O7 0.871896 0.171988 0.417212
O O8 0.091404 0.324238 0.906505
O O9 0.000000 0.154135 0.000000
O O10 0.030557 0.844921 0.756503
#
# Coordination Sequence:
#
# PCOD9127351 Si02
#       6
#     4   4   4   2   2   2
#     4  11  27  48  64 100 141 186 218 276 329 412
#     4  12  25  43  75 100 138 169 229 279 339 389
#     4  10  22  45  71 104 130 168 224 289 331 391
#     4   9  24  43  72  94 140 171 234 269 338 394
#     4  12  22  48  68 106 122 184 222 288 324 404
#     4  11  26  47  66  92 150 171 230 261 350 392
#
# _framework density 22.490596
#
# number of rings (size 3 to 8) (size 9 to 14) (size 15 to 20)
#    0.667    0.444    3.333    1.333    9.333    3.556 
#    0.000    0.000    0.000    0.000    0.000    0.000 
#    0.000    0.000    0.000    0.000    0.000    0.000 
#
# Total GULP energy -50215.601973 kJ/mol
# GULP energy per Si atom -5579.511330 kJ/mol
# Density = 2.243941 g / cm^3
# Si number density = 22.490596 Si / 1000 Ang^3
#
#
#
# Elastic Constant Matrix: (Units=GPa)
#
#
# Indices 1 2 3 4 5 6 
#
# 1 121.2910 26.9166 -1.1267 0.0000 24.0998 0.0000
# 2 26.9166 141.2768 38.5911 0.0000 14.7473 0.0000
# 3 -1.1267 38.5911 54.8755 0.0000 7.4371 0.0000
# 4 0.0000 0.0000 0.0000 56.7320 0.0000 3.5146
# 5 24.0998 14.7473 7.4371 0.0000 44.1430 0.0000
# 6 0.0000 0.0000 0.0000 3.5146 0.0000 -3.6758
#
#
#
# Elastic Compliance Matrix: (Units=1/GPa)
#
#
# Indices 1 2 3 4 5 6 
#
# 1 0.009693 -0.001934 0.002240 0.000000 -0.005023 0.000000
# 2 -0.001934 0.009312 -0.006457 0.000000 -0.000967 0.000000
# 3 0.002240 -0.006457 0.023213 0.000000 -0.002977 0.000000
# 4 0.000000 0.000000 0.000000 0.016641 0.000000 0.015911
# 5 -0.005023 -0.000967 -0.002977 0.000000 0.026220 0.000000
# 6 0.000000 0.000000 0.000000 0.015911 0.000000 -0.256839
#
#
# Mechanical properties :
#
#
# Convention : Reuss Voigt Hill
#
# Bulk Modulus (GPa) = 33.42792 49.57837 41.50315
# Shear Modulus (GPa) = -33.44805 36.31066 1.43131
#
# Velocity S-wave (km/s) = -3.86061 4.02242 0.79861
# Velocity P-wave (km/s) = 2.23093 6.60795 4.39818
#
# Compressibility (1/GPa) = 0.02991512
#
# Stress axis : x y z
#
# Youngs Moduli (GPa) = 103.17035 107.39343 43.07862
#
# Poissons Ratio (x) = 0.20773 -0.09650
# Poissons Ratio (y) = 0.19956 0.27816
# Poissons Ratio (z) = -0.23110 0.69344
#
# Static dielectric constant tensor:
#      x y z
#    x 1.874370 0.000000 0.035140 
#    y 0.000000 1.844260 0.000000 
#    z 0.035140 0.000000 1.830790 
# 
# From -- ./inp_files/4354.got.cif
#   From: 2010.05.17/outbox.cif.g08.bks.cpg/sg5_3_cif.got.tgz:4354.got - 2010.06.03 18:56:24.
