data_PCOD9127516
_publ_section_title
;
Structure prediction by ZEFSAII (Michael W. Deem and Ramdas Pophale) SiO2 
 PCOD9127516
Probable space group: C 2
;
_chemical_formula_sum "Si O2"
_cell_formula_units_Z 28
_cell_length_a 20.678672
_cell_length_b 6.428120
_cell_length_c 9.912573
_cell_angle_alpha 90.000000
_cell_angle_beta 64.080028
_cell_angle_gamma 90.000000
_cell_volume 1185.082380
_symmetry_space_group_name_H-M "C 2"
_symmetry_group_IT_number 5
_symmetry_cell_setting 'monoclinic'
loop_
_space_group_symop_operation_xyz
x,y,z
-x,y,-z
1/2+x,1/2+y,z
1/2-x,1/2+y,-z
loop_
_atom_site_type_symbol
_atom_site_label
_atom_site_fract_x
_atom_site_fract_y
_atom_site_fract_z
Si Si1 0.251528 0.391630 0.786528
Si Si2 0.870658 0.174923 0.713129
Si Si3 0.106340 0.344672 0.017300
Si Si4 0.326027 0.122708 0.369596
Si Si5 0.500000 0.533573 0.000000
Si Si6 0.255928 0.967231 0.694619
Si Si7 0.489535 0.162018 0.216716
Si Si8 0.500000 0.955020 0.500000
O O1 0.335299 0.445080 0.731613
O O2 0.225760 0.464878 0.662435
O O3 0.234811 0.147371 0.814074
O O4 0.182739 0.466754 0.935286
O O5 0.890949 0.215945 0.846780
O O6 0.798515 0.296371 0.738017
O O7 0.932737 0.290745 0.570123
O O8 0.047816 0.523081 0.089993
O O9 0.070596 0.181963 0.944412
O O10 0.305082 0.349954 0.333603
O O11 0.408538 0.086019 0.263995
O O12 0.308854 0.079945 0.540309
O O13 0.504331 0.388006 0.861239
O O14 0.499973 0.105903 0.367657
#
# Coordination Sequence:
#
# PCOD9127516 Si02
#       8
#     4   4   4   4   2   4   4   2
#     4  11  24  42  68  99 141 181 232 286 347 422
#     4  10  25  45  68 101 137 188 228 293 356 411
#     4  11  26  47  70 106 141 182 238 294 343 436
#     4  11  21  40  67 101 133 181 226 285 352 412
#     4  12  24  46  72 108 138 196 238 280 372 416
#     4  11  22  40  65 100 136 180 231 285 346 417
#     4  11  24  46  74 103 147 185 234 299 357 420
#     4  10  22  48  74 106 150 180 240 298 356 428
#
# _framework density 23.627049
#
# number of rings (size 3 to 8) (size 9 to 14) (size 15 to 20)
#    0.000    1.143    2.857    3.000    2.000    3.429 
#    5.143    1.429    0.000    0.000    0.000    0.000 
#    0.000    0.000    0.000    0.000    0.000    0.000 
#
# Total GULP energy -78023.532448 kJ/mol
# GULP energy per Si atom -5573.109461 kJ/mol
# Density = 2.357327 g / cm^3
# Si number density = 23.627049 Si / 1000 Ang^3
#
#
#
# Elastic Constant Matrix: (Units=GPa)
#
#
# Indices 1 2 3 4 5 6 
#
# 1 90.8830 24.4595 29.4720 0.0000 -9.4518 0.0000
# 2 24.4595 69.4620 22.7767 0.0000 6.7104 0.0000
# 3 29.4720 22.7767 83.4750 0.0000 -6.6502 0.0000
# 4 0.0000 0.0000 0.0000 27.2055 0.0000 -2.0065
# 5 -9.4518 6.7104 -6.6502 0.0000 32.9215 0.0000
# 6 0.0000 0.0000 0.0000 -2.0065 0.0000 40.2598
#
#
#
# Elastic Compliance Matrix: (Units=1/GPa)
#
#
# Indices 1 2 3 4 5 6 
#
# 1 0.013617 -0.004082 -0.003370 0.000000 0.004061 0.000000
# 2 -0.004082 0.017616 -0.003806 0.000000 -0.005532 0.000000
# 3 -0.003370 -0.003806 0.014425 0.000000 0.002722 0.000000
# 4 0.000000 0.000000 0.000000 0.036893 0.000000 0.001839
# 5 0.004061 -0.005532 0.002722 0.000000 0.033218 0.000000
# 6 0.000000 0.000000 0.000000 0.001839 0.000000 0.024930
#
#
# Mechanical properties :
#
#
# Convention : Reuss Voigt Hill
#
# Bulk Modulus (GPa) = 43.21325 44.13738 43.67532
# Shear Modulus (GPa) = 29.25162 31.21815 30.23489
#
# Velocity S-wave (km/s) = 3.52242 3.63890 3.58113
# Velocity P-wave (km/s) = 5.90531 6.03132 5.96865
#
# Compressibility (1/GPa) = 0.02314105
#
# Stress axis : x y z
#
# Youngs Moduli (GPa) = 73.43740 56.76595 69.32418
#
# Poissons Ratio (x) = 0.23172 0.23365
# Poissons Ratio (y) = 0.29978 0.26386
# Poissons Ratio (z) = 0.24751 0.21606
#
# Static dielectric constant tensor:
#      x y z
#    x 1.876530 0.000000 0.015540 
#    y 0.000000 2.027460 0.000000 
#    z 0.015540 0.000000 1.950210 
# 
# From -- ./inp_files/45624.got.cif
#   From: 2010.05.17/outbox.cif.g08.bks.cpg/sg5_23_cif.got.tgz:45624.got - 2010.06.03 18:56:24.
