data_PCOD9127155
_publ_section_title
;
Structure prediction by ZEFSAII (Michael W. Deem and Ramdas Pophale) SiO2 
 PCOD9127155
Probable space group: C 2
;
_chemical_formula_sum "Si O2"
_cell_formula_units_Z 18
_cell_length_a 9.068778
_cell_length_b 11.092183
_cell_length_c 10.844081
_cell_angle_alpha 90.000000
_cell_angle_beta 127.059678
_cell_angle_gamma 90.000000
_cell_volume 870.494287
_symmetry_space_group_name_H-M "C 2"
_symmetry_group_IT_number 5
_symmetry_cell_setting 'monoclinic'
loop_
_space_group_symop_operation_xyz
x,y,z
-x,y,-z
1/2+x,1/2+y,z
1/2-x,1/2+y,-z
loop_
_atom_site_type_symbol
_atom_site_label
_atom_site_fract_x
_atom_site_fract_y
_atom_site_fract_z
Si Si1 0.601754 0.074780 0.666641
Si Si2 0.897306 0.580839 0.062600
Si Si3 0.504840 0.593455 0.242714
Si Si4 0.411460 0.873502 0.708804
Si Si5 0.000000 0.956396 0.500000
O O1 0.500000 0.134913 0.500000
O O2 0.588603 0.139923 0.793696
O O3 0.813658 0.052505 0.739931
O O4 0.491853 0.950323 0.635283
O O5 0.002697 0.453846 0.137583
O O6 0.685336 0.562178 0.921034
O O7 0.000000 0.644090 0.000000
O O8 0.521342 0.737914 0.257616
O O9 0.506085 0.537765 0.379830
O O10 0.191231 0.883637 0.600815
#
# Coordination Sequence:
#
# PCOD9127155 Si02
#       5
#     4   4   4   4   2
#     4  10  22  44  66  99 133 166 235 271 312 418
#     4  10  22  45  63 103 136 166 231 274 316 417
#     4  12  23  44  71  94 137 187 209 283 339 378
#     4  10  26  43  69  98 134 179 219 278 338 387
#     4  12  24  42  68 104 136 166 238 274 314 420
#
# _framework density 20.677906
#
# number of rings (size 3 to 8) (size 9 to 14) (size 15 to 20)
#    1.333    0.000    4.444    0.667    3.111    1.778 
#    4.000    0.000    0.000    0.000    0.000    0.000 
#    0.000    0.000    0.000    0.000    0.000    0.000 
#
# Total GULP energy -50173.801172 kJ/mol
# GULP energy per Si atom -5574.866797 kJ/mol
# Density = 2.063084 g / cm^3
# Si number density = 20.677906 Si / 1000 Ang^3
#
#
#
# Elastic Constant Matrix: (Units=GPa)
#
#
# Indices 1 2 3 4 5 6 
#
# 1 157.1533 10.9443 78.1286 0.0000 2.3228 0.0000
# 2 10.9443 63.7339 23.1755 0.0000 15.0368 0.0000
# 3 78.1286 23.1755 178.2136 0.0000 3.8749 0.0000
# 4 0.0000 0.0000 0.0000 0.1746 0.0000 9.1893
# 5 2.3228 15.0368 3.8749 0.0000 65.1086 0.0000
# 6 0.0000 0.0000 0.0000 9.1893 0.0000 7.2573
#
#
#
# Elastic Compliance Matrix: (Units=1/GPa)
#
#
# Indices 1 2 3 4 5 6 
#
# 1 0.008137 -0.000091 -0.003554 0.000000 -0.000058 0.000000
# 2 -0.000091 0.017401 -0.002138 0.000000 -0.003888 0.000000
# 3 -0.003554 -0.002138 0.007444 0.000000 0.000178 0.000000
# 4 0.000000 0.000000 0.000000 -0.087253 0.000000 0.110481
# 5 -0.000058 -0.003888 0.000178 0.000000 0.016248 0.000000
# 6 0.000000 0.000000 0.000000 0.110481 0.000000 -0.002100
#
#
# Mechanical properties :
#
#
# Convention : Reuss Voigt Hill
#
# Bulk Modulus (GPa) = 46.69819 69.28860 57.99340
# Shear Modulus (GPa) = -233.46646 33.63159 -99.91744
#
# Velocity S-wave (km/s) = -10.63726 4.03730 -6.95886
# Velocity P-wave (km/s) = 11.32413 7.43736 6.03827
#
# Compressibility (1/GPa) = 0.02141411
#
# Stress axis : x y z
#
# Youngs Moduli (GPa) = 122.88861 57.46861 134.34248
#
# Poissons Ratio (x) = 0.00525 0.47750
# Poissons Ratio (y) = 0.01122 0.28726
# Poissons Ratio (z) = 0.43679 0.12288
#
# Static dielectric constant tensor:
#      x y z
#    x 1.766060 0.000000 -0.051690 
#    y 0.000000 1.686720 0.000000 
#    z -0.051690 0.000000 1.762750 
# 
# From -- ./inp_files/13965.got.cif
#   From: 2010.05.17/outbox.cif.g08.bks.cpg/sg5_7_cif.got.tgz:13965.got - 2010.06.03 18:56:24.
