data_PCOD9127852
_publ_section_title
;
Structure prediction by ZEFSAII (Michael W. Deem and Ramdas Pophale) SiO2 
 PCOD9127852
Probable space group: C 2
;
_chemical_formula_sum "Si O2"
_cell_formula_units_Z 24
_cell_length_a 11.589449
_cell_length_b 9.138284
_cell_length_c 11.973251
_cell_angle_alpha 90.000000
_cell_angle_beta 81.122648
_cell_angle_gamma 90.000000
_cell_volume 1252.869038
_symmetry_space_group_name_H-M "C 2"
_symmetry_group_IT_number 5
_symmetry_cell_setting 'monoclinic'
loop_
_space_group_symop_operation_xyz
x,y,z
-x,y,-z
1/2+x,1/2+y,z
1/2-x,1/2+y,-z
loop_
_atom_site_type_symbol
_atom_site_label
_atom_site_fract_x
_atom_site_fract_y
_atom_site_fract_z
Si Si1 0.564869 0.881180 0.327689
Si Si2 0.636641 0.101206 0.950419
Si Si3 0.127506 0.100751 0.465280
Si Si4 0.693258 0.926955 0.716499
Si Si5 0.248468 0.107064 0.686690
Si Si6 0.252402 0.902281 0.877168
O O1 0.602905 0.756714 0.409089
O O2 0.428227 0.897691 0.330029
O O3 0.629217 0.842649 0.200735
O O4 0.623865 0.036174 0.350107
O O5 0.677904 0.268545 0.933236
O O6 0.662598 0.021331 0.829494
O O7 0.500000 0.093029 0.000000
O O8 0.708949 0.015791 0.034352
O O9 0.184336 0.113244 0.578375
O O10 0.000000 0.029707 0.500000
O O11 0.214577 0.010525 0.374478
O O12 0.746237 0.768362 0.737699
O O13 0.193214 0.993083 0.784074
#
# Coordination Sequence:
#
# PCOD9127852 Si02
#       6
#     4   4   4   4   4   4
#     4  10  23  46  65  98 136 175 228 278 335 404
#     4  12  23  45  71  98 139 180 219 283 341 400
#     4  12  24  44  69  97 138 180 226 284 339 400
#     4  12  23  44  71  96 139 181 223 284 341 402
#     4  10  23  43  66  99 130 181 229 273 342 397
#     4  10  24  46  66 102 135 175 230 274 337 411
#
# _framework density 19.156033000000001
#
# number of rings (size 3 to 8) (size 9 to 14) (size 15 to 20)
#    1.000    0.000    5.000    2.000    0.000    0.000 
#   18.000    0.000    0.000    0.000    0.000    0.000 
#    0.000    0.000    0.000    0.000    0.000    0.000 
#
# Total GULP energy -66951.593823 kJ/mol
# GULP energy per Si atom -5579.299485 kJ/mol
# Density = 1.911243 g / cm^3
# Si number density = 19.156033 Si / 1000 Ang^3
#
#
#
# Elastic Constant Matrix: (Units=GPa)
#
#
# Indices 1 2 3 4 5 6 
#
# 1 90.3037 48.8422 40.3575 0.0000 -14.6702 0.0000
# 2 48.8422 138.9438 62.4411 0.0000 -1.8935 0.0000
# 3 40.3575 62.4411 131.9224 0.0000 -5.6487 0.0000
# 4 0.0000 0.0000 0.0000 32.8386 0.0000 3.3295
# 5 -14.6702 -1.8935 -5.6487 0.0000 29.4331 0.0000
# 6 0.0000 0.0000 0.0000 3.3295 0.0000 29.6887
#
#
#
# Elastic Compliance Matrix: (Units=1/GPa)
#
#
# Indices 1 2 3 4 5 6 
#
# 1 0.015639 -0.004302 -0.002446 0.000000 0.007049 0.000000
# 2 -0.004302 0.010327 -0.003665 0.000000 -0.002183 0.000000
# 3 -0.002446 -0.003665 0.010084 0.000000 0.000480 0.000000
# 4 0.000000 0.000000 0.000000 0.030802 0.000000 -0.003454
# 5 0.007049 -0.002183 0.000480 0.000000 0.037440 0.000000
# 6 0.000000 0.000000 0.000000 -0.003454 0.000000 0.034070
#
#
# Mechanical properties :
#
#
# Convention : Reuss Voigt Hill
#
# Bulk Modulus (GPa) = 65.69170 73.82794 69.75982
# Shear Modulus (GPa) = 30.43886 32.36069 31.39978
#
# Velocity S-wave (km/s) = 3.99055 4.11459 4.05304
# Velocity P-wave (km/s) = 7.45654 7.82286 7.64190
#
# Compressibility (1/GPa) = 0.01522262
#
# Stress axis : x y z
#
# Youngs Moduli (GPa) = 63.94312 96.83475 99.16763
#
# Poissons Ratio (x) = 0.41659 0.24258
# Poissons Ratio (y) = 0.27509 0.36348
# Poissons Ratio (z) = 0.15641 0.35493
#
# Static dielectric constant tensor:
#      x y z
#    x 1.668630 0.000000 -0.002550 
#    y 0.000000 1.663990 0.000000 
#    z -0.002550 0.000000 1.690150 
# 
# From -- ./inp_files/38352.got.cif
#   From: 2010.05.17/outbox.cif.g08.bks.cpg/sg5_20_cif.got.tgz:38352.got - 2010.06.03 18:56:24.
