data_PCOD9127643
_publ_section_title
;
Structure prediction by ZEFSAII (Michael W. Deem and Ramdas Pophale) SiO2 
 PCOD9127643
Probable space group: C 2
;
_chemical_formula_sum "Si O2"
_cell_formula_units_Z 26
_cell_length_a 20.918834
_cell_length_b 9.488048
_cell_length_c 7.719285
_cell_angle_alpha 90.000000
_cell_angle_beta 122.189636
_cell_angle_gamma 90.000000
_cell_volume 1296.613074
_symmetry_space_group_name_H-M "C 2"
_symmetry_group_IT_number 5
_symmetry_cell_setting 'monoclinic'
loop_
_space_group_symop_operation_xyz
x,y,z
-x,y,-z
1/2+x,1/2+y,z
1/2-x,1/2+y,-z
loop_
_atom_site_type_symbol
_atom_site_label
_atom_site_fract_x
_atom_site_fract_y
_atom_site_fract_z
Si Si1 0.585977 0.952600 0.776203
Si Si2 0.228863 0.460504 0.391948
Si Si3 0.000000 0.161251 0.000000
Si Si4 0.854004 0.979855 0.863939
Si Si5 0.571346 0.893580 0.356974
Si Si6 0.684591 0.193769 0.050749
Si Si7 0.795662 0.247500 0.925049
O O1 0.584425 0.884043 0.582914
O O2 0.504833 0.988776 0.743296
O O3 0.626762 0.834709 0.950793
O O4 0.636089 0.092362 0.856815
O O5 0.300454 0.481141 0.618042
O O6 0.149377 0.443286 0.381782
O O7 0.219058 0.591586 0.246806
O O8 0.241499 0.318501 0.296935
O O9 0.039485 0.258632 0.205588
O O10 0.067140 0.058889 0.038823
O O11 0.862532 0.819690 0.934325
O O12 0.808728 0.081984 0.929284
O O13 0.748174 0.269767 0.028873
#
# Coordination Sequence:
#
# PCOD9127643 Si02
#       7
#     4   4   2   4   4   4   4
#     4  10  23  40  70  95 128 181 227 276 327 403
#     4  11  23  41  70  93 129 187 233 264 331 417
#     4  12  24  42  68 102 140 168 236 274 344 388
#     4  12  24  40  65 102 136 171 220 292 337 391
#     4  11  21  45  72  93 124 183 236 264 318 423
#     4  11  24  40  62  99 141 171 224 288 338 393
#     4  11  21  41  63  95 133 182 225 272 327 412
#
# _framework density 20.052244000000002
#
# number of rings (size 3 to 8) (size 9 to 14) (size 15 to 20)
#    0.000    0.923    3.077    5.538    2.154    1.231 
#    0.000    1.538    0.000    0.000    0.000    0.000 
#    0.000    0.000    0.000    0.000    0.000    0.000 
#
# Total GULP energy -72493.518517 kJ/mol
# GULP energy per Si atom -5576.424501 kJ/mol
# Density = 2.000660 g / cm^3
# Si number density = 20.052244 Si / 1000 Ang^3
#
#
#
# Elastic Constant Matrix: (Units=GPa)
#
#
# Indices 1 2 3 4 5 6 
#
# 1 96.5349 13.7127 19.7975 0.0000 0.9103 0.0000
# 2 13.7127 99.4200 30.2139 0.0000 -4.0786 0.0000
# 3 19.7975 30.2139 91.4108 0.0000 0.7668 0.0000
# 4 0.0000 0.0000 0.0000 18.4740 0.0000 -3.5121
# 5 0.9103 -4.0786 0.7668 0.0000 26.7175 0.0000
# 6 0.0000 0.0000 0.0000 -3.5121 0.0000 32.8308
#
#
#
# Elastic Compliance Matrix: (Units=1/GPa)
#
#
# Indices 1 2 3 4 5 6 
#
# 1 0.010914 -0.000897 -0.002064 0.000000 -0.000449 0.000000
# 2 -0.000897 0.011344 -0.003571 0.000000 0.001865 0.000000
# 3 -0.002064 -0.003571 0.012574 0.000000 -0.000836 0.000000
# 4 0.000000 0.000000 0.000000 0.055254 0.000000 0.005911
# 5 -0.000449 0.001865 -0.000836 0.000000 0.037753 0.000000
# 6 0.000000 0.000000 0.000000 0.005911 0.000000 0.031091
#
#
# Mechanical properties :
#
#
# Convention : Reuss Voigt Hill
#
# Bulk Modulus (GPa) = 45.93643 46.09040 46.01342
# Shear Modulus (GPa) = 27.89438 30.51391 29.20414
#
# Velocity S-wave (km/s) = 3.73377 3.90516 3.82042
# Velocity P-wave (km/s) = 6.44563 6.58549 6.51594
#
# Compressibility (1/GPa) = 0.02176921
#
# Stress axis : x y z
#
# Youngs Moduli (GPa) = 91.62756 88.15464 79.53025
#
# Poissons Ratio (x) = 0.07904 0.16411
# Poissons Ratio (y) = 0.08216 0.28399
# Poissons Ratio (z) = 0.18908 0.31479
#
# Static dielectric constant tensor:
#      x y z
#    x 1.732330 0.000000 0.011090 
#    y 0.000000 1.684010 0.000000 
#    z 0.011090 0.000000 1.745180 
# 
# From -- ./inp_files/29017.got.cif
#   From: 2010.05.17/outbox.cif.g08.bks.cpg/sg5_15_cif.got.tgz:29017.got - 2010.06.03 18:56:24.
