data_PCOD9127402
_publ_section_title
;
Structure prediction by ZEFSAII (Michael W. Deem and Ramdas Pophale) SiO2 
 PCOD9127402
Probable space group: C 2
;
_chemical_formula_sum "Si O2"
_cell_formula_units_Z 28
_cell_length_a 18.394729
_cell_length_b 4.927212
_cell_length_c 16.692180
_cell_angle_alpha 90.000000
_cell_angle_beta 43.412424
_cell_angle_gamma 90.000000
_cell_volume 1039.726993
_symmetry_space_group_name_H-M "C 2"
_symmetry_group_IT_number 5
_symmetry_cell_setting 'monoclinic'
loop_
_space_group_symop_operation_xyz
x,y,z
-x,y,-z
1/2+x,1/2+y,z
1/2-x,1/2+y,-z
loop_
_atom_site_type_symbol
_atom_site_label
_atom_site_fract_x
_atom_site_fract_y
_atom_site_fract_z
Si Si1 0.784556 0.397030 0.009417
Si Si2 0.000000 0.553762 0.500000
Si Si3 0.000000 0.539469 0.000000
Si Si4 0.279093 0.736804 0.182987
Si Si5 0.924344 0.786562 0.398053
Si Si6 0.315322 0.600021 0.374825
Si Si7 0.016571 0.505710 0.813318
Si Si8 0.220118 0.239614 0.321196
O O1 0.908131 0.335505 0.900439
O O2 0.772743 0.718271 0.011436
O O3 0.733466 0.296822 0.132445
O O4 0.012067 0.729231 0.572182
O O5 0.102685 0.360577 0.419645
O O6 0.103133 0.350910 0.918501
O O7 0.008264 0.671450 0.904612
O O8 0.272700 0.423514 0.209778
O O9 0.219675 0.927799 0.295441
O O10 0.802588 0.686957 0.507511
O O11 0.976740 0.664109 0.276061
O O12 0.891411 0.083882 0.392399
O O13 0.384377 0.799990 0.265181
O O14 0.288671 0.329296 0.343967
#
# Coordination Sequence:
#
# PCOD9127402 Si02
#       8
#     4   2   2   4   4   4   4   4
#     4  11  27  46  68 103 145 198 247 298 375 450
#     4  10  28  46  70 112 152 202 250 310 394 454
#     4  10  22  46  68 110 136 192 244 312 372 432
#     4  11  24  44  74 100 147 187 245 309 368 445
#     4  11  24  46  71 109 150 194 252 312 386 453
#     4  11  23  43  76 106 147 193 253 313 375 454
#     4  11  24  44  73 103 146 189 249 309 376 444
#     4  11  25  47  73 108 149 193 248 313 375 448
#
# _framework density 26.930143999999999
#
# number of rings (size 3 to 8) (size 9 to 14) (size 15 to 20)
#    0.000    1.143    2.857    1.714    6.000    1.143 
#    2.571    0.000    0.000    0.000    0.000    0.000 
#    0.000    0.000    0.000    0.000    0.000    0.000 
#
# Total GULP energy -78305.988985 kJ/mol
# GULP energy per Si atom -5593.284927 kJ/mol
# Density = 2.686885 g / cm^3
# Si number density = 26.930144 Si / 1000 Ang^3
#
#
#
# Elastic Constant Matrix: (Units=GPa)
#
#
# Indices 1 2 3 4 5 6 
#
# 1 168.9949 22.4770 60.8271 -0.0436 19.8229 0.0178
# 2 22.4770 69.5414 22.5179 -0.0288 2.5875 0.0111
# 3 60.8271 22.5179 148.1200 -0.0076 22.7466 0.0056
# 4 -0.0436 -0.0288 -0.0076 32.1684 0.0050 4.1259
# 5 19.8229 2.5875 22.7466 0.0050 56.4163 -0.0116
# 6 0.0178 0.0111 0.0056 4.1259 -0.0116 40.2769
#
#
#
# Elastic Compliance Matrix: (Units=1/GPa)
#
#
# Indices 1 2 3 4 5 6 
#
# 1 0.007183 -0.001456 -0.002506 0.000009 -0.001447 -0.000004
# 2 -0.001456 0.015423 -0.001830 0.000012 0.000542 -0.000004
# 3 -0.002506 -0.001830 0.008433 -0.000003 -0.002435 0.000000
# 4 0.000009 0.000012 -0.000003 0.031500 -0.000006 -0.003227
# 5 -0.001447 0.000542 -0.002435 -0.000006 0.019191 0.000007
# 6 -0.000004 -0.000004 0.000000 -0.003227 0.000007 0.025159
#
#
# Mechanical properties :
#
#
# Convention : Reuss Voigt Hill
#
# Bulk Modulus (GPa) = 51.40387 66.47781 58.94084
# Shear Modulus (GPa) = 40.01368 44.49462 42.25415
#
# Velocity S-wave (km/s) = 3.85883 4.06917 3.96539
# Velocity P-wave (km/s) = 6.24367 6.84225 6.54980
#
# Compressibility (1/GPa) = 0.01945379
#
# Stress axis : x y z
#
# Youngs Moduli (GPa) = 139.22239 64.83835 118.58653
#
# Poissons Ratio (x) = 0.09442 0.29719
# Poissons Ratio (y) = 0.20274 0.21700
# Poissons Ratio (z) = 0.34891 0.11865
#
# Static dielectric constant tensor:
#      x y z
#    x 2.179220 -0.000030 0.074000 
#    y -0.000030 2.115390 0.000010 
#    z 0.074000 0.000010 2.119630 
# 
# From -- ./inp_files/62625.got.cif
#   From: 2010.05.17/outbox.cif.g08.bks.cpg/sg5_32_cif.got.tgz:62625.got - 2010.06.03 18:56:24.
