data_PCOD9127345
_publ_section_title
;
Structure prediction by ZEFSAII (Michael W. Deem and Ramdas Pophale) SiO2 
 PCOD9127345
Probable space group: C 2
;
_chemical_formula_sum "Si O2"
_cell_formula_units_Z 32
_cell_length_a 17.085546
_cell_length_b 5.535796
_cell_length_c 13.828588
_cell_angle_alpha 90.000000
_cell_angle_beta 96.015014
_cell_angle_gamma 90.000000
_cell_volume 1300.735969
_symmetry_space_group_name_H-M "C 2"
_symmetry_group_IT_number 5
_symmetry_cell_setting 'monoclinic'
loop_
_space_group_symop_operation_xyz
x,y,z
-x,y,-z
1/2+x,1/2+y,z
1/2-x,1/2+y,-z
loop_
_atom_site_type_symbol
_atom_site_label
_atom_site_fract_x
_atom_site_fract_y
_atom_site_fract_z
Si Si1 0.917111 0.481780 0.444172
Si Si2 0.703990 0.222956 0.710441
Si Si3 0.231215 0.227156 0.944554
Si Si4 0.399452 0.079566 0.139071
Si Si5 0.491846 0.743354 0.283843
Si Si6 0.151717 0.445183 0.359966
Si Si7 0.005978 0.962987 0.099873
Si Si8 0.167194 0.828744 0.214311
O O1 0.867181 0.654885 0.369345
O O2 0.860578 0.435546 0.527558
O O3 0.000000 0.574753 0.500000
O O4 0.944703 0.258012 0.378817
O O5 0.664585 0.238062 0.810595
O O6 0.758988 0.412610 0.663291
O O7 0.767769 0.010544 0.735917
O O8 0.147082 0.346209 0.907252
O O9 0.282166 0.169603 0.855205
O O10 0.269466 0.474882 0.996856
O O11 0.448286 0.237423 0.071008
O O12 0.463394 0.982128 0.223498
O O13 0.584906 0.758840 0.314543
O O14 0.474640 0.547358 0.200933
O O15 0.130236 0.689645 0.300640
O O16 0.096701 0.927184 0.139299
O O17 0.000000 0.116096 0.000000
#
# Coordination Sequence:
#
# PCOD9127345 Si02
#       8
#     4   4   4   4   4   4   4   4
#     4   9  22  44  73 106 141 191 241 308 389 472
#     4  10  23  43  69 102 138 186 235 305 388 446
#     4  11  27  46  73 105 150 199 261 317 385 457
#     4  10  24  44  66  97 142 191 243 306 378 440
#     4  10  22  45  70  99 149 185 244 315 372 460
#     4  11  22  44  74 101 146 184 244 317 385 465
#     4  12  25  43  70 104 143 200 259 306 384 447
#     4  11  25  43  69 104 146 192 252 316 376 458
#
# _framework density 24.601455000000001
#
# number of rings (size 3 to 8) (size 9 to 14) (size 15 to 20)
#    0.000    1.500    2.500    0.750    8.750    2.500 
#    0.000    0.000    0.000    0.000    0.000    0.000 
#    0.000    0.000    0.000    0.000    0.000    0.000 
#
# Total GULP energy -89204.332268 kJ/mol
# GULP energy per Si atom -5575.270767 kJ/mol
# Density = 2.454546 g / cm^3
# Si number density = 24.601455 Si / 1000 Ang^3
#
#
#
# Elastic Constant Matrix: (Units=GPa)
#
#
# Indices 1 2 3 4 5 6 
#
# 1 117.6264 34.0011 45.9255 0.0000 2.7690 0.0000
# 2 34.0011 42.5833 31.7190 0.0000 -4.4147 0.0000
# 3 45.9255 31.7190 139.2202 0.0000 -3.7663 0.0000
# 4 0.0000 0.0000 0.0000 12.1553 0.0000 -6.2660
# 5 2.7690 -4.4147 -3.7663 0.0000 54.3730 0.0000
# 6 0.0000 0.0000 0.0000 -6.2660 0.0000 34.7666
#
#
#
# Elastic Compliance Matrix: (Units=1/GPa)
#
#
# Indices 1 2 3 4 5 6 
#
# 1 0.011621 -0.007875 -0.002077 0.000000 -0.001375 0.000000
# 2 -0.007875 0.033807 -0.005029 0.000000 0.002798 0.000000
# 3 -0.002077 -0.005029 0.009022 0.000000 0.000322 0.000000
# 4 0.000000 0.000000 0.000000 0.090695 0.000000 0.016346
# 5 -0.001375 0.002798 0.000322 0.000000 0.018711 0.000000
# 6 0.000000 0.000000 0.000000 0.016346 0.000000 0.031709
#
#
# Mechanical properties :
#
#
# Convention : Reuss Voigt Hill
#
# Bulk Modulus (GPa) = 40.83329 58.08014 49.45671
# Shear Modulus (GPa) = 21.39596 32.77794 27.08695
#
# Velocity S-wave (km/s) = 2.95227 3.65411 3.32178
# Velocity P-wave (km/s) = 5.31556 6.43918 5.90416
#
# Compressibility (1/GPa) = 0.02448982
#
# Stress axis : x y z
#
# Youngs Moduli (GPa) = 86.05222 29.57972 110.83560
#
# Poissons Ratio (x) = 0.23293 0.23016
# Poissons Ratio (y) = 0.67763 0.55740
# Poissons Ratio (z) = 0.17869 0.14876
#
# Static dielectric constant tensor:
#      x y z
#    x 1.966130 0.000000 0.005110 
#    y 0.000000 2.029230 0.000000 
#    z 0.005110 0.000000 1.989050 
# 
# From -- ./inp_files/55450.got.cif
#   From: 2010.05.17/outbox.cif.g08.bks.cpg/sg5_28_cif.got.tgz:55450.got - 2010.06.03 18:56:24.
