data_PCOD9127382
_publ_section_title
;
Structure prediction by ZEFSAII (Michael W. Deem and Ramdas Pophale) SiO2 
 PCOD9127382
Probable space group: C 2
;
_chemical_formula_sum "Si O2"
_cell_formula_units_Z 20
_cell_length_a 12.806300
_cell_length_b 9.396339
_cell_length_c 16.103420
_cell_angle_alpha 90.000000
_cell_angle_beta 24.952243
_cell_angle_gamma 90.000000
_cell_volume 817.469557
_symmetry_space_group_name_H-M "C 2"
_symmetry_group_IT_number 5
_symmetry_cell_setting 'monoclinic'
loop_
_space_group_symop_operation_xyz
x,y,z
-x,y,-z
1/2+x,1/2+y,z
1/2-x,1/2+y,-z
loop_
_atom_site_type_symbol
_atom_site_label
_atom_site_fract_x
_atom_site_fract_y
_atom_site_fract_z
Si Si1 0.851836 0.117780 0.184481
Si Si2 0.240746 0.501790 0.578375
Si Si3 0.175522 0.702338 0.482250
Si Si4 0.948412 0.560394 0.940554
Si Si5 0.786521 0.879370 0.019407
O O1 0.844678 0.199507 0.277676
O O2 0.567468 0.112255 0.363829
O O3 0.986207 0.969491 0.107229
O O4 0.000000 0.183477 0.000000
O O5 0.291783 0.630498 0.479571
O O6 0.409553 0.364585 0.445601
O O7 0.197269 0.546429 0.704836
O O8 0.967518 0.433466 0.754534
O O9 0.841907 0.714888 0.992025
O O10 0.000000 0.552026 0.000000
O O11 0.764593 0.439415 0.036543
#
# Coordination Sequence:
#
# PCOD9127382 Si02
#       5
#     4   4   4   4   4
#     4  11  22  46  76 107 146 213 257 314 402 469
#     4  10  25  46  68 117 154 199 262 330 389 467
#     4  11  25  45  74 110 157 199 263 326 394 467
#     4  10  23  45  78 117 151 199 268 321 388 468
#     4  10  22  45  77 115 151 202 263 320 393 465
#
# _framework density 24.465741999999999
#
# number of rings (size 3 to 8) (size 9 to 14) (size 15 to 20)
#    1.200    0.400    2.000    1.800    2.800    0.800 
#    7.200    1.000    0.000    0.000    0.000    0.000 
#    0.000    0.000    0.000    0.000    0.000    0.000 
#
# Total GULP energy -55856.713619 kJ/mol
# GULP energy per Si atom -5585.671362 kJ/mol
# Density = 2.441006 g / cm^3
# Si number density = 24.465742 Si / 1000 Ang^3
#
#
#
# Elastic Constant Matrix: (Units=GPa)
#
#
# Indices 1 2 3 4 5 6 
#
# 1 180.2061 82.9442 45.5839 -0.0013 45.2640 0.0012
# 2 82.9442 118.0918 30.7518 -0.0042 23.5843 0.0012
# 3 45.5839 30.7518 98.2765 -0.0095 27.9057 0.0044
# 4 -0.0013 -0.0042 -0.0095 29.0385 0.0051 -2.3259
# 5 45.2640 23.5843 27.9057 0.0051 63.4776 -0.0011
# 6 0.0012 0.0012 0.0044 -2.3259 -0.0011 26.7524
#
#
#
# Elastic Compliance Matrix: (Units=1/GPa)
#
#
# Indices 1 2 3 4 5 6 
#
# 1 0.009455 -0.005432 -0.001536 0.000000 -0.004048 0.000000
# 2 -0.005432 0.012691 -0.001385 0.000001 -0.000232 0.000000
# 3 -0.001536 -0.001385 0.012414 0.000004 -0.003847 -0.000002
# 4 0.000000 0.000001 0.000004 0.034679 -0.000005 0.003015
# 5 -0.004048 -0.000232 -0.003847 -0.000005 0.020418 0.000001
# 6 0.000000 0.000000 -0.000002 0.003015 0.000001 0.037642
#
#
# Mechanical properties :
#
#
# Convention : Reuss Voigt Hill
#
# Bulk Modulus (GPa) = 56.01687 79.45935 67.73811
# Shear Modulus (GPa) = 33.34300 39.67333 36.50817
#
# Velocity S-wave (km/s) = 3.69568 4.03126 3.86711
# Velocity P-wave (km/s) = 6.41533 7.36318 6.90554
#
# Compressibility (1/GPa) = 0.01785177
#
# Stress axis : x y z
#
# Youngs Moduli (GPa) = 105.76347 78.79781 80.55556
#
# Poissons Ratio (x) = 0.42806 0.12375
# Poissons Ratio (y) = 0.57455 0.11160
# Poissons Ratio (z) = 0.16247 0.10916
#
# Static dielectric constant tensor:
#      x y z
#    x 1.967730 0.000000 -0.020350 
#    y 0.000000 1.917360 0.000000 
#    z -0.020350 0.000000 2.006890 
# 
# From -- ./inp_files/52836.got.cif
#   From: 2010.05.17/outbox.cif.g08.bks.cpg/sg5_27_cif.got.tgz:52836.got - 2010.06.03 18:56:24.
