data_PCOD9127978
_publ_section_title
;
Structure prediction by ZEFSAII (Michael W. Deem and Ramdas Pophale) SiO2 
 PCOD9127978
Probable space group: C 2
;
_chemical_formula_sum "Si O2"
_cell_formula_units_Z 18
_cell_length_a 11.606299
_cell_length_b 10.259564
_cell_length_c 8.302797
_cell_angle_alpha 90.000000
_cell_angle_beta 138.921863
_cell_angle_gamma 90.000000
_cell_volume 649.636452
_symmetry_space_group_name_H-M "C 2"
_symmetry_group_IT_number 5
_symmetry_cell_setting 'monoclinic'
loop_
_space_group_symop_operation_xyz
x,y,z
-x,y,-z
1/2+x,1/2+y,z
1/2-x,1/2+y,-z
loop_
_atom_site_type_symbol
_atom_site_label
_atom_site_fract_x
_atom_site_fract_y
_atom_site_fract_z
Si Si1 0.697087 0.572910 0.740676
Si Si2 0.000000 0.556845 0.500000
Si Si3 0.303222 0.479198 0.607752
Si Si4 0.000000 0.768913 0.000000
Si Si5 0.000000 0.202260 0.000000
Si Si6 0.653124 0.311736 0.787737
O O1 0.500000 0.624026 0.500000
O O2 0.755887 0.500847 0.635844
O O3 0.833453 0.691592 0.890019
O O4 0.693565 0.465531 0.880042
O O5 0.859637 0.470042 0.444089
O O6 0.919206 0.659771 0.285546
O O7 0.430438 0.356711 0.778105
O O8 0.400441 0.609334 0.768998
O O9 0.149484 0.278871 0.063943
O O10 0.500000 0.354962 0.500000
#
# Coordination Sequence:
#
# PCOD9127978 Si02
#       6
#     4   2   4   2   2   4
#     4  11  25  47  65 105 148 178 232 301 348 417
#     4   8  18  40  72  94 128 182 240 274 344 418
#     4  10  23  44  71  98 141 186 229 296 347 418
#     4  11  27  46  68 110 141 189 240 276 368 421
#     4   9  17  38  64  96 113 175 240 258 344 411
#     4   8  17  35  67  88 126 168 226 278 330 409
#
# _framework density 27.707805
#
# number of rings (size 3 to 8) (size 9 to 14) (size 15 to 20)
#    0.667    1.778    0.000    0.667    7.778    0.000 
#   20.000    0.000    0.000    0.000    0.000    0.000 
#    0.000    0.000    0.000    0.000    0.000    0.000 
#
# Total GULP energy -50166.297237 kJ/mol
# GULP energy per Si atom -5574.033026 kJ/mol
# Density = 2.764474 g / cm^3
# Si number density = 27.707805 Si / 1000 Ang^3
#
#
#
# Elastic Constant Matrix: (Units=GPa)
#
#
# Indices 1 2 3 4 5 6 
#
# 1 51.3315 2.1856 23.8757 0.0000 -12.4456 0.0000
# 2 2.1856 109.2761 37.0636 0.0000 15.1158 0.0000
# 3 23.8757 37.0636 77.1537 0.0000 24.3046 0.0000
# 4 0.0000 0.0000 0.0000 104.4164 0.0000 19.7469
# 5 -12.4456 15.1158 24.3046 0.0000 57.1502 0.0000
# 6 0.0000 0.0000 0.0000 19.7469 0.0000 20.9430
#
#
#
# Elastic Compliance Matrix: (Units=1/GPa)
#
#
# Indices 1 2 3 4 5 6 
#
# 1 0.028405 0.002458 -0.013527 0.000000 0.011288 0.000000
# 2 0.002458 0.011174 -0.006196 0.000000 0.000215 0.000000
# 3 -0.013527 -0.006196 0.023712 0.000000 -0.011391 0.000000
# 4 0.000000 0.000000 0.000000 0.011655 0.000000 -0.010990
# 5 0.011288 0.000215 -0.011391 0.000000 0.024744 0.000000
# 6 0.000000 0.000000 0.000000 -0.010990 0.000000 0.058111
#
#
# Mechanical properties :
#
#
# Convention : Reuss Voigt Hill
#
# Bulk Modulus (GPa) = 34.76898 40.44569 37.60734
# Shear Modulus (GPa) = 24.76245 48.14434 36.45339
#
# Velocity S-wave (km/s) = 2.99272 4.17294 3.63111
# Velocity P-wave (km/s) = 4.95152 6.15198 5.58410
#
# Compressibility (1/GPa) = 0.02876127
#
# Stress axis : x y z
#
# Youngs Moduli (GPa) = 35.20461 89.49479 42.17224
#
# Poissons Ratio (x) = -0.22002 0.57048
# Poissons Ratio (y) = -0.08655 0.26131
# Poissons Ratio (z) = 0.47622 0.55454
#
# Static dielectric constant tensor:
#      x y z
#    x 2.267370 0.000000 0.011960 
#    y 0.000000 2.201070 0.000000 
#    z 0.011960 0.000000 2.163560 
# 
# From -- ./inp_files/42343.got.cif
#   From: 2010.05.17/outbox.cif.g08.bks.cpg/sg5_22_cif.got.tgz:42343.got - 2010.06.03 18:56:24.
