data_PCOD9127044
_publ_section_title
;
Structure prediction by ZEFSAII (Michael W. Deem and Ramdas Pophale) SiO2 
 PCOD9127044
Probable space group: C 2
;
_chemical_formula_sum "Si O2"
_cell_formula_units_Z 28
_cell_length_a 9.706875
_cell_length_b 7.723623
_cell_length_c 25.646147
_cell_angle_alpha 90.000000
_cell_angle_beta 38.590543
_cell_angle_gamma 90.000000
_cell_volume 1199.315933
_symmetry_space_group_name_H-M "C 2"
_symmetry_group_IT_number 5
_symmetry_cell_setting 'monoclinic'
loop_
_space_group_symop_operation_xyz
x,y,z
-x,y,-z
1/2+x,1/2+y,z
1/2-x,1/2+y,-z
loop_
_atom_site_type_symbol
_atom_site_label
_atom_site_fract_x
_atom_site_fract_y
_atom_site_fract_z
Si Si1 0.268617 0.290030 0.591343
Si Si2 0.296334 0.194500 0.697694
Si Si3 0.050380 0.994092 0.927007
Si Si4 0.111796 0.597034 0.019595
Si Si5 0.474133 0.999347 0.174347
Si Si6 0.231301 0.205345 0.408535
Si Si7 0.796158 0.303137 0.697910
O O1 0.500000 0.225860 0.500000
O O2 0.214364 0.207990 0.662926
O O3 0.288815 0.497651 0.593024
O O4 0.056447 0.258495 0.618419
O O5 0.169347 0.332639 0.769598
O O6 0.557152 0.237772 0.618203
O O7 0.272242 0.998902 0.724448
O O8 0.314684 0.003130 0.848870
O O9 0.976628 0.792920 0.948795
O O10 0.000000 0.066996 0.000000
O O11 0.878583 0.085757 0.938977
O O12 0.044651 0.502523 0.093055
O O13 0.000000 0.525672 0.000000
O O14 0.331543 0.169232 0.228502
O O15 0.285933 0.286576 0.336703
O O16 0.000000 0.269483 0.500000
#
# Coordination Sequence:
#
# PCOD9127044 Si02
#       7
#     4   4   4   4   4   4   4
#     4  10  22  43  68  97 142 187 236 290 333 403
#     4  11  25  43  67 103 138 182 238 279 347 401
#     4   9  22  47  69 101 135 172 220 272 342 414
#     4  10  23  49  75 101 131 180 224 270 346 421
#     4  11  25  48  70 100 150 171 219 300 332 405
#     4  10  22  43  67  98 141 187 239 286 335 406
#     4  11  25  43  67 104 136 185 237 275 354 396
#
# _framework density 23.346644000000001
#
# number of rings (size 3 to 8) (size 9 to 14) (size 15 to 20)
#    0.000    1.714    1.429    0.857    4.000    2.286 
#   20.571    0.000    0.000    0.000    0.000    0.000 
#    0.000    0.000    0.000    0.000    0.000    0.000 
#
# Total GULP energy -78327.168163 kJ/mol
# GULP energy per Si atom -5594.797726 kJ/mol
# Density = 2.329351 g / cm^3
# Si number density = 23.346644 Si / 1000 Ang^3
#
#
#
# Elastic Constant Matrix: (Units=GPa)
#
#
# Indices 1 2 3 4 5 6 
#
# 1 110.2267 15.7347 18.9559 0.0000 -15.0925 0.0000
# 2 15.7347 68.4461 48.8360 0.0000 -18.7628 0.0000
# 3 18.9559 48.8360 102.3414 0.0000 -16.4580 0.0000
# 4 0.0000 0.0000 0.0000 27.6786 0.0000 -14.8172
# 5 -15.0925 -18.7628 -16.4580 0.0000 47.7891 0.0000
# 6 0.0000 0.0000 0.0000 -14.8172 0.0000 12.5847
#
#
#
# Elastic Compliance Matrix: (Units=1/GPa)
#
#
# Indices 1 2 3 4 5 6 
#
# 1 0.009693 -0.000862 -0.001002 0.000000 0.002378 0.000000
# 2 -0.000862 0.023603 -0.010223 0.000000 0.005474 0.000000
# 3 -0.001002 -0.010223 0.014968 0.000000 0.000825 0.000000
# 4 0.000000 0.000000 0.000000 0.097724 0.000000 0.115061
# 5 0.002378 0.005474 0.000825 0.000000 0.024109 0.000000
# 6 0.000000 0.000000 0.000000 0.115061 0.000000 0.214934
#
#
# Mechanical properties :
#
#
# Convention : Reuss Voigt Hill
#
# Bulk Modulus (GPa) = 41.51006 49.78527 45.64766
# Shear Modulus (GPa) = 11.98366 30.77631 21.37998
#
# Velocity S-wave (km/s) = 2.26805 3.63469 3.02944
# Velocity P-wave (km/s) = 4.96762 6.24382 5.64192
#
# Compressibility (1/GPa) = 0.02409055
#
# Stress axis : x y z
#
# Youngs Moduli (GPa) = 103.16634 42.36790 66.81064
#
# Poissons Ratio (x) = 0.03651 0.06693
# Poissons Ratio (y) = 0.08889 0.68301
# Poissons Ratio (z) = 0.10335 0.43313
#
# Static dielectric constant tensor:
#      x y z
#    x 1.849730 0.000000 -0.006380 
#    y 0.000000 1.852850 0.000000 
#    z -0.006380 0.000000 1.898780 
# 
# From -- ./inp_files/70134.got.cif
#   From: 2010.05.17/outbox.cif.g08.bks.cpg/sg5_36_cif.got.tgz:70134.got - 2010.06.03 18:56:24.
