data_PCOD9127182
_publ_section_title
;
Structure prediction by ZEFSAII (Michael W. Deem and Ramdas Pophale) SiO2 
 PCOD9127182
Probable space group: C 2
;
_chemical_formula_sum "Si O2"
_cell_formula_units_Z 20
_cell_length_a 29.169395
_cell_length_b 5.026351
_cell_length_c 12.402003
_cell_angle_alpha 90.000000
_cell_angle_beta 28.169958
_cell_angle_gamma 90.000000
_cell_volume 858.411612
_symmetry_space_group_name_H-M "C 2"
_symmetry_group_IT_number 5
_symmetry_cell_setting 'monoclinic'
loop_
_space_group_symop_operation_xyz
x,y,z
-x,y,-z
1/2+x,1/2+y,z
1/2-x,1/2+y,-z
loop_
_atom_site_type_symbol
_atom_site_label
_atom_site_fract_x
_atom_site_fract_y
_atom_site_fract_z
Si Si1 0.875367 0.284060 0.490057
Si Si2 0.189054 0.302663 0.605946
Si Si3 0.276998 0.373592 0.011797
Si Si4 0.434469 0.559273 0.829428
Si Si5 0.564657 0.050089 0.047124
O O1 0.840354 0.176317 0.447857
O O2 0.787563 0.370685 0.746132
O O3 0.949035 0.517061 0.299695
O O4 0.949066 0.099239 0.406397
O O5 0.256048 0.561977 0.448717
O O6 0.103182 0.426239 0.856815
O O7 0.231430 0.590306 0.026788
O O8 0.385040 0.455829 0.824207
O O9 0.394626 0.849325 0.945285
O O10 0.410784 0.348061 0.972845
#
# Coordination Sequence:
#
# PCOD9127182 Si02
#       5
#     4   4   4   4   4
#     4  10  27  45  72 103 143 187 236 290 353 422
#     4  12  25  41  72 106 147 188 231 287 353 425
#     4  12  27  47  72 103 139 184 245 302 354 413
#     4  10  24  46  71  97 144 179 236 289 360 413
#     4  10  22  44  68 104 140 182 230 279 353 428
#
# _framework density 23.298845
#
# number of rings (size 3 to 8) (size 9 to 14) (size 15 to 20)
#    1.200    0.000    0.000    5.400    5.600    0.800 
#    3.600    0.000    0.000    0.000    0.000    0.000 
#    0.000    0.000    0.000    0.000    0.000    0.000 
#
# Total GULP energy -55817.977596 kJ/mol
# GULP energy per Si atom -5581.797760 kJ/mol
# Density = 2.324582 g / cm^3
# Si number density = 23.298845 Si / 1000 Ang^3
#
#
#
# Elastic Constant Matrix: (Units=GPa)
#
#
# Indices 1 2 3 4 5 6 
#
# 1 94.7014 -14.7712 19.0124 -0.0004 -12.5021 -0.0004
# 2 -14.7712 69.9176 2.9508 0.0001 -14.8885 0.0015
# 3 19.0124 2.9508 54.9811 0.0002 -7.1687 0.0005
# 4 -0.0004 0.0001 0.0002 18.4288 0.0000 4.4375
# 5 -12.5021 -14.8885 -7.1687 0.0000 26.1824 -0.0001
# 6 -0.0004 0.0015 0.0005 4.4375 -0.0001 30.8739
#
#
#
# Elastic Compliance Matrix: (Units=1/GPa)
#
#
# Indices 1 2 3 4 5 6 
#
# 1 0.013057 0.004580 -0.003742 0.000000 0.007815 0.000000
# 2 0.004580 0.017886 -0.000967 0.000000 0.012093 -0.000001
# 3 -0.003742 -0.000967 0.019941 0.000000 0.003123 0.000000
# 4 0.000000 0.000000 0.000000 0.056208 0.000000 -0.008079
# 5 0.007815 0.012093 0.003123 0.000000 0.049657 0.000000
# 6 0.000000 -0.000001 0.000000 -0.008079 0.000000 0.033551
#
#
# Mechanical properties :
#
#
# Convention : Reuss Voigt Hill
#
# Bulk Modulus (GPa) = 19.75225 25.99825 22.87525
# Shear Modulus (GPa) = 24.10412 29.25756 26.68084
#
# Velocity S-wave (km/s) = 3.21995 3.54750 3.38769
# Velocity P-wave (km/s) = 4.72444 5.28796 5.01412
#
# Compressibility (1/GPa) = 0.05062715
#
# Stress axis : x y z
#
# Youngs Moduli (GPa) = 76.58807 55.90880 50.14754
#
# Poissons Ratio (x) = -0.25609 0.18765
# Poissons Ratio (y) = -0.35081 0.04850
# Poissons Ratio (z) = 0.28659 0.05407
#
# Static dielectric constant tensor:
#      x y z
#    x 1.920850 0.000000 -0.046360 
#    y 0.000000 1.834490 0.000000 
#    z -0.046360 0.000000 1.871920 
# 
# From -- ./inp_files/41062.got.cif
#   From: 2010.05.17/outbox.cif.g08.bks.cpg/sg5_21_cif.got.tgz:41062.got - 2010.06.03 18:56:24.
