data_PCOD9127011
_publ_section_title
;
Structure prediction by ZEFSAII (Michael W. Deem and Ramdas Pophale) SiO2 
 PCOD9127011
Probable space group: C 2
;
_chemical_formula_sum "Si O2"
_cell_formula_units_Z 26
_cell_length_a 7.753483
_cell_length_b 12.978047
_cell_length_c 14.459896
_cell_angle_alpha 90.000000
_cell_angle_beta 120.489781
_cell_angle_gamma 90.000000
_cell_volume 1253.826247
_symmetry_space_group_name_H-M "C 2"
_symmetry_group_IT_number 5
_symmetry_cell_setting 'monoclinic'
loop_
_space_group_symop_operation_xyz
x,y,z
-x,y,-z
1/2+x,1/2+y,z
1/2-x,1/2+y,-z
loop_
_atom_site_type_symbol
_atom_site_label
_atom_site_fract_x
_atom_site_fract_y
_atom_site_fract_z
Si Si1 0.283481 0.926740 0.990225
Si Si2 0.000000 0.778328 0.000000
Si Si3 0.632301 0.464373 0.764461
Si Si4 0.556094 0.053269 0.368298
Si Si5 0.198604 0.113905 0.403264
Si Si6 0.521991 0.103434 0.857542
Si Si7 0.788719 0.844312 0.386461
O O1 0.110327 0.932263 0.864580
O O2 0.500000 0.898862 0.000000
O O3 0.200973 0.845457 0.041705
O O4 0.303337 0.036335 0.047254
O O5 0.005807 0.706285 0.092167
O O6 0.485603 0.542280 0.672546
O O7 0.833511 0.530309 0.825090
O O8 0.658906 0.366385 0.705990
O O9 0.373162 0.062078 0.389038
O O10 0.737399 0.108700 0.471985
O O11 0.480668 0.106929 0.253800
O O12 0.640549 0.938164 0.373764
O O13 0.189005 0.233485 0.373809
O O14 0.000000 0.847146 0.500000
#
# Coordination Sequence:
#
# PCOD9127011 Si02
#       7
#     4   2   4   4   4   4   4
#     4  10  24  47  66 100 135 172 227 275 325 397
#     4  12  24  44  74  96 130 184 220 266 352 386
#     4  10  22  43  66  89 135 164 212 279 316 385
#     4  10  23  41  64  92 135 160 216 275 310 396
#     4  11  23  41  64 100 123 174 215 256 339 393
#     4  10  23  47  62  96 135 165 222 280 313 399
#     4  11  21  40  64  89 129 172 207 266 331 378
#
# _framework density 20.736526999999999
#
# number of rings (size 3 to 8) (size 9 to 14) (size 15 to 20)
#    0.000    1.538    5.385    0.000    4.308    3.692 
#    1.385    4.615    0.000    0.000    0.000    0.000 
#    0.000    0.000    0.000    0.000    0.000    0.000 
#
# Total GULP energy -72448.728719 kJ/mol
# GULP energy per Si atom -5572.979132 kJ/mol
# Density = 2.068933 g / cm^3
# Si number density = 20.736527 Si / 1000 Ang^3
#
#
#
# Elastic Constant Matrix: (Units=GPa)
#
#
# Indices 1 2 3 4 5 6 
#
# 1 33.0506 22.9221 9.7347 0.0000 -15.3154 0.0000
# 2 22.9221 115.7268 43.4544 0.0000 -18.3465 0.0000
# 3 9.7347 43.4544 126.5377 0.0000 -27.1016 0.0000
# 4 0.0000 0.0000 0.0000 7.8002 0.0000 3.4656
# 5 -15.3154 -18.3465 -27.1016 0.0000 20.5016 0.0000
# 6 0.0000 0.0000 0.0000 3.4656 0.0000 24.9978
#
#
#
# Elastic Compliance Matrix: (Units=1/GPa)
#
#
# Indices 1 2 3 4 5 6 
#
# 1 0.052584 -0.006317 0.007430 0.000000 0.043452 0.000000
# 2 -0.006317 0.011258 -0.003115 0.000000 0.001238 0.000000
# 3 0.007430 -0.003115 0.012544 0.000000 0.019346 0.000000
# 4 0.000000 0.000000 0.000000 0.136616 0.000000 -0.018940
# 5 0.043452 0.001238 0.019346 0.000000 0.107918 0.000000
# 6 0.000000 0.000000 0.000000 -0.018940 0.000000 0.042629
#
#
# Mechanical properties :
#
#
# Convention : Reuss Voigt Hill
#
# Bulk Modulus (GPa) = 13.81531 47.50418 30.65975
# Shear Modulus (GPa) = 12.76548 23.94019 18.35283
#
# Velocity S-wave (km/s) = 2.48383 3.40147 2.97820
# Velocity P-wave (km/s) = 3.86039 6.19555 5.16176
#
# Compressibility (1/GPa) = 0.07238345
#
# Stress axis : x y z
#
# Youngs Moduli (GPa) = 19.01704 88.82429 79.71722
#
# Poissons Ratio (x) = 0.56110 -0.59232
# Poissons Ratio (y) = 0.12013 0.24833
# Poissons Ratio (z) = -0.14130 0.27670
#
# Static dielectric constant tensor:
#      x y z
#    x 1.780720 0.000000 -0.034150 
#    y 0.000000 1.729200 0.000000 
#    z -0.034150 0.000000 1.891610 
# 
# From -- ./inp_files/50210.got.cif
#   From: 2010.05.17/outbox.cif.g08.bks.cpg/sg5_26_cif.got.tgz:50210.got - 2010.06.03 18:56:24.
