data_PCOD9127561
_publ_section_title
;
Structure prediction by ZEFSAII (Michael W. Deem and Ramdas Pophale) SiO2 
 PCOD9127561
Probable space group: C 2
;
_chemical_formula_sum "Si O2"
_cell_formula_units_Z 26
_cell_length_a 22.008770
_cell_length_b 5.745360
_cell_length_c 16.741480
_cell_angle_alpha 90.000000
_cell_angle_beta 151.168577
_cell_angle_gamma 90.000000
_cell_volume 1020.856910
_symmetry_space_group_name_H-M "C 2"
_symmetry_group_IT_number 5
_symmetry_cell_setting 'monoclinic'
loop_
_space_group_symop_operation_xyz
x,y,z
-x,y,-z
1/2+x,1/2+y,z
1/2-x,1/2+y,-z
loop_
_atom_site_type_symbol
_atom_site_label
_atom_site_fract_x
_atom_site_fract_y
_atom_site_fract_z
Si Si1 0.596845 0.685140 0.688190
Si Si2 0.194180 0.096848 0.192588
Si Si3 0.309500 0.894008 0.472377
Si Si4 0.000000 0.430560 0.000000
Si Si5 0.094592 0.892209 0.361328
Si Si6 0.090667 0.685308 0.680761
Si Si7 0.898026 0.749988 0.015450
O O1 0.500000 0.684570 0.500000
O O2 0.574908 0.434470 0.703288
O O3 0.748214 0.696374 0.846293
O O4 0.576044 0.935771 0.705810
O O5 0.131913 0.301208 0.169726
O O6 0.277705 0.184520 0.215308
O O7 0.262464 0.909034 0.326865
O O8 0.081180 0.969440 0.018418
O O9 0.191905 0.891147 0.397856
O O10 0.383037 0.650355 0.574502
O O11 0.369271 0.154452 0.549939
O O12 0.030525 0.552869 0.951105
O O13 0.958786 0.828531 0.167573
O O14 0.000000 0.681964 0.500000
#
# Coordination Sequence:
#
# PCOD9127561 Si02
#       7
#     4   4   4   2   4   4   4
#     4   9  18  34  55  84 115 149 195 250 304 357
#     4  11  23  36  58  89 124 159 209 256 312 362
#     4  10  23  38  55  79 121 171 204 239 298 371
#     4  12  22  32  58  94 128 164 204 266 314 364
#     4  10  23  38  55  79 121 171 204 239 298 371
#     4   9  18  34  55  84 115 149 195 250 304 357
#     4  11  23  36  58  89 124 159 209 256 312 362
#
# _framework density 25.468799000000001
#
# number of rings (size 3 to 8) (size 9 to 14) (size 15 to 20)
#    0.000    1.846    1.538    2.308   10.769    0.000 
#    0.000    0.000    0.000    0.000    0.000   51.692 
#    0.000    0.000    0.000    0.000    0.000    0.000 
#
# Total GULP energy -72507.267534 kJ/mol
# GULP energy per Si atom -5577.482118 kJ/mol
# Density = 2.541083 g / cm^3
# Si number density = 25.468799 Si / 1000 Ang^3
#
#
#
# Elastic Constant Matrix: (Units=GPa)
#
#
# Indices 1 2 3 4 5 6 
#
# 1 72.7628 59.2700 29.9240 0.0000 -0.6952 0.0000
# 2 59.2700 233.4912 59.8980 0.0003 2.5150 0.0002
# 3 29.9240 59.8980 116.8857 0.0000 -8.0688 0.0000
# 4 0.0000 0.0003 0.0000 21.1589 0.0001 6.2394
# 5 -0.6952 2.5150 -8.0688 0.0001 32.9057 0.0000
# 6 0.0000 0.0002 0.0000 6.2394 0.0000 52.0408
#
#
#
# Elastic Compliance Matrix: (Units=1/GPa)
#
#
# Indices 1 2 3 4 5 6 
#
# 1 0.017991 -0.003899 -0.002605 0.000000 0.000039 0.000000
# 2 -0.003899 0.005810 -0.002050 0.000000 -0.001029 0.000000
# 3 -0.002605 -0.002050 0.010457 0.000000 0.002666 0.000000
# 4 0.000000 0.000000 0.000000 0.048994 0.000000 -0.005874
# 5 0.000039 -0.001029 0.002666 0.000000 0.031123 0.000000
# 6 0.000000 0.000000 0.000000 -0.005874 0.000000 0.019920
#
#
# Mechanical properties :
#
#
# Convention : Reuss Voigt Hill
#
# Bulk Modulus (GPa) = 58.31178 80.14710 69.22944
# Shear Modulus (GPa) = 31.82311 39.49092 35.65701
#
# Velocity S-wave (km/s) = 3.53865 3.94199 3.74575
# Velocity P-wave (km/s) = 6.29612 7.22884 6.77854
#
# Compressibility (1/GPa) = 0.01714919
#
# Stress axis : x y z
#
# Youngs Moduli (GPa) = 55.58320 172.13161 95.63140
#
# Poissons Ratio (x) = 0.67114 0.24913
# Poissons Ratio (y) = 0.21672 0.19604
# Poissons Ratio (z) = 0.14480 0.35286
#
# Static dielectric constant tensor:
#      x y z
#    x 1.974480 0.000000 0.029930 
#    y 0.000000 2.127970 0.000000 
#    z 0.029930 0.000000 2.015370 
# 
# From -- ./inp_files/49248.got.cif
#   From: 2010.05.17/outbox.cif.g08.bks.cpg/sg5_25_cif.got.tgz:49248.got - 2010.06.03 18:56:24.
