data_PCOD9127585
_publ_section_title
;
Structure prediction by ZEFSAII (Michael W. Deem and Ramdas Pophale) SiO2 
 PCOD9127585
Probable space group: C 2
;
_chemical_formula_sum "Si O2"
_cell_formula_units_Z 24
_cell_length_a 20.847727
_cell_length_b 5.098551
_cell_length_c 22.642463
_cell_angle_alpha 90.000000
_cell_angle_beta 156.004674
_cell_angle_gamma 90.000000
_cell_volume 978.729917
_symmetry_space_group_name_H-M "C 2"
_symmetry_group_IT_number 5
_symmetry_cell_setting 'monoclinic'
loop_
_space_group_symop_operation_xyz
x,y,z
-x,y,-z
1/2+x,1/2+y,z
1/2-x,1/2+y,-z
loop_
_atom_site_type_symbol
_atom_site_label
_atom_site_fract_x
_atom_site_fract_y
_atom_site_fract_z
Si Si1 0.261150 0.258130 0.732373
Si Si2 0.210354 0.324689 0.388857
Si Si3 0.055306 0.228627 0.147864
Si Si4 0.745740 0.385051 0.954764
Si Si5 0.457040 0.117912 0.666985
Si Si6 0.525619 0.728347 0.427727
O O1 0.384409 0.497510 0.844120
O O2 0.148006 0.185217 0.691908
O O3 0.134061 0.330212 0.573721
O O4 0.359420 0.000220 0.797532
O O5 0.136054 0.140990 0.277609
O O6 0.275385 0.181796 0.500333
O O7 0.063230 0.496065 0.285261
O O8 0.367290 0.476893 0.499510
O O9 0.878291 0.298426 0.018175
O O10 0.582137 0.345643 0.781569
O O11 0.751483 0.672415 0.988968
O O12 0.495350 0.924330 0.645049
#
# Coordination Sequence:
#
# PCOD9127585 Si02
#       6
#     4   4   4   4   4   4
#     4  10  23  42  70  94 136 173 223 266 323 390
#     4  11  23  39  68 100 132 166 222 282 332 383
#     4  11  23  45  66  98 129 179 219 267 327 396
#     4  12  28  44  68  98 138 176 216 268 338 400
#     4  12  24  40  68 100 135 169 219 280 331 391
#     4  10  23  39  65 103 128 173 218 278 326 383
#
# _framework density 24.521577000000001
#
# number of rings (size 3 to 8) (size 9 to 14) (size 15 to 20)
#    0.000    1.000    5.000    1.000    9.333    1.333 
#    0.000    0.833    0.000    0.000    0.000    0.000 
#    0.000    0.000    0.000    0.000    0.000    0.000 
#
# Total GULP energy -66944.096772 kJ/mol
# GULP energy per Si atom -5578.674731 kJ/mol
# Density = 2.446576 g / cm^3
# Si number density = 24.521577 Si / 1000 Ang^3
#
#
#
# Elastic Constant Matrix: (Units=GPa)
#
#
# Indices 1 2 3 4 5 6 
#
# 1 78.2329 0.9314 18.1968 0.0011 34.9269 -0.0002
# 2 0.9314 53.1694 3.1255 0.0027 10.4211 0.0014
# 3 18.1968 3.1255 82.2628 0.0001 19.3624 0.0000
# 4 0.0011 0.0027 0.0001 25.1144 0.0002 13.0936
# 5 34.9269 10.4211 19.3624 0.0002 46.2035 -0.0003
# 6 -0.0002 0.0014 0.0000 13.0936 -0.0003 19.4640
#
#
#
# Elastic Compliance Matrix: (Units=1/GPa)
#
#
# Indices 1 2 3 4 5 6 
#
# 1 0.019714 0.002673 -0.000902 -0.000001 -0.015127 0.000001
# 2 0.002673 0.020048 0.000207 -0.000002 -0.006629 0.000000
# 3 -0.000902 0.000207 0.013533 0.000000 -0.005036 0.000000
# 4 -0.000001 -0.000002 0.000000 0.061327 0.000001 -0.041255
# 5 -0.015127 -0.006629 -0.005036 0.000001 0.036684 0.000000
# 6 0.000001 0.000000 0.000000 -0.041255 0.000000 0.079130
#
#
# Mechanical properties :
#
#
# Convention : Reuss Voigt Hill
#
# Bulk Modulus (GPa) = 17.46675 28.68583 23.07629
# Shear Modulus (GPa) = 20.36135 30.91713 25.63924
#
# Velocity S-wave (km/s) = 2.88470 3.55465 3.23705
# Velocity P-wave (km/s) = 4.27010 5.34518 4.83760
#
# Compressibility (1/GPa) = 0.05725165
#
# Stress axis : x y z
#
# Youngs Moduli (GPa) = 50.72578 49.88006 73.89237
#
# Poissons Ratio (x) = -0.13331 0.06663
# Poissons Ratio (y) = -0.13557 -0.01532
# Poissons Ratio (z) = 0.04574 -0.01034
#
# Static dielectric constant tensor:
#      x y z
#    x 2.030520 0.000000 -0.083710 
#    y 0.000000 2.064220 0.000000 
#    z -0.083710 0.000000 1.966720 
# 
# From -- ./inp_files/69545.got.cif
#   From: 2010.05.17/outbox.cif.g08.bks.cpg/sg5_35_cif.got.tgz:69545.got - 2010.06.03 18:56:24.
