data_PCOD9127660
_publ_section_title
;
Structure prediction by ZEFSAII (Michael W. Deem and Ramdas Pophale) SiO2 
 PCOD9127660
Probable space group: C 2
;
_chemical_formula_sum "Si O2"
_cell_formula_units_Z 24
_cell_length_a 12.911981
_cell_length_b 4.803329
_cell_length_c 18.744871
_cell_angle_alpha 90.000000
_cell_angle_beta 55.570679
_cell_angle_gamma 90.000000
_cell_volume 958.912764
_symmetry_space_group_name_H-M "C 2"
_symmetry_group_IT_number 5
_symmetry_cell_setting 'monoclinic'
loop_
_space_group_symop_operation_xyz
x,y,z
-x,y,-z
1/2+x,1/2+y,z
1/2-x,1/2+y,-z
loop_
_atom_site_type_symbol
_atom_site_label
_atom_site_fract_x
_atom_site_fract_y
_atom_site_fract_z
Si Si1 0.412167 0.067960 0.823791
Si Si2 0.500000 0.065057 0.500000
Si Si3 0.500000 0.378152 0.000000
Si Si4 0.779554 0.128871 0.361596
Si Si5 0.873966 0.920181 0.182843
Si Si6 0.419036 0.128533 0.370690
Si Si7 0.747822 0.091502 0.888273
O O1 0.526374 0.215185 0.819121
O O2 0.465906 0.029127 0.723086
O O3 0.294918 0.279402 0.870480
O O4 0.361618 0.779152 0.873593
O O5 0.643456 0.984090 0.422081
O O6 0.541942 0.165039 0.562820
O O7 0.552140 0.550230 0.913197
O O8 0.617566 0.180487 0.975885
O O9 0.804055 0.419753 0.393359
O O10 0.817047 0.125167 0.263597
O O11 0.878940 0.929204 0.360060
O O12 0.774532 0.716440 0.182577
#
# Coordination Sequence:
#
# PCOD9127660 Si02
#       7
#     4   2   2   4   4   4   4
#     4  11  22  41  70  92 135 182 222 275 352 392
#     4  12  26  46  76 100 140 190 216 298 338 418
#     4   8  22  46  62 106 136 182 232 286 334 400
#     4  11  25  45  69 100 144 176 236 277 349 403
#     4   9  22  44  65 100 137 180 224 296 321 406
#     4  11  26  44  68 107 134 180 232 285 338 422
#     4  10  23  41  63 100 131 177 234 272 332 409
#
# _framework density 25.028345000000002
#
# number of rings (size 3 to 8) (size 9 to 14) (size 15 to 20)
#    1.000    0.667    0.000    4.000    0.000   11.333 
#    0.000    0.000    0.000    0.000    0.000    0.000 
#    0.000    0.000    0.000    0.000    0.000    0.000 
#
# Total GULP energy -66894.376369 kJ/mol
# GULP energy per Si atom -5574.531364 kJ/mol
# Density = 2.497138 g / cm^3
# Si number density = 25.028345 Si / 1000 Ang^3
#
#
#
# Elastic Constant Matrix: (Units=GPa)
#
#
# Indices 1 2 3 4 5 6 
#
# 1 107.5509 11.6208 17.3105 0.0027 4.8674 0.0083
# 2 11.6208 86.2274 2.9998 0.0219 -3.1687 0.0202
# 3 17.3105 2.9998 117.2146 -0.0030 -13.6466 0.0001
# 4 0.0027 0.0219 -0.0030 67.2672 -0.0020 -11.2891
# 5 4.8674 -3.1687 -13.6466 -0.0020 46.0783 -0.0015
# 6 0.0083 0.0202 0.0001 -11.2891 -0.0015 17.3134
#
#
#
# Elastic Compliance Matrix: (Units=1/GPa)
#
#
# Indices 1 2 3 4 5 6 
#
# 1 0.009769 -0.001320 -0.001595 -0.000001 -0.001595 -0.000004
# 2 -0.001320 0.011810 0.000004 -0.000007 0.000953 -0.000017
# 3 -0.001595 0.000004 0.009100 0.000001 0.002864 0.000001
# 4 -0.000001 -0.000007 0.000001 0.016693 0.000001 0.010884
# 5 -0.001595 0.000953 0.002864 0.000001 0.022784 0.000002
# 6 -0.000004 -0.000017 0.000001 0.010884 0.000002 0.064856
#
#
# Mechanical properties :
#
#
# Convention : Reuss Voigt Hill
#
# Bulk Modulus (GPa) = 40.22878 41.65057 40.93968
# Shear Modulus (GPa) = 33.53000 44.73591 39.13295
#
# Velocity S-wave (km/s) = 3.66414 4.23236 3.95846
# Velocity P-wave (km/s) = 5.83176 6.36878 6.10617
#
# Compressibility (1/GPa) = 0.02485783
#
# Stress axis : x y z
#
# Youngs Moduli (GPa) = 102.36075 84.67407 109.88772
#
# Poissons Ratio (x) = 0.11175 0.17524
# Poissons Ratio (y) = 0.13509 -0.00039
# Poissons Ratio (z) = 0.16323 -0.00030
#
# Static dielectric constant tensor:
#      x y z
#    x 2.002850 0.000000 0.033710 
#    y 0.000000 1.943080 0.000000 
#    z 0.033710 0.000000 2.030450 
# 
# From -- ./inp_files/70443.got.cif
#   From: 2010.05.17/outbox.cif.g08.bks.cpg/sg5_36_cif.got.tgz:70443.got - 2010.06.03 18:56:24.
