data_PCOD9127315
_publ_section_title
;
Structure prediction by ZEFSAII (Michael W. Deem and Ramdas Pophale) SiO2 
 PCOD9127315
Probable space group: C 2
;
_chemical_formula_sum "Si O2"
_cell_formula_units_Z 16
_cell_length_a 16.137081
_cell_length_b 11.747218
_cell_length_c 12.699684
_cell_angle_alpha 90.000000
_cell_angle_beta 164.731203
_cell_angle_gamma 90.000000
_cell_volume 633.990107
_symmetry_space_group_name_H-M "C 2"
_symmetry_group_IT_number 5
_symmetry_cell_setting 'monoclinic'
loop_
_space_group_symop_operation_xyz
x,y,z
-x,y,-z
1/2+x,1/2+y,z
1/2-x,1/2+y,-z
loop_
_atom_site_type_symbol
_atom_site_label
_atom_site_fract_x
_atom_site_fract_y
_atom_site_fract_z
Si Si1 0.220756 0.239200 0.573813
Si Si2 0.500000 0.376657 0.500000
Si Si3 0.621347 0.970024 0.531483
Si Si4 0.500000 0.028534 0.000000
Si Si5 0.665343 0.212106 0.528076
O O1 0.015265 0.347065 0.359202
O O2 0.224258 0.102672 0.601939
O O3 0.295636 0.253590 0.543130
O O4 0.500000 0.257509 0.000000
O O5 0.801443 0.453427 0.839149
O O6 0.462898 0.291172 0.356350
O O7 0.500000 0.983940 0.500000
O O8 0.527253 0.084507 0.354724
O O9 0.000000 0.975671 0.000000
O O10 0.000000 0.210060 0.000000
#
# Coordination Sequence:
#
# PCOD9127315 Si02
#       5
#     4   2   4   2   4
#     4   9  24  48  67 107 136 193 229 290 349 419
#     4  12  24  48  68 108 142 190 232 292 352 424
#     4  10  22  45  67 101 141 181 231 286 345 419
#     4  10  26  48  68 104 144 190 234 288 350 426
#     4  11  24  47  71 109 139 187 234 294 355 417
#
# _framework density 25.236986999999999
#
# number of rings (size 3 to 8) (size 9 to 14) (size 15 to 20)
#    0.750    1.000    2.500    0.000    5.250    0.000 
#   22.500    0.000    0.000    0.000    0.000    0.000 
#    0.000    0.000    0.000    0.000    0.000    0.000 
#
# Total GULP energy -44554.279378 kJ/mol
# GULP energy per Si atom -5569.284922 kJ/mol
# Density = 2.517955 g / cm^3
# Si number density = 25.236987 Si / 1000 Ang^3
#
#
#
# Elastic Constant Matrix: (Units=GPa)
#
#
# Indices 1 2 3 4 5 6 
#
# 1 131.5522 3.5909 10.0148 0.0039 -6.1459 0.0001
# 2 3.5909 111.7998 -6.1365 0.0013 13.5150 -0.0001
# 3 10.0148 -6.1365 98.6419 0.0148 0.6861 0.0050
# 4 0.0039 0.0013 0.0148 -56.3023 0.0046 10.8836
# 5 -6.1459 13.5150 0.6861 0.0046 49.5951 0.0012
# 6 0.0001 -0.0001 0.0050 10.8836 0.0012 63.1264
#
#
#
# Elastic Compliance Matrix: (Units=1/GPa)
#
#
# Indices 1 2 3 4 5 6 
#
# 1 0.007726 -0.000424 -0.000818 0.000000 0.001084 0.000000
# 2 -0.000424 0.009307 0.000640 0.000000 -0.002598 0.000000
# 3 -0.000818 0.000640 0.010263 0.000002 -0.000418 -0.000001
# 4 0.000000 0.000000 0.000002 -0.017188 0.000001 0.002963
# 5 0.001084 -0.002598 -0.000418 0.000001 0.021011 -0.000001
# 6 0.000000 0.000000 -0.000001 0.002963 -0.000001 0.015330
#
#
# Mechanical properties :
#
#
# Convention : Reuss Voigt Hill
#
# Bulk Modulus (GPa) = 38.32559 39.65916 38.99237
# Shear Modulus (GPa) = 88.72755 33.58547 61.15651
#
# Velocity S-wave (km/s) = 5.93583 3.65198 4.92803
# Velocity P-wave (km/s) = 7.88657 5.79063 6.91843
#
# Compressibility (1/GPa) = 0.02609223
#
# Stress axis : x y z
#
# Youngs Moduli (GPa) = 129.43179 107.44192 97.43275
#
# Poissons Ratio (x) = 0.04557 0.07973
# Poissons Ratio (y) = 0.05490 -0.06237
# Poissons Ratio (z) = 0.10592 -0.06878
#
# Static dielectric constant tensor:
#      x y z
#    x 1.787520 0.000000 0.090440 
#    y 0.000000 2.295370 0.000000 
#    z 0.090440 0.000000 2.052290 
# 
# From -- ./inp_files/39372.got.cif
#   From: 2010.05.17/outbox.cif.g08.bks.cpg/sg5_20_cif.got.tgz:39372.got - 2010.06.03 18:56:24.
