data_PCOD9127385
_publ_section_title
;
Structure prediction by ZEFSAII (Michael W. Deem and Ramdas Pophale) SiO2 
 PCOD9127385
Probable space group: C 2
;
_chemical_formula_sum "Si O2"
_cell_formula_units_Z 26
_cell_length_a 10.745498
_cell_length_b 15.039306
_cell_length_c 9.440862
_cell_angle_alpha 90.000000
_cell_angle_beta 65.036826
_cell_angle_gamma 90.000000
_cell_volume 1383.157891
_symmetry_space_group_name_H-M "C 2"
_symmetry_group_IT_number 5
_symmetry_cell_setting 'monoclinic'
loop_
_space_group_symop_operation_xyz
x,y,z
-x,y,-z
1/2+x,1/2+y,z
1/2-x,1/2+y,-z
loop_
_atom_site_type_symbol
_atom_site_label
_atom_site_fract_x
_atom_site_fract_y
_atom_site_fract_z
Si Si1 0.000000 0.661770 0.500000
Si Si2 0.930195 0.812232 0.757608
Si Si3 0.377849 0.777937 0.152740
Si Si4 0.524016 0.516039 0.326071
Si Si5 0.721972 0.086175 0.977035
Si Si6 0.782384 0.103206 0.284735
Si Si7 0.000000 0.734011 0.000000
Si Si8 0.500000 0.943184 0.000000
O O1 0.016857 0.730452 0.362802
O O2 0.135114 0.602001 0.430420
O O3 0.766442 0.797448 0.854945
O O4 0.947542 0.910273 0.687720
O O5 0.012324 0.798701 0.861521
O O6 0.340865 0.703540 0.283878
O O7 0.500000 0.736272 0.000000
O O8 0.440151 0.875698 0.148251
O O9 0.500000 0.545054 0.500000
O O10 0.648146 0.566600 0.185992
O O11 0.388517 0.535205 0.299345
O O12 0.630261 0.169988 0.968968
O O13 0.618859 0.003315 0.006599
O O14 0.763118 0.094426 0.123322
#
# Coordination Sequence:
#
# PCOD9127385 Si02
#       8
#     2   4   4   4   4   4   2   2
#     4  10  22  46  60  86 126 178 208 248 336 370
#     4  11  22  41  65  91 129 167 212 260 312 382
#     4   9  17  38  58  87 118 164 196 249 309 370
#     4  12  26  40  63  95 131 166 212 273 316 367
#     4  11  22  41  61  98 123 165 217 260 315 371
#     4  11  24  40  67  87 128 169 211 265 310 386
#     4  11  24  38  69  94 122 170 213 266 296 401
#     4   9  20  32  65  88 128 156 201 258 306 371
#
# _framework density 18.797564999999999
#
# number of rings (size 3 to 8) (size 9 to 14) (size 15 to 20)
#    0.462    0.923    5.385    1.385    4.308    0.000 
#    0.000    0.000    0.000    0.000    0.000    0.000 
#    0.000    0.000    0.000    0.000    0.000    0.000 
#
# Total GULP energy -72379.798109 kJ/mol
# GULP energy per Si atom -5567.676778 kJ/mol
# Density = 1.875478 g / cm^3
# Si number density = 18.797565 Si / 1000 Ang^3
#
#
#
# Elastic Constant Matrix: (Units=GPa)
#
#
# Indices 1 2 3 4 5 6 
#
# 1 115.9614 23.8059 60.9211 0.0000 -22.6269 0.0000
# 2 23.8059 49.9678 3.4981 0.0000 -15.4693 0.0000
# 3 60.9211 3.4981 87.6001 0.0000 -9.9781 0.0000
# 4 0.0000 0.0000 0.0000 22.7196 0.0000 -8.5529
# 5 -22.6269 -15.4693 -9.9781 0.0000 31.2811 0.0000
# 6 0.0000 0.0000 0.0000 -8.5529 0.0000 25.7290
#
#
#
# Elastic Compliance Matrix: (Units=1/GPa)
#
#
# Indices 1 2 3 4 5 6 
#
# 1 0.016366 -0.005236 -0.010501 0.000000 0.005900 0.000000
# 2 -0.005236 0.025319 0.003762 0.000000 0.009934 0.000000
# 3 -0.010501 0.003762 0.018590 0.000000 0.000195 0.000000
# 4 0.000000 0.000000 0.000000 0.050311 0.000000 0.016725
# 5 0.005900 0.009934 0.000195 0.000000 0.041210 0.000000
# 6 0.000000 0.000000 0.000000 0.016725 0.000000 0.044426
#
#
# Mechanical properties :
#
#
# Convention : Reuss Voigt Hill
#
# Bulk Modulus (GPa) = 27.52852 47.77551 37.65201
# Shear Modulus (GPa) = 21.52562 26.96622 24.24592
#
# Velocity S-wave (km/s) = 3.38765 3.79167 3.59534
# Velocity P-wave (km/s) = 5.47522 6.68131 6.10811
#
# Compressibility (1/GPa) = 0.03632596
#
# Stress axis : x y z
#
# Youngs Moduli (GPa) = 61.10156 39.49554 53.79189
#
# Poissons Ratio (x) = 0.20679 0.56485
# Poissons Ratio (y) = 0.31991 -0.20234
# Poissons Ratio (z) = 0.64161 -0.14857
#
# Static dielectric constant tensor:
#      x y z
#    x 1.699570 0.000000 0.019640 
#    y 0.000000 1.667290 0.000000 
#    z 0.019640 0.000000 1.734770 
# 
# From -- ./inp_files/16112.got.cif
#   From: 2010.05.17/outbox.cif.g08.bks.cpg/sg5_9_cif.got.tgz:16112.got - 2010.06.03 18:56:24.
