data_PCOD9127813
_publ_section_title
;
Structure prediction by ZEFSAII (Michael W. Deem and Ramdas Pophale) SiO2 
 PCOD9127813
Probable space group: C 2
;
_chemical_formula_sum "Si O2"
_cell_formula_units_Z 26
_cell_length_a 15.000926
_cell_length_b 15.106379
_cell_length_c 5.396217
_cell_angle_alpha 90.000000
_cell_angle_beta 94.573098
_cell_angle_gamma 90.000000
_cell_volume 1218.941985
_symmetry_space_group_name_H-M "C 2"
_symmetry_group_IT_number 5
_symmetry_cell_setting 'monoclinic'
loop_
_space_group_symop_operation_xyz
x,y,z
-x,y,-z
1/2+x,1/2+y,z
1/2-x,1/2+y,-z
loop_
_atom_site_type_symbol
_atom_site_label
_atom_site_fract_x
_atom_site_fract_y
_atom_site_fract_z
Si Si1 0.500000 0.980230 0.500000
Si Si2 0.150230 0.952521 0.255877
Si Si3 0.321485 0.759079 0.951060
Si Si4 0.500000 0.868009 0.000000
Si Si5 0.000000 0.062877 0.500000
Si Si6 0.345561 0.578309 0.125349
Si Si7 0.783272 0.773438 0.551411
Si Si8 0.192033 0.568989 0.481812
O O1 0.512924 0.924455 0.753649
O O2 0.591829 0.033099 0.470353
O O3 0.069933 0.002615 0.370753
O O4 0.152680 0.851883 0.342698
O O5 0.245049 0.002333 0.340205
O O6 0.133916 0.980160 0.968569
O O7 0.333952 0.653505 0.913716
O O8 0.281285 0.765858 0.220300
O O9 0.414301 0.807303 0.954560
O O10 0.263579 0.800552 0.716429
O O11 0.069349 0.112549 0.696325
O O12 0.251887 0.568713 0.245473
O O13 0.817508 0.675459 0.487623
#
# Coordination Sequence:
#
# PCOD9127813 Si02
#       8
#     2   4   4   2   2   4   4   4
#     4  12  28  44  70 102 142 184 240 281 349 418
#     4  11  22  42  70  96 141 180 230 290 350 423
#     4  11  24  43  65 102 136 176 235 284 353 416
#     4  12  26  40  68 104 136 184 224 300 352 414
#     4  10  24  38  66 108 128 182 232 281 367 412
#     4  10  23  42  70  98 143 184 229 294 363 418
#     4  11  25  42  71  98 133 189 232 280 346 419
#     4  10  24  45  67  99 139 185 231 287 349 415
#
# _framework density 21.329972999999999
#
# number of rings (size 3 to 8) (size 9 to 14) (size 15 to 20)
#    0.000    1.231    1.538    3.231   10.769    1.231 
#    0.000    0.000    3.385    0.000    0.000    0.000 
#    0.000    0.000    0.000    0.000    0.000    0.000 
#
# Total GULP energy -72443.907733 kJ/mol
# GULP energy per Si atom -5572.608287 kJ/mol
# Density = 2.128143 g / cm^3
# Si number density = 21.329973 Si / 1000 Ang^3
#
#
#
# Elastic Constant Matrix: (Units=GPa)
#
#
# Indices 1 2 3 4 5 6 
#
# 1 109.2748 20.0607 15.8281 0.0000 6.6907 0.0000
# 2 20.0607 74.8823 19.4817 0.0000 1.8583 0.0000
# 3 15.8281 19.4817 80.0651 0.0000 2.8212 0.0000
# 4 0.0000 0.0000 0.0000 24.4200 0.0000 3.1008
# 5 6.6907 1.8583 2.8212 0.0000 8.8643 0.0000
# 6 0.0000 0.0000 0.0000 3.1008 0.0000 19.7006
#
#
#
# Elastic Compliance Matrix: (Units=1/GPa)
#
#
# Indices 1 2 3 4 5 6 
#
# 1 0.010155 -0.002233 -0.001224 0.000000 -0.006807 0.000000
# 2 -0.002233 0.014780 -0.003140 0.000000 -0.000413 0.000000
# 3 -0.001224 -0.003140 0.013593 0.000000 -0.002744 0.000000
# 4 0.000000 0.000000 0.000000 0.041785 0.000000 -0.006577
# 5 -0.006807 -0.000413 -0.002744 0.000000 0.118910 0.000000
# 6 0.000000 0.000000 0.000000 -0.006577 0.000000 0.051795
#
#
# Mechanical properties :
#
#
# Convention : Reuss Voigt Hill
#
# Bulk Modulus (GPa) = 39.47525 41.66257 40.56891
# Shear Modulus (GPa) = 18.33805 24.52044 21.42925
#
# Velocity S-wave (km/s) = 2.93530 3.39422 3.17307
# Velocity P-wave (km/s) = 5.48043 5.91065 5.69960
#
# Compressibility (1/GPa) = 0.02533233
#
# Stress axis : x y z
#
# Youngs Moduli (GPa) = 98.47041 67.66006 73.56918
#
# Poissons Ratio (x) = 0.15109 0.09008
# Poissons Ratio (y) = 0.21990 0.23102
# Poissons Ratio (z) = 0.12056 0.21247
#
# Static dielectric constant tensor:
#      x y z
#    x 1.739890 0.000000 0.037350 
#    y 0.000000 1.815600 0.000000 
#    z 0.037350 0.000000 1.910620 
# 
# From -- ./inp_files/6907.got.cif
#   From: 2010.05.17/outbox.cif.g08.bks.cpg/sg5_4_cif.got.tgz:6907.got - 2010.06.03 18:56:24.
