data_PCOD9127649
_publ_section_title
;
Structure prediction by ZEFSAII (Michael W. Deem and Ramdas Pophale) SiO2 
 PCOD9127649
Probable space group: C 2
;
_chemical_formula_sum "Si O2"
_cell_formula_units_Z 28
_cell_length_a 5.705043
_cell_length_b 29.891615
_cell_length_c 8.626867
_cell_angle_alpha 90.000000
_cell_angle_beta 70.068799
_cell_angle_gamma 90.000000
_cell_volume 1383.046152
_symmetry_space_group_name_H-M "C 2"
_symmetry_group_IT_number 5
_symmetry_cell_setting 'monoclinic'
loop_
_space_group_symop_operation_xyz
x,y,z
-x,y,-z
1/2+x,1/2+y,z
1/2-x,1/2+y,-z
loop_
_atom_site_type_symbol
_atom_site_label
_atom_site_fract_x
_atom_site_fract_y
_atom_site_fract_z
Si Si1 0.305719 0.581630 0.400046
Si Si2 0.500000 0.195548 0.000000
Si Si3 0.165781 0.670740 0.301369
Si Si4 0.948314 0.349289 0.332389
Si Si5 0.019822 0.254530 0.172052
Si Si6 0.000000 0.910205 0.500000
Si Si7 0.254448 0.984139 0.656434
Si Si8 0.794980 0.421861 0.912426
O O1 0.500000 0.586694 0.500000
O O2 0.329668 0.626120 0.291236
O O3 0.368014 0.533039 0.314114
O O4 0.000000 0.580855 0.500000
O O5 0.441344 0.168460 0.852630
O O6 0.718501 0.228516 0.890301
O O7 0.322292 0.716225 0.257887
O O8 0.000000 0.673839 0.500000
O O9 0.967085 0.297467 0.287695
O O10 0.692300 0.376942 0.370786
O O11 0.000000 0.355218 0.500000
O O12 0.151360 0.376265 0.190938
O O13 0.000000 0.271024 0.000000
O O14 0.898110 0.944499 0.393034
O O15 0.500000 0.988501 0.500000
O O16 0.343773 0.965751 0.799379
O O17 0.500000 0.423443 0.000000
O O18 0.000000 0.422280 0.000000
#
# Coordination Sequence:
#
# PCOD9127649 Si02
#       8
#     4   2   4   4   4   2   4   4
#     4  10  23  40  74 106 137 183 239 293 359 426
#     4  10  24  46  68  98 146 188 226 312 356 430
#     4  10  24  44  71 104 136 185 237 299 363 431
#     4  12  26  39  68  98 126 193 232 296 343 434
#     4  10  25  44  65  97 140 180 235 291 367 422
#     4  12  20  42  68  98 138 170 254 284 354 406
#     4  11  22  44  69  99 134 188 234 295 347 425
#     4  12  26  43  65  98 146 183 228 289 356 416
#
# _framework density 20.245166999999999
#
# number of rings (size 3 to 8) (size 9 to 14) (size 15 to 20)
#    0.000    1.143    3.571    1.286    8.000    1.143 
#    1.286    2.143    0.000    0.000    0.000    0.000 
#    0.000    0.000    0.000    0.000    0.000    0.000 
#
# Total GULP energy -77949.302746 kJ/mol
# GULP energy per Si atom -5567.807339 kJ/mol
# Density = 2.019909 g / cm^3
# Si number density = 20.245167 Si / 1000 Ang^3
#
#
#
# Elastic Constant Matrix: (Units=GPa)
#
#
# Indices 1 2 3 4 5 6 
#
# 1 87.6221 38.3725 46.9679 0.0000 26.1589 0.0000
# 2 38.3725 112.4216 51.9479 0.0000 27.5109 0.0000
# 3 46.9679 51.9479 95.7969 0.0000 16.1420 0.0000
# 4 0.0000 0.0000 0.0000 66.1561 0.0000 4.5814
# 5 26.1589 27.5109 16.1420 0.0000 42.8127 0.0000
# 6 0.0000 0.0000 0.0000 4.5814 0.0000 14.8429
#
#
#
# Elastic Compliance Matrix: (Units=1/GPa)
#
#
# Indices 1 2 3 4 5 6 
#
# 1 0.017845 -0.001033 -0.006902 0.000000 -0.007637 0.000000
# 2 -0.001033 0.013309 -0.005741 0.000000 -0.005757 0.000000
# 3 -0.006902 -0.005741 0.016662 0.000000 0.001624 0.000000
# 4 0.000000 0.000000 0.000000 0.015446 0.000000 -0.004768
# 5 -0.007637 -0.005757 0.001624 0.000000 0.031111 0.000000
# 6 0.000000 0.000000 0.000000 -0.004768 0.000000 0.068844
#
#
# Mechanical properties :
#
#
# Convention : Reuss Voigt Hill
#
# Bulk Modulus (GPa) = 48.86431 63.37969 56.12200
# Shear Modulus (GPa) = 25.33067 35.33249 30.33158
#
# Velocity S-wave (km/s) = 3.54106 4.18213 3.87488
# Velocity P-wave (km/s) = 6.39590 7.39556 6.91382
#
# Compressibility (1/GPa) = 0.02046483
#
# Stress axis : x y z
#
# Youngs Moduli (GPa) = 56.03920 75.13705 60.01594
#
# Poissons Ratio (x) = 0.07758 0.41424
# Poissons Ratio (y) = 0.05786 0.34454
# Poissons Ratio (z) = 0.38679 0.43135
#
# Static dielectric constant tensor:
#      x y z
#    x 1.901330 0.000000 -0.016800 
#    y 0.000000 1.707960 0.000000 
#    z -0.016800 0.000000 1.785020 
# 
# From -- ./inp_files/13207.got.cif
#   From: 2010.05.17/outbox.cif.g08.bks.cpg/sg5_7_cif.got.tgz:13207.got - 2010.06.03 18:56:24.
