data_PCOD9127368
_publ_section_title
;
Structure prediction by ZEFSAII (Michael W. Deem and Ramdas Pophale) SiO2 
 PCOD9127368
Probable space group: C 2
;
_chemical_formula_sum "Si O2"
_cell_formula_units_Z 24
_cell_length_a 11.410088
_cell_length_b 10.939012
_cell_length_c 23.146798
_cell_angle_alpha 90.000000
_cell_angle_beta 157.046423
_cell_angle_gamma 90.000000
_cell_volume 1126.694341
_symmetry_space_group_name_H-M "C 2"
_symmetry_group_IT_number 5
_symmetry_cell_setting 'monoclinic'
loop_
_space_group_symop_operation_xyz
x,y,z
-x,y,-z
1/2+x,1/2+y,z
1/2-x,1/2+y,-z
loop_
_atom_site_type_symbol
_atom_site_label
_atom_site_fract_x
_atom_site_fract_y
_atom_site_fract_z
Si Si1 0.620617 0.495560 0.891818
Si Si2 0.771494 0.963897 0.229524
Si Si3 0.287969 0.050981 0.669779
Si Si4 0.852878 0.146031 0.669218
Si Si5 0.808566 0.768057 0.160218
Si Si6 0.219375 0.875258 0.153695
O O1 0.446666 0.602021 0.777228
O O2 0.674976 0.390530 0.869621
O O3 0.455846 0.426519 0.869889
O O4 0.958707 0.527419 0.066054
O O5 0.779309 0.822828 0.211538
O O6 0.773311 0.983942 0.298123
O O7 0.052453 0.033303 0.328924
O O8 0.404808 0.189314 0.726229
O O9 0.000000 0.044437 0.500000
O O10 0.561725 0.984348 0.763671
O O11 0.500000 0.172921 0.500000
O O12 0.064770 0.257147 0.744358
O O13 0.500000 0.703318 0.000000
O O14 0.000000 0.852128 0.000000
#
# Coordination Sequence:
#
# PCOD9127368 Si02
#       6
#     4   4   4   4   4   4
#     4  10  22  45  73  96 129 178 233 278 328 405
#     4  10  22  46  69  97 131 176 236 272 330 410
#     4  12  26  42  62 100 141 173 218 283 344 401
#     4  11  25  44  70 102 137 177 220 287 348 399
#     4   9  21  42  70  95 123 174 228 278 330 398
#     4  12  24  44  68  99 135 179 229 277 333 408
#
# _framework density 21.30125
#
# number of rings (size 3 to 8) (size 9 to 14) (size 15 to 20)
#    0.000    1.333    1.667    4.500    2.333    4.000 
#    3.000    0.000    0.000    0.000    0.000    0.000 
#    0.000    0.000    0.000    0.000    0.000    0.000 
#
# Total GULP energy -66992.093463 kJ/mol
# GULP energy per Si atom -5582.674455 kJ/mol
# Density = 2.125277 g / cm^3
# Si number density = 21.301250 Si / 1000 Ang^3
#
#
#
# Elastic Constant Matrix: (Units=GPa)
#
#
# Indices 1 2 3 4 5 6 
#
# 1 130.3485 10.4616 26.4523 0.0128 2.1598 0.0048
# 2 10.4616 36.7426 1.1191 0.0468 3.1774 0.0254
# 3 26.4523 1.1191 88.3446 0.2159 6.4137 0.0934
# 4 0.0128 0.0468 0.2159 351.5895 0.0716 197.1211
# 5 2.1598 3.1774 6.4137 0.0716 32.0958 0.0363
# 6 0.0048 0.0254 0.0934 197.1211 0.0363 123.3200
#
#
#
# Elastic Compliance Matrix: (Units=1/GPa)
#
#
# Indices 1 2 3 4 5 6 
#
# 1 0.008360 -0.002319 -0.002486 0.000004 0.000164 -0.000004
# 2 -0.002319 0.028097 0.000537 -0.000004 -0.002733 0.000002
# 3 -0.002486 0.000537 0.012226 -0.000021 -0.002329 0.000025
# 4 0.000004 -0.000004 -0.000021 0.027397 -0.000007 -0.043792
# 5 0.000164 -0.002733 -0.002329 -0.000007 0.031882 0.000005
# 6 -0.000004 0.000002 0.000025 -0.043792 0.000005 0.078109
#
#
# Mechanical properties :
#
#
# Convention : Reuss Voigt Hill
#
# Bulk Modulus (GPa) = 24.90844 36.83351 30.87098
# Shear Modulus (GPa) = 24.04010 115.89458 69.96734
#
# Velocity S-wave (km/s) = 3.36307 7.38414 5.73741
# Velocity P-wave (km/s) = 5.17679 9.48841 7.64294
#
# Compressibility (1/GPa) = 0.04014704
#
# Stress axis : x y z
#
# Youngs Moduli (GPa) = 119.62410 35.59159 81.79396
#
# Poissons Ratio (x) = 0.08252 0.20330
# Poissons Ratio (y) = 0.27736 -0.04390
# Poissons Ratio (z) = 0.29733 -0.01910
#
# Static dielectric constant tensor:
#      x y z
#    x 1.541770 0.000050 0.071630 
#    y 0.000050 1.868760 -0.000020 
#    z 0.071630 -0.000020 1.735290 
# 
# From -- ./inp_files/68371.got.cif
#   From: 2010.05.17/outbox.cif.g08.bks.cpg/sg5_35_cif.got.tgz:68371.got - 2010.06.03 18:56:24.
