data_PCOD9127702
_publ_section_title
;
Structure prediction by ZEFSAII (Michael W. Deem and Ramdas Pophale) SiO2 
 PCOD9127702
Probable space group: C 2
;
_chemical_formula_sum "Si O2"
_cell_formula_units_Z 16
_cell_length_a 12.177593
_cell_length_b 7.517778
_cell_length_c 12.063566
_cell_angle_alpha 90.000000
_cell_angle_beta 44.218076
_cell_angle_gamma 90.000000
_cell_volume 770.199347
_symmetry_space_group_name_H-M "C 2"
_symmetry_group_IT_number 5
_symmetry_cell_setting 'monoclinic'
loop_
_space_group_symop_operation_xyz
x,y,z
-x,y,-z
1/2+x,1/2+y,z
1/2-x,1/2+y,-z
loop_
_atom_site_type_symbol
_atom_site_label
_atom_site_fract_x
_atom_site_fract_y
_atom_site_fract_z
Si Si1 0.253553 0.450170 0.823109
Si Si2 0.921462 0.924660 0.333693
Si Si3 0.375096 0.726952 0.887568
Si Si4 0.609818 0.017903 0.690782
O O1 0.441259 0.427012 0.672019
O O2 0.194578 0.295424 0.947324
O O3 0.161041 0.460371 0.777004
O O4 0.247499 0.632972 0.899923
O O5 0.917564 0.727362 0.289829
O O6 0.753718 0.977481 0.503790
O O7 0.991391 0.073328 0.199833
O O8 0.539935 0.896085 0.230138
#
# Coordination Sequence:
#
# PCOD9127702 Si02
#       4
#     4   4   4   4
#     4  10  23  43  63  92 131 163 206 264 313 367
#     4  10  23  41  68  93 129 163 216 260 307 386
#     4  10  23  43  63  94 129 162 215 260 308 380
#     4  12  21  46  65  93 129 168 209 264 314 371
#
# _framework density 20.773844
#
# number of rings (size 3 to 8) (size 9 to 14) (size 15 to 20)
#    1.500    0.000    2.500    3.000    0.000    0.000 
#   13.500    0.000    0.000    0.000    0.000    0.000 
#    0.000    0.000    0.000    0.000    0.000    0.000 
#
# Total GULP energy -44604.938877 kJ/mol
# GULP energy per Si atom -5575.617360 kJ/mol
# Density = 2.072656 g / cm^3
# Si number density = 20.773844 Si / 1000 Ang^3
#
#
#
# Elastic Constant Matrix: (Units=GPa)
#
#
# Indices 1 2 3 4 5 6 
#
# 1 36.0262 4.1570 5.8951 0.0000 8.8618 0.0000
# 2 4.1570 116.5482 21.9497 0.0000 -7.0099 0.0000
# 3 5.8951 21.9497 54.1502 0.0000 -11.5689 0.0000
# 4 0.0000 0.0000 0.0000 34.9058 0.0000 -16.7624
# 5 8.8618 -7.0099 -11.5689 0.0000 23.9257 0.0000
# 6 0.0000 0.0000 0.0000 -16.7624 0.0000 33.4090
#
#
#
# Elastic Compliance Matrix: (Units=1/GPa)
#
#
# Indices 1 2 3 4 5 6 
#
# 1 0.032751 -0.000873 -0.006533 0.000000 -0.015545 0.000000
# 2 -0.000873 0.009334 -0.003385 0.000000 0.001421 0.000000
# 3 -0.006533 -0.003385 0.023258 0.000000 0.012674 0.000000
# 4 0.000000 0.000000 0.000000 0.037742 0.000000 0.018937
# 5 -0.015545 0.001421 0.012674 0.000000 0.054099 0.000000
# 6 0.000000 0.000000 0.000000 0.018937 0.000000 0.039433
#
#
# Mechanical properties :
#
#
# Convention : Reuss Voigt Hill
#
# Bulk Modulus (GPa) = 22.85067 30.08091 26.46579
# Shear Modulus (GPa) = 21.47891 30.09627 25.78759
#
# Velocity S-wave (km/s) = 3.21898 3.81038 3.52710
# Velocity P-wave (km/s) = 4.98391 5.81982 5.41801
#
# Compressibility (1/GPa) = 0.04376240
#
# Stress axis : x y z
#
# Youngs Moduli (GPa) = 30.53330 107.13228 42.99551
#
# Poissons Ratio (x) = 0.09350 0.28088
# Poissons Ratio (y) = 0.02665 0.14554
# Poissons Ratio (z) = 0.19947 0.36264
#
# Static dielectric constant tensor:
#      x y z
#    x 1.743880 0.000000 -0.053800 
#    y 0.000000 1.740450 0.000000 
#    z -0.053800 0.000000 1.748680 
# 
# From -- ./inp_files/43595.got.cif
#   From: 2010.05.17/outbox.cif.g08.bks.cpg/sg5_22_cif.got.tgz:43595.got - 2010.06.03 18:56:24.
