data_PCOD9127817
_publ_section_title
;
Structure prediction by ZEFSAII (Michael W. Deem and Ramdas Pophale) SiO2 
 PCOD9127817
Probable space group: C 2
;
_chemical_formula_sum "Si O2"
_cell_formula_units_Z 20
_cell_length_a 12.557681
_cell_length_b 13.224624
_cell_length_c 12.314874
_cell_angle_alpha 90.000000
_cell_angle_beta 155.935623
_cell_angle_gamma 90.000000
_cell_volume 833.931531
_symmetry_space_group_name_H-M "C 2"
_symmetry_group_IT_number 5
_symmetry_cell_setting 'monoclinic'
loop_
_space_group_symop_operation_xyz
x,y,z
-x,y,-z
1/2+x,1/2+y,z
1/2-x,1/2+y,-z
loop_
_atom_site_type_symbol
_atom_site_label
_atom_site_fract_x
_atom_site_fract_y
_atom_site_fract_z
Si Si1 0.830283 0.315260 0.001830
Si Si2 0.000000 0.320187 0.500000
Si Si3 0.503332 0.028490 0.815751
Si Si4 0.268647 0.107516 0.198125
Si Si5 0.787348 0.871443 0.561879
Si Si6 0.500000 0.188248 0.000000
O O1 0.870045 0.432053 0.003736
O O2 0.098480 0.296128 0.316865
O O3 0.774029 0.227351 0.865619
O O4 0.572058 0.326382 0.834899
O O5 0.137263 0.383412 0.534193
O O6 0.236127 0.252424 0.763877
O O7 0.663193 0.059521 0.856170
O O8 0.469054 0.119111 0.865092
O O9 0.235506 0.978015 0.521639
O O10 0.500000 0.097386 0.500000
O O11 0.000000 0.066880 0.000000
#
# Coordination Sequence:
#
# PCOD9127817 Si02
#       6
#     4   2   4   4   4   2
#     4  10  24  44  69  94 138 176 220 277 336 398
#     4  12  24  42  70 100 132 186 220 282 338 392
#     4  10  28  44  71 101 137 178 230 273 339 401
#     4  12  27  44  72 101 139 175 226 283 338 396
#     4  10  23  42  71  94 139 171 233 269 337 399
#     4  12  28  44  70 100 140 176 228 280 332 408
#
# _framework density 23.982785
#
# number of rings (size 3 to 8) (size 9 to 14) (size 15 to 20)
#    1.200    0.000    0.000    4.800    8.400    0.000 
#    0.000    0.000    0.000    0.000    0.000    0.000 
#    0.000    0.000    0.000    0.000    0.000    0.000 
#
# Total GULP energy -55876.437269 kJ/mol
# GULP energy per Si atom -5587.643727 kJ/mol
# Density = 2.392820 g / cm^3
# Si number density = 23.982785 Si / 1000 Ang^3
#
#
#
# Elastic Constant Matrix: (Units=GPa)
#
#
# Indices 1 2 3 4 5 6 
#
# 1 104.7506 22.0333 26.3648 0.0010 -5.8974 0.0007
# 2 22.0333 104.7363 34.4321 0.0011 -14.5044 0.0003
# 3 26.3648 34.4321 116.9982 0.0049 -0.7744 0.0039
# 4 0.0010 0.0011 0.0049 23.9829 0.0032 -12.1767
# 5 -5.8974 -14.5044 -0.7744 0.0032 34.5631 0.0018
# 6 0.0007 0.0003 0.0039 -12.1767 0.0018 9.8611
#
#
#
# Elastic Compliance Matrix: (Units=1/GPa)
#
#
# Indices 1 2 3 4 5 6 
#
# 1 0.010388 -0.001395 -0.001923 -0.000001 0.001144 -0.000001
# 2 -0.001395 0.011461 -0.003029 -0.000001 0.004504 -0.000001
# 3 -0.001923 -0.003029 0.009863 -0.000009 -0.001378 -0.000014
# 4 -0.000001 -0.000001 -0.000009 0.111771 -0.000018 0.138016
# 5 0.001144 0.004504 -0.001378 -0.000018 0.030987 -0.000028
# 6 -0.000001 -0.000001 -0.000014 0.138016 -0.000028 0.271834
#
#
# Mechanical properties :
#
#
# Convention : Reuss Voigt Hill
#
# Bulk Modulus (GPa) = 52.57956 54.68282 53.63119
# Shear Modulus (GPa) = 10.74495 29.92508 20.33501
#
# Velocity S-wave (km/s) = 2.11896 3.53622 2.91503
# Velocity P-wave (km/s) = 5.28755 6.28677 5.80868
#
# Compressibility (1/GPa) = 0.01901880
#
# Stress axis : x y z
#
# Youngs Moduli (GPa) = 96.26264 87.25574 101.39258
#
# Poissons Ratio (x) = 0.12170 0.19497
# Poissons Ratio (y) = 0.13427 0.30709
# Poissons Ratio (z) = 0.18510 0.26427
#
# Static dielectric constant tensor:
#      x y z
#    x 1.923440 0.000000 -0.012820 
#    y 0.000000 1.921610 0.000000 
#    z -0.012820 0.000000 1.915780 
# 
# From -- ./inp_files/39984.got.cif
#   From: 2010.05.17/outbox.cif.g08.bks.cpg/sg5_20_cif.got.tgz:39984.got - 2010.06.03 18:56:24.
