data_PCOD9127302
_publ_section_title
;
Structure prediction by ZEFSAII (Michael W. Deem and Ramdas Pophale) SiO2 
 PCOD9127302
Probable space group: C 2
;
_chemical_formula_sum "Si O2"
_cell_formula_units_Z 22
_cell_length_a 11.865623
_cell_length_b 9.027820
_cell_length_c 12.092328
_cell_angle_alpha 90.000000
_cell_angle_beta 119.275831
_cell_angle_gamma 90.000000
_cell_volume 1129.892420
_symmetry_space_group_name_H-M "C 2"
_symmetry_group_IT_number 5
_symmetry_cell_setting 'monoclinic'
loop_
_space_group_symop_operation_xyz
x,y,z
-x,y,-z
1/2+x,1/2+y,z
1/2-x,1/2+y,-z
loop_
_atom_site_type_symbol
_atom_site_label
_atom_site_fract_x
_atom_site_fract_y
_atom_site_fract_z
Si Si1 0.472566 0.992370 0.716911
Si Si2 0.819243 0.012193 0.128250
Si Si3 0.271863 0.650558 0.335560
Si Si4 0.000000 0.349600 0.500000
Si Si5 0.598570 0.789140 0.955496
Si Si6 0.484955 0.272356 0.861893
O O1 0.516271 0.950072 0.616027
O O2 0.512935 0.859167 0.816439
O O3 0.320335 0.034722 0.644647
O O4 0.531906 0.136986 0.805919
O O5 0.833026 0.063753 0.261324
O O6 0.814796 0.160118 0.053324
O O7 0.938756 0.916206 0.140360
O O8 0.690423 0.914926 0.051481
O O9 0.377445 0.740687 0.453302
O O10 0.168546 0.768451 0.235626
O O11 0.500000 0.731828 0.000000
O O12 0.500000 0.244665 0.000000
#
# Coordination Sequence:
#
# PCOD9127302 Si02
#       6
#     4   4   4   2   4   4
#     4  10  23  45  64  94 132 174 219 276 314 392
#     4  12  23  39  70  99 135 174 204 279 339 392
#     4  10  24  44  65  95 138 168 223 275 318 392
#     4  12  24  48  66  92 134 188 222 266 328 386
#     4  12  22  39  67 103 132 165 219 266 344 392
#     4  10  22  45  65 103 134 162 216 285 334 386
#
# _framework density 19.470880999999999
#
# number of rings (size 3 to 8) (size 9 to 14) (size 15 to 20)
#    1.091    0.000    3.636    4.364    0.000    1.455 
#    6.545    0.000    0.000    0.000    0.000    0.000 
#    0.000    0.000    0.000    0.000    0.000    0.000 
#
# Total GULP energy -61344.302762 kJ/mol
# GULP energy per Si atom -5576.754797 kJ/mol
# Density = 1.942656 g / cm^3
# Si number density = 19.470881 Si / 1000 Ang^3
#
#
#
# Elastic Constant Matrix: (Units=GPa)
#
#
# Indices 1 2 3 4 5 6 
#
# 1 58.1820 17.8550 9.0152 0.0000 1.7749 0.0000
# 2 17.8550 59.8563 4.3813 0.0000 -8.0776 0.0000
# 3 9.0152 4.3813 43.1908 0.0000 -7.1288 0.0000
# 4 0.0000 0.0000 0.0000 17.9203 0.0000 -6.7135
# 5 1.7749 -8.0776 -7.1288 0.0000 42.1211 0.0000
# 6 0.0000 0.0000 0.0000 -6.7135 0.0000 42.4613
#
#
#
# Elastic Compliance Matrix: (Units=1/GPa)
#
#
# Indices 1 2 3 4 5 6 
#
# 1 0.019704 -0.005945 -0.003945 0.000000 -0.002638 0.000000
# 2 -0.005945 0.019008 -0.000046 0.000000 0.003888 0.000000
# 3 -0.003945 -0.000046 0.024697 0.000000 0.004337 0.000000
# 4 0.000000 0.000000 0.000000 0.059316 0.000000 0.009378
# 5 -0.002638 0.003888 0.004337 0.000000 0.025332 0.000000
# 6 0.000000 0.000000 0.000000 0.009378 0.000000 0.025034
#
#
# Mechanical properties :
#
#
# Convention : Reuss Voigt Hill
#
# Bulk Modulus (GPa) = 22.96861 24.85914 23.91387
# Shear Modulus (GPa) = 24.09944 29.16570 26.63257
#
# Velocity S-wave (km/s) = 3.52194 3.87449 3.70241
# Velocity P-wave (km/s) = 5.32548 5.72805 5.53043
#
# Compressibility (1/GPa) = 0.04353769
#
# Stress axis : x y z
#
# Youngs Moduli (GPa) = 50.75230 52.60942 40.49062
#
# Poissons Ratio (x) = 0.31275 0.15974
# Poissons Ratio (y) = 0.30171 0.00185
# Poissons Ratio (z) = 0.20022 0.00240
#
# Static dielectric constant tensor:
#      x y z
#    x 1.682050 0.000000 0.013070 
#    y 0.000000 1.680390 0.000000 
#    z 0.013070 0.000000 1.647380 
# 
# From -- ./inp_files/38434.got.cif
#   From: 2010.05.17/outbox.cif.g08.bks.cpg/sg5_20_cif.got.tgz:38434.got - 2010.06.03 18:56:24.
