data_PCOD9127350
_publ_section_title
;
Structure prediction by ZEFSAII (Michael W. Deem and Ramdas Pophale) SiO2 
 PCOD9127350
Probable space group: C 2
;
_chemical_formula_sum "Si O2"
_cell_formula_units_Z 28
_cell_length_a 12.309301
_cell_length_b 7.824524
_cell_length_c 15.103257
_cell_angle_alpha 90.000000
_cell_angle_beta 57.287351
_cell_angle_gamma 90.000000
_cell_volume 1223.939775
_symmetry_space_group_name_H-M "C 2"
_symmetry_group_IT_number 5
_symmetry_cell_setting 'monoclinic'
loop_
_space_group_symop_operation_xyz
x,y,z
-x,y,-z
1/2+x,1/2+y,z
1/2-x,1/2+y,-z
loop_
_atom_site_type_symbol
_atom_site_label
_atom_site_fract_x
_atom_site_fract_y
_atom_site_fract_z
Si Si1 0.460505 0.238830 0.620531
Si Si2 0.468247 0.265429 0.227920
Si Si3 0.873015 0.418494 0.232307
Si Si4 0.733872 0.937450 0.260523
Si Si5 0.880926 0.082344 0.617465
Si Si6 0.355062 0.788995 0.870945
Si Si7 0.749176 0.903660 0.900482
O O1 0.500000 0.239384 0.500000
O O2 0.553841 0.195696 0.661391
O O3 0.439092 0.438475 0.656331
O O4 0.344202 0.104032 0.676372
O O5 0.431365 0.104473 0.184522
O O6 0.375528 0.419113 0.239341
O O7 0.617105 0.302463 0.149589
O O8 0.748614 0.469777 0.348830
O O9 0.819324 0.356182 0.161721
O O10 0.991366 0.308260 0.218037
O O11 0.663459 0.763889 0.326828
O O12 0.722706 0.915665 0.160288
O O13 0.000000 0.114976 0.500000
O O14 0.292584 0.602593 0.885076
O O15 0.337845 0.850841 0.978592
#
# Coordination Sequence:
#
# PCOD9127350 Si02
#       7
#     4   4   4   4   4   4   4
#     4  11  23  45  69 103 140 181 242 292 350 429
#     4  11  23  46  70  97 146 182 233 303 346 430
#     4  11  23  47  69  98 144 181 234 297 354 417
#     4  11  24  46  71 105 142 191 238 289 361 430
#     4  10  22  45  71 102 145 182 233 297 355 420
#     4  12  25  44  73 100 141 190 233 300 356 418
#     4  12  26  45  68 105 139 188 240 294 358 423
#
# _framework density 22.876940999999999
#
# number of rings (size 3 to 8) (size 9 to 14) (size 15 to 20)
#    0.000    0.857    5.714    1.714    2.000    0.571 
#   12.857    1.429    0.000    0.000    0.000    0.000 
#    0.000    0.000    0.000    0.000    0.000    0.000 
#
# Total GULP energy -78050.911037 kJ/mol
# GULP energy per Si atom -5575.065074 kJ/mol
# Density = 2.282487 g / cm^3
# Si number density = 22.876941 Si / 1000 Ang^3
#
#
#
# Elastic Constant Matrix: (Units=GPa)
#
#
# Indices 1 2 3 4 5 6 
#
# 1 133.0067 2.1346 22.4478 0.0000 -1.0792 0.0000
# 2 2.1346 96.7834 1.2366 0.0000 -3.8594 0.0000
# 3 22.4478 1.2366 81.1230 0.0000 -1.7162 0.0000
# 4 0.0000 0.0000 0.0000 31.7042 0.0000 -11.0136
# 5 -1.0792 -3.8594 -1.7162 0.0000 21.5871 0.0000
# 6 0.0000 0.0000 0.0000 -11.0136 0.0000 46.7491
#
#
#
# Elastic Compliance Matrix: (Units=1/GPa)
#
#
# Indices 1 2 3 4 5 6 
#
# 1 0.007890 -0.000138 -0.002177 0.000000 0.000197 0.000000
# 2 -0.000138 0.010410 -0.000081 0.000000 0.001848 0.000000
# 3 -0.002177 -0.000081 0.012950 0.000000 0.000906 0.000000
# 4 0.000000 0.000000 0.000000 0.034353 0.000000 0.008093
# 5 0.000197 0.001848 0.000906 0.000000 0.046736 0.000000
# 6 0.000000 0.000000 0.000000 0.008093 0.000000 0.023297
#
#
# Mechanical properties :
#
#
# Convention : Reuss Voigt Hill
#
# Bulk Modulus (GPa) = 37.79807 40.28345 39.04076
# Shear Modulus (GPa) = 33.50126 39.01434 36.25780
#
# Velocity S-wave (km/s) = 3.83091 4.13413 3.98541
# Velocity P-wave (km/s) = 6.01050 6.35885 6.18713
#
# Compressibility (1/GPa) = 0.02645638
#
# Stress axis : x y z
#
# Youngs Moduli (GPa) = 126.74859 96.06036 77.22160
#
# Poissons Ratio (x) = 0.01329 0.16810
# Poissons Ratio (y) = 0.01754 0.00628
# Poissons Ratio (z) = 0.27592 0.00781
#
# Static dielectric constant tensor:
#      x y z
#    x 1.915120 0.000000 -0.010380 
#    y 0.000000 1.880760 0.000000 
#    z -0.010380 0.000000 1.965700 
# 
# From -- ./inp_files/52386.got.cif
#   From: 2010.05.17/outbox.cif.g08.bks.cpg/sg5_27_cif.got.tgz:52386.got - 2010.06.03 18:56:24.
