data_PCOD9127422
_publ_section_title
;
Structure prediction by ZEFSAII (Michael W. Deem and Ramdas Pophale) SiO2 
 PCOD9127422
Probable space group: C 2
;
_chemical_formula_sum "Si O2"
_cell_formula_units_Z 20
_cell_length_a 17.528996
_cell_length_b 6.225699
_cell_length_c 8.294989
_cell_angle_alpha 90.000000
_cell_angle_beta 101.542979
_cell_angle_gamma 90.000000
_cell_volume 886.925774
_symmetry_space_group_name_H-M "C 2"
_symmetry_group_IT_number 5
_symmetry_cell_setting 'monoclinic'
loop_
_space_group_symop_operation_xyz
x,y,z
-x,y,-z
1/2+x,1/2+y,z
1/2-x,1/2+y,-z
loop_
_atom_site_type_symbol
_atom_site_label
_atom_site_fract_x
_atom_site_fract_y
_atom_site_fract_z
Si Si1 0.500000 0.599840 0.000000
Si Si2 0.898974 0.497461 0.351922
Si Si3 0.591332 0.722336 0.342580
Si Si4 0.145598 0.102220 0.880615
Si Si5 0.251900 0.749976 0.774200
Si Si6 0.500000 0.361958 0.500000
O O1 0.544264 0.734646 0.156110
O O2 0.425719 0.484379 0.053719
O O3 0.921190 0.411435 0.537269
O O4 0.810451 0.572831 0.300617
O O5 0.951318 0.709868 0.358676
O O6 0.898062 0.292932 0.233503
O O7 0.681342 0.741169 0.331695
O O8 0.559544 0.510493 0.422412
O O9 0.200072 0.962140 0.786062
O O10 0.204005 0.195672 0.040071
#
# Coordination Sequence:
#
# PCOD9127422 Si02
#       6
#     2   4   4   4   4   2
#     4  10  22  46  70  98 144 186 232 302 354 424
#     4  12  25  44  76 104 148 195 236 308 357 439
#     4  11  26  45  73 106 148 189 247 303 358 435
#     4  11  23  47  71 109 147 189 242 298 361 439
#     4  11  25  44  74 108 149 190 241 300 364 432
#     4  12  26  48  72 108 144 200 242 302 364 424
#
# _framework density 22.549803000000001
#
# number of rings (size 3 to 8) (size 9 to 14) (size 15 to 20)
#    0.000    0.800    2.000    5.400    5.600    0.000 
#    0.000    9.000    0.000    0.000    0.000    0.000 
#    0.000    0.000    0.000    0.000    0.000    0.000 
#
# Total GULP energy -55788.398375 kJ/mol
# GULP energy per Si atom -5578.839838 kJ/mol
# Density = 2.249848 g / cm^3
# Si number density = 22.549803 Si / 1000 Ang^3
#
#
#
# Elastic Constant Matrix: (Units=GPa)
#
#
# Indices 1 2 3 4 5 6 
#
# 1 196.9646 61.7224 29.5493 0.0000 -32.8861 0.0000
# 2 61.7224 86.8545 45.7980 0.0000 -21.4673 0.0000
# 3 29.5493 45.7980 119.4446 0.0000 10.7516 0.0000
# 4 0.0000 0.0000 0.0000 35.1174 0.0000 16.3870
# 5 -32.8861 -21.4673 10.7516 0.0000 43.1722 0.0000
# 6 0.0000 0.0000 0.0000 16.3870 0.0000 34.2327
#
#
#
# Elastic Compliance Matrix: (Units=1/GPa)
#
#
# Indices 1 2 3 4 5 6 
#
# 1 0.006932 -0.003718 -0.000612 0.000000 0.003585 0.000000
# 2 -0.003718 0.020588 -0.007816 0.000000 0.009352 0.000000
# 3 -0.000612 -0.007816 0.012185 0.000000 -0.007388 0.000000
# 4 0.000000 0.000000 0.000000 0.036666 0.000000 -0.017552
# 5 0.003585 0.009352 -0.007388 0.000000 0.032384 0.000000
# 6 0.000000 0.000000 0.000000 -0.017552 0.000000 0.037614
#
#
# Mechanical properties :
#
#
# Convention : Reuss Voigt Hill
#
# Bulk Modulus (GPa) = 64.87575 75.26701 70.07138
# Shear Modulus (GPa) = 28.44141 40.25074 34.34607
#
# Velocity S-wave (km/s) = 3.55529 4.22947 3.90695
# Velocity P-wave (km/s) = 6.75913 7.56980 7.17592
#
# Compressibility (1/GPa) = 0.01541408
#
# Stress axis : x y z
#
# Youngs Moduli (GPa) = 144.25034 48.57106 82.06510
#
# Poissons Ratio (x) = 0.18057 0.05024
# Poissons Ratio (y) = 0.53627 0.64144
# Poissons Ratio (z) = 0.08831 0.37964
#
# Static dielectric constant tensor:
#      x y z
#    x 1.865420 0.000000 -0.020440 
#    y 0.000000 1.859780 0.000000 
#    z -0.020440 0.000000 1.858010 
# 
# From -- ./inp_files/25964.got.cif
#   From: 2010.05.17/outbox.cif.g08.bks.cpg/sg5_13_cif.got.tgz:25964.got - 2010.06.03 18:56:24.
