data_PCOD9127467
_publ_section_title
;
Structure prediction by ZEFSAII (Michael W. Deem and Ramdas Pophale) SiO2 
 PCOD9127467
Probable space group: C 2
;
_chemical_formula_sum "Si O2"
_cell_formula_units_Z 24
_cell_length_a 12.044165
_cell_length_b 8.390863
_cell_length_c 17.364952
_cell_angle_alpha 90.000000
_cell_angle_beta 28.699320
_cell_angle_gamma 90.000000
_cell_volume 842.734757
_symmetry_space_group_name_H-M "C 2"
_symmetry_group_IT_number 5
_symmetry_cell_setting 'monoclinic'
loop_
_space_group_symop_operation_xyz
x,y,z
-x,y,-z
1/2+x,1/2+y,z
1/2-x,1/2+y,-z
loop_
_atom_site_type_symbol
_atom_site_label
_atom_site_fract_x
_atom_site_fract_y
_atom_site_fract_z
Si Si1 0.224803 0.520350 0.407805
Si Si2 0.471620 0.342581 0.124400
Si Si3 0.675222 0.061303 0.610166
Si Si4 0.458474 0.979770 0.145211
Si Si5 0.193805 0.173035 0.946038
Si Si6 0.395880 0.657026 0.727774
O O1 0.317253 0.388833 0.292602
O O2 0.165763 0.473952 0.532516
O O3 0.446098 0.633721 0.293386
O O4 0.000000 0.590134 0.500000
O O5 0.870340 0.335471 0.971019
O O6 0.627412 0.496498 0.017323
O O7 0.718366 0.303277 0.827785
O O8 0.665183 0.967442 0.696485
O O9 0.444226 0.166438 0.753955
O O10 0.917818 0.151073 0.454426
O O11 0.565381 0.161246 0.080247
O O12 0.268707 0.005208 0.192669
O O13 0.000000 0.184330 0.000000
#
# Coordination Sequence:
#
# PCOD9127467 Si02
#       6
#     4   4   4   4   4   4
#     4  10  22  46  88 131 170 229 302 370 444 534
#     4  10  25  52  89 122 176 236 297 358 461 534
#     4  10  24  51  88 125 180 228 296 380 444 526
#     4  10  25  52  84 125 179 233 299 364 448 544
#     4  12  28  54  81 128 181 234 297 371 455 547
#     4   8  23  50  90 120 171 234 291 367 445 526
#
# _framework density 28.478712000000002
#
# number of rings (size 3 to 8) (size 9 to 14) (size 15 to 20)
#    2.000    0.000    0.000    1.500    4.667    2.000 
#    9.000    3.333    3.667    0.000    0.000    0.000 
#    0.000    0.000    0.000    0.000    0.000    0.000 
#
# Total GULP energy -67039.932188 kJ/mol
# GULP energy per Si atom -5586.661016 kJ/mol
# Density = 2.841389 g / cm^3
# Si number density = 28.478712 Si / 1000 Ang^3
#
#
#
# Elastic Constant Matrix: (Units=GPa)
#
#
# Indices 1 2 3 4 5 6 
#
# 1 167.4440 97.5450 35.0198 -0.0047 -9.4638 0.0003
# 2 97.5450 221.1185 94.1630 -0.0008 -13.6132 0.0005
# 3 35.0198 94.1630 191.7046 -0.0055 -20.0605 0.0032
# 4 -0.0047 -0.0008 -0.0055 47.1302 0.0024 3.3449
# 5 -9.4638 -13.6132 -20.0605 0.0024 57.5766 -0.0007
# 6 0.0003 0.0005 0.0032 3.3449 -0.0007 69.5938
#
#
#
# Elastic Compliance Matrix: (Units=1/GPa)
#
#
# Indices 1 2 3 4 5 6 
#
# 1 0.008075 -0.003698 0.000403 0.000001 0.000594 0.000000
# 2 -0.003698 0.007420 -0.002957 -0.000001 0.000116 0.000000
# 3 0.000403 -0.002957 0.006776 0.000001 0.001728 0.000000
# 4 0.000001 -0.000001 0.000001 0.021290 -0.000001 -0.001023
# 5 0.000594 0.000116 0.001728 -0.000001 0.018095 0.000000
# 6 0.000000 0.000000 0.000000 -0.001023 0.000000 0.014418
#
#
# Mechanical properties :
#
#
# Convention : Reuss Voigt Hill
#
# Bulk Modulus (GPa) = 102.36928 114.85808 108.61368
# Shear Modulus (GPa) = 54.44584 58.42939 56.43762
#
# Velocity S-wave (km/s) = 4.37717 4.53447 4.45651
# Velocity P-wave (km/s) = 7.84666 8.23614 8.04376
#
# Compressibility (1/GPa) = 0.00976856
#
# Stress axis : x y z
#
# Youngs Moduli (GPa) = 123.83302 134.77101 147.58021
#
# Poissons Ratio (x) = 0.49832 -0.05949
# Poissons Ratio (y) = 0.45788 0.43639
# Poissons Ratio (z) = -0.04992 0.39852
#
# Static dielectric constant tensor:
#      x y z
#    x 2.453100 0.000000 0.044180 
#    y 0.000000 2.267190 0.000000 
#    z 0.044180 0.000000 2.148630 
# 
# From -- ./inp_files/69199.got.cif
#   From: 2010.05.17/outbox.cif.g08.bks.cpg/sg5_35_cif.got.tgz:69199.got - 2010.06.03 18:56:24.
