data_PCOD9127454
_publ_section_title
;
Structure prediction by ZEFSAII (Michael W. Deem and Ramdas Pophale) SiO2 
 PCOD9127454
Probable space group: C 2
;
_chemical_formula_sum "Si O2"
_cell_formula_units_Z 28
_cell_length_a 13.415335
_cell_length_b 4.863699
_cell_length_c 23.527821
_cell_angle_alpha 90.000000
_cell_angle_beta 138.176124
_cell_angle_gamma 90.000000
_cell_volume 1023.702013
_symmetry_space_group_name_H-M "C 2"
_symmetry_group_IT_number 5
_symmetry_cell_setting 'monoclinic'
loop_
_space_group_symop_operation_xyz
x,y,z
-x,y,-z
1/2+x,1/2+y,z
1/2-x,1/2+y,-z
loop_
_atom_site_type_symbol
_atom_site_label
_atom_site_fract_x
_atom_site_fract_y
_atom_site_fract_z
Si Si1 0.268263 0.926620 0.323279
Si Si2 0.000000 0.720453 0.500000
Si Si3 0.232133 0.311466 0.954639
Si Si4 0.505039 0.230932 0.721579
Si Si5 0.683571 0.705496 0.767002
Si Si6 0.348376 0.471120 0.542383
Si Si7 0.077847 0.111473 0.153773
Si Si8 0.500000 0.539404 0.000000
O O1 0.120740 0.781029 0.285010
O O2 0.356304 0.730898 0.317175
O O3 0.370031 0.039519 0.416258
O O4 0.208542 0.170446 0.255292
O O5 0.932973 0.906036 0.520669
O O6 0.073436 0.168617 0.876380
O O7 0.200379 0.608321 0.968947
O O8 0.354131 0.366599 0.958126
O O9 0.649656 0.428285 0.785008
O O10 0.427884 0.338364 0.630851
O O11 0.303117 0.787228 0.528312
O O12 0.573470 0.929699 0.748338
O O13 0.855212 0.808744 0.835141
O O14 0.040263 0.211486 0.073977
#
# Coordination Sequence:
#
# PCOD9127454 Si02
#       8
#     4   2   4   4   4   4   4   2
#     4  10  25  45  72 105 143 188 244 295 356 423
#     4  12  24  46  74 102 146 190 242 308 348 422
#     4  10  23  45  72 110 143 184 239 288 353 433
#     4  12  24  47  70  99 141 188 238 298 354 420
#     4  10  26  45  70 102 140 184 237 286 359 418
#     4  12  26  43  69 101 134 184 242 295 364 417
#     4   9  23  48  70 111 142 191 237 291 358 430
#     4  10  22  46  76 104 152 184 232 298 356 428
#
# _framework density 27.351710000000001
#
# number of rings (size 3 to 8) (size 9 to 14) (size 15 to 20)
#    0.857    0.571    2.857    0.857    2.000    7.429 
#   10.286    0.000    0.000    0.000    0.000    0.000 
#    0.000    0.000    0.000    0.000    0.000    0.000 
#
# Total GULP energy -78287.047194 kJ/mol
# GULP energy per Si atom -5591.931942 kJ/mol
# Density = 2.728946 g / cm^3
# Si number density = 27.351710 Si / 1000 Ang^3
#
#
#
# Elastic Constant Matrix: (Units=GPa)
#
#
# Indices 1 2 3 4 5 6 
#
# 1 231.9062 40.9527 33.5995 0.0000 -0.8484 -0.0002
# 2 40.9527 87.7936 22.5205 0.0009 0.9302 -0.0001
# 3 33.5995 22.5205 139.4228 -0.0002 4.4828 0.0002
# 4 0.0000 0.0009 -0.0002 31.6693 -0.0003 11.5171
# 5 -0.8484 0.9302 4.4828 -0.0003 52.5949 0.0002
# 6 -0.0002 -0.0001 0.0002 11.5171 0.0002 31.6859
#
#
#
# Elastic Compliance Matrix: (Units=1/GPa)
#
#
# Indices 1 2 3 4 5 6 
#
# 1 0.004791 -0.002023 -0.000834 0.000000 0.000184 0.000000
# 2 -0.002023 0.012737 -0.001566 0.000000 -0.000124 0.000000
# 3 -0.000834 -0.001566 0.007647 0.000000 -0.000638 0.000000
# 4 0.000000 0.000000 0.000000 0.036386 0.000000 -0.013225
# 5 0.000184 -0.000124 -0.000638 0.000000 0.019073 0.000000
# 6 0.000000 0.000000 0.000000 -0.013225 0.000000 0.036367
#
#
# Mechanical properties :
#
#
# Convention : Reuss Voigt Hill
#
# Bulk Modulus (GPa) = 61.23827 72.58533 66.91180
# Shear Modulus (GPa) = 38.08418 47.32668 42.70543
#
# Velocity S-wave (km/s) = 3.73552 4.16420 3.95567
# Velocity P-wave (km/s) = 6.40650 7.05097 6.73645
#
# Compressibility (1/GPa) = 0.01632966
#
# Stress axis : x y z
#
# Youngs Moduli (GPa) = 208.73498 78.51190 130.77416
#
# Poissons Ratio (x) = 0.15882 0.10903
# Poissons Ratio (y) = 0.42223 0.20478
# Poissons Ratio (z) = 0.17402 0.12294
#
# Static dielectric constant tensor:
#      x y z
#    x 2.072420 0.000000 0.014920 
#    y 0.000000 2.113560 0.000000 
#    z 0.014920 0.000000 2.250030 
# 
# From -- ./inp_files/70508.got.cif
#   From: 2010.05.17/outbox.cif.g08.bks.cpg/sg5_36_cif.got.tgz:70508.got - 2010.06.03 18:56:24.
