data_PCOD9127179
_publ_section_title
;
Structure prediction by ZEFSAII (Michael W. Deem and Ramdas Pophale) SiO2 
 PCOD9127179
Probable space group: C 2
;
_chemical_formula_sum "Si O2"
_cell_formula_units_Z 28
_cell_length_a 12.836300
_cell_length_b 8.979299
_cell_length_c 11.731527
_cell_angle_alpha 90.000000
_cell_angle_beta 116.879973
_cell_angle_gamma 90.000000
_cell_volume 1206.091013
_symmetry_space_group_name_H-M "C 2"
_symmetry_group_IT_number 5
_symmetry_cell_setting 'monoclinic'
loop_
_space_group_symop_operation_xyz
x,y,z
-x,y,-z
1/2+x,1/2+y,z
1/2-x,1/2+y,-z
loop_
_atom_site_type_symbol
_atom_site_label
_atom_site_fract_x
_atom_site_fract_y
_atom_site_fract_z
Si Si1 0.381060 0.801000 0.494054
Si Si2 0.000000 0.952379 0.000000
Si Si3 0.922002 0.547359 0.665863
Si Si4 0.099147 0.482017 0.948091
Si Si5 0.841981 0.148745 0.090891
Si Si6 0.843807 0.822313 0.740896
Si Si7 0.498487 0.516153 0.353536
Si Si8 0.000000 0.754747 0.500000
O O1 0.500000 0.857678 0.500000
O O2 0.287090 0.856625 0.356951
O O3 0.410578 0.628656 0.537513
O O4 0.365292 0.891336 0.603305
O O5 0.096916 0.853432 0.110630
O O6 0.924507 0.053065 0.047463
O O7 0.846967 0.649397 0.711278
O O8 0.038918 0.526417 0.797715
O O9 0.935994 0.649542 0.559248
O O10 0.148198 0.316170 0.949861
O O11 0.210554 0.586619 0.026748
O O12 0.000000 0.482941 0.000000
O O13 0.905123 0.120743 0.243900
O O14 0.923097 0.922508 0.696014
O O15 0.434879 0.381158 0.390904
#
# Coordination Sequence:
#
# PCOD9127179 Si02
#       8
#     4   2   4   4   4   4   4   2
#     4  12  23  42  70 104 140 186 242 315 382 453
#     4  10  24  48  78 108 156 204 264 320 398 468
#     4  11  25  46  71 107 149 193 263 319 388 469
#     4  12  29  51  76 120 160 208 270 327 404 481
#     4  11  26  49  80 112 155 208 258 336 392 473
#     4  10  25  43  69 104 144 197 245 309 385 471
#     4  10  22  46  69 104 148 191 255 310 396 456
#     4  10  22  44  68 102 140 192 246 314 380 464
#
# _framework density 23.215494
#
# number of rings (size 3 to 8) (size 9 to 14) (size 15 to 20)
#    0.000    1.143    3.571    0.857    9.000    1.143 
#    5.143    0.000    0.000    0.000    0.000    0.000 
#    0.000    0.000    0.000    0.000    0.000    0.000 
#
# Total GULP energy -78104.653482 kJ/mol
# GULP energy per Si atom -5578.903820 kJ/mol
# Density = 2.316265 g / cm^3
# Si number density = 23.215494 Si / 1000 Ang^3
#
#
#
# Elastic Constant Matrix: (Units=GPa)
#
#
# Indices 1 2 3 4 5 6 
#
# 1 102.7766 44.3331 52.3164 0.0000 20.7496 0.0000
# 2 44.3331 115.2330 26.7861 0.0000 -6.7227 0.0000
# 3 52.3164 26.7861 127.9214 0.0000 23.6559 0.0000
# 4 0.0000 0.0000 0.0000 25.1742 0.0000 11.5912
# 5 20.7496 -6.7227 23.6559 0.0000 42.0691 0.0000
# 6 0.0000 0.0000 0.0000 11.5912 0.0000 21.1927
#
#
#
# Elastic Compliance Matrix: (Units=1/GPa)
#
#
# Indices 1 2 3 4 5 6 
#
# 1 0.015303 -0.005314 -0.004010 0.000000 -0.006142 0.000000
# 2 -0.005314 0.011278 -0.001123 0.000000 0.005055 0.000000
# 3 -0.004010 -0.001123 0.010446 0.000000 -0.004076 0.000000
# 4 0.000000 0.000000 0.000000 0.053094 0.000000 -0.029039
# 5 -0.006142 0.005055 -0.004076 0.000000 0.029899 0.000000
# 6 0.000000 0.000000 0.000000 -0.029039 0.000000 0.063069
#
#
# Mechanical properties :
#
#
# Convention : Reuss Voigt Hill
#
# Bulk Modulus (GPa) = 61.98192 65.86690 63.92441
# Shear Modulus (GPa) = 23.88204 32.52022 28.20113
#
# Velocity S-wave (km/s) = 3.21083 3.74678 3.48911
# Velocity P-wave (km/s) = 6.36415 6.86669 6.62019
#
# Compressibility (1/GPa) = 0.01613374
#
# Stress axis : x y z
#
# Youngs Moduli (GPa) = 65.34559 88.66509 95.72862
#
# Poissons Ratio (x) = 0.47114 0.38388
# Poissons Ratio (y) = 0.34723 0.10752
# Poissons Ratio (z) = 0.26204 0.09959
#
# Static dielectric constant tensor:
#      x y z
#    x 1.956240 0.000000 -0.108340 
#    y 0.000000 1.874660 0.000000 
#    z -0.108340 0.000000 2.231050 
# 
# From -- ./inp_files/42041.got.cif
#   From: 2010.05.17/outbox.cif.g08.bks.cpg/sg5_22_cif.got.tgz:42041.got - 2010.06.03 18:56:24.
