data_PCOD9127652
_publ_section_title
;
Structure prediction by ZEFSAII (Michael W. Deem and Ramdas Pophale) SiO2 
 PCOD9127652
Probable space group: C 2
;
_chemical_formula_sum "Si O2"
_cell_formula_units_Z 24
_cell_length_a 25.261850
_cell_length_b 9.872427
_cell_length_c 15.479880
_cell_angle_alpha 90.000000
_cell_angle_beta 162.673727
_cell_angle_gamma 90.000000
_cell_volume 1149.740453
_symmetry_space_group_name_H-M "C 2"
_symmetry_group_IT_number 5
_symmetry_cell_setting 'monoclinic'
loop_
_space_group_symop_operation_xyz
x,y,z
-x,y,-z
1/2+x,1/2+y,z
1/2-x,1/2+y,-z
loop_
_atom_site_type_symbol
_atom_site_label
_atom_site_fract_x
_atom_site_fract_y
_atom_site_fract_z
Si Si1 0.111600 0.304180 0.255497
Si Si2 0.289646 0.527147 0.658246
Si Si3 0.000000 0.246740 0.500000
Si Si4 0.951515 0.427995 0.568628
Si Si5 0.000000 0.798411 0.500000
Si Si6 0.331309 0.523576 0.117395
Si Si7 0.624045 0.699342 0.960599
O O1 0.209798 0.419404 0.464436
O O2 0.234500 0.181298 0.412666
O O3 0.000000 0.360502 0.000000
O O4 0.970088 0.224239 0.095794
O O5 0.189563 0.505886 0.593532
O O6 0.500000 0.503243 0.000000
O O7 0.116391 0.340194 0.618003
O O8 0.118914 0.150401 0.744067
O O9 0.119625 0.509154 0.793298
O O10 0.038959 0.319642 0.770561
O O11 0.079191 0.894461 0.698706
O O12 0.164751 0.719610 0.715334
O O13 0.406325 0.561368 0.140077
#
# Coordination Sequence:
#
# PCOD9127652 Si02
#       7
#     4   4   2   4   2   4   4
#     4  10  23  41  59  84 117 153 197 242 282 334
#     4  10  23  41  59  84 117 153 197 242 282 334
#     4   9  18  33  54  80 108 137 172 221 282 342
#     4   9  19  35  54  79 109 140 180 228 277 333
#     4   9  18  33  54  80 108 137 172 221 282 342
#     4   9  18  33  54  80 108 137 172 221 282 342
#     4   9  19  35  54  79 109 140 180 228 277 333
#
# _framework density 20.874276999999999
#
# number of rings (size 3 to 8) (size 9 to 14) (size 15 to 20)
#    0.000    2.667    0.000    0.000    0.000    9.333 
#    0.000   10.000    0.000    0.000    0.000    0.000 
#    0.000    0.000    0.000    0.000    0.000    0.000 
#
# Total GULP energy -66953.850870 kJ/mol
# GULP energy per Si atom -5579.487573 kJ/mol
# Density = 2.082677 g / cm^3
# Si number density = 20.874277 Si / 1000 Ang^3
#
#
#
# Elastic Constant Matrix: (Units=GPa)
#
#
# Indices 1 2 3 4 5 6 
#
# 1 84.1095 3.6337 0.4353 0.0000 -8.3241 0.0000
# 2 3.6337 56.2306 13.9444 0.0000 -15.8525 0.0000
# 3 0.4353 13.9444 58.9075 0.0000 -10.7755 0.0000
# 4 0.0000 0.0000 0.0000 27.9107 0.0000 -6.1576
# 5 -8.3241 -15.8525 -10.7755 0.0000 27.5774 0.0000
# 6 0.0000 0.0000 0.0000 -6.1576 0.0000 34.3023
#
#
#
# Elastic Compliance Matrix: (Units=1/GPa)
#
#
# Indices 1 2 3 4 5 6 
#
# 1 0.012279 0.000201 0.000604 0.000000 0.004058 0.000000
# 2 0.000201 0.021733 -0.003069 0.000000 0.011354 0.000000
# 3 0.000604 -0.003069 0.018748 0.000000 0.005744 0.000000
# 4 0.000000 0.000000 0.000000 0.037306 0.000000 0.006697
# 5 0.004058 0.011354 0.005744 0.000000 0.046258 0.000000
# 6 0.000000 0.000000 0.000000 0.006697 0.000000 0.030355
#
#
# Mechanical properties :
#
#
# Convention : Reuss Voigt Hill
#
# Bulk Modulus (GPa) = 20.73323 26.14160 23.43741
# Shear Modulus (GPa) = 26.69730 30.04036 28.36883
#
# Velocity S-wave (km/s) = 3.58013 3.79767 3.69051
# Velocity P-wave (km/s) = 5.20036 5.63740 5.42329
#
# Compressibility (1/GPa) = 0.04823175
#
# Stress axis : x y z
#
# Youngs Moduli (GPa) = 81.43957 46.01288 53.33763
#
# Poissons Ratio (x) = -0.00923 -0.03222
# Poissons Ratio (y) = -0.01634 0.16370
# Poissons Ratio (z) = -0.04919 0.14122
#
# Static dielectric constant tensor:
#      x y z
#    x 1.776490 0.000000 -0.043470 
#    y 0.000000 1.778080 0.000000 
#    z -0.043470 0.000000 1.748890 
# 
# From -- ./inp_files/30973.got.cif
#   From: 2010.05.17/outbox.cif.g08.bks.cpg/sg5_16_cif.got.tgz:30973.got - 2010.06.03 18:56:24.
