data_PCOD9127932
_publ_section_title
;
Structure prediction by ZEFSAII (Michael W. Deem and Ramdas Pophale) SiO2 
 PCOD9127932
Probable space group: C 2
;
_chemical_formula_sum "Si O2"
_cell_formula_units_Z 22
_cell_length_a 15.312677
_cell_length_b 11.961325
_cell_length_c 12.234975
_cell_angle_alpha 90.000000
_cell_angle_beta 26.944497
_cell_angle_gamma 90.000000
_cell_volume 1015.438423
_symmetry_space_group_name_H-M "C 2"
_symmetry_group_IT_number 5
_symmetry_cell_setting 'monoclinic'
loop_
_space_group_symop_operation_xyz
x,y,z
-x,y,-z
1/2+x,1/2+y,z
1/2-x,1/2+y,-z
loop_
_atom_site_type_symbol
_atom_site_label
_atom_site_fract_x
_atom_site_fract_y
_atom_site_fract_z
Si Si1 0.937592 0.139410 0.394286
Si Si2 0.128086 0.508573 0.464513
Si Si3 0.000000 0.861329 0.000000
Si Si4 0.846952 0.225134 0.261413
Si Si5 0.316132 0.161358 0.103774
Si Si6 0.122761 0.469654 0.709949
O O1 0.913436 0.209750 0.311925
O O2 0.808918 0.169975 0.644312
O O3 0.157191 0.143564 0.187941
O O4 0.835836 0.024625 0.470986
O O5 0.323339 0.440545 0.225503
O O6 0.168762 0.640675 0.441779
O O7 0.054207 0.456553 0.660677
O O8 0.000000 0.495347 0.500000
O O9 0.936548 0.776622 0.972897
O O10 0.839821 0.358662 0.262347
O O11 0.000000 0.187473 0.000000
O O12 0.465079 0.058462 0.930205
#
# Coordination Sequence:
#
# PCOD9127932 Si02
#       6
#     4   4   2   4   4   4
#     4  10  23  44  67 106 133 189 232 287 341 424
#     4  11  28  46  70 101 145 192 231 285 365 417
#     4  12  24  44  70  98 142 186 234 294 330 440
#     4  11  24  47  66 101 148 177 231 295 354 410
#     4  11  23  42  75 102 134 179 250 279 346 404
#     4  11  24  45  72 100 142 184 239 295 341 422
#
# _framework density 21.665517999999999
#
# number of rings (size 3 to 8) (size 9 to 14) (size 15 to 20)
#    0.000    1.091    2.727    2.182   10.182    0.000 
#    6.545    0.000    0.000    0.000    0.000    0.000 
#    0.000    0.000    0.000    0.000    0.000    0.000 
#
# Total GULP energy -61326.985382 kJ/mol
# GULP energy per Si atom -5575.180489 kJ/mol
# Density = 2.161621 g / cm^3
# Si number density = 21.665518 Si / 1000 Ang^3
#
#
#
# Elastic Constant Matrix: (Units=GPa)
#
#
# Indices 1 2 3 4 5 6 
#
# 1 138.7135 19.6575 38.8030 -0.0002 -13.6379 0.0002
# 2 19.6575 132.0099 38.7302 -0.0001 -12.3480 0.0002
# 3 38.8030 38.7302 69.2930 -0.0002 -6.9349 0.0003
# 4 -0.0002 -0.0001 -0.0002 21.2210 0.0002 7.9833
# 5 -13.6379 -12.3480 -6.9349 0.0002 44.4736 -0.0003
# 6 0.0002 0.0002 0.0003 7.9833 -0.0003 13.2355
#
#
#
# Elastic Compliance Matrix: (Units=1/GPa)
#
#
# Indices 1 2 3 4 5 6 
#
# 1 0.008721 0.000314 -0.004859 0.000000 0.002004 0.000000
# 2 0.000314 0.009209 -0.005138 0.000000 0.001852 0.000000
# 3 -0.004859 -0.005138 0.020045 0.000000 0.000209 0.000000
# 4 0.000000 0.000000 0.000000 0.060954 0.000000 -0.036766
# 5 0.002004 0.001852 0.000209 0.000000 0.023647 0.000001
# 6 0.000000 0.000000 0.000000 -0.036766 0.000001 0.097730
#
#
# Mechanical properties :
#
#
# Convention : Reuss Voigt Hill
#
# Bulk Modulus (GPa) = 53.73373 59.37753 56.55563
# Shear Modulus (GPa) = 20.33565 31.97439 26.15502
#
# Velocity S-wave (km/s) = 3.06701 3.84581 3.47827
# Velocity P-wave (km/s) = 6.11534 6.86923 6.50322
#
# Compressibility (1/GPa) = 0.01861029
#
# Stress axis : x y z
#
# Youngs Moduli (GPa) = 114.66980 108.58919 49.88805
#
# Poissons Ratio (x) = -0.03413 0.24238
# Poissons Ratio (y) = -0.03604 0.25632
# Poissons Ratio (z) = 0.55713 0.55792
#
# Static dielectric constant tensor:
#      x y z
#    x 1.823900 0.000000 0.050270 
#    y 0.000000 1.824300 0.000000 
#    z 0.050270 0.000000 1.826870 
# 
# From -- ./inp_files/42637.got.cif
#   From: 2010.05.17/outbox.cif.g08.bks.cpg/sg5_22_cif.got.tgz:42637.got - 2010.06.03 18:56:24.
