data_PCOD9127865
_publ_section_title
;
Structure prediction by ZEFSAII (Michael W. Deem and Ramdas Pophale) SiO2 
 PCOD9127865
Probable space group: C 2
;
_chemical_formula_sum "Si O2"
_cell_formula_units_Z 20
_cell_length_a 19.670005
_cell_length_b 5.074406
_cell_length_c 7.912344
_cell_angle_alpha 90.000000
_cell_angle_beta 104.752293
_cell_angle_gamma 90.000000
_cell_volume 763.725641
_symmetry_space_group_name_H-M "C 2"
_symmetry_group_IT_number 5
_symmetry_cell_setting 'monoclinic'
loop_
_space_group_symop_operation_xyz
x,y,z
-x,y,-z
1/2+x,1/2+y,z
1/2-x,1/2+y,-z
loop_
_atom_site_type_symbol
_atom_site_label
_atom_site_fract_x
_atom_site_fract_y
_atom_site_fract_z
Si Si1 0.000065 0.479830 0.309768
Si Si2 0.188989 0.790703 0.105486
Si Si3 0.294563 0.979700 0.562311
Si Si4 0.655581 0.015500 0.761924
Si Si5 0.445926 0.507947 0.824951
O O1 0.918692 0.396239 0.230062
O O2 0.000000 0.581561 0.500000
O O3 0.048068 0.222941 0.317811
O O4 0.025686 0.720603 0.210886
O O5 0.183937 0.542412 0.232203
O O6 0.270783 0.866642 0.159304
O O7 0.131937 0.981861 0.152607
O O8 0.164961 0.755446 0.897807
O O9 0.229688 0.182539 0.486535
O O10 0.344969 0.066757 0.439560
O O11 0.500000 0.610322 0.000000
#
# Coordination Sequence:
#
# PCOD9127865 Si02
#       5
#     4   4   4   4   4
#     4  12  28  50  77 109 152 200 250 308 375 454
#     4  11  25  44  76 107 148 193 247 309 370 436
#     4  10  23  43  68 107 148 184 235 306 370 430
#     4  11  25  45  75 112 143 192 255 301 370 441
#     4  12  27  49  72 108 153 196 245 305 381 447
#
# _framework density 26.187415000000001
#
# number of rings (size 3 to 8) (size 9 to 14) (size 15 to 20)
#    0.000    0.800    2.000    3.600    2.800   12.800 
#    0.000    0.000    0.000    0.000    0.000    0.000 
#    0.000    0.000    0.000    0.000    0.000    0.000 
#
# Total GULP energy -55966.525999 kJ/mol
# GULP energy per Si atom -5596.652600 kJ/mol
# Density = 2.612781 g / cm^3
# Si number density = 26.187415 Si / 1000 Ang^3
#
#
#
# Elastic Constant Matrix: (Units=GPa)
#
#
# Indices 1 2 3 4 5 6 
#
# 1 181.1450 49.7626 42.9355 0.0000 -18.9727 0.0000
# 2 49.7626 82.1339 23.5746 0.0000 -16.4370 0.0000
# 3 42.9355 23.5746 71.0467 0.0000 -11.2207 0.0000
# 4 0.0000 0.0000 0.0000 39.2964 0.0000 -3.6463
# 5 -18.9727 -16.4370 -11.2207 0.0000 43.9877 0.0000
# 6 0.0000 0.0000 0.0000 -3.6463 0.0000 36.6678
#
#
#
# Elastic Compliance Matrix: (Units=1/GPa)
#
#
# Indices 1 2 3 4 5 6 
#
# 1 0.007284 -0.003291 -0.003134 0.000000 0.001112 0.000000
# 2 -0.003291 0.015675 -0.002617 0.000000 0.003770 0.000000
# 3 -0.003134 -0.002617 0.017161 0.000000 0.002048 0.000000
# 4 0.000000 0.000000 0.000000 0.025685 0.000000 0.002554
# 5 0.001112 0.003770 0.002048 0.000000 0.025145 0.000000
# 6 0.000000 0.000000 0.000000 0.002554 0.000000 0.027526
#
#
# Mechanical properties :
#
#
# Convention : Reuss Voigt Hill
#
# Bulk Modulus (GPa) = 45.38090 62.98567 54.18328
# Shear Modulus (GPa) = 34.74537 38.52724 36.63631
#
# Velocity S-wave (km/s) = 3.64647 3.83980 3.74438
# Velocity P-wave (km/s) = 5.92418 6.61535 6.27928
#
# Compressibility (1/GPa) = 0.02203570
#
# Stress axis : x y z
#
# Youngs Moduli (GPa) = 137.28970 63.79690 58.27136
#
# Poissons Ratio (x) = 0.20995 0.18263
# Poissons Ratio (y) = 0.45180 0.15249
# Poissons Ratio (z) = 0.43029 0.16695
#
# Static dielectric constant tensor:
#      x y z
#    x 2.072850 0.000000 0.037180 
#    y 0.000000 2.008860 0.000000 
#    z 0.037180 0.000000 2.061580 
# 
# From -- ./inp_files/25957.got.cif
#   From: 2010.05.17/outbox.cif.g08.bks.cpg/sg5_13_cif.got.tgz:25957.got - 2010.06.03 18:56:24.
