data_PCOD9127174
_publ_section_title
;
Structure prediction by ZEFSAII (Michael W. Deem and Ramdas Pophale) SiO2 
 PCOD9127174
Probable space group: C 2
;
_chemical_formula_sum "Si O2"
_cell_formula_units_Z 26
_cell_length_a 7.915033
_cell_length_b 16.911493
_cell_length_c 10.457572
_cell_angle_alpha 90.000000
_cell_angle_beta 130.456309
_cell_angle_gamma 90.000000
_cell_volume 1065.108102
_symmetry_space_group_name_H-M "C 2"
_symmetry_group_IT_number 5
_symmetry_cell_setting 'monoclinic'
loop_
_space_group_symop_operation_xyz
x,y,z
-x,y,-z
1/2+x,1/2+y,z
1/2-x,1/2+y,-z
loop_
_atom_site_type_symbol
_atom_site_label
_atom_site_fract_x
_atom_site_fract_y
_atom_site_fract_z
Si Si1 0.855467 0.396800 0.621499
Si Si2 0.500000 0.165728 0.000000
Si Si3 0.188739 0.562613 0.296453
Si Si4 0.369410 0.591984 0.655063
Si Si5 0.702987 0.760298 0.256091
Si Si6 0.216040 0.801073 0.974998
Si Si7 0.339991 0.428521 0.751167
O O1 0.820751 0.467774 0.705263
O O2 0.735094 0.315404 0.596780
O O3 0.724556 0.418938 0.428462
O O4 0.118617 0.399027 0.715535
O O5 0.505737 0.109122 0.125587
O O6 0.313576 0.232321 0.933000
O O7 0.194025 0.585152 0.449990
O O8 0.405108 0.586262 0.318589
O O9 0.335968 0.673296 0.712273
O O10 0.370939 0.523114 0.763497
O O11 0.833483 0.762473 0.188054
O O12 0.478265 0.811389 0.114093
O O13 0.054569 0.877040 0.896045
#
# Coordination Sequence:
#
# PCOD9127174 Si02
#       7
#     4   2   4   4   4   4   4
#     4  10  23  43  68 104 134 182 230 283 344 417
#     4  12  24  42  62 104 130 180 230 280 344 408
#     4  10  23  41  68  95 142 180 226 281 346 408
#     4  10  22  44  68 100 134 184 229 287 340 410
#     4  11  24  44  67 101 137 178 238 283 347 410
#     4  11  25  43  65  97 139 182 226 285 344 411
#     4  10  23  43  70  99 141 179 233 280 349 411
#
# _framework density 24.410665999999999
#
# number of rings (size 3 to 8) (size 9 to 14) (size 15 to 20)
#    0.000    1.538    1.538    1.846    4.308    5.538 
#    0.000    1.538    0.000    0.000    0.000    0.000 
#    0.000    0.000    0.000    0.000    0.000    0.000 
#
# Total GULP energy -72469.678754 kJ/mol
# GULP energy per Si atom -5574.590673 kJ/mol
# Density = 2.435511 g / cm^3
# Si number density = 24.410666 Si / 1000 Ang^3
#
#
#
# Elastic Constant Matrix: (Units=GPa)
#
#
# Indices 1 2 3 4 5 6 
#
# 1 46.5847 40.7482 3.7784 0.0000 -10.6445 0.0000
# 2 40.7482 201.7420 32.5465 0.0000 -18.8744 0.0000
# 3 3.7784 32.5465 55.5652 0.0000 7.2509 0.0000
# 4 0.0000 0.0000 0.0000 30.4999 0.0000 -9.7070
# 5 -10.6445 -18.8744 7.2509 0.0000 38.9491 0.0000
# 6 0.0000 0.0000 0.0000 -9.7070 0.0000 36.4292
#
#
#
# Elastic Compliance Matrix: (Units=1/GPa)
#
#
# Indices 1 2 3 4 5 6 
#
# 1 0.026968 -0.005079 0.000513 0.000000 0.004813 0.000000
# 2 -0.005079 0.006888 -0.004041 0.000000 0.002702 0.000000
# 3 0.000513 -0.004041 0.021079 0.000000 -0.005742 0.000000
# 4 0.000000 0.000000 0.000000 0.035825 0.000000 0.009546
# 5 0.004813 0.002702 -0.005742 0.000000 0.029368 0.000000
# 6 0.000000 0.000000 0.000000 0.009546 0.000000 0.029994
#
#
# Mechanical properties :
#
#
# Convention : Reuss Voigt Hill
#
# Bulk Modulus (GPa) = 26.51220 50.89313 38.70267
# Shear Modulus (GPa) = 27.79184 36.29688 32.04436
#
# Velocity S-wave (km/s) = 3.37784 3.86025 3.62708
# Velocity P-wave (km/s) = 5.10858 6.38457 5.78188
#
# Compressibility (1/GPa) = 0.03771848
#
# Stress axis : x y z
#
# Youngs Moduli (GPa) = 37.08165 145.18923 47.44166
#
# Poissons Ratio (x) = 0.73749 -0.02436
# Poissons Ratio (y) = 0.18836 0.19173
# Poissons Ratio (z) = -0.01904 0.58678
#
# Static dielectric constant tensor:
#      x y z
#    x 2.076990 0.000000 0.013630 
#    y 0.000000 1.976840 0.000000 
#    z 0.013630 0.000000 2.246670 
# 
# From -- ./inp_files/36257.got.cif
#   From: 2010.05.17/outbox.cif.g08.bks.cpg/sg5_19_cif.got.tgz:36257.got - 2010.06.03 18:56:24.
