data_PCOD9127495
_publ_section_title
;
Structure prediction by ZEFSAII (Michael W. Deem and Ramdas Pophale) SiO2 
 PCOD9127495
Probable space group: C 2
;
_chemical_formula_sum "Si O2"
_cell_formula_units_Z 24
_cell_length_a 10.640719
_cell_length_b 12.228964
_cell_length_c 7.508939
_cell_angle_alpha 90.000000
_cell_angle_beta 122.842214
_cell_angle_gamma 90.000000
_cell_volume 820.927815
_symmetry_space_group_name_H-M "C 2"
_symmetry_group_IT_number 5
_symmetry_cell_setting 'monoclinic'
loop_
_space_group_symop_operation_xyz
x,y,z
-x,y,-z
1/2+x,1/2+y,z
1/2-x,1/2+y,-z
loop_
_atom_site_type_symbol
_atom_site_label
_atom_site_fract_x
_atom_site_fract_y
_atom_site_fract_z
Si Si1 0.521078 0.388380 0.738999
Si Si2 0.175710 0.280935 0.004549
Si Si3 0.943604 0.516103 0.168003
Si Si4 0.728267 0.756596 0.461971
Si Si5 0.279400 0.983018 0.391115
Si Si6 0.308165 0.597520 0.253177
O O1 0.343126 0.320521 0.070307
O O2 0.405020 0.293484 0.585558
O O3 0.399865 0.467749 0.740667
O O4 0.381416 0.476255 0.303066
O O5 0.127528 0.181054 0.844147
O O6 0.181486 0.252839 0.219415
O O7 0.078273 0.388893 0.898108
O O8 0.830795 0.533247 0.246947
O O9 0.105985 0.534392 0.376030
O O10 0.860941 0.579562 0.946581
O O11 0.671634 0.857390 0.539332
O O12 0.680493 0.655306 0.547526
#
# Coordination Sequence:
#
# PCOD9127495 Si02
#       6
#     4   4   4   4   4   4
#     4   9  23  49  82 114 169 218 274 348 419 489
#     4  11  22  47  80 116 160 216 281 345 413 505
#     4  10  22  47  79 117 165 218 280 350 420 495
#     4  10  23  48  80 111 161 215 273 344 415 493
#     4   9  21  48  80 108 169 225 263 352 417 485
#     4  11  24  47  81 118 158 217 289 334 421 506
#
# _framework density 29.235211
#
# number of rings (size 3 to 8) (size 9 to 14) (size 15 to 20)
#    1.000    1.000    1.667    0.500    0.000    6.667 
#   12.000   18.333    7.333    0.000    0.000    0.000 
#    0.000    0.000    0.000    0.000    0.000    0.000 
#
# Total GULP energy -67073.209093 kJ/mol
# GULP energy per Si atom -5589.434091 kJ/mol
# Density = 2.916867 g / cm^3
# Si number density = 29.235211 Si / 1000 Ang^3
#
#
#
# Elastic Constant Matrix: (Units=GPa)
#
#
# Indices 1 2 3 4 5 6 
#
# 1 153.1659 15.7379 67.8755 0.0000 26.0945 0.0000
# 2 15.7379 147.9020 31.3717 0.0000 -0.4378 0.0000
# 3 67.8755 31.3717 209.2546 0.0000 -2.1178 0.0000
# 4 0.0000 0.0000 0.0000 42.1773 0.0000 -14.1450
# 5 26.0945 -0.4378 -2.1178 0.0000 45.2909 0.0000
# 6 0.0000 0.0000 0.0000 -14.1450 0.0000 27.7699
#
#
#
# Elastic Compliance Matrix: (Units=1/GPa)
#
#
# Indices 1 2 3 4 5 6 
#
# 1 0.008689 -0.000342 -0.002819 0.000000 -0.005142 0.000000
# 2 -0.000342 0.006997 -0.000936 0.000000 0.000221 0.000000
# 3 -0.002819 -0.000936 0.005853 0.000000 0.001889 0.000000
# 4 0.000000 0.000000 0.000000 0.028594 0.000000 0.014565
# 5 -0.005142 0.000221 0.001889 0.000000 0.025132 0.000000
# 6 0.000000 0.000000 0.000000 0.014565 0.000000 0.043429
#
#
# Mechanical properties :
#
#
# Convention : Reuss Voigt Hill
#
# Bulk Modulus (GPa) = 74.93511 82.25474 78.59493
# Shear Modulus (GPa) = 38.07019 49.40346 43.73682
#
# Velocity S-wave (km/s) = 3.61252 4.11525 3.87205
# Velocity P-wave (km/s) = 6.56413 7.12580 6.85072
#
# Compressibility (1/GPa) = 0.01334488
#
# Stress axis : x y z
#
# Youngs Moduli (GPa) = 115.08376 142.92315 170.85872
#
# Poissons Ratio (x) = 0.04885 0.48171
# Poissons Ratio (y) = 0.03934 0.15990
# Poissons Ratio (z) = 0.32446 0.13376
#
# Static dielectric constant tensor:
#      x y z
#    x 2.457580 0.000000 -0.104320 
#    y 0.000000 2.232110 0.000000 
#    z -0.104320 0.000000 2.285240 
# 
# From -- ./inp_files/23150.got.cif
#   From: 2010.05.17/outbox.cif.g08.bks.cpg/sg5_12_cif.got.tgz:23150.got - 2010.06.03 18:56:24.
