data_PCOD9127787
_publ_section_title
;
Structure prediction by ZEFSAII (Michael W. Deem and Ramdas Pophale) SiO2 
 PCOD9127787
Probable space group: C 2
;
_chemical_formula_sum "Si O2"
_cell_formula_units_Z 20
_cell_length_a 8.549292
_cell_length_b 19.793028
_cell_length_c 5.175221
_cell_angle_alpha 90.000000
_cell_angle_beta 81.207484
_cell_angle_gamma 90.000000
_cell_volume 865.440850
_symmetry_space_group_name_H-M "C 2"
_symmetry_group_IT_number 5
_symmetry_cell_setting 'monoclinic'
loop_
_space_group_symop_operation_xyz
x,y,z
-x,y,-z
1/2+x,1/2+y,z
1/2-x,1/2+y,-z
loop_
_atom_site_type_symbol
_atom_site_label
_atom_site_fract_x
_atom_site_fract_y
_atom_site_fract_z
Si Si1 0.827091 0.200650 0.410271
Si Si2 0.603639 0.115890 0.717910
Si Si3 0.807211 0.841567 0.570475
Si Si4 0.307819 0.420860 0.069619
Si Si5 0.184933 0.068073 0.948479
O O1 0.683359 0.187971 0.647293
O O2 0.785529 0.274272 0.318820
O O3 0.798693 0.138415 0.216433
O O4 0.000000 0.196549 0.500000
O O5 0.500000 0.095304 0.500000
O O6 0.500000 0.115021 0.000000
O O7 0.753869 0.073232 0.772174
O O8 0.757990 0.867691 0.300319
O O9 0.000000 0.832161 0.500000
O O10 0.762902 0.897637 0.794519
O O11 0.250648 0.495949 0.162738
O O12 0.500000 0.420313 0.000000
O O13 0.000000 0.059950 0.000000
#
# Coordination Sequence:
#
# PCOD9127787 Si02
#       5
#     4   4   4   4   4
#     4  12  26  43  74 108 145 184 236 296 362 416
#     4  12  26  43  67 105 144 182 229 292 353 417
#     4  10  23  42  67  99 139 186 233 284 345 421
#     4   9  22  42  69  97 135 187 237 281 338 422
#     4  11  24  44  75 107 144 184 242 294 353 415
#
# _framework density 23.109608000000001
#
# number of rings (size 3 to 8) (size 9 to 14) (size 15 to 20)
#    0.000    1.200    4.000    0.600    5.600    1.600 
#    0.000    3.000    0.000    0.000    0.000    0.000 
#    0.000    0.000    0.000    0.000    0.000    0.000 
#
# Total GULP energy -55735.612663 kJ/mol
# GULP energy per Si atom -5573.561266 kJ/mol
# Density = 2.305701 g / cm^3
# Si number density = 23.109608 Si / 1000 Ang^3
#
#
#
# Elastic Constant Matrix: (Units=GPa)
#
#
# Indices 1 2 3 4 5 6 
#
# 1 85.3863 20.3761 43.5841 0.0000 33.3276 0.0000
# 2 20.3761 148.2862 39.1742 0.0000 3.1421 0.0000
# 3 43.5841 39.1742 124.7458 0.0000 18.6781 0.0000
# 4 0.0000 0.0000 0.0000 -144.3700 0.0000 -226.5562
# 5 33.3276 3.1421 18.6781 0.0000 32.7245 0.0000
# 6 0.0000 0.0000 0.0000 -226.5562 0.0000 -236.9075
#
#
#
# Elastic Compliance Matrix: (Units=1/GPa)
#
#
# Indices 1 2 3 4 5 6 
#
# 1 0.021958 -0.001477 -0.004243 0.000000 -0.019798 0.000000
# 2 -0.001477 0.007467 -0.002129 0.000000 0.002002 0.000000
# 3 -0.004243 -0.002129 0.010376 0.000000 -0.001396 0.000000
# 4 0.000000 0.000000 0.000000 0.013834 0.000000 -0.013229
# 5 -0.019798 0.002002 -0.001396 0.000000 0.051326 0.000000
# 6 0.000000 0.000000 0.000000 -0.013229 0.000000 0.008430
#
#
# Mechanical properties :
#
#
# Convention : Reuss Voigt Hill
#
# Bulk Modulus (GPa) = 41.48838 62.74302 52.11570
# Shear Modulus (GPa) = 36.46376 -52.69169 -8.11397
#
# Velocity S-wave (km/s) = 3.97654 -4.78020 -1.87582
# Velocity P-wave (km/s) = 6.25105 1.80496 4.23189
#
# Compressibility (1/GPa) = 0.02410313
#
# Stress axis : x y z
#
# Youngs Moduli (GPa) = 45.54251 133.93117 96.37230
#
# Poissons Ratio (x) = 0.19777 0.40895
# Poissons Ratio (y) = 0.06725 0.20513
# Poissons Ratio (z) = 0.19326 0.28508
#
# Static dielectric constant tensor:
#      x y z
#    x 1.958600 0.000000 -0.063220 
#    y 0.000000 1.889810 0.000000 
#    z -0.063220 0.000000 1.998330 
# 
# From -- ./inp_files/2355.got.cif
#   From: 2010.05.17/outbox.cif.g08.bks.cpg/sg5_2_cif.got.tgz:2355.got - 2010.06.03 18:56:24.
