data_PCOD9127754
_publ_section_title
;
Structure prediction by ZEFSAII (Michael W. Deem and Ramdas Pophale) SiO2 
 PCOD9127754
Probable space group: C 2
;
_chemical_formula_sum "Si O2"
_cell_formula_units_Z 32
_cell_length_a 32.652255
_cell_length_b 8.623093
_cell_length_c 5.312423
_cell_angle_alpha 90.000000
_cell_angle_beta 87.873547
_cell_angle_gamma 90.000000
_cell_volume 1494.754007
_symmetry_space_group_name_H-M "C 2"
_symmetry_group_IT_number 5
_symmetry_cell_setting 'monoclinic'
loop_
_space_group_symop_operation_xyz
x,y,z
-x,y,-z
1/2+x,1/2+y,z
1/2-x,1/2+y,-z
loop_
_atom_site_type_symbol
_atom_site_label
_atom_site_fract_x
_atom_site_fract_y
_atom_site_fract_z
Si Si1 0.048350 0.920690 0.989272
Si Si2 0.951345 0.122530 0.511773
Si Si3 0.321552 0.056447 0.754744
Si Si4 0.886215 0.668311 0.111544
Si Si5 0.767373 0.293877 0.915615
Si Si6 0.194726 0.152578 0.601908
Si Si7 0.311179 0.298901 0.361953
Si Si8 0.881868 0.353461 0.407381
O O1 0.074003 0.762760 0.972126
O O2 0.057654 0.021676 0.236376
O O3 0.000000 0.886275 0.000000
O O4 0.056710 0.021556 0.737233
O O5 0.922376 0.272483 0.503668
O O6 0.000000 0.160889 0.500000
O O7 0.352954 0.161403 0.899224
O O8 0.299254 0.156357 0.545822
O O9 0.289935 0.960793 0.934340
O O10 0.353316 0.937029 0.618951
O O11 0.859450 0.767379 0.315155
O O12 0.892078 0.492561 0.210243
O O13 0.786056 0.232963 0.647751
O O14 0.719032 0.299285 0.873074
O O15 0.780217 0.195393 0.153073
O O16 0.149162 0.218321 0.676093
O O17 0.194215 0.971620 0.537587
#
# Coordination Sequence:
#
# PCOD9127754 Si02
#       8
#     4   4   4   4   4   4   4   4
#     4  10  24  45  70 100 136 175 219 274 326 403
#     4  10  23  45  72 102 133 172 221 271 330 399
#     4  10  24  43  61  95 134 177 216 283 329 399
#     4  11  24  42  66  96 136 175 222 272 338 395
#     4  11  25  44  64  91 134 170 224 279 339 386
#     4  11  25  42  65  95 125 176 222 276 330 396
#     4  11  26  39  68  92 128 175 229 273 335 397
#     4  10  23  42  64  96 134 175 214 278 328 401
#
# _framework density 21.408206
#
# number of rings (size 3 to 8) (size 9 to 14) (size 15 to 20)
#    0.000    1.500    1.250    1.500   12.250    1.000 
#    2.250    0.000    0.000    0.000    0.000    0.000 
#    0.000    0.000    0.000    0.000    0.000    0.000 
#
# Total GULP energy -89354.878621 kJ/mol
# GULP energy per Si atom -5584.679914 kJ/mol
# Density = 2.135948 g / cm^3
# Si number density = 21.408206 Si / 1000 Ang^3
#
#
#
# Elastic Constant Matrix: (Units=GPa)
#
#
# Indices 1 2 3 4 5 6 
#
# 1 105.1710 56.4478 41.1566 0.0000 4.8179 0.0000
# 2 56.4478 79.1081 23.3457 0.0000 -4.7967 0.0000
# 3 41.1566 23.3457 98.7487 0.0000 1.6054 0.0000
# 4 0.0000 0.0000 0.0000 22.4116 0.0000 13.2202
# 5 4.8179 -4.7967 1.6054 0.0000 14.7260 0.0000
# 6 0.0000 0.0000 0.0000 13.2202 0.0000 39.1889
#
#
#
# Elastic Compliance Matrix: (Units=1/GPa)
#
#
# Indices 1 2 3 4 5 6 
#
# 1 0.018348 -0.012317 -0.004580 0.000000 -0.009516 0.000000
# 2 -0.012317 0.022203 -0.000299 0.000000 0.011295 0.000000
# 3 -0.004580 -0.000299 0.012105 0.000000 0.000081 0.000000
# 4 0.000000 0.000000 0.000000 0.055705 0.000000 -0.018792
# 5 -0.009516 0.011295 0.000081 0.000000 0.074690 0.000000
# 6 0.000000 0.000000 0.000000 -0.018792 0.000000 0.031857
#
#
# Mechanical properties :
#
#
# Convention : Reuss Voigt Hill
#
# Bulk Modulus (GPa) = 54.75731 58.32533 56.54132
# Shear Modulus (GPa) = 19.57803 26.07048 22.82425
#
# Velocity S-wave (km/s) = 3.02737 3.49346 3.26873
# Velocity P-wave (km/s) = 6.15249 6.60120 6.38079
#
# Compressibility (1/GPa) = 0.01826240
#
# Stress axis : x y z
#
# Youngs Moduli (GPa) = 54.50313 45.03881 82.61000
#
# Poissons Ratio (x) = 0.55475 0.37837
# Poissons Ratio (y) = 0.67133 0.02472
# Poissons Ratio (z) = 0.24964 0.01347
#
# Static dielectric constant tensor:
#      x y z
#    x 1.764020 0.000000 -0.008470 
#    y 0.000000 1.806250 0.000000 
#    z -0.008470 0.000000 1.856630 
# 
# From -- ./inp_files/11235.got.cif
#   From: 2010.05.17/outbox.cif.g08.bks.cpg/sg5_6_cif.got.tgz:11235.got - 2010.06.03 18:56:24.
