data_PCOD9127039
_publ_section_title
;
Structure prediction by ZEFSAII (Michael W. Deem and Ramdas Pophale) SiO2 
 PCOD9127039
Probable space group: C 2
;
_chemical_formula_sum "Si O2"
_cell_formula_units_Z 20
_cell_length_a 23.178683
_cell_length_b 5.394916
_cell_length_c 6.976451
_cell_angle_alpha 90.000000
_cell_angle_beta 72.227462
_cell_angle_gamma 90.000000
_cell_volume 830.750748
_symmetry_space_group_name_H-M "C 2"
_symmetry_group_IT_number 5
_symmetry_cell_setting 'monoclinic'
loop_
_space_group_symop_operation_xyz
x,y,z
-x,y,-z
1/2+x,1/2+y,z
1/2-x,1/2+y,-z
loop_
_atom_site_type_symbol
_atom_site_label
_atom_site_fract_x
_atom_site_fract_y
_atom_site_fract_z
Si Si1 0.568962 0.425450 0.392732
Si Si2 0.935994 0.608803 0.961425
Si Si3 0.261632 0.029438 0.737274
Si Si4 0.109404 0.423576 0.346276
Si Si5 0.306243 0.030666 0.249453
O O1 0.500000 0.490322 0.500000
O O2 0.576919 0.349464 0.160968
O O3 0.610494 0.648019 0.426342
O O4 0.583021 0.162352 0.481178
O O5 0.934975 0.403163 0.792651
O O6 0.878169 0.545552 0.148296
O O7 0.000000 0.625366 0.000000
O O8 0.287617 0.028407 0.492786
O O9 0.223941 0.279525 0.801426
O O10 0.324306 0.006641 0.788946
O O11 0.222778 0.782662 0.803109
#
# Coordination Sequence:
#
# PCOD9127039 Si02
#       5
#     4   4   4   4   4
#     4  10  23  41  61  95 127 173 215 256 321 379
#     4  10  26  42  64  97 134 171 212 271 317 384
#     4  10  22  43  67  96 126 170 215 264 321 388
#     4  10  23  41  66  94 122 172 214 268 318 374
#     4  10  23  41  66  97 130 166 213 266 324 377
#
# _framework density 24.074607
#
# number of rings (size 3 to 8) (size 9 to 14) (size 15 to 20)
#    1.200    0.800    0.000    1.800    5.600    2.400 
#    0.000    0.000    0.000    0.000    0.000    0.000 
#    0.000    0.000    0.000    0.000    0.000    0.000 
#
# Total GULP energy -55800.445620 kJ/mol
# GULP energy per Si atom -5580.044562 kJ/mol
# Density = 2.401981 g / cm^3
# Si number density = 24.074607 Si / 1000 Ang^3
#
#
#
# Elastic Constant Matrix: (Units=GPa)
#
#
# Indices 1 2 3 4 5 6 
#
# 1 138.3575 74.8058 23.9400 0.0000 -23.8668 0.0000
# 2 74.8058 191.5498 55.3824 0.0000 -22.5331 0.0000
# 3 23.9400 55.3824 71.5498 0.0000 -25.8799 0.0000
# 4 0.0000 0.0000 0.0000 17.1141 0.0000 -15.7031
# 5 -23.8668 -22.5331 -25.8799 0.0000 45.8530 0.0000
# 6 0.0000 0.0000 0.0000 -15.7031 0.0000 25.0567
#
#
#
# Elastic Compliance Matrix: (Units=1/GPa)
#
#
# Indices 1 2 3 4 5 6 
#
# 1 0.009665 -0.003594 0.000916 0.000000 0.003781 0.000000
# 2 -0.003594 0.008070 -0.005386 0.000000 -0.000945 0.000000
# 3 0.000916 -0.005386 0.021428 0.000000 0.009925 0.000000
# 4 0.000000 0.000000 0.000000 0.137495 0.000000 0.086168
# 5 0.003781 -0.000945 0.009925 0.000000 0.028914 0.000000
# 6 0.000000 0.000000 0.000000 0.086168 0.000000 0.093911
#
#
# Mechanical properties :
#
#
# Convention : Reuss Voigt Hill
#
# Bulk Modulus (GPa) = 43.41163 78.85705 61.13434
# Shear Modulus (GPa) = 15.46596 34.09335 24.77966
#
# Velocity S-wave (km/s) = 2.53735 3.76726 3.21173
# Velocity P-wave (km/s) = 5.16289 7.19371 6.26119
#
# Compressibility (1/GPa) = 0.02303530
#
# Stress axis : x y z
#
# Youngs Moduli (GPa) = 103.46784 123.90990 46.66719
#
# Poissons Ratio (x) = 0.44539 -0.04276
# Poissons Ratio (y) = 0.37191 0.25134
# Poissons Ratio (z) = -0.09480 0.66736
#
# Static dielectric constant tensor:
#      x y z
#    x 1.970760 0.000000 0.067430 
#    y 0.000000 1.969250 0.000000 
#    z 0.067430 0.000000 1.954050 
# 
# From -- ./inp_files/28194.got.cif
#   From: 2010.05.17/outbox.cif.g08.bks.cpg/sg5_15_cif.got.tgz:28194.got - 2010.06.03 18:56:24.
