data_PCOD9127949
_publ_section_title
;
Structure prediction by ZEFSAII (Michael W. Deem and Ramdas Pophale) SiO2 
 PCOD9127949
Probable space group: C 2
;
_chemical_formula_sum "Si O2"
_cell_formula_units_Z 14
_cell_length_a 6.608678
_cell_length_b 18.141829
_cell_length_c 5.286986
_cell_angle_alpha 90.000000
_cell_angle_beta 94.002695
_cell_angle_gamma 90.000000
_cell_volume 632.329120
_symmetry_space_group_name_H-M "C 2"
_symmetry_group_IT_number 5
_symmetry_cell_setting 'monoclinic'
loop_
_space_group_symop_operation_xyz
x,y,z
-x,y,-z
1/2+x,1/2+y,z
1/2-x,1/2+y,-z
loop_
_atom_site_type_symbol
_atom_site_label
_atom_site_fract_x
_atom_site_fract_y
_atom_site_fract_z
Si Si1 0.500000 0.950320 0.500000
Si Si2 0.375071 0.172856 0.240864
Si Si3 0.874017 0.035268 0.745702
Si Si4 0.376504 0.808194 0.731244
O O1 0.363704 0.894132 0.656636
O O2 0.656079 0.996062 0.684218
O O3 0.500000 0.152625 0.500000
O O4 0.177544 0.121571 0.220708
O O5 0.320520 0.258986 0.253321
O O6 0.500000 0.157825 0.000000
O O7 0.000000 0.025687 0.500000
O O8 0.000000 0.008744 0.000000
O O9 0.500000 0.776599 0.500000
O O10 0.500000 0.801782 0.000000
#
# Coordination Sequence:
#
# PCOD9127949 Si02
#       4
#     2   4   4   4
#     4  10  28  48  74 104 158 178 238 306 352 434
#     4  12  24  44  75 105 142 187 243 298 353 420
#     4  12  27  46  77 107 143 193 244 290 366 423
#     4  10  23  44  68  97 147 181 229 294 357 409
#
# _framework density 22.140371999999999
#
# number of rings (size 3 to 8) (size 9 to 14) (size 15 to 20)
#    0.857    0.000    1.429    5.143    4.000    1.143 
#    0.000    0.000    0.000    0.000    0.000    0.000 
#    0.000    0.000    0.000    0.000    0.000    0.000 
#
# Total GULP energy -39107.089357 kJ/mol
# GULP energy per Si atom -5586.727051 kJ/mol
# Density = 2.208998 g / cm^3
# Si number density = 22.140372 Si / 1000 Ang^3
#
#
#
# Elastic Constant Matrix: (Units=GPa)
#
#
# Indices 1 2 3 4 5 6 
#
# 1 61.5853 35.2317 53.9869 0.0000 12.9472 0.0000
# 2 35.2317 95.5021 31.3107 0.0000 13.2490 0.0000
# 3 53.9869 31.3107 203.6367 0.0000 9.5882 0.0000
# 4 0.0000 0.0000 0.0000-2904.0845 0.0000-1001.2602
# 5 12.9472 13.2490 9.5882 0.0000 49.9510 0.0000
# 6 0.0000 0.0000 0.0000-1001.2602 0.0000 -298.4764
#
#
#
# Elastic Compliance Matrix: (Units=1/GPa)
#
#
# Indices 1 2 3 4 5 6 
#
# 1 0.026123 -0.007269 -0.005631 0.000000 -0.003762 0.000000
# 2 -0.007269 0.013401 -0.000055 0.000000 -0.001660 0.000000
# 3 -0.005631 -0.000055 0.006400 0.000000 0.000246 0.000000
# 4 0.000000 0.000000 0.000000 0.002199 0.000000 -0.007377
# 5 -0.003762 -0.001660 0.000246 0.000000 0.021388 0.000000
# 6 0.000000 0.000000 0.000000 -0.007377 0.000000 0.021397
#
#
# Mechanical properties :
#
#
# Convention : Reuss Voigt Hill
#
# Bulk Modulus (GPa) = 49.96412 66.86473 58.41443
# Shear Modulus (GPa) = 40.48891 -614.50901 -287.01005
#
# Velocity S-wave (km/s) = 4.28101 -16.67795 -11.39796
# Velocity P-wave (km/s) = 6.85945 18.45551 12.11515
#
# Compressibility (1/GPa) = 0.02001436
#
# Stress axis : x y z
#
# Youngs Moduli (GPa) = 38.28028 74.62145 156.23940
#
# Poissons Ratio (x) = 0.54243 0.87975
# Poissons Ratio (y) = 0.27826 0.00863
# Poissons Ratio (z) = 0.21555 0.00412
#
# Static dielectric constant tensor:
#      x y z
#    x 1.911260 0.000000 0.467500 
#    y 0.000000 1.822650 0.000000 
#    z 0.467500 0.000000 3.431050 
# 
# From -- ./inp_files/391.got.cif
#   From: 2010.05.17/outbox.cif.g08.bks.cpg/sg5_1_cif.got.tgz:391.got - 2010.06.03 18:56:24.
