data_PCOD9127942
_publ_section_title
;
Structure prediction by ZEFSAII (Michael W. Deem and Ramdas Pophale) SiO2 
 PCOD9127942
Probable space group: C 2
;
_chemical_formula_sum "Si O2"
_cell_formula_units_Z 28
_cell_length_a 10.364114
_cell_length_b 9.947571
_cell_length_c 14.390299
_cell_angle_alpha 90.000000
_cell_angle_beta 120.509141
_cell_angle_gamma 90.000000
_cell_volume 1278.199414
_symmetry_space_group_name_H-M "C 2"
_symmetry_group_IT_number 5
_symmetry_cell_setting 'monoclinic'
loop_
_space_group_symop_operation_xyz
x,y,z
-x,y,-z
1/2+x,1/2+y,z
1/2-x,1/2+y,-z
loop_
_atom_site_type_symbol
_atom_site_label
_atom_site_fract_x
_atom_site_fract_y
_atom_site_fract_z
Si Si1 0.361116 0.126180 0.580477
Si Si2 0.607001 0.211273 0.795890
Si Si3 0.573271 0.495652 0.816839
Si Si4 0.404767 0.604984 0.380852
Si Si5 0.082220 0.264984 0.180396
Si Si6 0.113944 0.499636 0.962890
Si Si7 0.142202 0.324867 0.409978
O O1 0.526997 0.160923 0.673135
O O2 0.256298 0.133114 0.634544
O O3 0.285690 0.233605 0.485468
O O4 0.349589 0.972405 0.543121
O O5 0.519025 0.342403 0.800707
O O6 0.774495 0.258839 0.833276
O O7 0.608703 0.094438 0.871648
O O8 0.602340 0.526334 0.718265
O O9 0.465840 0.613085 0.813578
O O10 0.722482 0.502045 0.932997
O O11 0.500000 0.536879 0.500000
O O12 0.499225 0.739995 0.393279
O O13 0.125812 0.335642 0.293321
O O14 0.947680 0.352541 0.088530
O O15 0.000000 0.550723 0.000000
#
# Coordination Sequence:
#
# PCOD9127942 Si02
#       7
#     4   4   4   4   4   4   4
#     4  11  23  42  70 102 139 183 235 279 349 406
#     4  12  26  45  69 104 135 182 232 285 346 415
#     4  11  24  42  73 101 131 189 225 279 351 402
#     4   9  21  43  70  94 143 179 222 284 341 397
#     4  11  25  49  67 101 147 175 230 294 338 408
#     4  12  24  48  71  95 141 177 231 286 344 405
#     4  10  23  44  68 101 141 184 226 292 340 409
#
# _framework density 21.905816999999999
#
# number of rings (size 3 to 8) (size 9 to 14) (size 15 to 20)
#    0.000    1.143    2.857    2.571    6.000    1.714 
#   10.286    0.000    0.000    0.000    0.000    0.000 
#    0.000    0.000    0.000    0.000    0.000    0.000 
#
# Total GULP energy -78306.966293 kJ/mol
# GULP energy per Si atom -5593.354735 kJ/mol
# Density = 2.185596 g / cm^3
# Si number density = 21.905817 Si / 1000 Ang^3
#
#
#
# Elastic Constant Matrix: (Units=GPa)
#
#
# Indices 1 2 3 4 5 6 
#
# 1 35.7399 9.2603 0.6369 0.0000 -6.2638 0.0000
# 2 9.2603 133.3310 42.3793 0.0000 12.1362 0.0000
# 3 0.6369 42.3793 117.4430 0.0000 12.4276 0.0000
# 4 0.0000 0.0000 0.0000 41.2055 0.0000 5.5893
# 5 -6.2638 12.1362 12.4276 0.0000 27.3691 0.0000
# 6 0.0000 0.0000 0.0000 5.5893 0.0000 24.7036
#
#
#
# Elastic Compliance Matrix: (Units=1/GPa)
#
#
# Indices 1 2 3 4 5 6 
#
# 1 0.030144 -0.002835 -0.000004 0.000000 0.008158 0.000000
# 2 -0.002835 0.008903 -0.002848 0.000000 -0.003304 0.000000
# 3 -0.000004 -0.002848 0.009884 0.000000 -0.003226 0.000000
# 4 0.000000 0.000000 0.000000 0.025037 0.000000 -0.005665
# 5 0.008158 -0.003304 -0.003226 0.000000 0.041334 0.000000
# 6 0.000000 0.000000 0.000000 -0.005665 0.000000 0.041762
#
#
# Mechanical properties :
#
#
# Convention : Reuss Voigt Hill
#
# Bulk Modulus (GPa) = 26.62535 43.45186 35.03860
# Shear Modulus (GPa) = 27.63107 34.27148 30.95128
#
# Velocity S-wave (km/s) = 3.55541 3.95966 3.76297
# Velocity P-wave (km/s) = 5.38846 6.38624 5.90845
#
# Compressibility (1/GPa) = 0.03755820
#
# Stress axis : x y z
#
# Youngs Moduli (GPa) = 33.17382 112.32360 101.17630
#
# Poissons Ratio (x) = 0.31844 0.00037
# Poissons Ratio (y) = 0.09405 0.28811
# Poissons Ratio (z) = 0.00012 0.31986
#
# Static dielectric constant tensor:
#      x y z
#    x 1.785540 0.000000 0.005320 
#    y 0.000000 1.797090 0.000000 
#    z 0.005320 0.000000 1.807940 
# 
# From -- ./inp_files/52313.got.cif
#   From: 2010.05.17/outbox.cif.g08.bks.cpg/sg5_27_cif.got.tgz:52313.got - 2010.06.03 18:56:24.
