data_PCOD9127393
_publ_section_title
;
Structure prediction by ZEFSAII (Michael W. Deem and Ramdas Pophale) SiO2 
 PCOD9127393
Probable space group: C 2
;
_chemical_formula_sum "Si O2"
_cell_formula_units_Z 28
_cell_length_a 13.779755
_cell_length_b 5.174026
_cell_length_c 18.095948
_cell_angle_alpha 90.000000
_cell_angle_beta 125.405731
_cell_angle_gamma 90.000000
_cell_volume 1051.589571
_symmetry_space_group_name_H-M "C 2"
_symmetry_group_IT_number 5
_symmetry_cell_setting 'monoclinic'
loop_
_space_group_symop_operation_xyz
x,y,z
-x,y,-z
1/2+x,1/2+y,z
1/2-x,1/2+y,-z
loop_
_atom_site_type_symbol
_atom_site_label
_atom_site_fract_x
_atom_site_fract_y
_atom_site_fract_z
Si Si1 0.568865 0.253700 0.647103
Si Si2 0.131829 0.373178 0.787387
Si Si3 0.402992 0.635697 0.602107
Si Si4 0.703061 0.854511 0.311769
Si Si5 0.000000 0.999131 0.000000
Si Si6 0.634391 0.322368 0.195054
Si Si7 0.259018 0.635449 0.964782
Si Si8 0.500000 0.854275 0.500000
O O1 0.434873 0.335923 0.605975
O O2 0.662785 0.443912 0.650714
O O3 0.622852 0.154303 0.745747
O O4 0.573082 0.031256 0.588213
O O5 0.251167 0.255224 0.805399
O O6 0.157638 0.452238 0.881915
O O7 0.017585 0.225732 0.704082
O O8 0.300992 0.761309 0.605193
O O9 0.415311 0.721700 0.522939
O O10 0.659617 0.599106 0.246436
O O11 0.623626 0.097622 0.251325
O O12 0.031348 0.843353 0.088543
O O13 0.121994 0.148011 0.033461
O O14 0.215275 0.927149 0.958285
#
# Coordination Sequence:
#
# PCOD9127393 Si02
#       8
#     4   4   4   4   2   4   4   2
#     4  10  22  46  67  94 140 173 221 286 341 418
#     4   9  22  41  66  92 136 178 224 279 346 396
#     4  11  23  42  72  94 133 176 221 282 341 413
#     4  11  25  41  71 101 131 180 232 269 339 420
#     4  10  26  44  68  98 150 182 230 306 336 392
#     4  10  23  44  64 100 136 181 231 278 340 401
#     4  11  27  42  66 103 138 186 239 289 347 412
#     4  10  24  46  64 102 128 172 220 276 360 408
#
# _framework density 26.626356000000001
#
# number of rings (size 3 to 8) (size 9 to 14) (size 15 to 20)
#    0.000    1.714    1.429    0.429   10.000    4.571 
#    5.143    0.000    0.000    0.000    0.000    0.000 
#    0.000    0.000    0.000    0.000    0.000    0.000 
#
# Total GULP energy -78072.834422 kJ/mol
# GULP energy per Si atom -5576.631030 kJ/mol
# Density = 2.656575 g / cm^3
# Si number density = 26.626356 Si / 1000 Ang^3
#
#
#
# Elastic Constant Matrix: (Units=GPa)
#
#
# Indices 1 2 3 4 5 6 
#
# 1 104.6502 12.5147 -8.3484 0.0000 -10.1522 0.0000
# 2 12.5147 113.2318 17.7289 0.0000 -14.7768 0.0000
# 3 -8.3484 17.7289 68.9292 0.0000 -11.8837 0.0000
# 4 0.0000 0.0000 0.0000 13.5388 0.0000 -2.7211
# 5 -10.1522 -14.7768 -11.8837 0.0000 40.0874 0.0000
# 6 0.0000 0.0000 0.0000 -2.7211 0.0000 27.4806
#
#
#
# Elastic Compliance Matrix: (Units=1/GPa)
#
#
# Indices 1 2 3 4 5 6 
#
# 1 0.010108 -0.001067 0.001973 0.000000 0.002751 0.000000
# 2 -0.001067 0.009631 -0.002151 0.000000 0.002642 0.000000
# 3 0.001973 -0.002151 0.016071 0.000000 0.004471 0.000000
# 4 0.000000 0.000000 0.000000 0.075362 0.000000 0.007462
# 5 0.002751 0.002642 0.004471 0.000000 0.027942 0.000000
# 6 0.000000 0.000000 0.000000 0.007462 0.000000 0.037128
#
#
# Mechanical properties :
#
#
# Convention : Reuss Voigt Hill
#
# Bulk Modulus (GPa) = 30.01253 36.73351 33.37302
# Shear Modulus (GPa) = 26.33843 33.88243 30.11043
#
# Velocity S-wave (km/s) = 3.14855 3.57110 3.36646
# Velocity P-wave (km/s) = 4.95116 5.55244 5.26040
#
# Compressibility (1/GPa) = 0.03331942
#
# Stress axis : x y z
#
# Youngs Moduli (GPa) = 98.93609 103.83203 62.22547
#
# Poissons Ratio (x) = 0.11079 -0.12277
# Poissons Ratio (y) = 0.10556 0.13383
# Poissons Ratio (z) = -0.19520 0.22332
#
# Static dielectric constant tensor:
#      x y z
#    x 2.212610 0.000000 -0.022190 
#    y 0.000000 2.183040 0.000000 
#    z -0.022190 0.000000 2.205700 
# 
# From -- ./inp_files/61068.got.cif
#   From: 2010.05.17/outbox.cif.g08.bks.cpg/sg5_31_cif.got.tgz:61068.got - 2010.06.03 18:56:24.
