data_PCOD9127677
_publ_section_title
;
Structure prediction by ZEFSAII (Michael W. Deem and Ramdas Pophale) SiO2 
 PCOD9127677
Probable space group: C 2
;
_chemical_formula_sum "Si O2"
_cell_formula_units_Z 26
_cell_length_a 11.721646
_cell_length_b 15.511702
_cell_length_c 8.000851
_cell_angle_alpha 90.000000
_cell_angle_beta 119.803079
_cell_angle_gamma 90.000000
_cell_volume 1262.330938
_symmetry_space_group_name_H-M "C 2"
_symmetry_group_IT_number 5
_symmetry_cell_setting 'monoclinic'
loop_
_space_group_symop_operation_xyz
x,y,z
-x,y,-z
1/2+x,1/2+y,z
1/2-x,1/2+y,-z
loop_
_atom_site_type_symbol
_atom_site_label
_atom_site_fract_x
_atom_site_fract_y
_atom_site_fract_z
Si Si1 0.514488 0.756080 0.696766
Si Si2 0.378496 0.915646 0.733820
Si Si3 0.373757 0.630300 0.787584
Si Si4 0.651500 0.985138 0.942293
Si Si5 0.000000 0.793456 0.000000
Si Si6 0.215241 0.683159 0.969199
Si Si7 0.799036 0.932343 0.719421
O O1 0.500000 0.790742 0.500000
O O2 0.460431 0.827652 0.783098
O O3 0.414134 0.676591 0.646832
O O4 0.660420 0.726089 0.847263
O O5 0.314787 0.931135 0.867227
O O6 0.281918 0.917339 0.507987
O O7 0.493685 0.987295 0.804511
O O8 0.356545 0.528982 0.750242
O O9 0.500000 0.642085 0.000000
O O10 0.253844 0.675962 0.799790
O O11 0.703412 0.081764 0.003682
O O12 0.709685 0.939769 0.820849
O O13 0.912384 0.734474 0.060670
O O14 0.904354 0.857579 0.827760
#
# Coordination Sequence:
#
# PCOD9127677 Si02
#       7
#     4   4   4   4   2   4   4
#     4  11  23  40  68  97 124 170 225 269 318 386
#     4  11  23  40  69  98 124 172 225 261 319 388
#     4   9  21  42  64  90 126 172 213 263 325 380
#     4  10  23  42  67  91 131 171 215 265 321 386
#     4  12  22  38  68  94 134 164 208 276 324 380
#     4  10  23  41  65  93 131 171 207 265 335 378
#     4  11  23  42  65  94 132 171 214 267 325 383
#
# _framework density 20.596819
#
# number of rings (size 3 to 8) (size 9 to 14) (size 15 to 20)
#    0.000    1.538    0.769    4.154   10.769    0.000 
#    2.769    0.769    3.385    0.000    0.000    0.000 
#    0.000    0.000    0.000    0.000    0.000    0.000 
#
# Total GULP energy -72598.795372 kJ/mol
# GULP energy per Si atom -5584.522721 kJ/mol
# Density = 2.054994 g / cm^3
# Si number density = 20.596819 Si / 1000 Ang^3
#
#
#
# Elastic Constant Matrix: (Units=GPa)
#
#
# Indices 1 2 3 4 5 6 
#
# 1 90.1661 33.0195 37.8267 0.0000 -5.3300 0.0000
# 2 33.0195 81.5845 40.2991 0.0000 2.4601 0.0000
# 3 37.8267 40.2991 129.6452 0.0000 -6.4436 0.0000
# 4 0.0000 0.0000 0.0000 18.8611 0.0000 4.3733
# 5 -5.3300 2.4601 -6.4436 0.0000 25.3271 0.0000
# 6 0.0000 0.0000 0.0000 4.3733 0.0000 46.3064
#
#
#
# Elastic Compliance Matrix: (Units=1/GPa)
#
#
# Indices 1 2 3 4 5 6 
#
# 1 0.013958 -0.004474 -0.002547 0.000000 0.002724 0.000000
# 2 -0.004474 0.016083 -0.003867 0.000000 -0.003488 0.000000
# 3 -0.002547 -0.003867 0.009774 0.000000 0.002326 0.000000
# 4 0.000000 0.000000 0.000000 0.054206 0.000000 -0.005119
# 5 0.002724 -0.003488 0.002326 0.000000 0.040987 0.000000
# 6 0.000000 0.000000 0.000000 -0.005119 0.000000 0.022079
#
#
# Mechanical properties :
#
#
# Convention : Reuss Voigt Hill
#
# Bulk Modulus (GPa) = 55.43082 58.18738 56.80910
# Shear Modulus (GPa) = 27.04503 30.78229 28.91366
#
# Velocity S-wave (km/s) = 3.62756 3.87009 3.75079
# Velocity P-wave (km/s) = 6.67206 6.94854 6.81170
#
# Compressibility (1/GPa) = 0.01804051
#
# Stress axis : x y z
#
# Youngs Moduli (GPa) = 71.64195 62.17631 102.31024
#
# Poissons Ratio (x) = 0.27815 0.26055
# Poissons Ratio (y) = 0.32049 0.39568
# Poissons Ratio (z) = 0.18245 0.24046
#
# Static dielectric constant tensor:
#      x y z
#    x 1.797870 0.000000 -0.010870 
#    y 0.000000 1.772310 0.000000 
#    z -0.010870 0.000000 1.703800 
# 
# From -- ./inp_files/20460.got.cif
#   From: 2010.05.17/outbox.cif.g08.bks.cpg/sg5_11_cif.got.tgz:20460.got - 2010.06.03 18:56:24.
