data_PCOD9127760
_publ_section_title
;
Structure prediction by ZEFSAII (Michael W. Deem and Ramdas Pophale) SiO2 
 PCOD9127760
Probable space group: C 2
;
_chemical_formula_sum "Si O2"
_cell_formula_units_Z 14
_cell_length_a 7.083446
_cell_length_b 8.317256
_cell_length_c 15.115185
_cell_angle_alpha 90.000000
_cell_angle_beta 142.018668
_cell_angle_gamma 90.000000
_cell_volume 548.023180
_symmetry_space_group_name_H-M "C 2"
_symmetry_group_IT_number 5
_symmetry_cell_setting 'monoclinic'
loop_
_space_group_symop_operation_xyz
x,y,z
-x,y,-z
1/2+x,1/2+y,z
1/2-x,1/2+y,-z
loop_
_atom_site_type_symbol
_atom_site_label
_atom_site_fract_x
_atom_site_fract_y
_atom_site_fract_z
Si Si1 0.000000 0.852500 0.000000
Si Si2 0.651331 0.170424 0.881439
Si Si3 0.534595 0.307947 0.655587
Si Si4 0.827844 0.134345 0.619452
O O1 0.003414 0.745032 0.089175
O O2 0.274937 0.981640 0.089984
O O3 0.484859 0.225898 0.731048
O O4 0.000000 0.242260 0.000000
O O5 0.820167 0.218276 0.712157
O O6 0.257230 0.267719 0.484866
O O7 0.562986 0.498153 0.680137
O O8 0.500000 0.039343 0.500000
#
# Coordination Sequence:
#
# PCOD9127760 Si02
#       4
#     2   4   4   4
#     4  10  24  40  64  94 126 162 220 232 336 344
#     4  10  23  42  65  95 125 170 201 270 297 385
#     4   9  18  43  60  90 125 155 210 245 317 355
#     4   8  20  36  61  92 113 166 193 258 298 374
#
# _framework density 25.546364000000001
#
# number of rings (size 3 to 8) (size 9 to 14) (size 15 to 20)
#    2.571    0.000    0.000    1.714    2.000    0.000 
#   15.429    0.000    0.000    0.000    0.000    0.000 
#    0.000    0.000    0.000    0.000    0.000    0.000 
#
# Total GULP energy -39051.054455 kJ/mol
# GULP energy per Si atom -5578.722065 kJ/mol
# Density = 2.548822 g / cm^3
# Si number density = 25.546364 Si / 1000 Ang^3
#
#
#
# Elastic Constant Matrix: (Units=GPa)
#
#
# Indices 1 2 3 4 5 6 
#
# 1 198.3239 108.5693 63.3448 0.0007 -41.1036 0.0000
# 2 108.5693 207.5768 40.8542 0.0001 -38.9691 0.0000
# 3 63.3448 40.8542 41.3086 0.0038 -31.4736 0.0014
# 4 0.0007 0.0001 0.0038 45.0575 0.0013 -7.1559
# 5 -41.1036 -38.9691 -31.4736 0.0013 77.5497 0.0002
# 6 0.0000 0.0000 0.0014 -7.1559 0.0002 65.0969
#
#
#
# Elastic Compliance Matrix: (Units=1/GPa)
#
#
# Indices 1 2 3 4 5 6 
#
# 1 0.011502 -0.003254 -0.015953 0.000001 -0.002014 0.000000
# 2 -0.003254 0.006944 -0.000772 0.000000 0.001451 0.000000
# 3 -0.015953 -0.000772 0.061810 -0.000006 0.016242 -0.000002
# 4 0.000001 0.000000 -0.000006 0.022588 -0.000002 0.002483
# 5 -0.002014 0.001451 0.016242 -0.000002 0.019149 -0.000001
# 6 0.000000 0.000000 -0.000002 0.002483 -0.000001 0.015635
#
#
# Mechanical properties :
#
#
# Convention : Reuss Voigt Hill
#
# Bulk Modulus (GPa) = 24.81551 96.97177 60.89364
# Shear Modulus (GPa) = 26.17547 53.17022 39.67285
#
# Velocity S-wave (km/s) = 3.20445 4.56710 3.94505
# Velocity P-wave (km/s) = 4.84008 8.11497 6.68128
#
# Compressibility (1/GPa) = 0.04029738
#
# Stress axis : x y z
#
# Youngs Moduli (GPa) = 86.94289 144.01358 16.17855
#
# Poissons Ratio (x) = 0.46861 0.25810
# Poissons Ratio (y) = 0.28291 0.01249
# Poissons Ratio (z) = 1.38704 0.11115
#
# Static dielectric constant tensor:
#      x y z
#    x 2.071140 0.000000 0.171600 
#    y 0.000000 1.956950 0.000000 
#    z 0.171600 0.000000 2.091170 
# 
# From -- ./inp_files/32750.got.cif
#   From: 2010.05.17/outbox.cif.g08.bks.cpg/sg5_17_cif.got.tgz:32750.got - 2010.06.03 18:56:24.
