data_PCOD9127520
_publ_section_title
;
Structure prediction by ZEFSAII (Michael W. Deem and Ramdas Pophale) SiO2 
 PCOD9127520
Probable space group: C 2
;
_chemical_formula_sum "Si O2"
_cell_formula_units_Z 28
_cell_length_a 8.410909
_cell_length_b 20.362334
_cell_length_c 13.776815
_cell_angle_alpha 90.000000
_cell_angle_beta 147.747911
_cell_angle_gamma 90.000000
_cell_volume 1259.134280
_symmetry_space_group_name_H-M "C 2"
_symmetry_group_IT_number 5
_symmetry_cell_setting 'monoclinic'
loop_
_space_group_symop_operation_xyz
x,y,z
-x,y,-z
1/2+x,1/2+y,z
1/2-x,1/2+y,-z
loop_
_atom_site_type_symbol
_atom_site_label
_atom_site_fract_x
_atom_site_fract_y
_atom_site_fract_z
Si Si1 0.500000 0.633900 0.000000
Si Si2 0.149509 0.439799 0.675004
Si Si3 0.268734 0.321214 0.463862
Si Si4 0.000000 0.135478 0.500000
Si Si5 0.696711 0.785379 0.902915
Si Si6 0.471239 0.037027 0.212750
Si Si7 0.468754 0.229760 0.236862
Si Si8 0.645776 0.919812 0.974173
O O1 0.292665 0.586248 0.956295
O O2 0.249698 0.678841 0.820759
O O3 0.136326 0.491869 0.754549
O O4 0.497018 0.426432 0.834763
O O5 0.000000 0.465782 0.500000
O O6 0.953588 0.375882 0.605205
O O7 0.500000 0.345629 0.500000
O O8 0.434355 0.286792 0.639954
O O9 0.071459 0.265475 0.306421
O O10 0.746490 0.080042 0.392948
O O11 0.752288 0.190549 0.339966
O O12 0.773368 0.753754 0.045260
O O13 0.608552 0.860130 0.881339
O O14 0.000000 0.783469 0.000000
O O15 0.514609 0.985286 0.148491
O O16 0.500000 0.901708 0.000000
#
# Coordination Sequence:
#
# PCOD9127520 Si02
#       8
#     2   4   4   2   4   4   4   4
#     4  10  22  48  74  92 146 204 228 288 352 418
#     4  12  26  43  72 108 146 178 233 307 363 426
#     4  12  27  43  73 116 146 185 237 298 371 427
#     4  10  26  44  76  96 144 202 232 290 346 428
#     4  12  24  44  73 106 147 186 230 302 369 419
#     4  11  23  49  72 101 142 188 240 287 359 427
#     4  11  25  48  71 107 146 190 246 289 352 431
#     4  12  26  44  72 108 141 183 235 297 373 426
#
# _framework density 22.237503
#
# number of rings (size 3 to 8) (size 9 to 14) (size 15 to 20)
#    0.000    0.571    4.286    2.571    9.000    0.000 
#    0.000   14.286    0.000    0.000    0.000    0.000 
#    0.000    0.000    0.000    0.000    0.000    0.000 
#
# Total GULP energy -77988.519699 kJ/mol
# GULP energy per Si atom -5570.608550 kJ/mol
# Density = 2.218689 g / cm^3
# Si number density = 22.237503 Si / 1000 Ang^3
#
#
#
# Elastic Constant Matrix: (Units=GPa)
#
#
# Indices 1 2 3 4 5 6 
#
# 1 81.2101 7.7203 29.0638 0.0000 11.0493 -0.0005
# 2 7.7203 74.5393 26.1038 0.0000 9.4587 -0.0003
# 3 29.0638 26.1038 115.5241 -0.0014 9.4547 -0.0040
# 4 0.0000 0.0000 -0.0014 24.5781 0.0000 12.8620
# 5 11.0493 9.4587 9.4547 0.0000 39.8215 -0.0012
# 6 -0.0005 -0.0003 -0.0040 12.8620 -0.0012 9.2570
#
#
#
# Elastic Compliance Matrix: (Units=1/GPa)
#
#
# Indices 1 2 3 4 5 6 
#
# 1 0.013895 0.000098 -0.003264 0.000001 -0.003104 -0.000003
# 2 0.000098 0.014867 -0.003154 0.000002 -0.002810 -0.000004
# 3 -0.003264 -0.003154 0.010254 -0.000006 -0.000780 0.000012
# 4 0.000001 0.000002 -0.000006 0.149093 -0.000006 -0.207156
# 5 -0.003104 -0.002810 -0.000780 -0.000006 0.026826 0.000011
# 6 -0.000003 -0.000004 0.000012 -0.207156 0.000011 0.395856
#
#
# Mechanical properties :
#
#
# Convention : Reuss Voigt Hill
#
# Bulk Modulus (GPa) = 37.91430 44.11658 41.01544
# Shear Modulus (GPa) = 7.90862 28.62369 18.26615
#
# Velocity S-wave (km/s) = 1.88790 3.59162 2.86914
# Velocity P-wave (km/s) = 4.67321 6.08946 5.42773
#
# Compressibility (1/GPa) = 0.02637528
#
# Stress axis : x y z
#
# Youngs Moduli (GPa) = 71.96951 67.26469 97.52513
#
# Poissons Ratio (x) = -0.00657 0.31830
# Poissons Ratio (y) = -0.00703 0.30758
# Poissons Ratio (z) = 0.23489 0.21215
#
# Static dielectric constant tensor:
#      x y z
#    x 1.831260 0.000000 0.016470 
#    y 0.000000 1.876410 0.000000 
#    z 0.016470 0.000000 1.916670 
# 
# From -- ./inp_files/25504.got.cif
#   From: 2010.05.17/outbox.cif.g08.bks.cpg/sg5_13_cif.got.tgz:25504.got - 2010.06.03 18:56:24.
