data_PCOD9127349
_publ_section_title
;
Structure prediction by ZEFSAII (Michael W. Deem and Ramdas Pophale) SiO2 
 PCOD9127349
Probable space group: C 2
;
_chemical_formula_sum "Si O2"
_cell_formula_units_Z 30
_cell_length_a 28.380694
_cell_length_b 5.633619
_cell_length_c 8.751567
_cell_angle_alpha 90.000000
_cell_angle_beta 59.363856
_cell_angle_gamma 90.000000
_cell_volume 1203.946460
_symmetry_space_group_name_H-M "C 2"
_symmetry_group_IT_number 5
_symmetry_cell_setting 'monoclinic'
loop_
_space_group_symop_operation_xyz
x,y,z
-x,y,-z
1/2+x,1/2+y,z
1/2-x,1/2+y,-z
loop_
_atom_site_type_symbol
_atom_site_label
_atom_site_fract_x
_atom_site_fract_y
_atom_site_fract_z
Si Si1 0.186012 0.438760 0.482747
Si Si2 0.245088 0.893083 0.099659
Si Si3 0.458958 0.426580 0.351481
Si Si4 0.435094 0.129572 0.837872
Si Si5 0.365599 0.173124 0.677924
Si Si6 0.500000 0.799326 0.500000
Si Si7 0.388300 0.287990 0.196172
Si Si8 0.805833 0.131360 0.248439
O O1 0.157492 0.438748 0.365712
O O2 0.156176 0.653288 0.624927
O O3 0.181501 0.220686 0.602349
O O4 0.249748 0.484619 0.350132
O O5 0.183223 0.862457 0.266174
O O6 0.289681 0.842171 0.159261
O O7 0.249353 0.650934 0.987675
O O8 0.521987 0.347927 0.234512
O O9 0.458250 0.644766 0.467828
O O10 0.430552 0.430396 0.233617
O O11 0.422299 0.233374 0.500879
O O12 0.380594 0.160512 0.828723
O O13 0.467449 0.935737 0.686151
O O14 0.419737 0.095748 0.039707
O O15 0.357080 0.464134 0.131703
#
# Coordination Sequence:
#
# PCOD9127349 Si02
#       8
#     4   4   4   4   4   2   4   4
#     4  10  23  42  68 103 142 194 246 300 376 463
#     4  11  27  46  71 112 159 197 253 322 391 470
#     4  11  24  49  69 105 142 194 257 316 381 467
#     4  12  24  46  70 105 148 188 253 324 380 459
#     4  10  22  45  71 102 143 202 246 305 386 473
#     4  12  24  44  82  98 146 202 254 314 396 460
#     4  11  26  43  73 107 148 192 249 318 391 453
#     4  11  23  43  72 101 149 197 249 311 375 470
#
# _framework density 24.918054999999999
#
# number of rings (size 3 to 8) (size 9 to 14) (size 15 to 20)
#    0.000    1.067    4.000    1.200    5.600    2.133 
#    0.000    1.333    0.000    0.000    0.000    0.000 
#    0.000    0.000    0.000    0.000    0.000    0.000 
#
# Total GULP energy -83836.992996 kJ/mol
# GULP energy per Si atom -5589.132866 kJ/mol
# Density = 2.486134 g / cm^3
# Si number density = 24.918055 Si / 1000 Ang^3
#
#
#
# Elastic Constant Matrix: (Units=GPa)
#
#
# Indices 1 2 3 4 5 6 
#
# 1 153.5928 37.6970 46.7329 0.0000 16.7051 0.0000
# 2 37.6970 67.5334 30.0728 0.0000 6.9081 0.0000
# 3 46.7329 30.0728 109.9393 0.0000 13.2309 0.0000
# 4 0.0000 0.0000 0.0000 36.4266 0.0000 7.5758
# 5 16.7051 6.9081 13.2309 0.0000 34.9830 0.0000
# 6 0.0000 0.0000 0.0000 7.5758 0.0000 28.4314
#
#
#
# Elastic Compliance Matrix: (Units=1/GPa)
#
#
# Indices 1 2 3 4 5 6 
#
# 1 0.008304 -0.003354 -0.002320 0.000000 -0.002425 0.000000
# 2 -0.003354 0.018308 -0.003499 0.000000 -0.000690 0.000000
# 3 -0.002320 -0.003499 0.011339 0.000000 -0.002489 0.000000
# 4 0.000000 0.000000 0.000000 0.029063 0.000000 -0.007744
# 5 -0.002425 -0.000690 -0.002489 0.000000 0.030821 0.000000
# 6 0.000000 0.000000 0.000000 -0.007744 0.000000 0.037236
#
#
# Mechanical properties :
#
#
# Convention : Reuss Voigt Hill
#
# Bulk Modulus (GPa) = 51.00977 62.23010 56.61994
# Shear Modulus (GPa) = 31.25913 34.40573 32.83243
#
# Velocity S-wave (km/s) = 3.54570 3.71988 3.63384
# Velocity P-wave (km/s) = 6.10558 6.59380 6.35438
#
# Compressibility (1/GPa) = 0.01960409
#
# Stress axis : x y z
#
# Youngs Moduli (GPa) = 120.42905 54.61964 88.19007
#
# Poissons Ratio (x) = 0.18318 0.20464
# Poissons Ratio (y) = 0.40388 0.30861
# Poissons Ratio (z) = 0.27945 0.19114
#
# Static dielectric constant tensor:
#      x y z
#    x 1.970890 0.000000 0.011380 
#    y 0.000000 1.995510 0.000000 
#    z 0.011380 0.000000 2.004190 
# 
# From -- ./inp_files/32248.got.cif
#   From: 2010.05.17/outbox.cif.g08.bks.cpg/sg5_17_cif.got.tgz:32248.got - 2010.06.03 18:56:24.
