data_PCOD9127224
_publ_section_title
;
Structure prediction by ZEFSAII (Michael W. Deem and Ramdas Pophale) SiO2 
 PCOD9127224
Probable space group: C 2
;
_chemical_formula_sum "Si O2"
_cell_formula_units_Z 20
_cell_length_a 6.683794
_cell_length_b 20.946759
_cell_length_c 7.651060
_cell_angle_alpha 90.000000
_cell_angle_beta 113.516825
_cell_angle_gamma 90.000000
_cell_volume 982.208779
_symmetry_space_group_name_H-M "C 2"
_symmetry_group_IT_number 5
_symmetry_cell_setting 'monoclinic'
loop_
_space_group_symop_operation_xyz
x,y,z
-x,y,-z
1/2+x,1/2+y,z
1/2-x,1/2+y,-z
loop_
_atom_site_type_symbol
_atom_site_label
_atom_site_fract_x
_atom_site_fract_y
_atom_site_fract_z
Si Si1 0.500000 0.786320 0.500000
Si Si2 0.963591 0.979892 0.195520
Si Si3 0.545078 0.337860 0.224257
Si Si4 0.500000 0.030965 0.000000
Si Si5 0.688099 0.089329 0.710282
Si Si6 0.317372 0.735845 0.790290
O O1 0.296360 0.824628 0.352597
O O2 0.410176 0.746717 0.630371
O O3 0.007397 0.909354 0.282234
O O4 0.123136 0.039934 0.290768
O O5 0.710556 0.993266 0.141700
O O6 0.000000 0.973727 0.000000
O O7 0.387317 0.283421 0.250142
O O8 0.500000 0.335704 0.000000
O O9 0.406936 0.067351 0.135837
O O10 0.500000 0.089951 0.500000
O O11 0.764713 0.161038 0.775540
O O12 0.500000 0.750856 0.000000
#
# Coordination Sequence:
#
# PCOD9127224 Si02
#       6
#     2   4   4   2   4   4
#     4  12  26  46  70 100 146 178 228 292 340 414
#     4   9  22  42  67 100 134 179 227 276 347 412
#     4  11  24  44  72 104 139 184 232 285 349 413
#     4  10  22  44  70  90 140 176 216 292 338 404
#     4  11  25  43  67 102 134 178 234 278 345 417
#     4  12  26  45  71 102 138 186 233 286 350 412
#
# _framework density 20.362269000000001
#
# number of rings (size 3 to 8) (size 9 to 14) (size 15 to 20)
#    0.000    1.200    2.000    3.600    4.200    7.200 
#    3.600    0.000    0.000    0.000    0.000    0.000 
#    0.000    0.000    0.000    0.000    0.000    0.000 
#
# Total GULP energy -55822.190217 kJ/mol
# GULP energy per Si atom -5582.219022 kJ/mol
# Density = 2.031592 g / cm^3
# Si number density = 20.362269 Si / 1000 Ang^3
#
#
#
# Elastic Constant Matrix: (Units=GPa)
#
#
# Indices 1 2 3 4 5 6 
#
# 1 141.4360 81.7539 36.3588 0.0000 18.9966 0.0000
# 2 81.7539 145.3967 6.2808 0.0000 18.7010 0.0000
# 3 36.3588 6.2808 83.4514 0.0000 11.0838 0.0000
# 4 0.0000 0.0000 0.0000 51.0949 0.0000 5.7651
# 5 18.9966 18.7010 11.0838 0.0000 48.2466 0.0000
# 6 0.0000 0.0000 0.0000 5.7651 0.0000 20.9642
#
#
#
# Elastic Compliance Matrix: (Units=1/GPa)
#
#
# Indices 1 2 3 4 5 6 
#
# 1 0.012184 -0.006494 -0.004659 0.000000 -0.001210 0.000000
# 2 -0.006494 0.010703 0.002306 0.000000 -0.002121 0.000000
# 3 -0.004659 0.002306 0.014146 0.000000 -0.002309 0.000000
# 4 0.000000 0.000000 0.000000 0.020198 0.000000 -0.005554
# 5 -0.001210 -0.002121 -0.002309 0.000000 0.022556 0.000000
# 6 0.000000 0.000000 0.000000 -0.005554 0.000000 0.049228
#
#
# Mechanical properties :
#
#
# Convention : Reuss Voigt Hill
#
# Bulk Modulus (GPa) = 51.71244 68.78567 60.24906
# Shear Modulus (GPa) = 32.64647 40.45383 36.55015
#
# Velocity S-wave (km/s) = 4.00845 4.46208 4.24133
# Velocity P-wave (km/s) = 6.84652 7.77182 7.32380
#
# Compressibility (1/GPa) = 0.01933771
#
# Stress axis : x y z
#
# Youngs Moduli (GPa) = 82.07239 93.43601 70.69081
#
# Poissons Ratio (x) = 0.60679 0.32936
# Poissons Ratio (y) = 0.53299 -0.16299
# Poissons Ratio (z) = 0.38239 -0.21543
#
# Static dielectric constant tensor:
#      x y z
#    x 1.650340 0.000000 0.003740 
#    y 0.000000 1.795530 0.000000 
#    z 0.003740 0.000000 1.727040 
# 
# From -- ./inp_files/12293.got.cif
#   From: 2010.05.17/outbox.cif.g08.bks.cpg/sg5_7_cif.got.tgz:12293.got - 2010.06.03 18:56:24.
