data_PCOD9127150
_publ_section_title
;
Structure prediction by ZEFSAII (Michael W. Deem and Ramdas Pophale) SiO2 
 PCOD9127150
Probable space group: C 2
;
_chemical_formula_sum "Si O2"
_cell_formula_units_Z 32
_cell_length_a 18.549356
_cell_length_b 14.042302
_cell_length_c 13.635885
_cell_angle_alpha 90.000000
_cell_angle_beta 157.779073
_cell_angle_gamma 90.000000
_cell_volume 1343.222028
_symmetry_space_group_name_H-M "C 2"
_symmetry_group_IT_number 5
_symmetry_cell_setting 'monoclinic'
loop_
_space_group_symop_operation_xyz
x,y,z
-x,y,-z
1/2+x,1/2+y,z
1/2-x,1/2+y,-z
loop_
_atom_site_type_symbol
_atom_site_label
_atom_site_fract_x
_atom_site_fract_y
_atom_site_fract_z
Si Si1 0.363108 0.092620 0.603286
Si Si2 0.459635 0.805411 0.564767
Si Si3 0.528355 0.627680 0.784754
Si Si4 0.526636 0.924295 0.916473
Si Si5 0.333963 0.301474 0.531395
Si Si6 0.784198 0.977016 0.755800
Si Si7 0.194408 0.941436 0.987824
Si Si8 0.780369 0.757186 0.243734
O O1 0.407202 0.203981 0.671233
O O2 0.155779 0.082397 0.394086
O O3 0.507991 0.024535 0.841303
O O4 0.341908 0.051122 0.465865
O O5 0.500000 0.790549 0.500000
O O6 0.463322 0.707327 0.626469
O O7 0.271584 0.868863 0.341960
O O8 0.627811 0.875514 0.814150
O O9 0.645649 0.543415 0.880129
O O10 0.651705 0.683240 0.022440
O O11 0.348390 0.857912 0.657403
O O12 0.500000 0.936854 0.000000
O O13 0.715930 0.864158 0.134748
O O14 0.508028 0.374676 0.743696
O O15 0.255974 0.260016 0.329729
O O16 0.764475 0.975037 0.847864
O O17 0.000000 0.997318 0.000000
O O18 0.000000 0.739469 0.500000
#
# Coordination Sequence:
#
# PCOD9127150 Si02
#       8
#     4   4   4   4   4   4   4   4
#     4  12  24  41  72 106 130 183 235 293 343 412
#     4  10  26  47  67  99 142 185 225 285 354 422
#     4  12  23  43  73 100 136 182 239 288 342 419
#     4  10  22  44  66  96 136 178 227 282 346 411
#     4  11  23  42  67 100 138 175 230 287 347 415
#     4  11  22  41  70 104 134 181 231 285 347 406
#     4  11  24  45  68 101 143 177 229 293 352 417
#     4  11  24  42  70 101 138 184 228 288 348 412
#
# _framework density 23.823312999999999
#
# number of rings (size 3 to 8) (size 9 to 14) (size 15 to 20)
#    0.000    1.000    3.750    2.250    1.750    3.500 
#    4.500    1.875    0.000    0.000    0.000    0.000 
#    0.000    0.000    0.000    0.000    0.000    0.000 
#
# Total GULP energy -89555.377063 kJ/mol
# GULP energy per Si atom -5597.211066 kJ/mol
# Density = 2.376909 g / cm^3
# Si number density = 23.823313 Si / 1000 Ang^3
#
#
#
# Elastic Constant Matrix: (Units=GPa)
#
#
# Indices 1 2 3 4 5 6 
#
# 1 53.4852 7.3599 -4.8598 0.0000 -15.6637 0.0000
# 2 7.3599 169.3462 25.5399 0.0000 -15.7806 0.0000
# 3 -4.8598 25.5399 54.0702 0.0000 -0.9812 0.0000
# 4 0.0000 0.0000 0.0000 31.9546 0.0000 -7.5788
# 5 -15.6637 -15.7806 -0.9812 0.0000 35.6228 0.0000
# 6 0.0000 0.0000 0.0000 -7.5788 0.0000 28.4288
#
#
#
# Elastic Compliance Matrix: (Units=1/GPa)
#
#
# Indices 1 2 3 4 5 6 
#
# 1 0.021727 -0.000415 0.002320 0.000000 0.009434 0.000000
# 2 -0.000415 0.006644 -0.003127 0.000000 0.002675 0.000000
# 3 0.002320 -0.003127 0.020184 0.000000 0.000191 0.000000
# 4 0.000000 0.000000 0.000000 0.033407 0.000000 0.008906
# 5 0.009434 0.002675 0.000191 0.000000 0.033410 0.000000
# 6 0.000000 0.000000 0.000000 0.008906 0.000000 0.037550
#
#
# Mechanical properties :
#
#
# Convention : Reuss Voigt Hill
#
# Bulk Modulus (GPa) = 21.68684 36.99797 29.34240
# Shear Modulus (GPa) = 29.28503 35.79202 32.53852
#
# Velocity S-wave (km/s) = 3.50988 3.88028 3.69972
# Velocity P-wave (km/s) = 5.05457 5.96986 5.53118
#
# Compressibility (1/GPa) = 0.04611092
#
# Stress axis : x y z
#
# Youngs Moduli (GPa) = 46.02466 150.51332 49.54541
#
# Poissons Ratio (x) = 0.06248 -0.11495
# Poissons Ratio (y) = 0.01911 0.15493
# Poissons Ratio (z) = -0.10678 0.47066
#
# Static dielectric constant tensor:
#      x y z
#    x 2.007920 0.000000 -0.024730 
#    y 0.000000 1.900400 0.000000 
#    z -0.024730 0.000000 1.900560 
# 
# From -- ./inp_files/57197.got.cif
#   From: 2010.05.17/outbox.cif.g08.bks.cpg/sg5_29_cif.got.tgz:57197.got - 2010.06.03 18:56:24.
