data_PCOD9127579
_publ_section_title
;
Structure prediction by ZEFSAII (Michael W. Deem and Ramdas Pophale) SiO2 
 PCOD9127579
Probable space group: C 2
;
_chemical_formula_sum "Si O2"
_cell_formula_units_Z 26
_cell_length_a 14.755974
_cell_length_b 10.685909
_cell_length_c 18.564958
_cell_angle_alpha 90.000000
_cell_angle_beta 157.849646
_cell_angle_gamma 90.000000
_cell_volume 1103.719962
_symmetry_space_group_name_H-M "C 2"
_symmetry_group_IT_number 5
_symmetry_cell_setting 'monoclinic'
loop_
_space_group_symop_operation_xyz
x,y,z
-x,y,-z
1/2+x,1/2+y,z
1/2-x,1/2+y,-z
loop_
_atom_site_type_symbol
_atom_site_label
_atom_site_fract_x
_atom_site_fract_y
_atom_site_fract_z
Si Si1 0.073017 0.086910 0.259531
Si Si2 0.000000 0.596287 0.500000
Si Si3 0.205067 0.438989 0.786040
Si Si4 0.846802 0.588888 0.813704
Si Si5 0.103563 0.476795 0.874507
Si Si6 0.516833 0.300784 0.191439
Si Si7 0.080161 0.179148 0.425419
O O1 0.266820 0.166703 0.359052
O O2 0.795953 0.086441 0.034246
O O3 0.090244 0.117937 0.355280
O O4 0.133873 0.940556 0.284942
O O5 0.895149 0.521538 0.353390
O O6 0.090963 0.300816 0.699456
O O7 0.500000 0.444204 0.000000
O O8 0.093766 0.482854 0.781107
O O9 0.921126 0.725479 0.835417
O O10 0.568912 0.589221 0.631591
O O11 0.000000 0.565595 0.000000
O O12 0.908576 0.496997 0.792894
O O13 0.242595 0.346426 0.992441
O O14 0.658303 0.220635 0.354980
#
# Coordination Sequence:
#
# PCOD9127579 Si02
#       7
#     4   2   4   4   4   4   4
#     4  10  23  40  62  94 139 165 226 291 337 398
#     4  12  22  44  62  98 128 174 230 290 336 418
#     4  12  23  40  71  96 130 178 230 284 344 405
#     4  12  22  39  68 101 128 175 232 284 336 409
#     4  10  23  40  62 102 137 170 221 291 351 399
#     4  10  23  39  61 100 137 173 221 280 346 401
#     4  12  23  40  69  99 134 175 231 287 338 410
#
# _framework density 23.556699999999999
#
# number of rings (size 3 to 8) (size 9 to 14) (size 15 to 20)
#    0.923    0.000    4.615    3.692    2.154    0.000 
#    0.000    0.000    6.769    2.769    0.000    0.000 
#    0.000    0.000    0.000    0.000    0.000    0.000 
#
# Total GULP energy -72467.338056 kJ/mol
# GULP energy per Si atom -5574.410620 kJ/mol
# Density = 2.350308 g / cm^3
# Si number density = 23.556700 Si / 1000 Ang^3
#
#
#
# Elastic Constant Matrix: (Units=GPa)
#
#
# Indices 1 2 3 4 5 6 
#
# 1 210.7123 34.1481 45.9675 0.0070 -11.8542 -0.0005
# 2 34.1481 56.4254 10.0144 0.0299 -5.4375 -0.0024
# 3 45.9675 10.0144 109.9936 0.0306 -16.6415 0.0037
# 4 0.0070 0.0299 0.0306 32.6476 0.0069 -7.6236
# 5 -11.8542 -5.4375 -16.6415 0.0069 48.8809 -0.0001
# 6 -0.0005 -0.0024 0.0037 -7.6236 -0.0001 39.0195
#
#
#
# Elastic Compliance Matrix: (Units=1/GPa)
#
#
# Indices 1 2 3 4 5 6 
#
# 1 0.005709 -0.003057 -0.002055 0.000004 0.000345 0.000001
# 2 -0.003057 0.019759 -0.000317 -0.000018 0.001349 -0.000002
# 3 -0.002055 -0.000317 0.010436 -0.000010 0.003019 -0.000003
# 4 0.000004 -0.000018 -0.000010 0.032094 -0.000009 0.006271
# 5 0.000345 0.001349 0.003019 -0.000009 0.021719 -0.000002
# 6 0.000001 -0.000002 -0.000003 0.006271 -0.000002 0.026853
#
#
# Mechanical properties :
#
#
# Convention : Reuss Voigt Hill
#
# Bulk Modulus (GPa) = 39.92898 61.93238 50.93068
# Shear Modulus (GPa) = 36.82459 43.24302 40.03380
#
# Velocity S-wave (km/s) = 3.95806 4.28915 4.12693
# Velocity P-wave (km/s) = 6.15429 7.13281 6.66154
#
# Compressibility (1/GPa) = 0.02504447
#
# Stress axis : x y z
#
# Youngs Moduli (GPa) = 175.16175 50.61013 95.82134
#
# Poissons Ratio (x) = 0.15472 0.19695
# Poissons Ratio (y) = 0.53548 0.03041
# Poissons Ratio (z) = 0.36002 0.01606
#
# Static dielectric constant tensor:
#      x y z
#    x 1.908030 0.000000 0.064310 
#    y 0.000000 1.990280 -0.000010 
#    z 0.064310 -0.000010 2.003670 
# 
# From -- ./inp_files/53241.got.cif
#   From: 2010.05.17/outbox.cif.g08.bks.cpg/sg5_27_cif.got.tgz:53241.got - 2010.06.03 18:56:24.
