data_PCOD9127898
_publ_section_title
;
Structure prediction by ZEFSAII (Michael W. Deem and Ramdas Pophale) SiO2 
 PCOD9127898
Probable space group: C 2
;
_chemical_formula_sum "Si O2"
_cell_formula_units_Z 24
_cell_length_a 8.235932
_cell_length_b 18.187796
_cell_length_c 8.606179
_cell_angle_alpha 90.000000
_cell_angle_beta 125.051539
_cell_angle_gamma 90.000000
_cell_volume 1055.343687
_symmetry_space_group_name_H-M "C 2"
_symmetry_group_IT_number 5
_symmetry_cell_setting 'monoclinic'
loop_
_space_group_symop_operation_xyz
x,y,z
-x,y,-z
1/2+x,1/2+y,z
1/2-x,1/2+y,-z
loop_
_atom_site_type_symbol
_atom_site_label
_atom_site_fract_x
_atom_site_fract_y
_atom_site_fract_z
Si Si1 0.439373 0.922360 0.131424
Si Si2 0.337452 0.448113 0.539597
Si Si3 0.060209 0.261543 0.783940
Si Si4 0.818861 0.781535 0.614028
Si Si5 0.616034 0.162826 0.901303
Si Si6 0.794120 0.034656 0.826518
O O1 0.621309 0.936835 0.346767
O O2 0.410587 0.835718 0.103355
O O3 0.250620 0.961342 0.099120
O O4 0.500000 0.954333 0.000000
O O5 0.500000 0.469202 0.500000
O O6 0.388749 0.365505 0.627452
O O7 0.313305 0.508313 0.660783
O O8 0.183306 0.277357 0.693668
O O9 0.829666 0.256042 0.606597
O O10 0.170507 0.194887 0.928154
O O11 0.997950 0.726812 0.746571
O O12 0.633970 0.093764 0.796128
O O13 0.500000 0.146016 0.000000
O O14 0.000000 0.064639 0.000000
#
# Coordination Sequence:
#
# PCOD9127898 Si02
#       6
#     4   4   4   4   4   4
#     4  11  23  42  73 105 144 185 244 305 360 428
#     4  11  24  44  71 109 140 191 251 301 363 429
#     4   9  19  39  72 108 139 187 239 300 356 440
#     4   9  19  41  72 105 144 180 243 308 363 422
#     4  10  23  43  72 105 152 194 238 296 377 434
#     4  12  26  45  69 104 153 193 243 295 373 440
#
# _framework density 22.741406000000001
#
# number of rings (size 3 to 8) (size 9 to 14) (size 15 to 20)
#    0.000    1.667    1.667    2.000    4.667    0.667 
#    9.000    0.000    3.667    0.000    0.000    0.000 
#    0.000    0.000    0.000    0.000    0.000    0.000 
#
# Total GULP energy -67100.286334 kJ/mol
# GULP energy per Si atom -5591.690528 kJ/mol
# Density = 2.268965 g / cm^3
# Si number density = 22.741406 Si / 1000 Ang^3
#
#
#
# Elastic Constant Matrix: (Units=GPa)
#
#
# Indices 1 2 3 4 5 6 
#
# 1 106.9468 58.3247 38.9941 0.0000 -22.8230 0.0000
# 2 58.3247 118.0980 63.1809 0.0000 -19.7818 0.0000
# 3 38.9941 63.1809 58.2690 0.0000 -9.8373 0.0000
# 4 0.0000 0.0000 0.0000 18.4111 0.0000 -4.4628
# 5 -22.8230 -19.7818 -9.8373 0.0000 25.8996 0.0000
# 6 0.0000 0.0000 0.0000 -4.4628 0.0000 57.3041
#
#
#
# Elastic Compliance Matrix: (Units=1/GPa)
#
#
# Indices 1 2 3 4 5 6 
#
# 1 0.014742 -0.003173 -0.004959 0.000000 0.008684 0.000000
# 2 -0.003173 0.022345 -0.021046 0.000000 0.006277 0.000000
# 3 -0.004959 -0.021046 0.042579 0.000000 -0.004272 0.000000
# 4 0.000000 0.000000 0.000000 0.055360 0.000000 0.004311
# 5 0.008684 0.006277 -0.004272 0.000000 0.049435 0.000000
# 6 0.000000 0.000000 0.000000 0.004311 0.000000 0.017787
#
#
# Mechanical properties :
#
#
# Convention : Reuss Voigt Hill
#
# Bulk Modulus (GPa) = 46.92427 67.14590 57.03509
# Shear Modulus (GPa) = 18.67715 28.51058 23.59386
#
# Velocity S-wave (km/s) = 2.86891 3.54458 3.22450
# Velocity P-wave (km/s) = 5.62609 6.80750 6.24479
#
# Compressibility (1/GPa) = 0.02131093
#
# Stress axis : x y z
#
# Youngs Moduli (GPa) = 67.83229 44.75230 23.48583
#
# Poissons Ratio (x) = 0.14201 0.11646
# Poissons Ratio (y) = 0.21524 0.49427
# Poissons Ratio (z) = 0.33638 0.94184
#
# Static dielectric constant tensor:
#      x y z
#    x 1.801320 0.000000 -0.026930 
#    y 0.000000 1.819860 0.000000 
#    z -0.026930 0.000000 1.835140 
# 
# From -- ./inp_files/16872.got.cif
#   From: 2010.05.17/outbox.cif.g08.bks.cpg/sg5_9_cif.got.tgz:16872.got - 2010.06.03 18:56:24.
