data_PCOD9127088
_publ_section_title
;
Structure prediction by ZEFSAII (Michael W. Deem and Ramdas Pophale) SiO2 
 PCOD9127088
Probable space group: C 2
;
_chemical_formula_sum "Si O2"
_cell_formula_units_Z 20
_cell_length_a 16.719684
_cell_length_b 7.341977
_cell_length_c 8.605144
_cell_angle_alpha 90.000000
_cell_angle_beta 121.494157
_cell_angle_gamma 90.000000
_cell_volume 900.724863
_symmetry_space_group_name_H-M "C 2"
_symmetry_group_IT_number 5
_symmetry_cell_setting 'monoclinic'
loop_
_space_group_symop_operation_xyz
x,y,z
-x,y,-z
1/2+x,1/2+y,z
1/2-x,1/2+y,-z
loop_
_atom_site_type_symbol
_atom_site_label
_atom_site_fract_x
_atom_site_fract_y
_atom_site_fract_z
Si Si1 0.902269 0.892360 0.809054
Si Si2 0.261899 0.993217 0.159035
Si Si3 0.589817 0.126642 0.477755
Si Si4 0.131579 0.157433 0.768858
Si Si5 0.917308 0.199576 0.613793
O O1 0.810557 0.863127 0.821007
O O2 0.906854 0.764165 0.663039
O O3 0.886433 0.102402 0.738877
O O4 0.000000 0.874845 0.000000
O O5 0.347757 0.870717 0.189089
O O6 0.315072 0.136966 0.322935
O O7 0.202953 0.061624 0.954633
O O8 0.500000 0.156366 0.500000
O O9 0.586526 0.917758 0.407809
O O10 0.137592 0.120950 0.591377
O O11 0.024168 0.131021 0.705015
#
# Coordination Sequence:
#
# PCOD9127088 Si02
#       5
#     4   4   4   4   4
#     4  12  28  43  68 104 137 174 225 283 334 390
#     4  11  25  44  67 105 129 179 230 270 339 394
#     4  11  26  47  68  97 137 180 225 274 336 402
#     4  10  22  43  71  94 132 177 228 269 331 404
#     4  10  22  49  67  95 135 183 219 276 338 392
#
# _framework density 22.204339000000001
#
# number of rings (size 3 to 8) (size 9 to 14) (size 15 to 20)
#    0.000    1.200    6.000    0.000   14.000    0.800 
#    3.600    0.000    0.000    0.000    0.000    0.000 
#    0.000    0.000    0.000    0.000    0.000    0.000 
#
# Total GULP energy -55832.578508 kJ/mol
# GULP energy per Si atom -5583.257851 kJ/mol
# Density = 2.215380 g / cm^3
# Si number density = 22.204339 Si / 1000 Ang^3
#
#
#
# Elastic Constant Matrix: (Units=GPa)
#
#
# Indices 1 2 3 4 5 6 
#
# 1 71.7925 12.8298 39.2227 0.0000 13.0475 0.0000
# 2 12.8298 61.4255 44.9573 0.0000 -12.4515 0.0000
# 3 39.2227 44.9573 202.4935 0.0000 26.5828 0.0000
# 4 0.0000 0.0000 0.0000 41.6415 0.0000 -2.0179
# 5 13.0475 -12.4515 26.5828 0.0000 30.4146 0.0000
# 6 0.0000 0.0000 0.0000 -2.0179 0.0000 25.8007
#
#
#
# Elastic Compliance Matrix: (Units=1/GPa)
#
#
# Indices 1 2 3 4 5 6 
#
# 1 0.016791 -0.004099 -0.001329 0.000000 -0.007720 0.000000
# 2 -0.004099 0.026686 -0.007676 0.000000 0.019393 0.000000
# 3 -0.001329 -0.007676 0.008176 0.000000 -0.009719 0.000000
# 4 0.000000 0.000000 0.000000 0.024106 0.000000 0.001885
# 5 -0.007720 0.019393 -0.009719 0.000000 0.052624 0.000000
# 6 0.000000 0.000000 0.000000 0.001885 0.000000 0.038906
#
#
# Mechanical properties :
#
#
# Convention : Reuss Voigt Hill
#
# Bulk Modulus (GPa) = 39.30369 58.85901 49.08135
# Shear Modulus (GPa) = 24.75508 35.48480 30.11994
#
# Velocity S-wave (km/s) = 3.34260 4.00196 3.68705
# Velocity P-wave (km/s) = 5.71285 6.92241 6.34651
#
# Compressibility (1/GPa) = 0.02544290
#
# Stress axis : x y z
#
# Youngs Moduli (GPa) = 59.55725 37.47331 122.30990
#
# Poissons Ratio (x) = 0.15362 0.16251
# Poissons Ratio (y) = 0.24415 0.93891
# Poissons Ratio (z) = 0.07913 0.28766
#
# Static dielectric constant tensor:
#      x y z
#    x 1.785670 0.000000 -0.016590 
#    y 0.000000 1.864370 0.000000 
#    z -0.016590 0.000000 1.824950 
# 
# From -- ./inp_files/26383.got.cif
#   From: 2010.05.17/outbox.cif.g08.bks.cpg/sg5_14_cif.got.tgz:26383.got - 2010.06.03 18:56:24.
