data_PCOD9127030
_publ_section_title
;
Structure prediction by ZEFSAII (Michael W. Deem and Ramdas Pophale) SiO2 
 PCOD9127030
Probable space group: C 2
;
_chemical_formula_sum "Si O2"
_cell_formula_units_Z 18
_cell_length_a 6.370276
_cell_length_b 25.066064
_cell_length_c 4.922888
_cell_angle_alpha 90.000000
_cell_angle_beta 89.475249
_cell_angle_gamma 90.000000
_cell_volume 786.042691
_symmetry_space_group_name_H-M "C 2"
_symmetry_group_IT_number 5
_symmetry_cell_setting 'monoclinic'
loop_
_space_group_symop_operation_xyz
x,y,z
-x,y,-z
1/2+x,1/2+y,z
1/2-x,1/2+y,-z
loop_
_atom_site_type_symbol
_atom_site_label
_atom_site_fract_x
_atom_site_fract_y
_atom_site_fract_z
Si Si1 0.500000 0.206231 0.500000
Si Si2 0.859820 0.275542 0.237907
Si Si3 0.500000 0.138268 0.000000
Si Si4 0.500000 0.877778 0.000000
Si Si5 0.145659 0.066396 0.737927
Si Si6 0.849615 0.944823 0.265467
O O1 0.660454 0.242938 0.331839
O O2 0.401354 0.172159 0.251778
O O3 0.000000 0.280549 0.500000
O O4 0.000000 0.248639 0.000000
O O5 0.833132 0.335970 0.131738
O O6 0.664094 0.102402 0.164476
O O7 0.362720 0.913206 0.798829
O O8 0.000000 0.088992 0.500000
O O9 0.210158 0.006035 0.657685
O O10 0.000000 0.060922 0.000000
O O11 0.000000 0.922979 0.500000
O O12 0.000000 0.945376 0.000000
#
# Coordination Sequence:
#
# PCOD9127030 Si02
#       6
#     2   4   2   2   4   4
#     4  12  26  46  70 102 136 186 242 294 350 408
#     4  10  25  45  67  98 139 187 231 295 346 404
#     4  12  25  42  74 100 132 190 235 284 354 420
#     4  10  25  44  72 100 140 188 229 280 348 416
#     4  10  22  43  67 103 142 175 222 286 347 416
#     4  10  23  40  69 104 140 179 224 278 344 422
#
# _framework density 22.899519999999999
#
# number of rings (size 3 to 8) (size 9 to 14) (size 15 to 20)
#    0.667    0.889    0.000    3.333    3.111    5.333 
#    0.000    6.667    0.000    0.000    0.000    0.000 
#    0.000    0.000    0.000    0.000    0.000    0.000 
#
# Total GULP energy -50259.349750 kJ/mol
# GULP energy per Si atom -5584.372194 kJ/mol
# Density = 2.284740 g / cm^3
# Si number density = 22.899520 Si / 1000 Ang^3
#
#
#
# Elastic Constant Matrix: (Units=GPa)
#
#
# Indices 1 2 3 4 5 6 
#
# 1 101.4712 76.6521 51.6898 0.0000 13.9595 0.0000
# 2 76.6521 102.8286 45.4025 0.0000 18.1155 0.0000
# 3 51.6898 45.4025 161.5724 0.0000 21.4686 0.0000
# 4 0.0000 0.0000 0.0000 -3.7241 0.0000 -6.6631
# 5 13.9595 18.1155 21.4686 0.0000 55.7738 0.0000
# 6 0.0000 0.0000 0.0000 -6.6631 0.0000 38.7506
#
#
#
# Elastic Compliance Matrix: (Units=1/GPa)
#
#
# Indices 1 2 3 4 5 6 
#
# 1 0.023780 -0.016480 -0.003053 0.000000 0.000576 0.000000
# 2 -0.016480 0.022874 -0.000755 0.000000 -0.003014 0.000000
# 3 -0.003053 -0.000755 0.007634 0.000000 -0.001929 0.000000
# 4 0.000000 0.000000 0.000000 -0.205347 0.000000 -0.035309
# 5 0.000576 -0.003014 -0.001929 0.000000 0.019507 0.000000
# 6 0.000000 0.000000 0.000000 -0.035309 0.000000 0.019735
#
#
# Mechanical properties :
#
#
# Convention : Reuss Voigt Hill
#
# Bulk Modulus (GPa) = 72.92755 79.26232 76.09494
# Shear Modulus (GPa) = -74.99726 30.96859 -22.01434
#
# Velocity S-wave (km/s) = -5.72902 3.68145 -3.10392
# Velocity P-wave (km/s) = 3.44185 7.26354 4.52286
#
# Compressibility (1/GPa) = 0.01371224
#
# Stress axis : x y z
#
# Youngs Moduli (GPa) = 42.05182 43.71775 130.98470
#
# Poissons Ratio (x) = 0.72047 0.39994
# Poissons Ratio (y) = 0.69301 0.09889
# Poissons Ratio (z) = 0.12840 0.03301
#
# Static dielectric constant tensor:
#      x y z
#    x 1.794820 0.000000 -0.019710 
#    y 0.000000 1.935450 0.000000 
#    z -0.019710 0.000000 1.838630 
# 
# From -- ./inp_files/932.got.cif
#   From: 2010.05.17/outbox.cif.g08.bks.cpg/sg5_1_cif.got.tgz:932.got - 2010.06.03 18:56:24.
