data_PCOD9127173
_publ_section_title
;
Structure prediction by ZEFSAII (Michael W. Deem and Ramdas Pophale) SiO2 
 PCOD9127173
Probable space group: C 2
;
_chemical_formula_sum "Si O2"
_cell_formula_units_Z 22
_cell_length_a 12.653961
_cell_length_b 8.682167
_cell_length_c 19.491777
_cell_angle_alpha 90.000000
_cell_angle_beta 24.597323
_cell_angle_gamma 90.000000
_cell_volume 891.349675
_symmetry_space_group_name_H-M "C 2"
_symmetry_group_IT_number 5
_symmetry_cell_setting 'monoclinic'
loop_
_space_group_symop_operation_xyz
x,y,z
-x,y,-z
1/2+x,1/2+y,z
1/2-x,1/2+y,-z
loop_
_atom_site_type_symbol
_atom_site_label
_atom_site_fract_x
_atom_site_fract_y
_atom_site_fract_z
Si Si1 0.626128 0.301130 0.850771
Si Si2 0.267422 0.882999 0.328507
Si Si3 0.084197 0.591033 0.341346
Si Si4 0.000000 0.207021 0.000000
Si Si5 0.984711 0.142184 0.296763
Si Si6 0.264289 0.921503 0.024905
O O1 0.818361 0.420669 0.700624
O O2 0.402003 0.541594 0.832986
O O3 0.395108 0.319961 0.934525
O O4 0.500000 0.340384 0.000000
O O5 0.402115 0.808516 0.315424
O O6 0.000000 0.965540 0.500000
O O7 0.825289 0.729911 0.661056
O O8 0.488544 0.980983 0.162317
O O9 0.782004 0.583359 0.516554
O O10 0.250532 0.623506 0.175767
O O11 0.109311 0.309986 0.995364
O O12 0.199992 0.158542 0.227376
#
# Coordination Sequence:
#
# PCOD9127173 Si02
#       6
#     4   4   4   2   4   4
#     4  12  24  43  73 102 142 191 241 300 360 427
#     4   9  19  41  69  95 140 193 234 289 363 424
#     4  10  22  44  67  97 138 192 239 290 368 428
#     4  10  24  44  70  98 144 196 238 290 374 430
#     4  11  24  41  71 108 137 186 250 295 357 432
#     4  11  24  43  72 104 148 184 244 300 361 422
#
# _framework density 24.681671000000001
#
# number of rings (size 3 to 8) (size 9 to 14) (size 15 to 20)
#    0.000    1.455    4.545    0.000    3.818    0.000 
#    0.000    0.000    0.000    0.000    0.000    0.000 
#    0.000    0.000    0.000    0.000    0.000    0.000 
#
# Total GULP energy -61363.032570 kJ/mol
# GULP energy per Si atom -5578.457506 kJ/mol
# Density = 2.462549 g / cm^3
# Si number density = 24.681671 Si / 1000 Ang^3
#
#
#
# Elastic Constant Matrix: (Units=GPa)
#
#
# Indices 1 2 3 4 5 6 
#
# 1 174.6011 29.4245 52.3098 -0.0117 -29.5118 0.0137
# 2 29.4245 39.2428 48.3626 -0.0131 -11.7151 0.0078
# 3 52.3098 48.3626 244.1278 -0.0508 -33.6738 0.0480
# 4 -0.0117 -0.0131 -0.0508 39.8570 0.0149 -3.8964
# 5 -29.5118 -11.7151 -33.6738 0.0149 33.5085 -0.0163
# 6 0.0137 0.0078 0.0480 -3.8964 -0.0163 23.6903
#
#
#
# Elastic Compliance Matrix: (Units=1/GPa)
#
#
# Indices 1 2 3 4 5 6 
#
# 1 0.007237 -0.003813 -0.000116 -0.000001 0.004924 0.000001
# 2 -0.003813 0.036755 -0.005985 0.000003 0.003478 0.000005
# 3 -0.000116 -0.005985 0.005809 0.000003 0.003643 -0.000007
# 4 -0.000001 0.000003 0.000003 0.025500 -0.000006 0.004194
# 5 0.004924 0.003478 0.003643 -0.000006 0.039057 0.000015
# 6 0.000001 0.000005 -0.000007 0.004194 0.000015 0.042901
#
#
# Mechanical properties :
#
#
# Convention : Reuss Voigt Hill
#
# Bulk Modulus (GPa) = 33.36292 79.79617 56.57954
# Shear Modulus (GPa) = 26.72675 41.26948 33.99812
#
# Velocity S-wave (km/s) = 3.29425 4.09353 3.71545
# Velocity P-wave (km/s) = 5.29302 7.39885 6.43269
#
# Compressibility (1/GPa) = 0.02997340
#
# Stress axis : x y z
#
# Youngs Moduli (GPa) = 138.17812 27.20701 172.14091
#
# Poissons Ratio (x) = 0.10375 0.01998
# Poissons Ratio (y) = 0.52693 1.03019
# Poissons Ratio (z) = 0.01604 0.16282
#
# Static dielectric constant tensor:
#      x y z
#    x 1.941540 -0.000020 0.019920 
#    y -0.000020 2.075720 0.000010 
#    z 0.019920 0.000010 2.005500 
# 
# From -- ./inp_files/66132.got.cif
#   From: 2010.05.17/outbox.cif.g08.bks.cpg/sg5_34_cif.got.tgz:66132.got - 2010.06.03 18:56:24.
