data_PCOD9127772
_publ_section_title
;
Structure prediction by ZEFSAII (Michael W. Deem and Ramdas Pophale) SiO2 
 PCOD9127772
Probable space group: C 2
;
_chemical_formula_sum "Si O2"
_cell_formula_units_Z 24
_cell_length_a 14.705426
_cell_length_b 12.231528
_cell_length_c 21.358664
_cell_angle_alpha 90.000000
_cell_angle_beta 161.580593
_cell_angle_gamma 90.000000
_cell_volume 1213.888600
_symmetry_space_group_name_H-M "C 2"
_symmetry_group_IT_number 5
_symmetry_cell_setting 'monoclinic'
loop_
_space_group_symop_operation_xyz
x,y,z
-x,y,-z
1/2+x,1/2+y,z
1/2-x,1/2+y,-z
loop_
_atom_site_type_symbol
_atom_site_label
_atom_site_fract_x
_atom_site_fract_y
_atom_site_fract_z
Si Si1 0.284735 0.245740 0.418994
Si Si2 0.117105 0.037403 0.388716
Si Si3 0.228554 0.614256 0.371287
Si Si4 0.229767 0.371739 0.191383
Si Si5 0.104958 0.423893 0.901389
Si Si6 0.281792 0.369065 0.642918
O O1 0.500000 0.221792 0.500000
O O2 0.145410 0.139807 0.360531
O O3 0.491143 0.304824 0.604587
O O4 0.034893 0.329632 0.233991
O O5 0.209702 0.070891 0.518742
O O6 0.279682 0.939888 0.459016
O O7 0.817413 0.975712 0.206475
O O8 0.500000 0.600124 0.500000
O O9 0.162421 0.741839 0.333487
O O10 0.970214 0.541524 0.175947
O O11 0.080712 0.410222 0.157142
O O12 0.000000 0.305149 0.000000
O O13 0.436768 0.411441 0.136463
O O14 0.000000 0.376970 0.500000
#
# Coordination Sequence:
#
# PCOD9127772 Si02
#       6
#     4   4   4   4   4   4
#     4  10  23  42  66  99 135 172 212 272 329 393
#     4  12  22  42  68  97 135 166 220 268 329 388
#     4  11  23  44  70  96 132 171 220 276 325 390
#     4  11  21  40  70 101 124 170 226 267 319 394
#     4  11  22  43  69  95 132 173 226 266 326 390
#     4  11  27  44  66  97 136 176 217 272 337 387
#
# _framework density 19.771172
#
# number of rings (size 3 to 8) (size 9 to 14) (size 15 to 20)
#    0.000    1.000    5.000    2.000    2.333    0.000 
#    0.000    0.833    0.000    0.000    0.000    0.000 
#    0.000    0.000    0.000    0.000    0.000    0.000 
#
# Total GULP energy -66944.752501 kJ/mol
# GULP energy per Si atom -5578.729375 kJ/mol
# Density = 1.972617 g / cm^3
# Si number density = 19.771172 Si / 1000 Ang^3
#
#
#
# Elastic Constant Matrix: (Units=GPa)
#
#
# Indices 1 2 3 4 5 6 
#
# 1 95.2788 71.1665 26.4418 0.0229 -13.4342 -0.0397
# 2 71.1665 136.7959 47.1372 0.0042 -5.3818 -0.0281
# 3 26.4418 47.1372 75.5464 0.3379 -5.6232 -0.0047
# 4 0.0229 0.0042 0.3379 11.3962 -0.0491 -2.7512
# 5 -13.4342 -5.3818 -5.6232 -0.0491 31.9236 -0.0209
# 6 -0.0397 -0.0281 -0.0047 -2.7512 -0.0209 34.2256
#
#
#
# Elastic Compliance Matrix: (Units=1/GPa)
#
#
# Indices 1 2 3 4 5 6 
#
# 1 0.018288 -0.009203 -0.000204 0.000003 0.006108 0.000018
# 2 -0.009203 0.013954 -0.005674 0.000174 -0.002520 0.000012
# 3 -0.000204 -0.005674 0.016996 -0.000503 0.001951 -0.000042
# 4 0.000003 0.000174 -0.000503 0.089501 0.000084 0.007195
# 5 0.006108 -0.002520 0.001951 0.000084 0.033814 0.000033
# 6 0.000018 0.000012 -0.000042 0.007195 0.000033 0.029796
#
#
# Mechanical properties :
#
#
# Convention : Reuss Voigt Hill
#
# Bulk Modulus (GPa) = 52.42237 66.34579 59.38408
# Shear Modulus (GPa) = 20.93200 26.36747 23.64973
#
# Velocity S-wave (km/s) = 3.25732 3.65585 3.46232
# Velocity P-wave (km/s) = 6.38114 7.17287 6.78856
#
# Compressibility (1/GPa) = 0.01907583
#
# Stress axis : x y z
#
# Youngs Moduli (GPa) = 54.68180 71.66380 58.83835
#
# Poissons Ratio (x) = 0.65955 0.01198
# Poissons Ratio (y) = 0.50326 0.33383
# Poissons Ratio (z) = 0.01114 0.40660
#
# Static dielectric constant tensor:
#      x y z
#    x 1.725330 -0.000020 -0.021290 
#    y -0.000020 1.706510 -0.000080 
#    z -0.021290 -0.000080 1.718070 
# 
# From -- ./inp_files/66077.got.cif
#   From: 2010.05.17/outbox.cif.g08.bks.cpg/sg5_34_cif.got.tgz:66077.got - 2010.06.03 18:56:24.
