data_PCOD9127938
_publ_section_title
;
Structure prediction by ZEFSAII (Michael W. Deem and Ramdas Pophale) SiO2 
 PCOD9127938
Probable space group: C 2
;
_chemical_formula_sum "Si O2"
_cell_formula_units_Z 22
_cell_length_a 9.586883
_cell_length_b 9.744342
_cell_length_c 9.829918
_cell_angle_alpha 90.000000
_cell_angle_beta 118.243007
_cell_angle_gamma 90.000000
_cell_volume 808.966171
_symmetry_space_group_name_H-M "C 2"
_symmetry_group_IT_number 5
_symmetry_cell_setting 'monoclinic'
loop_
_space_group_symop_operation_xyz
x,y,z
-x,y,-z
1/2+x,1/2+y,z
1/2-x,1/2+y,-z
loop_
_atom_site_type_symbol
_atom_site_label
_atom_site_fract_x
_atom_site_fract_y
_atom_site_fract_z
Si Si1 0.000000 0.815901 0.000000
Si Si2 0.165201 0.698869 0.694038
Si Si3 0.820597 0.394694 0.261295
Si Si4 0.696238 0.694461 0.978490
Si Si5 0.605365 0.502042 0.721241
Si Si6 0.697458 0.664395 0.530937
O O1 0.115854 0.721781 0.962533
O O2 0.870409 0.897639 0.851450
O O3 0.806300 0.693200 0.453457
O O4 0.318992 0.708577 0.867506
O O5 0.083624 0.842845 0.687966
O O6 0.892167 0.545086 0.299119
O O7 0.836280 0.306965 0.406425
O O8 0.879542 0.306172 0.158985
O O9 0.657460 0.547749 0.895031
O O10 0.736279 0.562589 0.674869
O O11 0.449696 0.586223 0.607858
#
# Coordination Sequence:
#
# PCOD9127938 Si02
#       6
#     2   4   4   4   4   4
#     4   8  20  44  70  86 144 188 218 290 348 410
#     4  12  22  38  72 110 129 183 245 276 351 422
#     4   9  21  42  70  94 143 185 227 287 356 414
#     4   9  21  41  68  96 142 181 231 287 353 412
#     4  10  23  44  67  98 144 186 226 294 350 416
#     4  10  23  44  68  97 148 185 224 297 350 409
#
# _framework density 27.195204
#
# number of rings (size 3 to 8) (size 9 to 14) (size 15 to 20)
#    1.091    1.091    0.000    2.182    2.545    0.727 
#    0.000   15.455    0.000    0.000    0.000    0.000 
#    0.000    0.000    0.000    0.000    0.000    0.000 
#
# Total GULP energy -61464.892423 kJ/mol
# GULP energy per Si atom -5587.717493 kJ/mol
# Density = 2.713331 g / cm^3
# Si number density = 27.195204 Si / 1000 Ang^3
#
#
#
# Elastic Constant Matrix: (Units=GPa)
#
#
# Indices 1 2 3 4 5 6 
#
# 1 79.1478 54.6443 40.3538 0.0000 -8.0346 0.0000
# 2 54.6443 240.0817 71.4676 0.0000 -5.9852 0.0000
# 3 40.3538 71.4676 162.6735 0.0000 -18.9418 0.0000
# 4 0.0000 0.0000 0.0000 55.7858 0.0000 -0.6829
# 5 -8.0346 -5.9852 -18.9418 0.0000 44.3773 0.0000
# 6 0.0000 0.0000 0.0000 -0.6829 0.0000 23.6818
#
#
#
# Elastic Compliance Matrix: (Units=1/GPa)
#
#
# Indices 1 2 3 4 5 6 
#
# 1 0.016058 -0.002857 -0.002562 0.000000 0.001428 0.000000
# 2 -0.002857 0.005303 -0.001682 0.000000 -0.000520 0.000000
# 3 -0.002562 -0.001682 0.007830 0.000000 0.002652 0.000000
# 4 0.000000 0.000000 0.000000 0.017932 0.000000 0.000517
# 5 0.001428 -0.000520 0.002652 0.000000 0.023854 0.000000
# 6 0.000000 0.000000 0.000000 0.000517 0.000000 0.042241
#
#
# Mechanical properties :
#
#
# Convention : Reuss Voigt Hill
#
# Bulk Modulus (GPa) = 66.70789 90.53715 78.62252
# Shear Modulus (GPa) = 37.75939 45.79814 41.77877
#
# Velocity S-wave (km/s) = 3.73024 4.10817 3.92376
# Velocity P-wave (km/s) = 6.56776 7.47440 7.03570
#
# Compressibility (1/GPa) = 0.01499073
#
# Stress axis : x y z
#
# Youngs Moduli (GPa) = 62.27361 188.56922 127.70669
#
# Poissons Ratio (x) = 0.53867 0.32720
# Poissons Ratio (y) = 0.17789 0.21476
# Poissons Ratio (z) = 0.15955 0.31712
#
# Static dielectric constant tensor:
#      x y z
#    x 2.267800 0.000000 0.008780 
#    y 0.000000 2.049350 0.000000 
#    z 0.008780 0.000000 2.187680 
# 
# From -- ./inp_files/41608.got.cif
#   From: 2010.05.17/outbox.cif.g08.bks.cpg/sg5_21_cif.got.tgz:41608.got - 2010.06.03 18:56:24.
