data_PCOD9127477
_publ_section_title
;
Structure prediction by ZEFSAII (Michael W. Deem and Ramdas Pophale) SiO2 
 PCOD9127477
Probable space group: C 2
;
_chemical_formula_sum "Si O2"
_cell_formula_units_Z 16
_cell_length_a 13.219582
_cell_length_b 5.250818
_cell_length_c 22.496649
_cell_angle_alpha 90.000000
_cell_angle_beta 157.855962
_cell_angle_gamma 90.000000
_cell_volume 588.613843
_symmetry_space_group_name_H-M "C 2"
_symmetry_group_IT_number 5
_symmetry_cell_setting 'monoclinic'
loop_
_space_group_symop_operation_xyz
x,y,z
-x,y,-z
1/2+x,1/2+y,z
1/2-x,1/2+y,-z
loop_
_atom_site_type_symbol
_atom_site_label
_atom_site_fract_x
_atom_site_fract_y
_atom_site_fract_z
Si Si1 0.245629 0.438810 0.898940
Si Si2 0.044997 0.942328 0.823609
Si Si3 0.296467 0.149391 0.581919
Si Si4 0.928387 0.754080 0.392223
O O1 0.274499 0.150442 0.935507
O O2 0.985601 0.432658 0.714421
O O3 0.163449 0.661048 0.900527
O O4 0.500000 0.526444 0.000000
O O5 0.846622 0.093817 0.759790
O O6 0.885603 0.873210 0.674998
O O7 0.399115 0.171111 0.570944
O O8 0.986727 0.061542 0.418223
O O9 0.000000 0.717697 0.500000
#
# Coordination Sequence:
#
# PCOD9127477 Si02
#       4
#     4   4   4   4
#     4  10  22  47  70  96 136 179 229 278 330 394
#     4  10  23  44  66 100 133 182 219 275 334 401
#     4  10  26  41  69 105 137 180 215 287 335 403
#     4  12  22  43  65 104 141 171 223 271 346 406
#
# _framework density 27.182506
#
# number of rings (size 3 to 8) (size 9 to 14) (size 15 to 20)
#    1.500    0.000    2.500    2.250    0.000    7.000 
#    0.000    2.500    0.000    0.000    0.000    0.000 
#    0.000    0.000    0.000    0.000    0.000    0.000 
#
# Total GULP energy -44546.438950 kJ/mol
# GULP energy per Si atom -5568.304869 kJ/mol
# Density = 2.712064 g / cm^3
# Si number density = 27.182506 Si / 1000 Ang^3
#
#
#
# Elastic Constant Matrix: (Units=GPa)
#
#
# Indices 1 2 3 4 5 6 
#
# 1 159.2079 31.9095 59.9544 -0.0002 2.5511 0.0006
# 2 31.9095 149.7472 39.4372 -0.0049 10.4409 0.0094
# 3 59.9544 39.4372 86.3952 0.0130 17.4185 0.0045
# 4 -0.0002 -0.0049 0.0130 10.1210 -0.0002 31.9359
# 5 2.5511 10.4409 17.4185 -0.0002 55.8203 -0.0012
# 6 0.0006 0.0094 0.0045 31.9359 -0.0012 26.4590
#
#
#
# Elastic Compliance Matrix: (Units=1/GPa)
#
#
# Indices 1 2 3 4 5 6 
#
# 1 0.008645 -0.000328 -0.006170 -0.000002 0.001592 0.000003
# 2 -0.000328 0.007610 -0.003161 -0.000005 -0.000422 0.000004
# 3 -0.006170 -0.003161 0.018273 0.000007 -0.004829 -0.000010
# 4 -0.000002 -0.000005 0.000007 -0.035180 0.000000 0.042462
# 5 0.001592 -0.000422 -0.004829 0.000000 0.019428 0.000002
# 6 0.000003 0.000004 -0.000010 0.042462 0.000002 -0.013457
#
#
# Mechanical properties :
#
#
# Convention : Reuss Voigt Hill
#
# Bulk Modulus (GPa) = 65.75009 73.10584 69.42796
# Shear Modulus (GPa) = 168.30702 36.08332 102.19517
#
# Velocity S-wave (km/s) = 7.87730 3.64737 6.13820
# Velocity P-wave (km/s) = 10.34295 6.68510 8.70825
#
# Compressibility (1/GPa) = 0.01520910
#
# Stress axis : x y z
#
# Youngs Moduli (GPa) = 115.67388 131.41118 54.72523
#
# Poissons Ratio (x) = 0.04312 0.33768
# Poissons Ratio (y) = 0.03795 0.17298
# Poissons Ratio (z) = 0.71375 0.41537
#
# Static dielectric constant tensor:
#      x y z
#    x 2.073650 0.000000 -0.007230 
#    y 0.000000 2.463640 0.000000 
#    z -0.007230 0.000000 2.259230 
# 
# From -- ./inp_files/46735.got.cif
#   From: 2010.05.17/outbox.cif.g08.bks.cpg/sg5_24_cif.got.tgz:46735.got - 2010.06.03 18:56:24.
