data_PCOD9127242
_publ_section_title
;
Structure prediction by ZEFSAII (Michael W. Deem and Ramdas Pophale) SiO2 
 PCOD9127242
Probable space group: C 2
;
_chemical_formula_sum "Si O2"
_cell_formula_units_Z 24
_cell_length_a 11.762712
_cell_length_b 9.117760
_cell_length_c 9.919211
_cell_angle_alpha 90.000000
_cell_angle_beta 101.484600
_cell_angle_gamma 90.000000
_cell_volume 1042.531505
_symmetry_space_group_name_H-M "C 2"
_symmetry_group_IT_number 5
_symmetry_cell_setting 'monoclinic'
loop_
_space_group_symop_operation_xyz
x,y,z
-x,y,-z
1/2+x,1/2+y,z
1/2-x,1/2+y,-z
loop_
_atom_site_type_symbol
_atom_site_label
_atom_site_fract_x
_atom_site_fract_y
_atom_site_fract_z
Si Si1 0.000000 0.487031 0.000000
Si Si2 0.085768 0.333467 0.769013
Si Si3 0.826922 0.735642 0.922341
Si Si4 0.157897 0.625117 0.631585
Si Si5 0.064478 0.768281 0.345586
Si Si6 0.000000 0.978531 0.000000
Si Si7 0.576636 0.597373 0.304367
O O1 0.884988 0.587764 0.990119
O O2 0.998111 0.398020 0.860752
O O3 0.190746 0.259488 0.878344
O O4 0.134819 0.462664 0.685360
O O5 0.017019 0.213195 0.667284
O O6 0.873274 0.741992 0.779974
O O7 0.891276 0.872309 0.007244
O O8 0.117755 0.659608 0.469535
O O9 0.293279 0.656999 0.671299
O O10 0.071311 0.729921 0.693974
O O11 0.079213 0.940467 0.380011
O O12 0.963757 0.064197 0.858740
#
# Coordination Sequence:
#
# PCOD9127242 Si02
#       7
#     2   4   4   4   4   2   4
#     4  11  25  42  68 106 144 190 228 290 372 414
#     4  12  25  43  71 110 139 186 243 293 350 435
#     4  10  22  44  71  99 144 187 234 287 363 420
#     4  11  24  47  73 101 147 184 248 294 350 432
#     4  10  23  49  72  99 140 199 230 303 360 412
#     4   9  19  42  68  98 144 178 230 288 352 426
#     4  11  25  46  69 110 139 190 242 296 363 424
#
# _framework density 23.020886999999998
#
# number of rings (size 3 to 8) (size 9 to 14) (size 15 to 20)
#    0.000    1.333    5.000    0.500    2.333    5.333 
#    6.000    0.000    0.000    0.000    0.000    0.000 
#    0.000    0.000    0.000    0.000    0.000    0.000 
#
# Total GULP energy -67085.679384 kJ/mol
# GULP energy per Si atom -5590.473282 kJ/mol
# Density = 2.296849 g / cm^3
# Si number density = 23.020887 Si / 1000 Ang^3
#
#
#
# Elastic Constant Matrix: (Units=GPa)
#
#
# Indices 1 2 3 4 5 6 
#
# 1 110.7033 23.3477 9.6868 0.0000 47.5402 0.0000
# 2 23.3477 77.1392 20.5982 0.0000 20.7333 0.0000
# 3 9.6868 20.5982 93.4906 0.0000 12.1833 0.0000
# 4 0.0000 0.0000 0.0000 17.1562 0.0000 6.4948
# 5 47.5402 20.7333 12.1833 0.0000 36.3891 0.0000
# 6 0.0000 0.0000 0.0000 6.4948 0.0000 25.6568
#
#
#
# Elastic Compliance Matrix: (Units=1/GPa)
#
#
# Indices 1 2 3 4 5 6 
#
# 1 0.020817 0.000918 0.001310 0.000000 -0.028158 0.000000
# 2 0.000918 0.015853 -0.002357 0.000000 -0.009442 0.000000
# 3 0.001310 -0.002357 0.011636 0.000000 -0.004264 0.000000
# 4 0.000000 0.000000 0.000000 0.064466 0.000000 -0.016319
# 5 -0.028158 -0.009442 -0.004264 0.000000 0.071074 0.000000
# 6 0.000000 0.000000 0.000000 -0.016319 0.000000 0.043107
#
#
# Mechanical properties :
#
#
# Convention : Reuss Voigt Hill
#
# Bulk Modulus (GPa) = 20.81313 43.17761 31.99537
# Shear Modulus (GPa) = 20.55688 31.02046 25.78867
#
# Velocity S-wave (km/s) = 2.99150 3.67480 3.35061
# Velocity P-wave (km/s) = 4.58178 6.06648 5.37563
#
# Compressibility (1/GPa) = 0.04804659
#
# Stress axis : x y z
#
# Youngs Moduli (GPa) = 48.03784 63.07887 85.94307
#
# Poissons Ratio (x) = -0.05788 -0.11261
# Poissons Ratio (y) = -0.04408 0.20261
# Poissons Ratio (z) = -0.06294 0.14871
#
# Static dielectric constant tensor:
#      x y z
#    x 1.837780 0.000000 0.005030 
#    y 0.000000 1.909240 0.000000 
#    z 0.005030 0.000000 1.865570 
# 
# From -- ./inp_files/38456.got.cif
#   From: 2010.05.17/outbox.cif.g08.bks.cpg/sg5_20_cif.got.tgz:38456.got - 2010.06.03 18:56:24.
