data_PCOD9127863
_publ_section_title
;
Structure prediction by ZEFSAII (Michael W. Deem and Ramdas Pophale) SiO2 
 PCOD9127863
Probable space group: C 2
;
_chemical_formula_sum "Si O2"
_cell_formula_units_Z 18
_cell_length_a 10.569174
_cell_length_b 8.415343
_cell_length_c 9.542035
_cell_angle_alpha 90.000000
_cell_angle_beta 58.432620
_cell_angle_gamma 90.000000
_cell_volume 723.113170
_symmetry_space_group_name_H-M "C 2"
_symmetry_group_IT_number 5
_symmetry_cell_setting 'monoclinic'
loop_
_space_group_symop_operation_xyz
x,y,z
-x,y,-z
1/2+x,1/2+y,z
1/2-x,1/2+y,-z
loop_
_atom_site_type_symbol
_atom_site_label
_atom_site_fract_x
_atom_site_fract_y
_atom_site_fract_z
Si Si1 0.263123 0.470660 0.351379
Si Si2 0.683061 0.710874 0.105330
Si Si3 0.774339 0.134095 0.607653
Si Si4 0.000000 0.994439 0.000000
Si Si5 0.923184 0.573779 0.781096
O O1 0.178516 0.314819 0.449870
O O2 0.344377 0.534655 0.441228
O O3 0.156363 0.588048 0.325895
O O4 0.378252 0.409560 0.166136
O O5 0.691553 0.619243 0.248979
O O6 0.618303 0.890330 0.152963
O O7 0.581103 0.609588 0.061460
O O8 0.842234 0.694042 0.935053
O O9 0.598538 0.103011 0.682344
#
# Coordination Sequence:
#
# PCOD9127863 Si02
#       5
#     4   4   4   2   4
#     4  10  25  44  67  98 139 176 229 276 340 396
#     4  10  24  40  71  99 137 177 230 271 346 392
#     4  11  24  43  69 100 137 179 227 281 334 403
#     4  10  24  46  64 100 142 174 226 286 328 412
#     4  10  23  43  68 101 136 183 223 281 333 411
#
# _framework density 24.89237
#
# number of rings (size 3 to 8) (size 9 to 14) (size 15 to 20)
#    0.000    1.778    0.000    1.333   15.556    2.667 
#    4.000    0.000    0.000    0.000    0.000    0.000 
#    0.000    0.000    0.000    0.000    0.000    0.000 
#
# Total GULP energy -50280.236216 kJ/mol
# GULP energy per Si atom -5586.692913 kJ/mol
# Density = 2.483571 g / cm^3
# Si number density = 24.892370 Si / 1000 Ang^3
#
#
#
# Elastic Constant Matrix: (Units=GPa)
#
#
# Indices 1 2 3 4 5 6 
#
# 1 122.2929 8.9880 44.7959 0.0000 12.5196 0.0000
# 2 8.9880 47.5756 32.8481 0.0000 17.6449 0.0000
# 3 44.7959 32.8481 132.0380 0.0000 31.0387 0.0000
# 4 0.0000 0.0000 0.0000 37.9907 0.0000 9.4658
# 5 12.5196 17.6449 31.0387 0.0000 64.8911 0.0000
# 6 0.0000 0.0000 0.0000 9.4658 0.0000 29.4207
#
#
#
# Elastic Compliance Matrix: (Units=1/GPa)
#
#
# Indices 1 2 3 4 5 6 
#
# 1 0.009358 0.000620 -0.003228 0.000000 -0.000430 0.000000
# 2 0.000620 0.026571 -0.005739 0.000000 -0.004599 0.000000
# 3 -0.003228 -0.005739 0.010797 0.000000 -0.002981 0.000000
# 4 0.000000 0.000000 0.000000 0.028616 0.000000 -0.009207
# 5 -0.000430 -0.004599 -0.002981 0.000000 0.018170 0.000000
# 6 0.000000 0.000000 0.000000 -0.009207 0.000000 0.036952
#
#
# Mechanical properties :
#
#
# Convention : Reuss Voigt Hill
#
# Bulk Modulus (GPa) = 33.29821 52.79672 43.04746
# Shear Modulus (GPa) = 31.81291 40.81213 36.31252
#
# Velocity S-wave (km/s) = 3.57882 4.05352 3.82354
# Velocity P-wave (km/s) = 5.52116 6.56994 6.06825
#
# Compressibility (1/GPa) = 0.03003165
#
# Stress axis : x y z
#
# Youngs Moduli (GPa) = 106.86076 37.63569 92.61496
#
# Poissons Ratio (x) = -0.02335 0.29897
# Poissons Ratio (y) = -0.06630 0.53156
# Poissons Ratio (z) = 0.34495 0.21601
#
# Static dielectric constant tensor:
#      x y z
#    x 2.068320 0.000000 -0.083020 
#    y 0.000000 1.901830 0.000000 
#    z -0.083020 0.000000 2.047730 
# 
# From -- ./inp_files/18205.got.cif
#   From: 2010.05.17/outbox.cif.g08.bks.cpg/sg5_10_cif.got.tgz:18205.got - 2010.06.03 18:56:24.
