data_PCOD9127656
_publ_section_title
;
Structure prediction by ZEFSAII (Michael W. Deem and Ramdas Pophale) SiO2 
 PCOD9127656
Probable space group: C 2
;
_chemical_formula_sum "Si O2"
_cell_formula_units_Z 28
_cell_length_a 23.064678
_cell_length_b 5.508777
_cell_length_c 11.659035
_cell_angle_alpha 90.000000
_cell_angle_beta 116.552264
_cell_angle_gamma 90.000000
_cell_volume 1325.130459
_symmetry_space_group_name_H-M "C 2"
_symmetry_group_IT_number 5
_symmetry_cell_setting 'monoclinic'
loop_
_space_group_symop_operation_xyz
x,y,z
-x,y,-z
1/2+x,1/2+y,z
1/2-x,1/2+y,-z
loop_
_atom_site_type_symbol
_atom_site_label
_atom_site_fract_x
_atom_site_fract_y
_atom_site_fract_z
Si Si1 0.472127 0.976730 0.199534
Si Si2 0.190551 0.398661 0.339356
Si Si3 0.115885 0.495105 0.667792
Si Si4 0.500000 0.647530 0.500000
Si Si5 0.500000 0.280416 0.000000
Si Si6 0.069958 0.792351 0.420692
Si Si7 0.236416 0.397528 0.640781
Si Si8 0.070114 0.114855 0.218912
O O1 0.408740 0.018566 0.222776
O O2 0.498126 0.711503 0.187399
O O3 0.532141 0.068771 0.332131
O O4 0.473748 0.126076 0.083722
O O5 0.197312 0.399035 0.484415
O O6 0.220058 0.653867 0.323438
O O7 0.116720 0.342634 0.239730
O O8 0.227626 0.157489 0.327850
O O9 0.107864 0.719774 0.569676
O O10 0.186616 0.394434 0.702731
O O11 0.062889 0.305976 0.574131
O O12 0.512437 0.467796 0.408004
O O13 0.442111 0.445175 0.899510
O O14 0.102472 0.949164 0.348571
#
# Coordination Sequence:
#
# PCOD9127656 Si02
#       8
#     4   4   4   2   2   4   4   4
#     4  11  21  39  59  94 126 160 214 276 335 387
#     4  10  23  41  61  91 137 180 217 256 313 399
#     4  12  22  35  58  98 136 168 211 263 333 405
#     4  12  18  32  52  92 130 170 198 248 332 400
#     4  10  26  40  64  98 120 170 224 284 340 382
#     4  11  20  31  57  93 131 170 197 255 335 394
#     4  10  24  38  60  97 136 180 212 254 318 405
#     4  11  23  41  65  91 128 173 222 272 327 391
#
# _framework density 21.129996999999999
#
# number of rings (size 3 to 8) (size 9 to 14) (size 15 to 20)
#    0.000    1.143    4.286    2.143   12.000    0.000 
#    0.000    0.000    0.000    0.000    7.429    0.000 
#    0.000    0.000    0.000    0.000    0.000    0.000 
#
# Total GULP energy -78085.871167 kJ/mol
# GULP energy per Si atom -5577.562226 kJ/mol
# Density = 2.108190 g / cm^3
# Si number density = 21.129997 Si / 1000 Ang^3
#
#
#
# Elastic Constant Matrix: (Units=GPa)
#
#
# Indices 1 2 3 4 5 6 
#
# 1 137.8464 43.5830 41.6004 0.0000 -27.3937 0.0000
# 2 43.5830 97.2404 36.7400 0.0000 -13.1886 0.0000
# 3 41.6004 36.7400 84.2731 0.0000 -28.9530 0.0000
# 4 0.0000 0.0000 0.0000 32.9916 0.0000 -0.8442
# 5 -27.3937 -13.1886 -28.9530 0.0000 24.5324 0.0000
# 6 0.0000 0.0000 0.0000 -0.8442 0.0000 31.8184
#
#
#
# Elastic Compliance Matrix: (Units=1/GPa)
#
#
# Indices 1 2 3 4 5 6 
#
# 1 0.010216 -0.003138 -0.000564 0.000000 0.009055 0.000000
# 2 -0.003138 0.013279 -0.005031 0.000000 -0.002303 0.000000
# 3 -0.000564 -0.005031 0.022190 0.000000 0.022853 0.000000
# 4 0.000000 0.000000 0.000000 0.030331 0.000000 0.000805
# 5 0.009055 -0.002303 0.022853 0.000000 0.076607 0.000000
# 6 0.000000 0.000000 0.000000 0.000805 0.000000 0.031450
#
#
# Mechanical properties :
#
#
# Convention : Reuss Voigt Hill
#
# Bulk Modulus (GPa) = 35.43815 62.57853 49.00834
# Shear Modulus (GPa) = 23.70283 31.03090 27.36687
#
# Velocity S-wave (km/s) = 3.35291 3.83635 3.60275
# Velocity P-wave (km/s) = 5.63890 7.02166 6.36792
#
# Compressibility (1/GPa) = 0.02821818
#
# Stress axis : x y z
#
# Youngs Moduli (GPa) = 97.88342 75.30861 45.06590
#
# Poissons Ratio (x) = 0.23629 0.02543
# Poissons Ratio (y) = 0.30712 0.22674
# Poissons Ratio (z) = 0.05523 0.37891
#
# Static dielectric constant tensor:
#      x y z
#    x 1.828080 0.000000 -0.028240 
#    y 0.000000 1.839270 0.000000 
#    z -0.028240 0.000000 1.770740 
# 
# From -- ./inp_files/45442.got.cif
#   From: 2010.05.17/outbox.cif.g08.bks.cpg/sg5_23_cif.got.tgz:45442.got - 2010.06.03 18:56:24.
