data_PCOD9127781
_publ_section_title
;
Structure prediction by ZEFSAII (Michael W. Deem and Ramdas Pophale) SiO2 
 PCOD9127781
Probable space group: C 2
;
_chemical_formula_sum "Si O2"
_cell_formula_units_Z 26
_cell_length_a 9.840225
_cell_length_b 20.090337
_cell_length_c 7.803010
_cell_angle_alpha 90.000000
_cell_angle_beta 129.938939
_cell_angle_gamma 90.000000
_cell_volume 1182.759172
_symmetry_space_group_name_H-M "C 2"
_symmetry_group_IT_number 5
_symmetry_cell_setting 'monoclinic'
loop_
_space_group_symop_operation_xyz
x,y,z
-x,y,-z
1/2+x,1/2+y,z
1/2-x,1/2+y,-z
loop_
_atom_site_type_symbol
_atom_site_label
_atom_site_fract_x
_atom_site_fract_y
_atom_site_fract_z
Si Si1 0.653165 0.062110 0.331737
Si Si2 0.556228 0.660526 0.345686
Si Si3 0.350104 0.796815 0.732316
Si Si4 0.510000 0.923628 0.312487
Si Si5 0.734099 0.089904 0.997104
Si Si6 0.000000 0.875321 0.500000
Si Si7 0.612429 0.446484 0.925164
O O1 0.816025 0.095745 0.563253
O O2 0.694992 0.079622 0.168331
O O3 0.619230 0.982832 0.310219
O O4 0.463673 0.092680 0.237855
O O5 0.500000 0.668974 0.500000
O O6 0.656334 0.724735 0.357864
O O7 0.372593 0.649575 0.094250
O O8 0.403661 0.852149 0.635367
O O9 0.166534 0.826251 0.649551
O O10 0.500000 0.797480 0.000000
O O11 0.500000 0.945460 0.500000
O O12 0.311112 0.917229 0.081215
O O13 0.839690 0.024442 0.025223
O O14 0.009046 0.923073 0.673110
O O15 0.500000 0.426470 0.000000
#
# Coordination Sequence:
#
# PCOD9127781 Si02
#       7
#     4   4   4   4   4   2   4
#     4   9  20  40  66  99 130 177 221 278 346 398
#     4  10  23  42  67  95 129 182 225 274 345 411
#     4  12  26  46  66  96 139 185 226 280 351 412
#     4  11  23  43  69 102 139 174 229 293 343 407
#     4   9  20  38  66  96 136 169 222 280 334 411
#     4  12  26  46  70 100 140 182 232 288 344 416
#     4  11  24  40  69 109 135 180 232 287 347 406
#
# _framework density 21.982496000000001
#
# number of rings (size 3 to 8) (size 9 to 14) (size 15 to 20)
#    0.000    1.538    1.538    2.308    9.692    1.846 
#    4.154    0.000    0.000    0.000    0.000    0.000 
#    0.000    0.000    0.000    0.000    0.000    0.000 
#
# Total GULP energy -72640.792668 kJ/mol
# GULP energy per Si atom -5587.753282 kJ/mol
# Density = 2.193246 g / cm^3
# Si number density = 21.982496 Si / 1000 Ang^3
#
#
#
# Elastic Constant Matrix: (Units=GPa)
#
#
# Indices 1 2 3 4 5 6 
#
# 1 78.7978 29.9005 35.0832 0.0000 8.9625 0.0000
# 2 29.9005 50.8380 -3.0727 0.0000 3.2652 0.0000
# 3 35.0832 -3.0727 91.4012 0.0000 12.0880 0.0000
# 4 0.0000 0.0000 0.0000 27.0173 0.0000 4.0171
# 5 8.9625 3.2652 12.0880 0.0000 28.5319 0.0000
# 6 0.0000 0.0000 0.0000 4.0171 0.0000 30.6933
#
#
#
# Elastic Compliance Matrix: (Units=1/GPa)
#
#
# Indices 1 2 3 4 5 6 
#
# 1 0.021677 -0.013158 -0.008540 0.000000 -0.001685 0.000000
# 2 -0.013158 0.027893 0.006212 0.000000 -0.001691 0.000000
# 3 -0.008540 0.006212 0.015008 0.000000 -0.004386 0.000000
# 4 0.000000 0.000000 0.000000 0.037748 0.000000 -0.004940
# 5 -0.001685 -0.001691 -0.004386 0.000000 0.037630 0.000000
# 6 0.000000 0.000000 0.000000 -0.004940 0.000000 0.033227
#
#
# Mechanical properties :
#
#
# Convention : Reuss Voigt Hill
#
# Bulk Modulus (GPa) = 29.75636 38.31768 34.03702
# Shear Modulus (GPa) = 23.21727 27.85689 25.53708
#
# Velocity S-wave (km/s) = 3.25340 3.56368 3.41207
# Velocity P-wave (km/s) = 5.26105 5.86532 5.57138
#
# Compressibility (1/GPa) = 0.03360626
#
# Stress axis : x y z
#
# Youngs Moduli (GPa) = 46.13087 35.85127 66.63252
#
# Poissons Ratio (x) = 0.47172 0.56904
# Poissons Ratio (y) = 0.60697 -0.41390
# Poissons Ratio (z) = 0.39396 -0.22270
#
# Static dielectric constant tensor:
#      x y z
#    x 1.815510 0.000000 0.004270 
#    y 0.000000 1.757530 0.000000 
#    z 0.004270 0.000000 1.821890 
# 
# From -- ./inp_files/16981.got.cif
#   From: 2010.05.17/outbox.cif.g08.bks.cpg/sg5_9_cif.got.tgz:16981.got - 2010.06.03 18:56:24.
