data_PCOD9127183
_publ_section_title
;
Structure prediction by ZEFSAII (Michael W. Deem and Ramdas Pophale) SiO2 
 PCOD9127183
Probable space group: C 2
;
_chemical_formula_sum "Si O2"
_cell_formula_units_Z 18
_cell_length_a 12.304281
_cell_length_b 7.381430
_cell_length_c 9.181718
_cell_angle_alpha 90.000000
_cell_angle_beta 127.528861
_cell_angle_gamma 90.000000
_cell_volume 661.331792
_symmetry_space_group_name_H-M "C 2"
_symmetry_group_IT_number 5
_symmetry_cell_setting 'monoclinic'
loop_
_space_group_symop_operation_xyz
x,y,z
-x,y,-z
1/2+x,1/2+y,z
1/2-x,1/2+y,-z
loop_
_atom_site_type_symbol
_atom_site_label
_atom_site_fract_x
_atom_site_fract_y
_atom_site_fract_z
Si Si1 0.838139 0.817950 0.861097
Si Si2 0.552720 0.808177 0.206851
Si Si3 0.000000 0.700959 0.500000
Si Si4 0.829973 0.598433 0.126566
Si Si5 0.238337 0.600933 0.474205
O O1 0.784282 0.766751 0.658602
O O2 0.792657 0.011047 0.884457
O O3 0.784923 0.674446 0.936366
O O4 0.000000 0.796372 0.000000
O O5 0.608207 0.630821 0.337650
O O6 0.436321 0.932004 0.188041
O O7 0.690177 0.933622 0.333299
O O8 0.500000 0.787605 0.000000
O O9 0.909128 0.754458 0.283808
O O10 0.874442 0.609444 0.488608
#
# Coordination Sequence:
#
# PCOD9127183 Si02
#       5
#     4   4   2   4   4
#     4  12  23  48  73 108 153 196 246 314 370 443
#     4  11  23  47  72 105 153 194 243 314 366 440
#     4  10  22  44  68 108 144 196 246 310 366 442
#     4  11  24  45  71 104 150 195 247 308 374 440
#     4  11  23  45  73 105 149 199 245 306 377 434
#
# _framework density 27.217803
#
# number of rings (size 3 to 8) (size 9 to 14) (size 15 to 20)
#    0.000    0.889    6.667    2.667    3.111    0.000 
#    8.000    1.111    0.000    0.000    0.000    0.000 
#    0.000    0.000    0.000    0.000    0.000    0.000 
#
# Total GULP energy -50230.466315 kJ/mol
# GULP energy per Si atom -5581.162924 kJ/mol
# Density = 2.715585 g / cm^3
# Si number density = 27.217803 Si / 1000 Ang^3
#
#
#
# Elastic Constant Matrix: (Units=GPa)
#
#
# Indices 1 2 3 4 5 6 
#
# 1 87.4311 37.4629 49.7733 0.0000 -12.0489 0.0000
# 2 37.4629 87.0505 35.1500 0.0000 11.5452 0.0000
# 3 49.7733 35.1500 232.0433 0.0000 -13.0914 0.0000
# 4 0.0000 0.0000 0.0000 34.7557 0.0000 5.6234
# 5 -12.0489 11.5452 -13.0914 0.0000 32.6101 0.0000
# 6 0.0000 0.0000 0.0000 5.6234 0.0000 42.2540
#
#
#
# Elastic Compliance Matrix: (Units=1/GPa)
#
#
# Indices 1 2 3 4 5 6 
#
# 1 0.016949 -0.007550 -0.002034 0.000000 0.008119 0.000000
# 2 -0.007550 0.016524 -0.001403 0.000000 -0.009203 0.000000
# 3 -0.002034 -0.001403 0.005059 0.000000 0.001776 0.000000
# 4 0.000000 0.000000 0.000000 0.029405 0.000000 -0.003913
# 5 0.008119 -0.009203 0.001776 0.000000 0.037636 0.000000
# 6 0.000000 0.000000 0.000000 -0.003913 0.000000 0.024187
#
#
# Mechanical properties :
#
#
# Convention : Reuss Voigt Hill
#
# Bulk Modulus (GPa) = 60.39202 72.36637 66.37920
# Shear Modulus (GPa) = 31.79595 40.86653 36.33124
#
# Velocity S-wave (km/s) = 3.42161 3.87908 3.65750
# Velocity P-wave (km/s) = 6.15195 6.83437 6.50212
#
# Compressibility (1/GPa) = 0.01655848
#
# Stress axis : x y z
#
# Youngs Moduli (GPa) = 58.99946 60.51938 197.68697
#
# Poissons Ratio (x) = 0.45691 0.40208
# Poissons Ratio (y) = 0.44543 0.27731
# Poissons Ratio (z) = 0.12000 0.08489
#
# Static dielectric constant tensor:
#      x y z
#    x 2.088960 0.000000 0.025180 
#    y 0.000000 2.316150 0.000000 
#    z 0.025180 0.000000 2.103760 
# 
# From -- ./inp_files/18405.got.cif
#   From: 2010.05.17/outbox.cif.g08.bks.cpg/sg5_10_cif.got.tgz:18405.got - 2010.06.03 18:56:24.
