data_PCOD9127090
_publ_section_title
;
Structure prediction by ZEFSAII (Michael W. Deem and Ramdas Pophale) SiO2 
 PCOD9127090
Probable space group: C 2
;
_chemical_formula_sum "Si O2"
_cell_formula_units_Z 28
_cell_length_a 20.353638
_cell_length_b 7.169663
_cell_length_c 17.602532
_cell_angle_alpha 90.000000
_cell_angle_beta 154.333571
_cell_angle_gamma 90.000000
_cell_volume 1112.590242
_symmetry_space_group_name_H-M "C 2"
_symmetry_group_IT_number 5
_symmetry_cell_setting 'monoclinic'
loop_
_space_group_symop_operation_xyz
x,y,z
-x,y,-z
1/2+x,1/2+y,z
1/2-x,1/2+y,-z
loop_
_atom_site_type_symbol
_atom_site_label
_atom_site_fract_x
_atom_site_fract_y
_atom_site_fract_z
Si Si1 0.370733 0.422770 0.301184
Si Si2 0.849319 0.656671 0.600363
Si Si3 0.679462 0.185504 0.186468
Si Si4 0.118671 0.062142 0.471829
Si Si5 0.328772 0.619576 0.969384
Si Si6 0.908095 0.378012 0.195563
Si Si7 0.341774 0.484905 0.719380
O O1 0.500000 0.415161 0.500000
O O2 0.266400 0.607424 0.203184
O O3 0.472097 0.434315 0.330218
O O4 0.265664 0.245322 0.186975
O O5 0.723204 0.522906 0.509763
O O6 0.771799 0.639744 0.434853
O O7 0.861819 0.806976 0.682074
O O8 0.008595 0.555488 0.755107
O O9 0.767590 0.059608 0.339794
O O10 0.702933 0.392485 0.246137
O O11 0.500000 0.152734 0.000000
O O12 0.039284 0.264558 0.377551
O O13 0.226942 0.449035 0.892607
O O14 0.358959 0.744014 0.076054
O O15 0.489912 0.566894 0.102696
#
# Coordination Sequence:
#
# PCOD9127090 Si02
#       7
#     4   4   4   4   4   4   4
#     4  10  25  49  69  95 142 198 249 284 353 419
#     4  11  21  42  71 109 141 177 226 300 375 438
#     4  10  23  45  72  98 133 198 241 295 340 422
#     4  10  22  43  71  99 137 188 236 300 364 426
#     4  12  26  42  70 108 144 190 235 304 357 439
#     4  12  24  41  68 107 146 180 233 302 378 426
#     4  11  23  44  71 109 140 180 238 293 373 422
#
# _framework density 25.166498000000001
#
# number of rings (size 3 to 8) (size 9 to 14) (size 15 to 20)
#    0.000    1.143    4.286    1.714    8.000    0.000 
#    2.571    0.714    0.000    0.000    0.000    0.000 
#    0.000    0.000    0.000    0.000    0.000    0.000 
#
# Total GULP energy -78131.447694 kJ/mol
# GULP energy per Si atom -5580.817692 kJ/mol
# Density = 2.510922 g / cm^3
# Si number density = 25.166498 Si / 1000 Ang^3
#
#
#
# Elastic Constant Matrix: (Units=GPa)
#
#
# Indices 1 2 3 4 5 6 
#
# 1 34.1881 30.0246 19.4715 0.0000 7.0043 0.0000
# 2 30.0246 83.3387 39.1885 0.0000 -1.4514 0.0000
# 3 19.4715 39.1885 141.4232 0.0000 3.4355 0.0000
# 4 0.0000 0.0000 0.0000 50.1904 0.0000 -1.8402
# 5 7.0043 -1.4514 3.4355 0.0000 19.1566 0.0000
# 6 0.0000 0.0000 0.0000 -1.8402 0.0000 47.6102
#
#
#
# Elastic Compliance Matrix: (Units=1/GPa)
#
#
# Indices 1 2 3 4 5 6 
#
# 1 0.049272 -0.017375 -0.001506 0.000000 -0.019062 0.000000
# 2 -0.017375 0.019982 -0.003350 0.000000 0.008468 0.000000
# 3 -0.001506 -0.003350 0.008235 0.000000 -0.001180 0.000000
# 4 0.000000 0.000000 0.000000 0.019952 0.000000 0.000771
# 5 -0.019062 0.008468 -0.001180 0.000000 0.060024 0.000000
# 6 0.000000 0.000000 0.000000 0.000771 0.000000 0.021034
#
#
# Mechanical properties :
#
#
# Convention : Reuss Voigt Hill
#
# Bulk Modulus (GPa) = 30.27914 48.47991 39.37952
# Shear Modulus (GPa) = 21.37005 34.74246 28.05625
#
# Velocity S-wave (km/s) = 2.91717 3.71954 3.34252
# Velocity P-wave (km/s) = 4.83779 6.14428 5.52975
#
# Compressibility (1/GPa) = 0.03302604
#
# Stress axis : x y z
#
# Youngs Moduli (GPa) = 20.29542 50.04514 121.42639
#
# Poissons Ratio (x) = 0.86954 0.18289
# Poissons Ratio (y) = 0.35263 0.40684
# Poissons Ratio (z) = 0.03057 0.16767
#
# Static dielectric constant tensor:
#      x y z
#    x 1.960370 0.000000 -0.138430 
#    y 0.000000 2.115250 0.000000 
#    z -0.138430 0.000000 1.849980 
# 
# From -- ./inp_files/67390.got.cif
#   From: 2010.05.17/outbox.cif.g08.bks.cpg/sg5_34_cif.got.tgz:67390.got - 2010.06.03 18:56:24.
