data_PCOD9127994
_publ_section_title
;
Structure prediction by ZEFSAII (Michael W. Deem and Ramdas Pophale) SiO2 
 PCOD9127994
Probable space group: C 2
;
_chemical_formula_sum "Si O2"
_cell_formula_units_Z 20
_cell_length_a 17.612708
_cell_length_b 9.598037
_cell_length_c 8.637957
_cell_angle_alpha 90.000000
_cell_angle_beta 149.234428
_cell_angle_gamma 90.000000
_cell_volume 746.943665
_symmetry_space_group_name_H-M "C 2"
_symmetry_group_IT_number 5
_symmetry_cell_setting 'monoclinic'
loop_
_space_group_symop_operation_xyz
x,y,z
-x,y,-z
1/2+x,1/2+y,z
1/2-x,1/2+y,-z
loop_
_atom_site_type_symbol
_atom_site_label
_atom_site_fract_x
_atom_site_fract_y
_atom_site_fract_z
Si Si1 0.676373 0.083470 0.541653
Si Si2 0.605100 0.553441 0.539195
Si Si3 0.577479 0.292062 0.884473
Si Si4 0.693545 0.784843 0.460078
Si Si5 0.675998 0.930472 0.847652
O O1 0.892367 0.184290 0.571123
O O2 0.786455 0.195963 0.659132
O O3 0.649252 0.947007 0.385309
O O4 0.729911 0.026803 0.799108
O O5 0.500000 0.584603 0.500000
O O6 0.531837 0.421692 0.327308
O O7 0.761539 0.495393 0.883851
O O8 0.475854 0.159246 0.687763
O O9 0.647618 0.290218 0.176680
O O10 0.712273 0.301106 0.995142
O O11 0.500000 0.909065 0.500000
#
# Coordination Sequence:
#
# PCOD9127994 Si02
#       5
#     4   4   4   4   4
#     4  11  24  44  72 106 148 194 245 307 371 441
#     4  10  23  46  75 107 150 199 249 307 373 447
#     4  10  23  45  71 101 144 193 246 303 362 436
#     4  11  24  45  72 107 152 197 248 306 375 448
#     4  10  23  44  74 111 148 195 248 309 378 446
#
# _framework density 26.775780000000001
#
# number of rings (size 3 to 8) (size 9 to 14) (size 15 to 20)
#    0.000    1.600    0.000    3.000    0.000   13.600 
#    0.000   29.000    0.000    0.000    0.000    1.400 
#    0.000    0.000    0.000    0.000    0.000    0.000 
#
# Total GULP energy -55965.022454 kJ/mol
# GULP energy per Si atom -5596.502245 kJ/mol
# Density = 2.671484 g / cm^3
# Si number density = 26.775780 Si / 1000 Ang^3
#
#
#
# Elastic Constant Matrix: (Units=GPa)
#
#
# Indices 1 2 3 4 5 6 
#
# 1 72.1325 33.5367 12.0642 0.0000 11.1467 0.0000
# 2 33.5367 177.8909 42.7938 0.0000 18.9756 0.0000
# 3 12.0642 42.7938 130.6552 0.0000 11.2966 0.0000
# 4 0.0000 0.0000 0.0000 43.5833 0.0000 8.9040
# 5 11.1467 18.9756 11.2966 0.0000 38.2077 0.0000
# 6 0.0000 0.0000 0.0000 8.9040 0.0000 64.9319
#
#
#
# Elastic Compliance Matrix: (Units=1/GPa)
#
#
# Indices 1 2 3 4 5 6 
#
# 1 0.015584 -0.002515 -0.000339 0.000000 -0.003197 0.000000
# 2 -0.002515 0.006751 -0.001798 0.000000 -0.002087 0.000000
# 3 -0.000339 -0.001798 0.008403 0.000000 -0.001493 0.000000
# 4 0.000000 0.000000 0.000000 0.023606 0.000000 -0.003237
# 5 -0.003197 -0.002087 -0.001493 0.000000 0.028583 0.000000
# 6 0.000000 0.000000 0.000000 -0.003237 0.000000 0.015845
#
#
# Mechanical properties :
#
#
# Convention : Reuss Voigt Hill
#
# Bulk Modulus (GPa) = 46.65780 61.94089 54.29935
# Shear Modulus (GPa) = 43.39507 48.83018 46.11262
#
# Velocity S-wave (km/s) = 4.03014 4.27508 4.15441
# Velocity P-wave (km/s) = 6.25454 6.89578 6.58297
#
# Compressibility (1/GPa) = 0.02143264
#
# Stress axis : x y z
#
# Youngs Moduli (GPa) = 64.17037 148.12824 119.00391
#
# Poissons Ratio (x) = 0.37260 0.04030
# Poissons Ratio (y) = 0.16141 0.21402
# Poissons Ratio (z) = 0.02173 0.26640
#
# Static dielectric constant tensor:
#      x y z
#    x 2.134940 0.000000 0.051250 
#    y 0.000000 2.199630 0.000000 
#    z 0.051250 0.000000 2.076350 
# 
# From -- ./inp_files/27428.got.cif
#   From: 2010.05.17/outbox.cif.g08.bks.cpg/sg5_14_cif.got.tgz:27428.got - 2010.06.03 18:56:24.
