data_PCOD9127525
_publ_section_title
;
Structure prediction by ZEFSAII (Michael W. Deem and Ramdas Pophale) SiO2 
 PCOD9127525
Probable space group: C 2
;
_chemical_formula_sum "Si O2"
_cell_formula_units_Z 16
_cell_length_a 10.539228
_cell_length_b 8.960920
_cell_length_c 10.086371
_cell_angle_alpha 90.000000
_cell_angle_beta 140.643193
_cell_angle_gamma 90.000000
_cell_volume 604.069389
_symmetry_space_group_name_H-M "C 2"
_symmetry_group_IT_number 5
_symmetry_cell_setting 'monoclinic'
loop_
_space_group_symop_operation_xyz
x,y,z
-x,y,-z
1/2+x,1/2+y,z
1/2-x,1/2+y,-z
loop_
_atom_site_type_symbol
_atom_site_label
_atom_site_fract_x
_atom_site_fract_y
_atom_site_fract_z
Si Si1 0.781811 0.383340 0.440976
Si Si2 0.147800 0.878777 0.789236
Si Si3 0.885969 0.178675 0.169391
Si Si4 0.500000 0.481105 0.000000
Si Si5 0.000000 0.645614 0.500000
O O1 0.591988 0.387779 0.383884
O O2 0.912043 0.535382 0.540378
O O3 0.928801 0.251921 0.603491
O O4 0.678571 0.383549 0.211396
O O5 0.168907 0.754249 0.694322
O O6 0.215579 0.048057 0.824819
O O7 0.248704 0.807516 0.999106
O O8 0.944950 0.084913 0.082631
#
# Coordination Sequence:
#
# PCOD9127525 Si02
#       5
#     4   4   4   2   2
#     4  11  25  44  78 107 145 200 245 304 372 437
#     4  11  24  45  74 113 146 196 251 303 369 448
#     4  11  24  45  75 109 151 194 250 306 369 445
#     4  10  22  48  76 104 156 196 238 310 380 418
#     4  12  24  50  78 100 160 198 236 320 372 424
#
# _framework density 26.487024000000002
#
# number of rings (size 3 to 8) (size 9 to 14) (size 15 to 20)
#    0.000    1.000    2.500    4.500    3.500    1.000 
#    0.000    0.000    5.500    0.000    0.000    0.000 
#    0.000    0.000    0.000    0.000    0.000    0.000 
#
# Total GULP energy -44705.123281 kJ/mol
# GULP energy per Si atom -5588.140410 kJ/mol
# Density = 2.642674 g / cm^3
# Si number density = 26.487024 Si / 1000 Ang^3
#
#
#
# Elastic Constant Matrix: (Units=GPa)
#
#
# Indices 1 2 3 4 5 6 
#
# 1 54.6193 12.8941 7.4789 0.0003 -8.1572 0.0001
# 2 12.8941 219.0598 98.1736 0.0000 -3.4139 0.0000
# 3 7.4789 98.1736 186.9420 0.0005 -22.4950 0.0003
# 4 0.0003 0.0000 0.0005 67.4966 0.0003 -12.5562
# 5 -8.1572 -3.4139 -22.4950 0.0003 45.8279 0.0002
# 6 0.0001 0.0000 0.0003 -12.5562 0.0002 38.6871
#
#
#
# Elastic Compliance Matrix: (Units=1/GPa)
#
#
# Indices 1 2 3 4 5 6 
#
# 1 0.019066 -0.001193 0.000278 0.000000 0.003441 0.000000
# 2 -0.001193 0.006104 -0.003325 0.000000 -0.001390 0.000000
# 3 0.000278 -0.003325 0.007504 0.000000 0.003485 0.000000
# 4 0.000000 0.000000 0.000000 0.015768 0.000000 0.005117
# 5 0.003441 -0.001390 0.003485 0.000000 0.024040 0.000000
# 6 0.000000 0.000000 0.000000 0.005117 0.000000 0.027509
#
#
# Mechanical properties :
#
#
# Convention : Reuss Voigt Hill
#
# Bulk Modulus (GPa) = 41.33410 77.52380 59.42895
# Shear Modulus (GPa) = 42.90556 53.20730 48.05643
#
# Velocity S-wave (km/s) = 4.02913 4.48683 4.26413
# Velocity P-wave (km/s) = 6.10610 7.49496 6.83589
#
# Compressibility (1/GPa) = 0.02419310
#
# Stress axis : x y z
#
# Youngs Moduli (GPa) = 52.44906 163.83816 133.27055
#
# Poissons Ratio (x) = 0.19549 -0.03704
# Poissons Ratio (y) = 0.06258 0.44310
# Poissons Ratio (z) = -0.01458 0.54473
#
# Static dielectric constant tensor:
#      x y z
#    x 2.175330 0.000000 -0.015640 
#    y 0.000000 2.164790 0.000000 
#    z -0.015640 0.000000 2.099000 
# 
# From -- ./inp_files/22442.got.cif
#   From: 2010.05.17/outbox.cif.g08.bks.cpg/sg5_12_cif.got.tgz:22442.got - 2010.06.03 18:56:24.
