data_PCOD9127822
_publ_section_title
;
Structure prediction by ZEFSAII (Michael W. Deem and Ramdas Pophale) SiO2 
 PCOD9127822
Probable space group: C 2
;
_chemical_formula_sum "Si O2"
_cell_formula_units_Z 14
_cell_length_a 16.655755
_cell_length_b 7.611654
_cell_length_c 15.989625
_cell_angle_alpha 90.000000
_cell_angle_beta 17.768606
_cell_angle_gamma 90.000000
_cell_volume 618.626536
_symmetry_space_group_name_H-M "C 2"
_symmetry_group_IT_number 5
_symmetry_cell_setting 'monoclinic'
loop_
_space_group_symop_operation_xyz
x,y,z
-x,y,-z
1/2+x,1/2+y,z
1/2-x,1/2+y,-z
loop_
_atom_site_type_symbol
_atom_site_label
_atom_site_fract_x
_atom_site_fract_y
_atom_site_fract_z
Si Si1 0.742752 0.537050 0.208040
Si Si2 0.635448 0.683363 0.133282
Si Si3 0.610716 0.053892 0.567524
Si Si4 0.500000 0.187554 0.500000
O O1 0.500000 0.616140 0.500000
O O2 0.720252 0.586970 0.134540
O O3 0.712023 0.327271 0.253041
O O4 0.000000 0.598962 0.000000
O O5 0.400177 0.585910 0.317354
O O6 0.510940 0.868875 0.283461
O O7 0.900082 0.691073 0.815879
O O8 0.608377 0.078365 0.470157
#
# Coordination Sequence:
#
# PCOD9127822 Si02
#       4
#     4   4   4   2
#     4  10  23  42  72  96 139 177 225 278 343 399
#     4  12  26  48  70 103 137 187 225 285 338 415
#     4  12  27  45  73 101 141 178 235 277 347 402
#     4  10  26  42  72 102 140 172 232 282 346 396
#
# _framework density 22.630776999999998
#
# number of rings (size 3 to 8) (size 9 to 14) (size 15 to 20)
#    0.857    0.000    0.000    6.857   10.000    0.000 
#    0.000    0.000    0.000    0.000    0.000    0.000 
#    0.000    0.000    0.000    0.000    0.000    0.000 
#
# Total GULP energy -39142.434828 kJ/mol
# GULP energy per Si atom -5591.776404 kJ/mol
# Density = 2.257927 g / cm^3
# Si number density = 22.630777 Si / 1000 Ang^3
#
#
#
# Elastic Constant Matrix: (Units=GPa)
#
#
# Indices 1 2 3 4 5 6 
#
# 1 230.7222 27.8159 62.5915 -0.0063 -19.7546 0.0007
# 2 27.8159 70.7388 -15.2664 -0.0139 -9.3014 0.0062
# 3 62.5915 -15.2664 105.5652 -0.0194 -36.3335 0.0070
# 4 -0.0063 -0.0139 -0.0194 33.1449 0.0053 7.4795
# 5 -19.7546 -9.3014 -36.3335 0.0053 46.7730 -0.0014
# 6 0.0007 0.0062 0.0070 7.4795 -0.0014 36.0407
#
#
#
# Elastic Compliance Matrix: (Units=1/GPa)
#
#
# Indices 1 2 3 4 5 6 
#
# 1 0.005854 -0.003533 -0.004604 -0.000003 -0.001806 0.000002
# 2 -0.003533 0.018171 0.007443 0.000012 0.007903 -0.000007
# 3 -0.004604 0.007443 0.017907 0.000012 0.013446 -0.000007
# 4 -0.000003 0.000012 0.000012 0.031653 0.000007 -0.006569
# 5 -0.001806 0.007903 0.013446 0.000007 0.032633 -0.000004
# 6 0.000002 -0.000007 -0.000007 -0.006569 -0.000004 0.029110
#
#
# Mechanical properties :
#
#
# Convention : Reuss Voigt Hill
#
# Bulk Modulus (GPa) = 24.66477 61.92312 43.29394
# Shear Modulus (GPa) = 33.28207 45.31742 39.29974
#
# Velocity S-wave (km/s) = 3.83907 4.47975 4.17173
# Velocity P-wave (km/s) = 5.52935 7.36066 6.50972
#
# Compressibility (1/GPa) = 0.04054366
#
# Stress axis : x y z
#
# Youngs Moduli (GPa) = 170.80929 55.03213 55.84544
#
# Poissons Ratio (x) = 0.19444 0.25710
# Poissons Ratio (y) = 0.60350 -0.41564
# Poissons Ratio (z) = 0.78638 -0.40959
#
# Static dielectric constant tensor:
#      x y z
#    x 1.762960 0.000000 0.033420 
#    y 0.000000 1.910500 0.000000 
#    z 0.033420 0.000000 1.815020 
# 
# From -- ./inp_files/4170.got.cif
#   From: 2010.05.17/outbox.cif.g08.bks.cpg/sg5_3_cif.got.tgz:4170.got - 2010.06.03 18:56:24.
