data_PCOD9127472
_publ_section_title
;
Structure prediction by ZEFSAII (Michael W. Deem and Ramdas Pophale) SiO2 
 PCOD9127472
Probable space group: C 2
;
_chemical_formula_sum "Si O2"
_cell_formula_units_Z 20
_cell_length_a 15.995614
_cell_length_b 8.221654
_cell_length_c 7.541738
_cell_angle_alpha 90.000000
_cell_angle_beta 130.645707
_cell_angle_gamma 90.000000
_cell_volume 752.543059
_symmetry_space_group_name_H-M "C 2"
_symmetry_group_IT_number 5
_symmetry_cell_setting 'monoclinic'
loop_
_space_group_symop_operation_xyz
x,y,z
-x,y,-z
1/2+x,1/2+y,z
1/2-x,1/2+y,-z
loop_
_atom_site_type_symbol
_atom_site_label
_atom_site_fract_x
_atom_site_fract_y
_atom_site_fract_z
Si Si1 0.891486 0.762390 0.732182
Si Si2 0.687838 0.306006 0.754561
Si Si3 0.606751 0.917528 0.401965
Si Si4 0.867968 0.111643 0.793754
Si Si5 0.133875 0.508237 0.850638
O O1 0.890866 0.818338 0.523673
O O2 0.851501 0.575178 0.653217
O O3 0.832980 0.922687 0.731303
O O4 0.000000 0.749148 0.000000
O O5 0.793214 0.195591 0.839953
O O6 0.628261 0.202852 0.823692
O O7 0.749101 0.464967 0.903502
O O8 0.642403 0.742629 0.380094
O O9 0.625869 0.942484 0.637830
O O10 0.472968 0.937811 0.199216
O O11 0.000000 0.104726 0.000000
#
# Coordination Sequence:
#
# PCOD9127472 Si02
#       5
#     4   4   4   4   4
#     4  10  25  41  67 102 134 176 231 286 330 403
#     4  11  25  43  68 106 135 182 227 284 344 408
#     4  10  22  47  68  93 140 188 217 282 344 408
#     4  11  23  43  69 102 132 182 236 275 339 402
#     4  10  24  43  66 100 141 176 224 280 352 404
#
# _framework density 26.576554999999999
#
# number of rings (size 3 to 8) (size 9 to 14) (size 15 to 20)
#    0.000    1.600    2.000    0.600    8.400    3.200 
#    0.000    2.000    0.000    0.000    0.000    0.000 
#    0.000    0.000    0.000    0.000    0.000    0.000 
#
# Total GULP energy -55890.797787 kJ/mol
# GULP energy per Si atom -5589.079779 kJ/mol
# Density = 2.651607 g / cm^3
# Si number density = 26.576555 Si / 1000 Ang^3
#
#
#
# Elastic Constant Matrix: (Units=GPa)
#
#
# Indices 1 2 3 4 5 6 
#
# 1 112.3587 45.8801 13.9361 0.0000 9.5290 0.0000
# 2 45.8801 107.3720 43.1844 0.0000 -12.3852 0.0000
# 3 13.9361 43.1844 159.9477 0.0000 13.6883 0.0000
# 4 0.0000 0.0000 0.0000 55.2049 0.0000 2.0572
# 5 9.5290 -12.3852 13.6883 0.0000 29.4867 0.0000
# 6 0.0000 0.0000 0.0000 2.0572 0.0000 52.3495
#
#
#
# Elastic Compliance Matrix: (Units=1/GPa)
#
#
# Indices 1 2 3 4 5 6 
#
# 1 0.012000 -0.006493 0.001326 0.000000 -0.007221 0.000000
# 2 -0.006493 0.015064 -0.004397 0.000000 0.010467 0.000000
# 3 0.001326 -0.004397 0.007829 0.000000 -0.005910 0.000000
# 4 0.000000 0.000000 0.000000 0.018141 0.000000 -0.000713
# 5 -0.007221 0.010467 -0.005910 0.000000 0.043387 0.000000
# 6 0.000000 0.000000 0.000000 -0.000713 0.000000 0.019130
#
#
# Mechanical properties :
#
#
# Convention : Reuss Voigt Hill
#
# Bulk Modulus (GPa) = 63.43959 65.07551 64.25755
# Shear Modulus (GPa) = 35.73083 45.85341 40.79212
#
# Velocity S-wave (km/s) = 3.67065 4.15822 3.92202
# Velocity P-wave (km/s) = 6.47203 6.89881 6.68883
#
# Compressibility (1/GPa) = 0.01576303
#
# Stress axis : x y z
#
# Youngs Moduli (GPa) = 83.33670 66.38399 127.72235
#
# Poissons Ratio (x) = 0.43106 -0.16931
# Poissons Ratio (y) = 0.54114 0.56161
# Poissons Ratio (z) = -0.11047 0.29190
#
# Static dielectric constant tensor:
#      x y z
#    x 2.154160 0.000000 0.093910 
#    y 0.000000 2.058610 0.000000 
#    z 0.093910 0.000000 2.136130 
# 
# From -- ./inp_files/29046.got.cif
#   From: 2010.05.17/outbox.cif.g08.bks.cpg/sg5_15_cif.got.tgz:29046.got - 2010.06.03 18:56:24.
