data_PCOD9127810
_publ_section_title
;
Structure prediction by ZEFSAII (Michael W. Deem and Ramdas Pophale) SiO2 
 PCOD9127810
Probable space group: C 2
;
_chemical_formula_sum "Si O2"
_cell_formula_units_Z 28
_cell_length_a 23.698996
_cell_length_b 7.531328
_cell_length_c 7.927493
_cell_angle_alpha 90.000000
_cell_angle_beta 134.380475
_cell_angle_gamma 90.000000
_cell_volume 1011.271769
_symmetry_space_group_name_H-M "C 2"
_symmetry_group_IT_number 5
_symmetry_cell_setting 'monoclinic'
loop_
_space_group_symop_operation_xyz
x,y,z
-x,y,-z
1/2+x,1/2+y,z
1/2-x,1/2+y,-z
loop_
_atom_site_type_symbol
_atom_site_label
_atom_site_fract_x
_atom_site_fract_y
_atom_site_fract_z
Si Si1 0.124962 0.930010 0.439692
Si Si2 0.164023 0.588843 0.346569
Si Si3 0.909645 0.486260 0.161664
Si Si4 0.947169 0.318378 0.720953
Si Si5 0.464740 0.379405 0.262795
Si Si6 0.800164 0.989933 0.843872
Si Si7 0.741526 0.816952 0.011569
O O1 0.150664 0.798198 0.341019
O O2 0.188170 0.893993 0.721126
O O3 0.037520 0.852668 0.293360
O O4 0.104411 0.138921 0.394583
O O5 0.136918 0.509184 0.113701
O O6 0.111513 0.483196 0.372629
O O7 0.253887 0.551147 0.582938
O O8 0.844852 0.405800 0.150178
O O9 0.933124 0.687633 0.253774
O O10 0.988580 0.372736 0.286924
O O11 0.000000 0.300169 0.000000
O O12 0.500000 0.474264 0.500000
O O13 0.393971 0.490591 0.036664
O O14 0.773023 0.127579 0.932292
O O15 0.769612 0.812888 0.875522
#
# Coordination Sequence:
#
# PCOD9127810 Si02
#       7
#     4   4   4   4   4   4   4
#     4  11  24  45  71 100 141 183 237 294 356 420
#     4  10  25  47  69 105 141 187 235 296 351 421
#     4  11  25  46  70 105 146 185 238 295 358 427
#     4  10  23  42  70 102 138 181 238 286 355 419
#     4  12  25  44  71 107 141 188 238 294 359 425
#     4  11  25  45  72 102 146 186 241 295 360 423
#     4  11  25  45  68 104 139 186 237 292 360 429
#
# _framework density 27.687911
#
# number of rings (size 3 to 8) (size 9 to 14) (size 15 to 20)
#    0.000    1.143    2.857    1.714    8.000    2.286 
#    5.143    0.000    0.000    0.000    0.000    0.000 
#    0.000    0.000    0.000    0.000    0.000    0.000 
#
# Total GULP energy -78501.497057 kJ/mol
# GULP energy per Si atom -5607.249790 kJ/mol
# Density = 2.762489 g / cm^3
# Si number density = 27.687911 Si / 1000 Ang^3
#
#
#
# Elastic Constant Matrix: (Units=GPa)
#
#
# Indices 1 2 3 4 5 6 
#
# 1 100.7844 29.2329 17.9317 0.0000 41.1418 0.0000
# 2 29.2329 128.8976 18.8481 0.0000 31.9394 0.0000
# 3 17.9317 18.8481 171.0711 0.0000 25.2877 0.0000
# 4 0.0000 0.0000 0.0000 33.3098 0.0000 4.9871
# 5 41.1418 31.9394 25.2877 0.0000 55.5673 0.0000
# 6 0.0000 0.0000 0.0000 4.9871 0.0000 48.9529
#
#
#
# Elastic Compliance Matrix: (Units=1/GPa)
#
#
# Indices 1 2 3 4 5 6 
#
# 1 0.014279 -0.000725 0.000090 0.000000 -0.010196 0.000000
# 2 -0.000725 0.009093 -0.000249 0.000000 -0.004576 0.000000
# 3 0.000090 -0.000249 0.006274 0.000000 -0.002779 0.000000
# 4 0.000000 0.000000 0.000000 0.030486 0.000000 -0.003106
# 5 -0.010196 -0.004576 -0.002779 0.000000 0.029440 0.000000
# 6 0.000000 0.000000 0.000000 -0.003106 0.000000 0.020744
#
#
# Mechanical properties :
#
#
# Convention : Reuss Voigt Hill
#
# Bulk Modulus (GPa) = 35.87061 59.19761 47.53411
# Shear Modulus (GPa) = 41.19385 49.88201 45.53793
#
# Velocity S-wave (km/s) = 3.86138 4.24911 4.05987
# Velocity P-wave (km/s) = 5.73269 6.74537 6.25954
#
# Compressibility (1/GPa) = 0.02787797
#
# Stress axis : x y z
#
# Youngs Moduli (GPa) = 70.03460 109.97560 159.38029
#
# Poissons Ratio (x) = 0.07973 -0.01441
# Poissons Ratio (y) = 0.05077 0.03975
# Poissons Ratio (z) = -0.00633 0.02743
#
# Static dielectric constant tensor:
#      x y z
#    x 2.266010 0.000000 -0.088340 
#    y 0.000000 2.250270 0.000000 
#    z -0.088340 0.000000 2.133390 
# 
# From -- ./inp_files/31679.got.cif
#   From: 2010.05.17/outbox.cif.g08.bks.cpg/sg5_16_cif.got.tgz:31679.got - 2010.06.03 18:56:24.
