data_PCOD9127901
_publ_section_title
;
Structure prediction by ZEFSAII (Michael W. Deem and Ramdas Pophale) SiO2 
 PCOD9127901
Probable space group: C 2
;
_chemical_formula_sum "Si O2"
_cell_formula_units_Z 18
_cell_length_a 17.642592
_cell_length_b 7.867526
_cell_length_c 5.154058
_cell_angle_alpha 90.000000
_cell_angle_beta 101.122478
_cell_angle_gamma 90.000000
_cell_volume 701.964209
_symmetry_space_group_name_H-M "C 2"
_symmetry_group_IT_number 5
_symmetry_cell_setting 'monoclinic'
loop_
_space_group_symop_operation_xyz
x,y,z
-x,y,-z
1/2+x,1/2+y,z
1/2-x,1/2+y,-z
loop_
_atom_site_type_symbol
_atom_site_label
_atom_site_fract_x
_atom_site_fract_y
_atom_site_fract_z
Si Si1 0.677963 0.922970 0.699296
Si Si2 0.000000 0.988974 0.000000
Si Si3 0.047604 0.655423 0.791132
Si Si4 0.360072 0.595865 0.572579
Si Si5 0.751218 0.850567 0.256907
O O1 0.633869 0.739975 0.646133
O O2 0.692582 0.960225 0.404032
O O3 0.629061 0.068774 0.800735
O O4 0.745545 0.879425 0.949096
O O5 0.048335 0.854954 0.857761
O O6 0.938483 0.085167 0.783794
O O7 0.000000 0.628117 0.500000
O O8 0.000000 0.576902 0.000000
O O9 0.289114 0.671427 0.701529
O O10 0.330296 0.415850 0.439546
#
# Coordination Sequence:
#
# PCOD9127901 Si02
#       5
#     4   2   4   4   4
#     4  10  24  44  74 106 153 195 257 306 376 448
#     4  10  26  48  74 114 158 194 254 312 384 446
#     4  10  23  43  72 109 148 199 248 303 383 445
#     4  10  26  46  77 113 153 200 253 315 380 450
#     4  10  25  44  75 107 150 200 254 310 376 450
#
# _framework density 25.642334999999999
#
# number of rings (size 3 to 8) (size 9 to 14) (size 15 to 20)
#    2.000    0.000    0.000    1.333    6.222    3.556 
#    0.000    0.000    0.000    0.000    0.000    0.000 
#    0.000    0.000    0.000    0.000    0.000    0.000 
#
# Total GULP energy -50181.004980 kJ/mol
# GULP energy per Si atom -5575.667220 kJ/mol
# Density = 2.558397 g / cm^3
# Si number density = 25.642335 Si / 1000 Ang^3
#
#
#
# Elastic Constant Matrix: (Units=GPa)
#
#
# Indices 1 2 3 4 5 6 
#
# 1 61.2310 13.9134 28.2422 0.0000 -5.4319 0.0000
# 2 13.9134 96.1655 48.2629 0.0000 13.3452 0.0000
# 3 28.2422 48.2629 188.9345 0.0000 20.9662 0.0000
# 4 0.0000 0.0000 0.0000 209.9525 0.0000 86.9460
# 5 -5.4319 13.3452 20.9662 0.0000 60.5072 0.0000
# 6 0.0000 0.0000 0.0000 86.9460 0.0000 83.9524
#
#
#
# Elastic Compliance Matrix: (Units=1/GPa)
#
#
# Indices 1 2 3 4 5 6 
#
# 1 0.018182 -0.001731 -0.002599 0.000000 0.002915 0.000000
# 2 -0.001731 0.012251 -0.002656 0.000000 -0.001937 0.000000
# 3 -0.002599 -0.002656 0.006573 0.000000 -0.001925 0.000000
# 4 0.000000 0.000000 0.000000 0.008340 0.000000 -0.008637
# 5 0.002915 -0.001937 -0.001925 0.000000 0.017883 0.000000
# 6 0.000000 0.000000 0.000000 -0.008637 0.000000 0.020857
#
#
# Mechanical properties :
#
#
# Convention : Reuss Voigt Hill
#
# Bulk Modulus (GPa) = 43.41177 58.57420 50.99299
# Shear Modulus (GPa) = 47.28762 87.94325 67.61543
#
# Velocity S-wave (km/s) = 4.29898 5.86264 5.14061
# Velocity P-wave (km/s) = 6.45044 8.28974 7.42725
#
# Compressibility (1/GPa) = 0.02303523
#
# Stress axis : x y z
#
# Youngs Moduli (GPa) = 54.99856 81.62720 152.12707
#
# Poissons Ratio (x) = 0.14126 0.39542
# Poissons Ratio (y) = 0.09518 0.40402
# Poissons Ratio (z) = 0.14296 0.21678
#
# Static dielectric constant tensor:
#      x y z
#    x 2.003210 0.000000 -0.050030 
#    y 0.000000 2.203350 0.000000 
#    z -0.050030 0.000000 1.907970 
# 
# From -- ./inp_files/7945.got.cif
#   From: 2010.05.17/outbox.cif.g08.bks.cpg/sg5_4_cif.got.tgz:7945.got - 2010.06.03 18:56:24.
