data_PCOD9127897
_publ_section_title
;
Structure prediction by ZEFSAII (Michael W. Deem and Ramdas Pophale) SiO2 
 PCOD9127897
Probable space group: C 2
;
_chemical_formula_sum "Si O2"
_cell_formula_units_Z 20
_cell_length_a 14.251220
_cell_length_b 5.135134
_cell_length_c 11.927597
_cell_angle_alpha 90.000000
_cell_angle_beta 108.707442
_cell_angle_gamma 90.000000
_cell_volume 826.768814
_symmetry_space_group_name_H-M "C 2"
_symmetry_group_IT_number 5
_symmetry_cell_setting 'monoclinic'
loop_
_space_group_symop_operation_xyz
x,y,z
-x,y,-z
1/2+x,1/2+y,z
1/2-x,1/2+y,-z
loop_
_atom_site_type_symbol
_atom_site_label
_atom_site_fract_x
_atom_site_fract_y
_atom_site_fract_z
Si Si1 0.963358 0.649450 0.762684
Si Si2 0.187192 0.139341 0.944509
Si Si3 0.391585 0.650728 0.861730
Si Si4 0.816844 0.494562 0.507720
Si Si5 0.664913 0.985412 0.741874
O O1 0.931552 0.431488 0.841102
O O2 0.899697 0.577338 0.628462
O O3 0.078210 0.632652 0.774618
O O4 0.936143 0.929053 0.799687
O O5 0.167632 0.207894 0.808012
O O6 0.237894 0.405139 0.008428
O O7 0.100554 0.096861 0.001748
O O8 0.272893 0.615487 0.793335
O O9 0.764503 0.225106 0.521823
O O10 0.857563 0.462758 0.397678
#
# Coordination Sequence:
#
# PCOD9127897 Si02
#       5
#     4   4   4   4   4
#     4  12  25  44  73 106 135 191 229 290 351 422
#     4  10  23  43  72 103 138 193 231 286 353 414
#     4  11  24  46  68 101 147 176 239 284 349 412
#     4  12  24  45  72 102 143 185 229 296 356 411
#     4  11  25  46  73 101 145 183 237 288 349 419
#
# _framework density 24.190560000000001
#
# number of rings (size 3 to 8) (size 9 to 14) (size 15 to 20)
#    0.000    0.800    4.000    3.000    0.000    7.200 
#    0.000   10.000    0.000    0.000    0.000    0.000 
#    0.000    0.000    0.000    0.000    0.000    0.000 
#
# Total GULP energy -56050.377903 kJ/mol
# GULP energy per Si atom -5605.037790 kJ/mol
# Density = 2.413550 g / cm^3
# Si number density = 24.190560 Si / 1000 Ang^3
#
#
#
# Elastic Constant Matrix: (Units=GPa)
#
#
# Indices 1 2 3 4 5 6 
#
# 1 143.0882 20.4257 17.6536 0.0000 -18.8551 0.0000
# 2 20.4257 85.3482 6.7662 0.0000 -11.5675 0.0000
# 3 17.6536 6.7662 135.0991 0.0000 -2.6048 0.0000
# 4 0.0000 0.0000 0.0000 39.1768 0.0000 -6.7882
# 5 -18.8551 -11.5675 -2.6048 0.0000 42.1456 0.0000
# 6 0.0000 0.0000 0.0000 -6.7882 0.0000 34.1154
#
#
#
# Elastic Compliance Matrix: (Units=1/GPa)
#
#
# Indices 1 2 3 4 5 6 
#
# 1 0.007688 -0.001362 -0.000878 0.000000 0.003011 0.000000
# 2 -0.001362 0.012451 -0.000392 0.000000 0.002784 0.000000
# 3 -0.000878 -0.000392 0.007536 0.000000 -0.000035 0.000000
# 4 0.000000 0.000000 0.000000 0.026437 0.000000 0.005260
# 5 0.003011 0.002784 -0.000035 0.000000 0.025836 0.000000
# 6 0.000000 0.000000 0.000000 0.005260 0.000000 0.030359
#
#
# Mechanical properties :
#
#
# Convention : Reuss Voigt Hill
#
# Bulk Modulus (GPa) = 44.62263 50.35850 47.49056
# Shear Modulus (GPa) = 40.63646 44.33358 42.48502
#
# Velocity S-wave (km/s) = 4.10304 4.28563 4.19533
# Velocity P-wave (km/s) = 6.39789 6.73435 6.56827
#
# Compressibility (1/GPa) = 0.02241016
#
# Stress axis : x y z
#
# Youngs Moduli (GPa) = 130.06701 80.31443 132.70151
#
# Poissons Ratio (x) = 0.10940 0.11656
# Poissons Ratio (y) = 0.17718 0.05201
# Poissons Ratio (z) = 0.11425 0.03148
#
# Static dielectric constant tensor:
#      x y z
#    x 1.974800 0.000000 0.040240 
#    y 0.000000 1.873690 0.000000 
#    z 0.040240 0.000000 1.969970 
# 
# From -- ./inp_files/41030.got.cif
#   From: 2010.05.17/outbox.cif.g08.bks.cpg/sg5_21_cif.got.tgz:41030.got - 2010.06.03 18:56:24.
