data_PCOD9127890
_publ_section_title
;
Structure prediction by ZEFSAII (Michael W. Deem and Ramdas Pophale) SiO2 
 PCOD9127890
Probable space group: C 2
;
_chemical_formula_sum "Si O2"
_cell_formula_units_Z 28
_cell_length_a 20.004111
_cell_length_b 8.260533
_cell_length_c 6.962844
_cell_angle_alpha 90.000000
_cell_angle_beta 102.431559
_cell_angle_gamma 90.000000
_cell_volume 1123.596011
_symmetry_space_group_name_H-M "C 2"
_symmetry_group_IT_number 5
_symmetry_cell_setting 'monoclinic'
loop_
_space_group_symop_operation_xyz
x,y,z
-x,y,-z
1/2+x,1/2+y,z
1/2-x,1/2+y,-z
loop_
_atom_site_type_symbol
_atom_site_label
_atom_site_fract_x
_atom_site_fract_y
_atom_site_fract_z
Si Si1 0.120588 0.437320 0.118501
Si Si2 0.028402 0.214653 0.329170
Si Si3 0.309762 0.440145 0.670685
Si Si4 0.206767 0.259023 0.876746
Si Si5 0.750834 0.783235 0.309401
Si Si6 0.098284 0.018347 0.693247
Si Si7 0.922057 0.798725 0.005911
O O1 0.066618 0.326308 0.200992
O O2 0.192444 0.423271 0.278503
O O3 0.096846 0.617561 0.068650
O O4 0.144880 0.362423 0.930603
O O5 0.076724 0.079642 0.466676
O O6 0.000000 0.312675 0.500000
O O7 0.961389 0.117090 0.222746
O O8 0.246128 0.349935 0.735777
O O9 0.286432 0.623890 0.634482
O O10 0.314136 0.343229 0.473201
O O11 0.372805 0.415960 0.852212
O O12 0.171563 0.093246 0.792758
O O13 0.258452 0.240638 0.088714
O O14 0.911483 0.842067 0.223083
O O15 0.000000 0.823303 0.000000
#
# Coordination Sequence:
#
# PCOD9127890 Si02
#       7
#     4   4   4   4   4   4   4
#     4  10  23  43  71 113 141 201 247 314 388 444
#     4   8  21  39  77 103 146 203 258 303 377 472
#     4  12  25  48  72 114 145 195 261 313 396 448
#     4  10  24  43  77 104 139 199 250 315 386 462
#     4  10  25  44  76 106 147 195 245 324 375 472
#     4   9  21  43  73 102 143 201 251 304 380 457
#     4  12  27  42  73 111 154 199 252 317 375 473
#
# _framework density 24.919989000000001
#
# number of rings (size 3 to 8) (size 9 to 14) (size 15 to 20)
#    1.714    0.000    1.429    1.714    8.000    0.000 
#    2.571    0.000   15.714    0.000    0.000    0.000 
#    0.000    0.000    0.000    0.000    0.000    0.000 
#
# Total GULP energy -78236.660388 kJ/mol
# GULP energy per Si atom -5588.332885 kJ/mol
# Density = 2.486327 g / cm^3
# Si number density = 24.919989 Si / 1000 Ang^3
#
#
#
# Elastic Constant Matrix: (Units=GPa)
#
#
# Indices 1 2 3 4 5 6 
#
# 1 103.9002 39.6283 35.6777 0.0000 -2.0044 0.0000
# 2 39.6283 116.8022 49.5700 0.0000 -0.1491 0.0000
# 3 35.6777 49.5700 118.1359 0.0000 -10.9746 0.0000
# 4 0.0000 0.0000 0.0000 42.0148 0.0000 -0.5457
# 5 -2.0044 -0.1491 -10.9746 0.0000 51.2074 0.0000
# 6 0.0000 0.0000 0.0000 -0.5457 0.0000 16.8475
#
#
#
# Elastic Compliance Matrix: (Units=1/GPa)
#
#
# Indices 1 2 3 4 5 6 
#
# 1 0.011522 -0.002958 -0.002242 0.000000 -0.000038 0.000000
# 2 -0.002958 0.011219 -0.003900 0.000000 -0.000919 0.000000
# 3 -0.002242 -0.003900 0.010988 0.000000 0.002256 0.000000
# 4 0.000000 0.000000 0.000000 0.023811 0.000000 0.000771
# 5 -0.000038 -0.000919 0.002256 0.000000 0.020008 0.000000
# 6 0.000000 0.000000 0.000000 0.000771 0.000000 0.059381
#
#
# Mechanical properties :
#
#
# Convention : Reuss Voigt Hill
#
# Bulk Modulus (GPa) = 64.39270 65.39891 64.89581
# Shear Modulus (GPa) = 31.19091 36.27811 33.73451
#
# Velocity S-wave (km/s) = 3.54169 3.81961 3.68328
# Velocity P-wave (km/s) = 6.52845 6.76410 6.64732
#
# Compressibility (1/GPa) = 0.01552971
#
# Stress axis : x y z
#
# Youngs Moduli (GPa) = 86.79156 89.13714 91.01019
#
# Poissons Ratio (x) = 0.26363 0.20406
# Poissons Ratio (y) = 0.25669 0.35490
# Poissons Ratio (z) = 0.19460 0.34759
#
# Static dielectric constant tensor:
#      x y z
#    x 2.050850 0.000000 -0.065380 
#    y 0.000000 1.953410 0.000000 
#    z -0.065380 0.000000 2.048170 
# 
# From -- ./inp_files/42085.got.cif
#   From: 2010.05.17/outbox.cif.g08.bks.cpg/sg5_22_cif.got.tgz:42085.got - 2010.06.03 18:56:24.
