data_PCOD9127324
_publ_section_title
;
Structure prediction by ZEFSAII (Michael W. Deem and Ramdas Pophale) SiO2 
 PCOD9127324
Probable space group: C 2
;
_chemical_formula_sum "Si O2"
_cell_formula_units_Z 28
_cell_length_a 12.955444
_cell_length_b 17.175848
_cell_length_c 7.871689
_cell_angle_alpha 90.000000
_cell_angle_beta 137.012097
_cell_angle_gamma 90.000000
_cell_volume 1194.327403
_symmetry_space_group_name_H-M "C 2"
_symmetry_group_IT_number 5
_symmetry_cell_setting 'monoclinic'
loop_
_space_group_symop_operation_xyz
x,y,z
-x,y,-z
1/2+x,1/2+y,z
1/2-x,1/2+y,-z
loop_
_atom_site_type_symbol
_atom_site_label
_atom_site_fract_x
_atom_site_fract_y
_atom_site_fract_z
Si Si1 0.472191 0.795740 0.767831
Si Si2 0.134986 0.811061 0.456056
Si Si3 0.784247 0.421676 0.894870
Si Si4 0.000000 0.897384 0.000000
Si Si5 0.360639 0.130375 0.554061
Si Si6 0.461717 0.629569 0.642713
Si Si7 0.500000 0.036613 0.000000
Si Si8 0.696257 0.523619 0.108615
O O1 0.294845 0.814185 0.544903
O O2 0.511780 0.719636 0.710592
O O3 0.500000 0.774625 0.000000
O O4 0.581445 0.867837 0.868592
O O5 0.167747 0.864008 0.660406
O O6 0.009277 0.845696 0.179664
O O7 0.109917 0.719739 0.460021
O O8 0.731417 0.476947 0.980248
O O9 0.857890 0.478576 0.842924
O O10 0.141113 0.956265 0.169391
O O11 0.210884 0.128792 0.497256
O O12 0.322125 0.076611 0.347509
O O13 0.489568 0.091067 0.823113
O O14 0.500000 0.599899 0.500000
O O15 0.560592 0.580820 0.893152
#
# Coordination Sequence:
#
# PCOD9127324 Si02
#       8
#     4   4   4   2   4   4   2   4
#     4   9  19  41  68  93 129 175 220 275 331 396
#     4  10  22  45  68  94 133 182 214 275 339 401
#     4  11  23  40  69  96 135 173 227 272 338 388
#     4  12  25  40  65 100 136 168 224 278 343 386
#     4  11  24  46  69  94 138 178 222 272 341 399
#     4  11  22  39  67  97 131 176 227 273 328 401
#     4  12  23  44  67 102 134 170 222 284 333 394
#     4  12  25  40  67  98 134 176 225 274 336 392
#
# _framework density 23.444158999999999
#
# number of rings (size 3 to 8) (size 9 to 14) (size 15 to 20)
#    0.000    1.143    3.571    4.714    2.000    2.857 
#    0.000    5.714    0.000    0.000    0.000    0.000 
#    0.000    0.000    0.000    0.000    0.000    0.000 
#
# Total GULP energy -78326.032215 kJ/mol
# GULP energy per Si atom -5594.716587 kJ/mol
# Density = 2.339080 g / cm^3
# Si number density = 23.444159 Si / 1000 Ang^3
#
#
#
# Elastic Constant Matrix: (Units=GPa)
#
#
# Indices 1 2 3 4 5 6 
#
# 1 61.3191 32.7648 3.2986 0.0000 -15.4386 0.0000
# 2 32.7648 183.8332 63.4633 0.0000 -11.8479 0.0000
# 3 3.2986 63.4633 82.5628 0.0000 -10.6837 0.0000
# 4 0.0000 0.0000 0.0000 46.4745 0.0000 -13.2166
# 5 -15.4386 -11.8479 -10.6837 0.0000 28.9416 0.0000
# 6 0.0000 0.0000 0.0000 -13.2166 0.0000 28.0113
#
#
#
# Elastic Compliance Matrix: (Units=1/GPa)
#
#
# Indices 1 2 3 4 5 6 
#
# 1 0.021240 -0.004459 0.004000 0.000000 0.010982 0.000000
# 2 -0.004459 0.008367 -0.006425 0.000000 -0.001325 0.000000
# 3 0.004000 -0.006425 0.017671 0.000000 0.006027 0.000000
# 4 0.000000 0.000000 0.000000 0.024852 0.000000 0.011726
# 5 0.010982 -0.001325 0.006027 0.000000 0.042093 0.000000
# 6 0.000000 0.000000 0.000000 0.011726 0.000000 0.041233
#
#
# Mechanical properties :
#
#
# Convention : Reuss Voigt Hill
#
# Bulk Modulus (GPa) = 29.84160 58.52984 44.18572
# Shear Modulus (GPa) = 27.71734 35.89802 31.80768
#
# Velocity S-wave (km/s) = 3.44215 3.91732 3.68739
# Velocity P-wave (km/s) = 5.34362 6.74391 6.08418
#
# Compressibility (1/GPa) = 0.03351026
#
# Stress axis : x y z
#
# Youngs Moduli (GPa) = 47.08038 119.51778 56.59145
#
# Poissons Ratio (x) = 0.53289 -0.22635
# Poissons Ratio (y) = 0.20992 0.36358
# Poissons Ratio (z) = -0.18831 0.76787
#
# Static dielectric constant tensor:
#      x y z
#    x 1.980870 0.000000 0.026870 
#    y 0.000000 1.851770 0.000000 
#    z 0.026870 0.000000 1.854390 
# 
# From -- ./inp_files/24848.got.cif
#   From: 2010.05.17/outbox.cif.g08.bks.cpg/sg5_13_cif.got.tgz:24848.got - 2010.06.03 18:56:24.
