data_PCOD9127808
_publ_section_title
;
Structure prediction by ZEFSAII (Michael W. Deem and Ramdas Pophale) SiO2 
 PCOD9127808
Probable space group: C 2
;
_chemical_formula_sum "Si O2"
_cell_formula_units_Z 32
_cell_length_a 11.710298
_cell_length_b 14.022172
_cell_length_c 17.941549
_cell_angle_alpha 90.000000
_cell_angle_beta 29.925845
_cell_angle_gamma 90.000000
_cell_volume 1469.732033
_symmetry_space_group_name_H-M "C 2"
_symmetry_group_IT_number 5
_symmetry_cell_setting 'monoclinic'
loop_
_space_group_symop_operation_xyz
x,y,z
-x,y,-z
1/2+x,1/2+y,z
1/2-x,1/2+y,-z
loop_
_atom_site_type_symbol
_atom_site_label
_atom_site_fract_x
_atom_site_fract_y
_atom_site_fract_z
Si Si1 0.835810 0.239780 0.155344
Si Si2 0.630953 0.869632 0.536333
Si Si3 0.253811 0.266413 0.158470
Si Si4 0.906918 0.908012 0.635385
Si Si5 0.875562 0.593033 0.201484
Si Si6 0.813020 0.572309 0.551907
Si Si7 0.103652 0.121594 0.119218
Si Si8 0.840392 0.679092 0.381449
O O1 0.756137 0.317399 0.260419
O O2 0.606751 0.203376 0.244520
O O3 0.975055 0.156505 0.117800
O O4 0.000000 0.283948 0.000000
O O5 0.427742 0.838938 0.705568
O O6 0.695083 0.775752 0.452567
O O7 0.868095 0.889924 0.443948
O O8 0.579263 0.970292 0.528511
O O9 0.305837 0.182582 0.189314
O O10 0.155335 0.214182 0.141309
O O11 0.500000 0.310839 0.000000
O O12 0.000000 0.918038 0.500000
O O13 0.770419 0.001337 0.737485
O O14 0.822526 0.616330 0.317768
O O15 0.148055 0.577274 0.037098
O O16 0.577749 0.561324 0.730273
O O17 0.769141 0.629051 0.499732
O O18 0.000000 0.623611 0.500000
#
# Coordination Sequence:
#
# PCOD9127808 Si02
#       8
#     4   4   4   4   4   4   4   4
#     4  11  23  43  70 102 138 188 233 287 352 412
#     4  11  25  43  67 102 136 180 237 286 341 417
#     4  10  23  42  70 100 139 185 227 285 360 413
#     4  11  25  42  70 103 136 181 241 290 344 416
#     4  11  25  43  70 104 143 184 231 291 356 412
#     4  12  25  42  69 102 138 187 236 281 350 417
#     4  11  22  45  69  99 143 185 228 287 353 418
#     4  11  24  43  71 101 143 183 230 292 346 415
#
# _framework density 21.772677000000002
#
# number of rings (size 3 to 8) (size 9 to 14) (size 15 to 20)
#    0.000    1.000    3.750    2.250    5.250    3.500 
#    0.000    3.125    0.000    0.000    0.000    0.000 
#    0.000    0.000    0.000    0.000    0.000    0.000 
#
# Total GULP energy -89504.001454 kJ/mol
# GULP energy per Si atom -5594.000091 kJ/mol
# Density = 2.172312 g / cm^3
# Si number density = 21.772677 Si / 1000 Ang^3
#
#
#
# Elastic Constant Matrix: (Units=GPa)
#
#
# Indices 1 2 3 4 5 6 
#
# 1 69.4939 0.4993 11.5397 0.0033 -11.6848 0.0014
# 2 0.4993 68.2263 39.8910 -0.0006 -10.9395 0.0016
# 3 11.5397 39.8910 148.7886 0.0028 -15.2081 0.0064
# 4 0.0033 -0.0006 0.0028 16.6871 -0.0004 -7.5514
# 5 -11.6848 -10.9395 -15.2081 -0.0004 31.3502 -0.0013
# 6 0.0014 0.0016 0.0064 -7.5514 -0.0013 18.3430
#
#
#
# Elastic Compliance Matrix: (Units=1/GPa)
#
#
# Indices 1 2 3 4 5 6 
#
# 1 0.015517 0.001391 -0.000984 -0.000004 0.005791 -0.000002
# 2 0.001391 0.017997 -0.004459 0.000002 0.004635 0.000001
# 3 -0.000984 -0.004459 0.008203 -0.000003 0.002056 -0.000003
# 4 -0.000004 0.000002 -0.000003 0.073647 0.000000 0.030319
# 5 0.005791 0.004635 0.002056 0.000000 0.036671 0.000001
# 6 -0.000002 0.000001 -0.000003 0.030319 0.000001 0.066998
#
#
# Mechanical properties :
#
#
# Convention : Reuss Voigt Hill
#
# Bulk Modulus (GPa) = 29.75196 43.37432 36.56314
# Shear Modulus (GPa) = 20.97815 28.91464 24.94640
#
# Velocity S-wave (km/s) = 3.10741 3.64816 3.38859
# Velocity P-wave (km/s) = 5.15453 6.14086 5.66918
#
# Compressibility (1/GPa) = 0.03361123
#
# Stress axis : x y z
#
# Youngs Moduli (GPa) = 64.44567 55.56349 121.90611
#
# Poissons Ratio (x) = -0.07726 0.12000
# Poissons Ratio (y) = -0.08961 0.54361
# Poissons Ratio (z) = 0.06344 0.24777
#
# Static dielectric constant tensor:
#      x y z
#    x 1.863600 0.000000 -0.011570 
#    y 0.000000 1.792450 0.000000 
#    z -0.011570 0.000000 1.787230 
# 
# From -- ./inp_files/60697.got.cif
#   From: 2010.05.17/outbox.cif.g08.bks.cpg/sg5_31_cif.got.tgz:60697.got - 2010.06.03 18:56:24.
