data_PCOD9127163
_publ_section_title
;
Structure prediction by ZEFSAII (Michael W. Deem and Ramdas Pophale) SiO2 
 PCOD9127163
Probable space group: C 2
;
_chemical_formula_sum "Si O2"
_cell_formula_units_Z 28
_cell_length_a 9.260458
_cell_length_b 11.185922
_cell_length_c 14.528453
_cell_angle_alpha 90.000000
_cell_angle_beta 119.895955
_cell_angle_gamma 90.000000
_cell_volume 1304.693892
_symmetry_space_group_name_H-M "C 2"
_symmetry_group_IT_number 5
_symmetry_cell_setting 'monoclinic'
loop_
_space_group_symop_operation_xyz
x,y,z
-x,y,-z
1/2+x,1/2+y,z
1/2-x,1/2+y,-z
loop_
_atom_site_type_symbol
_atom_site_label
_atom_site_fract_x
_atom_site_fract_y
_atom_site_fract_z
Si Si1 0.328679 0.606590 0.907464
Si Si2 0.321347 0.743816 0.393840
Si Si3 0.848395 0.226296 0.725807
Si Si4 0.871649 0.387130 0.229857
Si Si5 0.881488 0.051652 0.266868
Si Si6 0.996427 0.817498 0.396569
Si Si7 0.196112 0.678709 0.057993
O O1 0.376285 0.697944 0.841835
O O2 0.198333 0.514005 0.822188
O O3 0.500000 0.547937 0.000000
O O4 0.248985 0.669587 0.969620
O O5 0.500000 0.737957 0.500000
O O6 0.327755 0.850596 0.320307
O O7 0.299253 0.623583 0.325868
O O8 0.170681 0.766265 0.416233
O O9 0.652988 0.222428 0.645533
O O10 0.934919 0.352225 0.725611
O O11 0.950814 0.127073 0.702198
O O12 0.775702 0.292243 0.134195
O O13 0.767486 0.067733 0.140610
O O14 0.931326 0.918508 0.306508
O O15 0.000000 0.871630 0.500000
O O16 0.000000 0.682602 0.000000
#
# Coordination Sequence:
#
# PCOD9127163 Si02
#       7
#     4   4   4   4   4   4   4
#     4  12  22  42  66  93 131 173 209 260 313 366
#     4  10  22  44  67  90 130 165 205 268 318 372
#     4  10  24  43  61 100 128 159 220 263 299 384
#     4  10  23  41  65  91 130 167 214 258 314 380
#     4  10  23  45  63  93 133 164 211 262 311 379
#     4  12  25  41  70  95 122 168 212 259 324 374
#     4  10  23  40  60  96 131 169 214 256 312 372
#
# _framework density 21.460974
#
# number of rings (size 3 to 8) (size 9 to 14) (size 15 to 20)
#    0.000    1.714    2.857    3.429    6.000    1.143 
#    0.000    7.143    0.000    0.000    0.000    0.000 
#    0.000    0.000    0.000    0.000    0.000    0.000 
#
# Total GULP energy -78221.516321 kJ/mol
# GULP energy per Si atom -5587.251166 kJ/mol
# Density = 2.141213 g / cm^3
# Si number density = 21.460974 Si / 1000 Ang^3
#
#
#
# Elastic Constant Matrix: (Units=GPa)
#
#
# Indices 1 2 3 4 5 6 
#
# 1 153.5020 10.5111 17.8487 0.0000 -2.2600 0.0000
# 2 10.5111 16.6835 -8.5182 0.0000 -5.6859 0.0000
# 3 17.8487 -8.5182 41.8672 0.0000 -10.9850 0.0000
# 4 0.0000 0.0000 0.0000 25.3233 0.0000 2.9749
# 5 -2.2600 -5.6859 -10.9850 0.0000 42.7341 0.0000
# 6 0.0000 0.0000 0.0000 2.9749 0.0000 8.9500
#
#
#
# Elastic Compliance Matrix: (Units=1/GPa)
#
#
# Indices 1 2 3 4 5 6 
#
# 1 0.007707 -0.008426 -0.005562 0.000000 -0.002143 0.000000
# 2 -0.008426 0.083973 0.025191 0.000000 0.017202 0.000000
# 3 -0.005562 0.025191 0.034511 0.000000 0.011929 0.000000
# 4 0.000000 0.000000 0.000000 0.041094 0.000000 -0.013659
# 5 -0.002143 0.017202 0.011929 0.000000 0.028642 0.000000
# 6 0.000000 0.000000 0.000000 -0.013659 0.000000 0.116272
#
#
# Mechanical properties :
#
#
# Convention : Reuss Voigt Hill
#
# Bulk Modulus (GPa) = 6.72966 27.97062 17.35014
# Shear Modulus (GPa) = 14.73508 28.21556 21.47532
#
# Velocity S-wave (km/s) = 2.62315 3.62987 3.16677
# Velocity P-wave (km/s) = 3.50957 5.53439 4.63393
#
# Compressibility (1/GPa) = 0.14859592
#
# Stress axis : x y z
#
# Youngs Moduli (GPa) = 129.75679 11.90864 28.97595
#
# Poissons Ratio (x) = 0.10034 0.16117
# Poissons Ratio (y) = 1.09331 -0.72992
# Poissons Ratio (z) = 0.72173 -0.29999
#
# Static dielectric constant tensor:
#      x y z
#    x 1.802700 0.000000 0.016520 
#    y 0.000000 1.784900 0.000000 
#    z 0.016520 0.000000 1.786850 
# 
# From -- ./inp_files/50552.got.cif
#   From: 2010.05.17/outbox.cif.g08.bks.cpg/sg5_26_cif.got.tgz:50552.got - 2010.06.03 18:56:24.
