data_PCOD9127103
_publ_section_title
;
Structure prediction by ZEFSAII (Michael W. Deem and Ramdas Pophale) SiO2 
 PCOD9127103
Probable space group: C 2
;
_chemical_formula_sum "Si O2"
_cell_formula_units_Z 26
_cell_length_a 11.001133
_cell_length_b 8.047715
_cell_length_c 12.366091
_cell_angle_alpha 90.000000
_cell_angle_beta 117.541849
_cell_angle_gamma 90.000000
_cell_volume 970.747071
_symmetry_space_group_name_H-M "C 2"
_symmetry_group_IT_number 5
_symmetry_cell_setting 'monoclinic'
loop_
_space_group_symop_operation_xyz
x,y,z
-x,y,-z
1/2+x,1/2+y,z
1/2-x,1/2+y,-z
loop_
_atom_site_type_symbol
_atom_site_label
_atom_site_fract_x
_atom_site_fract_y
_atom_site_fract_z
Si Si1 0.778770 0.285520 0.270345
Si Si2 0.500000 0.515516 0.500000
Si Si3 0.958334 0.921183 0.715608
Si Si4 0.797907 0.595076 0.138969
Si Si5 0.288380 0.691117 0.556562
Si Si6 0.741223 0.464245 0.888200
Si Si7 0.954223 0.502478 0.618370
O O1 0.732395 0.430869 0.166205
O O2 0.765710 0.108940 0.205409
O O3 0.869549 0.125250 0.482518
O O4 0.928642 0.362409 0.361292
O O5 0.521412 0.416394 0.619969
O O6 0.832179 0.799122 0.680992
O O7 0.875864 0.094796 0.682780
O O8 0.080632 0.931901 0.849331
O O9 0.949627 0.602313 0.257373
O O10 0.719935 0.771844 0.120982
O O11 0.814903 0.544870 0.020871
O O12 0.132768 0.623401 0.497120
O O13 0.326628 0.880559 0.595133
#
# Coordination Sequence:
#
# PCOD9127103 Si02
#       7
#     4   2   4   4   4   4   4
#     4  10  23  47  76 121 158 214 278 334 415 499
#     4   8  22  46  70 110 148 222 264 340 404 490
#     4  10  23  46  78 112 160 215 271 339 414 486
#     4  10  24  46  77 117 164 205 278 341 413 493
#     4  10  22  43  73 104 160 215 268 336 406 487
#     4  12  22  49  83 111 170 213 271 345 410 499
#     4  10  23  43  71 117 158 216 277 336 415 490
#
# _framework density 26.783494999999998
#
# number of rings (size 3 to 8) (size 9 to 14) (size 15 to 20)
#    1.846    0.000    3.077    0.000    2.154    3.692 
#    2.769    1.538    3.385    0.000    0.000    0.000 
#    0.000    0.000    0.000    0.000    0.000    0.000 
#
# Total GULP energy -72409.807720 kJ/mol
# GULP energy per Si atom -5569.985209 kJ/mol
# Density = 2.672253 g / cm^3
# Si number density = 26.783495 Si / 1000 Ang^3
#
#
#
# Elastic Constant Matrix: (Units=GPa)
#
#
# Indices 1 2 3 4 5 6 
#
# 1 89.5129 33.5041 25.8223 0.0000 -3.3729 0.0000
# 2 33.5041 172.4431 28.5040 0.0000 -13.0236 0.0000
# 3 25.8223 28.5040 122.7232 0.0000 3.1258 0.0000
# 4 0.0000 0.0000 0.0000 51.8123 0.0000 8.1773
# 5 -3.3729 -13.0236 3.1258 0.0000 22.1790 0.0000
# 6 0.0000 0.0000 0.0000 8.1773 0.0000 38.3317
#
#
#
# Elastic Compliance Matrix: (Units=1/GPa)
#
#
# Indices 1 2 3 4 5 6 
#
# 1 0.012599 -0.002003 -0.002213 0.000000 0.001052 0.000000
# 2 -0.002003 0.006677 -0.001226 0.000000 0.003789 0.000000
# 3 -0.002213 -0.001226 0.008958 0.000000 -0.002319 0.000000
# 4 0.000000 0.000000 0.000000 0.019973 0.000000 -0.004261
# 5 0.001052 0.003789 -0.002319 0.000000 0.047799 0.000000
# 6 0.000000 0.000000 0.000000 -0.004261 0.000000 0.026997
#
#
# Mechanical properties :
#
#
# Convention : Reuss Voigt Hill
#
# Bulk Modulus (GPa) = 57.63260 62.26001 59.94630
# Shear Modulus (GPa) = 35.79883 42.25451 39.02667
#
# Velocity S-wave (km/s) = 3.65992 3.97625 3.82136
# Velocity P-wave (km/s) = 6.27891 6.66160 6.47308
#
# Compressibility (1/GPa) = 0.01735129
#
# Stress axis : x y z
#
# Youngs Moduli (GPa) = 79.37072 149.76982 111.63491
#
# Poissons Ratio (x) = 0.29995 0.24701
# Poissons Ratio (y) = 0.15896 0.13685
# Poissons Ratio (z) = 0.17562 0.18360
#
# Static dielectric constant tensor:
#      x y z
#    x 2.136990 0.000000 -0.054740 
#    y 0.000000 2.279600 0.000000 
#    z -0.054740 0.000000 2.211710 
# 
# From -- ./inp_files/45916.got.cif
#   From: 2010.05.17/outbox.cif.g08.bks.cpg/sg5_23_cif.got.tgz:45916.got - 2010.06.03 18:56:24.
