data_PCOD9127193
_publ_section_title
;
Structure prediction by ZEFSAII (Michael W. Deem and Ramdas Pophale) SiO2 
 PCOD9127193
Probable space group: C 2
;
_chemical_formula_sum "Si O2"
_cell_formula_units_Z 30
_cell_length_a 11.091854
_cell_length_b 8.633018
_cell_length_c 29.623513
_cell_angle_alpha 90.000000
_cell_angle_beta 31.639649
_cell_angle_gamma 90.000000
_cell_volume 1488.027950
_symmetry_space_group_name_H-M "C 2"
_symmetry_group_IT_number 5
_symmetry_cell_setting 'monoclinic'
loop_
_space_group_symop_operation_xyz
x,y,z
-x,y,-z
1/2+x,1/2+y,z
1/2-x,1/2+y,-z
loop_
_atom_site_type_symbol
_atom_site_label
_atom_site_fract_x
_atom_site_fract_y
_atom_site_fract_z
Si Si1 0.205810 0.434440 0.746475
Si Si2 0.225748 0.436874 0.956913
Si Si3 0.000000 0.659615 0.500000
Si Si4 0.832184 0.925751 0.340723
Si Si5 0.458154 0.662146 0.466416
Si Si6 0.036982 0.760127 0.198485
Si Si7 0.045569 0.848726 0.572333
Si Si8 0.502765 0.746062 0.890130
O O1 0.437192 0.441318 0.703217
O O2 0.292099 0.339310 0.674645
O O3 0.034705 0.339284 0.833075
O O4 0.110678 0.603781 0.763145
O O5 0.364511 0.319536 0.880367
O O6 0.377575 0.584724 0.920862
O O7 0.000000 0.483945 0.000000
O O8 0.140601 0.349389 0.028844
O O9 0.833334 0.553566 0.583995
O O10 0.903140 0.771847 0.492110
O O11 0.677777 0.769561 0.389951
O O12 0.913866 0.907984 0.262399
O O13 0.500000 0.577424 0.500000
O O14 0.236311 0.769127 0.542022
O O15 0.416442 0.531879 0.443017
O O16 0.249163 0.720290 0.164641
#
# Coordination Sequence:
#
# PCOD9127193 Si02
#       8
#     4   4   2   4   4   4   4   4
#     4  11  22  41  62  95 129 168 213 267 324 380
#     4  10  22  44  68  96 126 166 202 255 323 386
#     4  12  26  40  60  98 126 180 236 270 324 392
#     4  11  22  42  61  88 130 169 219 272 319 377
#     4  12  22  43  64  86 124 173 219 271 323 377
#     4  10  23  41  65  92 130 170 205 263 324 377
#     4  12  25  41  65  92 128 174 227 272 330 381
#     4  10  23  41  67  97 129 160 210 256 317 398
#
# _framework density 20.160912
#
# number of rings (size 3 to 8) (size 9 to 14) (size 15 to 20)
#    0.000    1.067    4.000    2.400    1.867    1.067 
#    2.400    0.000    0.000    0.000    0.000    0.000 
#    0.000    0.000    0.000    0.000    0.000    0.000 
#
# Total GULP energy -83571.458842 kJ/mol
# GULP energy per Si atom -5571.430589 kJ/mol
# Density = 2.011502 g / cm^3
# Si number density = 20.160912 Si / 1000 Ang^3
#
#
#
# Elastic Constant Matrix: (Units=GPa)
#
#
# Indices 1 2 3 4 5 6 
#
# 1 62.4188 63.8172 39.4749 0.0001 7.6102 0.0002
# 2 63.8172 112.1033 47.2384 -0.0001 -7.7869 -0.0001
# 3 39.4749 47.2384 111.9016 0.0007 12.7675 0.0024
# 4 0.0001 -0.0001 0.0007 31.0587 0.0000 -2.5664
# 5 7.6102 -7.7869 12.7675 0.0000 28.3973 0.0001
# 6 0.0002 -0.0001 0.0024 -2.5664 0.0001 28.6679
#
#
#
# Elastic Compliance Matrix: (Units=1/GPa)
#
#
# Indices 1 2 3 4 5 6 
#
# 1 0.048786 -0.027702 -0.003328 0.000000 -0.019174 0.000000
# 2 -0.027702 0.027396 -0.003686 0.000000 0.016593 0.000001
# 3 -0.003328 -0.003686 0.012312 0.000000 -0.005654 -0.000001
# 4 0.000000 0.000000 0.000000 0.032437 0.000000 0.002904
# 5 -0.019174 0.016593 -0.005654 0.000000 0.047445 0.000001
# 6 0.000000 0.000001 -0.000001 0.002904 0.000001 0.035142
#
#
# Mechanical properties :
#
#
# Convention : Reuss Voigt Hill
#
# Bulk Modulus (GPa) = 52.46183 65.27609 58.86896
# Shear Modulus (GPa) = 17.90167 26.68433 22.29300
#
# Velocity S-wave (km/s) = 2.98306 3.64203 3.32889
# Velocity P-wave (km/s) = 6.15978 7.08052 6.63614
#
# Compressibility (1/GPa) = 0.01906148
#
# Stress axis : x y z
#
# Youngs Moduli (GPa) = 20.49782 36.50167 81.22405
#
# Poissons Ratio (x) = 1.01116 0.27032
# Poissons Ratio (y) = 0.56783 0.29940
# Poissons Ratio (z) = 0.06822 0.13455
#
# Static dielectric constant tensor:
#      x y z
#    x 1.736160 0.000000 0.035540 
#    y 0.000000 1.691170 0.000000 
#    z 0.035540 0.000000 1.787760 
# 
# From -- ./inp_files/52469.got.cif
#   From: 2010.05.17/outbox.cif.g08.bks.cpg/sg5_27_cif.got.tgz:52469.got - 2010.06.03 18:56:24.
