data_PCOD9127421
_publ_section_title
;
Structure prediction by ZEFSAII (Michael W. Deem and Ramdas Pophale) SiO2 
 PCOD9127421
Probable space group: C 2
;
_chemical_formula_sum "Si O2"
_cell_formula_units_Z 24
_cell_length_a 19.845019
_cell_length_b 11.044262
_cell_length_c 11.866683
_cell_angle_alpha 90.000000
_cell_angle_beta 157.428843
_cell_angle_gamma 90.000000
_cell_volume 998.290805
_symmetry_space_group_name_H-M "C 2"
_symmetry_group_IT_number 5
_symmetry_cell_setting 'monoclinic'
loop_
_space_group_symop_operation_xyz
x,y,z
-x,y,-z
1/2+x,1/2+y,z
1/2-x,1/2+y,-z
loop_
_atom_site_type_symbol
_atom_site_label
_atom_site_fract_x
_atom_site_fract_y
_atom_site_fract_z
Si Si1 0.296584 0.198910 0.680950
Si Si2 0.555322 0.494586 0.369247
Si Si3 0.293545 0.795928 0.682555
Si Si4 0.720863 0.850474 0.780005
Si Si5 0.225876 0.167790 0.972823
Si Si6 0.388955 0.106912 0.463854
O O1 0.272729 0.300559 0.548655
O O2 0.237829 0.251368 0.710157
O O3 0.157397 0.090714 0.449471
O O4 0.500000 0.160082 0.000000
O O5 0.705516 0.396158 0.628662
O O6 0.433280 0.571356 0.267583
O O7 0.412036 0.409962 0.090299
O O8 0.229620 0.663224 0.622631
O O9 0.500000 0.808575 0.000000
O O10 0.669724 0.788470 0.820138
O O11 0.616427 0.966319 0.574106
O O12 0.302745 0.171580 0.219251
O O13 0.408587 0.133094 0.194341
#
# Coordination Sequence:
#
# PCOD9127421 Si02
#       6
#     4   4   4   4   4   4
#     4  12  26  47  77 112 153 200 264 311 386 462
#     4  11  25  45  74 113 150 204 247 325 372 449
#     4  12  25  49  76 116 160 200 259 314 392 462
#     4  11  24  50  75 110 149 201 254 322 379 456
#     4  10  22  46  70 111 148 195 262 301 388 455
#     4  10  23  45  77 106 153 203 245 321 387 449
#
# _framework density 24.041091000000002
#
# number of rings (size 3 to 8) (size 9 to 14) (size 15 to 20)
#    0.000    1.000    3.333    2.500    2.333    6.667 
#   12.000    0.000    0.000    0.000    0.000    0.000 
#    0.000    0.000    0.000    0.000    0.000    0.000 
#
# Total GULP energy -66973.766706 kJ/mol
# GULP energy per Si atom -5581.147226 kJ/mol
# Density = 2.398637 g / cm^3
# Si number density = 24.041091 Si / 1000 Ang^3
#
#
#
# Elastic Constant Matrix: (Units=GPa)
#
#
# Indices 1 2 3 4 5 6 
#
# 1 88.4244 47.9833 36.0181 0.0000 -0.6245 0.0000
# 2 47.9833 127.0138 55.0069 0.0000 19.6736 0.0000
# 3 36.0181 55.0069 139.1153 0.0000 36.0202 0.0000
# 4 0.0000 0.0000 0.0000 38.9128 0.0000 6.0389
# 5 -0.6245 19.6736 36.0202 0.0000 25.5637 0.0000
# 6 0.0000 0.0000 0.0000 6.0389 0.0000 29.9832
#
#
#
# Elastic Compliance Matrix: (Units=1/GPa)
#
#
# Indices 1 2 3 4 5 6 
#
# 1 0.016746 -0.006001 -0.005140 0.000000 0.012269 0.000000
# 2 -0.006001 0.011817 -0.001143 0.000000 -0.007630 0.000000
# 3 -0.005140 -0.001143 0.013816 0.000000 -0.018713 0.000000
# 4 0.000000 0.000000 0.000000 0.026528 0.000000 -0.005343
# 5 0.012269 -0.007630 -0.018713 0.000000 0.071658 0.000000
# 6 0.000000 0.000000 0.000000 -0.005343 0.000000 0.034428
#
#
# Mechanical properties :
#
#
# Convention : Reuss Voigt Hill
#
# Bulk Modulus (GPa) = 56.14268 70.28558 63.21413
# Shear Modulus (GPa) = 24.33127 33.26161 28.79644
#
# Velocity S-wave (km/s) = 3.18476 3.72362 3.46468
# Velocity P-wave (km/s) = 6.07676 6.91276 6.50820
#
# Compressibility (1/GPa) = 0.01781176
#
# Stress axis : x y z
#
# Youngs Moduli (GPa) = 59.71745 84.62323 72.37774
#
# Poissons Ratio (x) = 0.50780 0.37199
# Poissons Ratio (y) = 0.35835 0.08275
# Poissons Ratio (z) = 0.30692 0.09675
#
# Static dielectric constant tensor:
#      x y z
#    x 1.978660 0.000000 0.016570 
#    y 0.000000 1.930080 0.000000 
#    z 0.016570 0.000000 1.997400 
# 
# From -- ./inp_files/57776.got.cif
#   From: 2010.05.17/outbox.cif.g08.bks.cpg/sg5_29_cif.got.tgz:57776.got - 2010.06.03 18:56:24.
