data_PCOD9127722
_publ_section_title
;
Structure prediction by ZEFSAII (Michael W. Deem and Ramdas Pophale) SiO2 
 PCOD9127722
Probable space group: C 2
;
_chemical_formula_sum "Si O2"
_cell_formula_units_Z 16
_cell_length_a 18.412479
_cell_length_b 5.257012
_cell_length_c 7.241239
_cell_angle_alpha 90.000000
_cell_angle_beta 117.939408
_cell_angle_gamma 90.000000
_cell_volume 619.217089
_symmetry_space_group_name_H-M "C 2"
_symmetry_group_IT_number 5
_symmetry_cell_setting 'monoclinic'
loop_
_space_group_symop_operation_xyz
x,y,z
-x,y,-z
1/2+x,1/2+y,z
1/2-x,1/2+y,-z
loop_
_atom_site_type_symbol
_atom_site_label
_atom_site_fract_x
_atom_site_fract_y
_atom_site_fract_z
Si Si1 0.759433 0.413770 0.704257
Si Si2 0.569817 0.560290 0.815010
Si Si3 0.111368 0.128789 0.291476
Si Si4 0.165646 0.568119 0.836489
O O1 0.600187 0.298362 0.762967
O O2 0.846258 0.400650 0.701092
O O3 0.779841 0.573219 0.911569
O O4 0.728632 0.142274 0.750214
O O5 0.472670 0.613881 0.696503
O O6 0.617324 0.802878 0.786846
O O7 0.591580 0.537157 0.059915
O O8 0.185313 0.000261 0.489522
#
# Coordination Sequence:
#
# PCOD9127722 Si02
#       4
#     4   4   4   4
#     4  11  23  44  70 102 135 180 228 279 334 402
#     4  10  24  46  68  98 137 178 221 278 338 400
#     4  10  23  41  70 101 134 176 228 278 334 399
#     4  11  24  44  68  96 138 179 221 275 338 399
#
# _framework density 25.839079000000002
#
# number of rings (size 3 to 8) (size 9 to 14) (size 15 to 20)
#    0.000    1.500    0.000    4.500    0.000   13.000 
#    0.000    5.000    0.000    0.000    0.000    0.000 
#    0.000    0.000    0.000    0.000    0.000    0.000 
#
# Total GULP energy -44786.074441 kJ/mol
# GULP energy per Si atom -5598.259305 kJ/mol
# Density = 2.578027 g / cm^3
# Si number density = 25.839079 Si / 1000 Ang^3
#
#
#
# Elastic Constant Matrix: (Units=GPa)
#
#
# Indices 1 2 3 4 5 6 
#
# 1 199.2507 57.4604 35.0201 0.0000 39.7374 0.0000
# 2 57.4604 121.2370 22.5414 0.0000 -3.3587 0.0000
# 3 35.0201 22.5414 135.2707 0.0000 21.2311 0.0000
# 4 0.0000 0.0000 0.0000 45.1465 0.0000 -8.8618
# 5 39.7374 -3.3587 21.2311 0.0000 44.6723 0.0000
# 6 0.0000 0.0000 0.0000 -8.8618 0.0000 26.7038
#
#
#
# Elastic Compliance Matrix: (Units=1/GPa)
#
#
# Indices 1 2 3 4 5 6 
#
# 1 0.007487 -0.003690 -0.000253 0.000000 -0.006817 0.000000
# 2 -0.003690 0.010415 -0.001533 0.000000 0.004794 0.000000
# 3 -0.000253 -0.001533 0.008317 0.000000 -0.003842 0.000000
# 4 0.000000 0.000000 0.000000 0.023693 0.000000 0.007863
# 5 -0.006817 0.004794 -0.003842 0.000000 0.030636 0.000000
# 6 0.000000 0.000000 0.000000 0.007863 0.000000 0.040057
#
#
# Mechanical properties :
#
#
# Convention : Reuss Voigt Hill
#
# Bulk Modulus (GPa) = 65.50423 76.20026 70.85224
# Shear Modulus (GPa) = 36.59075 46.02028 41.30552
#
# Velocity S-wave (km/s) = 3.76719 4.22481 4.00255
# Velocity P-wave (km/s) = 6.65794 7.30431 6.98861
#
# Compressibility (1/GPa) = 0.01526619
#
# Stress axis : x y z
#
# Youngs Moduli (GPa) = 133.56322 96.01462 120.24042
#
# Poissons Ratio (x) = 0.35432 0.03047
# Poissons Ratio (y) = 0.49288 0.18428
# Poissons Ratio (z) = 0.03385 0.14716
#
# Static dielectric constant tensor:
#      x y z
#    x 2.033300 0.000000 -0.025200 
#    y 0.000000 2.069280 0.000000 
#    z -0.025200 0.000000 2.050120 
# 
# From -- ./inp_files/26030.got.cif
#   From: 2010.05.17/outbox.cif.g08.bks.cpg/sg5_14_cif.got.tgz:26030.got - 2010.06.03 18:56:24.
