data_PCOD9127802
_publ_section_title
;
Structure prediction by ZEFSAII (Michael W. Deem and Ramdas Pophale) SiO2 
 PCOD9127802
Probable space group: C 2
;
_chemical_formula_sum "Si O2"
_cell_formula_units_Z 28
_cell_length_a 11.459903
_cell_length_b 15.130706
_cell_length_c 8.391470
_cell_angle_alpha 90.000000
_cell_angle_beta 109.314831
_cell_angle_gamma 90.000000
_cell_volume 1373.153877
_symmetry_space_group_name_H-M "C 2"
_symmetry_group_IT_number 5
_symmetry_cell_setting 'monoclinic'
loop_
_space_group_symop_operation_xyz
x,y,z
-x,y,-z
1/2+x,1/2+y,z
1/2-x,1/2+y,-z
loop_
_atom_site_type_symbol
_atom_site_label
_atom_site_fract_x
_atom_site_fract_y
_atom_site_fract_z
Si Si1 0.500000 0.780221 0.000000
Si Si2 0.292907 0.907550 0.828387
Si Si3 0.956576 0.133936 0.729700
Si Si4 0.019994 0.933558 0.830279
Si Si5 0.500000 0.158553 0.500000
Si Si6 0.808330 0.185987 0.369695
Si Si7 0.065085 0.582958 0.195246
Si Si8 0.831761 0.818257 0.531679
O O1 0.618007 0.844487 0.025742
O O2 0.558999 0.711183 0.150885
O O3 0.167113 0.935505 0.861990
O O4 0.235278 0.865733 0.642977
O O5 0.381726 0.984932 0.804527
O O6 0.849580 0.137787 0.550870
O O7 0.081444 0.165374 0.698696
O O8 0.972035 0.034630 0.798137
O O9 0.939804 0.874799 0.668118
O O10 0.000000 0.898916 0.000000
O O11 0.494279 0.102130 0.331794
O O12 0.389814 0.228241 0.484459
O O13 0.684522 0.144211 0.251072
O O14 0.774305 0.286845 0.393184
O O15 0.000000 0.605250 0.000000
#
# Coordination Sequence:
#
# PCOD9127802 Si02
#       8
#     2   4   4   4   2   4   4   4
#     4  12  26  44  70 100 142 184 224 304 350 420
#     4  12  24  48  66 101 145 179 234 294 358 414
#     4  11  23  46  68  98 137 181 236 285 359 417
#     4  12  26  44  71 103 134 188 242 293 353 423
#     4  10  24  46  72 104 132 186 238 280 354 416
#     4  10  23  42  69  97 133 182 229 287 353 421
#     4  11  24  46  71 103 143 186 229 293 357 424
#     4  11  23  45  69  96 137 181 233 293 348 418
#
# _framework density 20.391013999999998
#
# number of rings (size 3 to 8) (size 9 to 14) (size 15 to 20)
#    0.000    0.857    5.714    0.857    4.000    3.429 
#   10.286    0.000    0.000    0.000    0.000    0.000 
#    0.000    0.000    0.000    0.000    0.000    0.000 
#
# Total GULP energy -78021.337165 kJ/mol
# GULP energy per Si atom -5572.952655 kJ/mol
# Density = 2.034460 g / cm^3
# Si number density = 20.391014 Si / 1000 Ang^3
#
#
#
# Elastic Constant Matrix: (Units=GPa)
#
#
# Indices 1 2 3 4 5 6 
#
# 1 66.0985 28.0966 47.6993 0.0000 8.6935 0.0000
# 2 28.0966 73.6063 23.6167 0.0000 -3.6484 0.0000
# 3 47.6993 23.6167 71.9118 0.0000 6.2113 0.0000
# 4 0.0000 0.0000 0.0000 29.7682 0.0000 1.9797
# 5 8.6935 -3.6484 6.2113 0.0000 32.7982 0.0000
# 6 0.0000 0.0000 0.0000 1.9797 0.0000 32.1747
#
#
#
# Elastic Compliance Matrix: (Units=1/GPa)
#
#
# Indices 1 2 3 4 5 6 
#
# 1 0.032145 -0.006562 -0.018673 0.000000 -0.005714 0.000000
# 2 -0.006562 0.016760 -0.001487 0.000000 0.003885 0.000000
# 3 -0.018673 -0.001487 0.026806 0.000000 -0.000292 0.000000
# 4 0.000000 0.000000 0.000000 0.033731 0.000000 -0.002075
# 5 -0.005714 0.003885 -0.000292 0.000000 0.032492 0.000000
# 6 0.000000 0.000000 0.000000 -0.002075 0.000000 0.031208
#
#
# Mechanical properties :
#
#
# Convention : Reuss Voigt Hill
#
# Bulk Modulus (GPa) = 44.91186 45.60465 45.25825
# Shear Modulus (GPa) = 21.36665 26.42851 23.89758
#
# Velocity S-wave (km/s) = 3.24056 3.60402 3.42711
# Velocity P-wave (km/s) = 6.00623 6.30335 6.15658
#
# Compressibility (1/GPa) = 0.02226583
#
# Stress axis : x y z
#
# Youngs Moduli (GPa) = 31.10871 59.66432 37.30547
#
# Poissons Ratio (x) = 0.39153 0.69662
# Poissons Ratio (y) = 0.20414 0.05548
# Poissons Ratio (z) = 0.58091 0.08874
#
# Static dielectric constant tensor:
#      x y z
#    x 1.780610 0.000000 -0.041520 
#    y 0.000000 1.789230 0.000000 
#    z -0.041520 0.000000 1.767910 
# 
# From -- ./inp_files/20298.got.cif
#   From: 2010.05.17/outbox.cif.g08.bks.cpg/sg5_11_cif.got.tgz:20298.got - 2010.06.03 18:56:24.
