data_PCOD9127330
_publ_section_title
;
Structure prediction by ZEFSAII (Michael W. Deem and Ramdas Pophale) SiO2 
 PCOD9127330
Probable space group: C 2
;
_chemical_formula_sum "Si O2"
_cell_formula_units_Z 26
_cell_length_a 19.154448
_cell_length_b 4.927064
_cell_length_c 20.534600
_cell_angle_alpha 90.000000
_cell_angle_beta 35.769388
_cell_angle_gamma 90.000000
_cell_volume 1132.782758
_symmetry_space_group_name_H-M "C 2"
_symmetry_group_IT_number 5
_symmetry_cell_setting 'monoclinic'
loop_
_space_group_symop_operation_xyz
x,y,z
-x,y,-z
1/2+x,1/2+y,z
1/2-x,1/2+y,-z
loop_
_atom_site_type_symbol
_atom_site_label
_atom_site_fract_x
_atom_site_fract_y
_atom_site_fract_z
Si Si1 0.438025 0.118490 0.168091
Si Si2 0.410327 0.944498 0.385833
Si Si3 0.778231 0.236340 0.208132
Si Si4 0.500000 0.502796 0.000000
Si Si5 0.842821 0.944145 0.360142
Si Si6 0.163826 0.237378 0.239911
Si Si7 0.293749 0.115313 0.005795
O O1 0.468180 0.308041 0.083312
O O2 0.378921 0.316315 0.265108
O O3 0.348792 0.878070 0.213878
O O4 0.568164 0.026291 0.094265
O O5 0.297894 0.912034 0.519117
O O6 0.379703 0.751781 0.347137
O O7 0.533396 0.841628 0.321556
O O8 0.409952 0.254198 0.362508
O O9 0.678117 0.440777 0.258958
O O10 0.719234 0.942043 0.251485
O O11 0.886520 0.195396 0.074276
O O12 0.241079 0.222050 0.114489
O O13 0.281968 0.362436 0.963683
#
# Coordination Sequence:
#
# PCOD9127330 Si02
#       7
#     4   4   4   2   4   4   4
#     4  12  25  44  67  95 136 174 227 268 326 406
#     4  10  22  45  69 101 131 171 218 280 333 393
#     4  12  25  41  65  92 127 186 214 267 324 395
#     4  12  24  44  64  92 132 184 218 270 318 406
#     4  10  23  42  73  98 130 174 222 270 338 393
#     4  12  23  42  64  93 134 172 221 270 336 385
#     4  12  25  37  60  96 130 164 214 272 330 385
#
# _framework density 22.952324999999998
#
# number of rings (size 3 to 8) (size 9 to 14) (size 15 to 20)
#    0.000    0.615    3.077    5.077    4.308    0.000 
#    0.000    0.769    3.385    0.000    0.000    0.000 
#    0.000    0.000    0.000    0.000    0.000    0.000 
#
# Total GULP energy -72753.636215 kJ/mol
# GULP energy per Si atom -5596.433555 kJ/mol
# Density = 2.290008 g / cm^3
# Si number density = 22.952325 Si / 1000 Ang^3
#
#
#
# Elastic Constant Matrix: (Units=GPa)
#
#
# Indices 1 2 3 4 5 6 
#
# 1 85.4904 2.6542 28.0440 -0.0067 -15.5679 -0.0060
# 2 2.6542 78.9192 -9.3378 -0.0132 -2.3043 0.0424
# 3 28.0440 -9.3378 51.9399 -0.0121 -7.4694 0.0140
# 4 -0.0067 -0.0132 -0.0121 20.6503 0.0030 -4.7986
# 5 -15.5679 -2.3043 -7.4694 0.0030 35.7024 -0.0146
# 6 -0.0060 0.0424 0.0140 -4.7986 -0.0146 34.5405
#
#
#
# Elastic Compliance Matrix: (Units=1/GPa)
#
#
# Indices 1 2 3 4 5 6 
#
# 1 0.015161 -0.001278 -0.007709 0.000001 0.004916 0.000010
# 2 -0.001278 0.013119 0.003186 0.000006 0.000956 -0.000016
# 3 -0.007709 0.003186 0.024264 0.000011 0.001921 -0.000013
# 4 0.000001 0.000006 0.000011 0.050041 0.000002 0.006952
# 5 0.004916 0.000956 0.001921 0.000002 0.030616 0.000012
# 6 0.000010 -0.000016 -0.000013 0.006952 0.000012 0.029917
#
#
# Mechanical properties :
#
#
# Convention : Reuss Voigt Hill
#
# Bulk Modulus (GPa) = 24.42459 28.78560 26.60510
# Shear Modulus (GPa) = 26.54380 31.17792 28.86086
#
# Velocity S-wave (km/s) = 3.40439 3.68962 3.54987
# Velocity P-wave (km/s) = 5.11055 5.54254 5.33092
#
# Compressibility (1/GPa) = 0.04094234
#
# Stress axis : x y z
#
# Youngs Moduli (GPa) = 65.95972 76.22472 41.21293
#
# Poissons Ratio (x) = 0.09745 0.31770
# Poissons Ratio (y) = 0.08433 -0.13132
# Poissons Ratio (z) = 0.50846 -0.24287
#
# Static dielectric constant tensor:
#      x y z
#    x 1.896860 -0.000020 -0.003570 
#    y -0.000020 1.847250 0.000030 
#    z -0.003570 0.000030 1.843080 
# 
# From -- ./inp_files/66914.got.cif
#   From: 2010.05.17/outbox.cif.g08.bks.cpg/sg5_34_cif.got.tgz:66914.got - 2010.06.03 18:56:24.
