data_PCOD9127838
_publ_section_title
;
Structure prediction by ZEFSAII (Michael W. Deem and Ramdas Pophale) SiO2 
 PCOD9127838
Probable space group: C 2
;
_chemical_formula_sum "Si O2"
_cell_formula_units_Z 22
_cell_length_a 15.333140
_cell_length_b 13.090430
_cell_length_c 6.224243
_cell_angle_alpha 90.000000
_cell_angle_beta 57.379470
_cell_angle_gamma 90.000000
_cell_volume 1052.246196
_symmetry_space_group_name_H-M "C 2"
_symmetry_group_IT_number 5
_symmetry_cell_setting 'monoclinic'
loop_
_space_group_symop_operation_xyz
x,y,z
-x,y,-z
1/2+x,1/2+y,z
1/2-x,1/2+y,-z
loop_
_atom_site_type_symbol
_atom_site_label
_atom_site_fract_x
_atom_site_fract_y
_atom_site_fract_z
Si Si1 0.201408 0.004640 0.232978
Si Si2 0.111220 0.410163 0.738345
Si Si3 0.272227 0.708790 0.553034
Si Si4 0.325350 0.072920 0.686487
Si Si5 0.926621 0.705680 0.917105
Si Si6 0.500000 0.368455 0.500000
O O1 0.181598 0.112962 0.376378
O O2 0.300729 0.953256 0.216370
O O3 0.102230 0.934809 0.387291
O O4 0.232170 0.022389 0.945016
O O5 0.150007 0.299130 0.607408
O O6 0.116145 0.488797 0.532292
O O7 0.000000 0.405308 0.000000
O O8 0.220721 0.659574 0.408892
O O9 0.177386 0.744933 0.829818
O O10 0.394277 0.126601 0.776709
O O11 0.986778 0.796656 0.724029
O O12 0.000000 0.657263 0.000000
#
# Coordination Sequence:
#
# PCOD9127838 Si02
#       6
#     4   4   4   4   4   2
#     4  10  24  42  65  94 126 171 215 259 317 377
#     4  11  24  42  65  94 130 170 213 261 317 379
#     4  10  23  43  63  92 129 167 213 259 317 382
#     4  10  23  43  64  92 131 166 211 266 315 374
#     4  11  22  37  67  97 124 164 214 267 316 371
#     4  12  24  42  68  96 128 164 214 268 316 372
#
# _framework density 20.907654999999998
#
# number of rings (size 3 to 8) (size 9 to 14) (size 15 to 20)
#    0.000    1.455    0.000    4.364    0.000   17.455 
#    0.000    0.000    0.000    0.000    0.000    0.000 
#    0.000    0.000    0.000    0.000    0.000    0.000 
#
# Total GULP energy -61578.554106 kJ/mol
# GULP energy per Si atom -5598.050373 kJ/mol
# Density = 2.086007 g / cm^3
# Si number density = 20.907655 Si / 1000 Ang^3
#
#
#
# Elastic Constant Matrix: (Units=GPa)
#
#
# Indices 1 2 3 4 5 6 
#
# 1 104.3947 61.8521 84.8663 0.0000 -13.1868 0.0000
# 2 61.8521 145.8707 107.9098 0.0000 -22.8766 0.0000
# 3 84.8663 107.9098 196.7805 0.0000 -17.0237 0.0000
# 4 0.0000 0.0000 0.0000 44.3641 0.0000 -15.1849
# 5 -13.1868 -22.8766 -17.0237 0.0000 37.4456 0.0000
# 6 0.0000 0.0000 0.0000 -15.1849 0.0000 24.4287
#
#
#
# Elastic Compliance Matrix: (Units=1/GPa)
#
#
# Indices 1 2 3 4 5 6 
#
# 1 0.015447 -0.002482 -0.005164 0.000000 0.001575 0.000000
# 2 -0.002482 0.012654 -0.005491 0.000000 0.004360 0.000000
# 3 -0.005164 -0.005491 0.010277 0.000000 -0.000501 0.000000
# 4 0.000000 0.000000 0.000000 0.028633 0.000000 0.017798
# 5 0.001575 0.004360 -0.000501 0.000000 0.029696 0.000000
# 6 0.000000 0.000000 0.000000 0.017798 0.000000 0.051999
#
#
# Mechanical properties :
#
#
# Convention : Reuss Voigt Hill
#
# Bulk Modulus (GPa) = 82.63171 106.25581 94.44376
# Shear Modulus (GPa) = 27.93045 34.07551 31.00298
#
# Velocity S-wave (km/s) = 3.65896 4.04147 3.85496
# Velocity P-wave (km/s) = 7.58015 8.52700 8.06748
#
# Compressibility (1/GPa) = 0.01210189
#
# Stress axis : x y z
#
# Youngs Moduli (GPa) = 64.73698 79.02566 97.30424
#
# Poissons Ratio (x) = 0.19618 0.50251
# Poissons Ratio (y) = 0.16071 0.53434
# Poissons Ratio (z) = 0.33432 0.43396
#
# Static dielectric constant tensor:
#      x y z
#    x 1.741930 0.000000 0.007620 
#    y 0.000000 1.744510 0.000000 
#    z 0.007620 0.000000 1.756980 
# 
# From -- ./inp_files/4764.got.cif
#   From: 2010.05.17/outbox.cif.g08.bks.cpg/sg5_3_cif.got.tgz:4764.got - 2010.06.03 18:56:24.
