data_PCOD9127499
_publ_section_title
;
Structure prediction by ZEFSAII (Michael W. Deem and Ramdas Pophale) SiO2 
 PCOD9127499
Probable space group: C 2
;
_chemical_formula_sum "Si O2"
_cell_formula_units_Z 26
_cell_length_a 14.484776
_cell_length_b 11.288718
_cell_length_c 12.902563
_cell_angle_alpha 90.000000
_cell_angle_beta 31.992810
_cell_angle_gamma 90.000000
_cell_volume 1117.776242
_symmetry_space_group_name_H-M "C 2"
_symmetry_group_IT_number 5
_symmetry_cell_setting 'monoclinic'
loop_
_space_group_symop_operation_xyz
x,y,z
-x,y,-z
1/2+x,1/2+y,z
1/2-x,1/2+y,-z
loop_
_atom_site_type_symbol
_atom_site_label
_atom_site_fract_x
_atom_site_fract_y
_atom_site_fract_z
Si Si1 0.152765 0.500000 0.733020
Si Si2 0.000000 0.953659 0.500000
Si Si3 0.593359 0.809448 0.515373
Si Si4 0.003498 0.248277 0.833632
Si Si5 0.808831 0.566688 0.536741
Si Si6 0.982727 0.738700 0.131245
Si Si7 0.392013 0.262353 0.771074
O O1 0.321052 0.519805 0.643964
O O2 0.082399 0.367126 0.809384
O O3 0.216938 0.515727 0.554318
O O4 0.998375 0.596021 0.891934
O O5 0.953736 0.870238 0.641596
O O6 0.500000 0.766672 0.500000
O O7 0.498143 0.778105 0.714263
O O8 0.782047 0.753055 0.351856
O O9 0.636523 0.948315 0.456218
O O10 0.136108 0.140521 0.728658
O O11 0.807535 0.227762 0.058423
O O12 0.971539 0.656945 0.380739
O O13 0.090603 0.791039 0.122833
O O14 0.000000 0.789583 0.000000
#
# Coordination Sequence:
#
# PCOD9127499 Si02
#       7
#     4   2   4   4   4   4   4
#     4  10  23  41  68 102 137 177 227 291 336 404
#     4  12  24  42  70  98 140 178 226 288 344 394
#     4  11  23  43  68  97 138 179 225 282 337 404
#     4  11  22  46  70  97 136 183 225 282 346 402
#     4  10  22  48  64  96 145 174 230 282 334 417
#     4  11  24  46  67 103 142 177 231 285 339 418
#     4  11  24  44  71 100 135 178 226 284 343 399
#
# _framework density 23.260470999999999
#
# number of rings (size 3 to 8) (size 9 to 14) (size 15 to 20)
#    0.000    1.231    4.615    1.846    4.308    1.231 
#   16.615    0.000    0.000    0.000    0.000    0.000 
#    0.000    0.000    0.000    0.000    0.000    0.000 
#
# Total GULP energy -72676.284413 kJ/mol
# GULP energy per Si atom -5590.483416 kJ/mol
# Density = 2.320753 g / cm^3
# Si number density = 23.260471 Si / 1000 Ang^3
#
#
#
# Elastic Constant Matrix: (Units=GPa)
#
#
# Indices 1 2 3 4 5 6 
#
# 1 106.0070 24.3591 22.8100 -0.0001 -5.4553 0.0000
# 2 24.3591 72.1123 15.9608 0.0000 -9.2318 0.0000
# 3 22.8100 15.9608 119.5852 -0.0001 -22.6686 0.0001
# 4 -0.0001 0.0000 -0.0001 4.2502 0.0001 -5.5214
# 5 -5.4553 -9.2318 -22.6686 0.0001 42.6155 0.0000
# 6 0.0000 0.0000 0.0001 -5.5214 0.0000 31.4640
#
#
#
# Elastic Compliance Matrix: (Units=1/GPa)
#
#
# Indices 1 2 3 4 5 6 
#
# 1 0.010510 -0.003220 -0.001615 0.000000 -0.000211 0.000000
# 2 -0.003220 0.015484 -0.000995 0.000000 0.002413 0.000000
# 3 -0.001615 -0.000995 0.009701 0.000000 0.004738 0.000000
# 4 0.000000 0.000000 0.000000 0.304759 0.000000 0.053480
# 5 -0.000211 0.002413 0.004738 0.000000 0.026482 0.000000
# 6 0.000000 0.000000 0.000000 0.053480 0.000000 0.041167
#
#
# Mechanical properties :
#
#
# Convention : Reuss Voigt Hill
#
# Bulk Modulus (GPa) = 41.60518 47.10713 44.35615
# Shear Modulus (GPa) = 11.68841 31.30425 21.49633
#
# Velocity S-wave (km/s) = 2.24409 3.67251 3.04329
# Velocity P-wave (km/s) = 4.96387 6.18701 5.60888
#
# Compressibility (1/GPa) = 0.02403547
#
# Stress axis : x y z
#
# Youngs Moduli (GPa) = 95.14903 64.58279 103.07948
#
# Poissons Ratio (x) = 0.20794 0.16647
# Poissons Ratio (y) = 0.30636 0.10257
# Poissons Ratio (z) = 0.15366 0.06427
#
# Static dielectric constant tensor:
#      x y z
#    x 1.910600 0.000000 0.051910 
#    y 0.000000 1.926520 0.000000 
#    z 0.051910 0.000000 1.862490 
# 
# From -- ./inp_files/54549.got.cif
#   From: 2010.05.17/outbox.cif.g08.bks.cpg/sg5_28_cif.got.tgz:54549.got - 2010.06.03 18:56:24.
