data_PCOD9127906
_publ_section_title
;
Structure prediction by ZEFSAII (Michael W. Deem and Ramdas Pophale) SiO2 
 PCOD9127906
Probable space group: C 2
;
_chemical_formula_sum "Si O2"
_cell_formula_units_Z 24
_cell_length_a 11.508754
_cell_length_b 9.181698
_cell_length_c 12.039394
_cell_angle_alpha 90.000000
_cell_angle_beta 133.742664
_cell_angle_gamma 90.000000
_cell_volume 919.105223
_symmetry_space_group_name_H-M "C 2"
_symmetry_group_IT_number 5
_symmetry_cell_setting 'monoclinic'
loop_
_space_group_symop_operation_xyz
x,y,z
-x,y,-z
1/2+x,1/2+y,z
1/2-x,1/2+y,-z
loop_
_atom_site_type_symbol
_atom_site_label
_atom_site_fract_x
_atom_site_fract_y
_atom_site_fract_z
Si Si1 0.806466 0.402310 0.897256
Si Si2 0.862070 0.512962 0.715465
Si Si3 0.548072 0.369949 0.420618
Si Si4 0.242539 0.711700 0.045070
Si Si5 0.587865 0.903331 0.675765
Si Si6 0.398952 0.323973 0.792030
O O1 0.900896 0.399100 0.842116
O O2 0.622304 0.425927 0.733453
O O3 0.818764 0.547326 0.982508
O O4 0.802015 0.252270 0.961761
O O5 0.685171 0.480201 0.550989
O O6 0.850676 0.657429 0.782999
O O7 0.982751 0.504020 0.689506
O O8 0.500000 0.278425 0.500000
O O9 0.619048 0.312161 0.353230
O O10 0.377699 0.765246 0.220485
O O11 0.085630 0.820352 0.950264
O O12 0.500000 0.875922 0.500000
O O13 0.771373 0.937372 0.756373
#
# Coordination Sequence:
#
# PCOD9127906 Si02
#       6
#     4   4   4   4   4   4
#     4  10  23  43  75 101 143 194 240 301 369 433
#     4  11  23  42  74 101 143 192 241 296 368 435
#     4   9  21  41  66 102 140 184 240 299 361 428
#     4  11  24  44  73 103 142 192 245 297 368 435
#     4  12  25  40  70 106 140 186 246 292 360 436
#     4  11  23  43  69  99 144 189 239 304 358 429
#
# _framework density 26.112352999999999
#
# number of rings (size 3 to 8) (size 9 to 14) (size 15 to 20)
#    0.000    1.333    3.333    1.500    2.333    2.667 
#    0.000    1.667   33.000    0.000    0.000    0.000 
#    0.000    0.000    0.000    0.000    0.000    0.000 
#
# Total GULP energy -66818.980668 kJ/mol
# GULP energy per Si atom -5568.248389 kJ/mol
# Density = 2.605292 g / cm^3
# Si number density = 26.112353 Si / 1000 Ang^3
#
#
#
# Elastic Constant Matrix: (Units=GPa)
#
#
# Indices 1 2 3 4 5 6 
#
# 1 170.5638 34.7819 15.1842 0.0000 -28.2907 0.0000
# 2 34.7819 34.3994 21.8533 0.0000 -0.3928 0.0000
# 3 15.1842 21.8533 139.6770 0.0000 -32.4233 0.0000
# 4 0.0000 0.0000 0.0000 24.8548 0.0000 1.0867
# 5 -28.2907 -0.3928 -32.4233 0.0000 33.1073 0.0000
# 6 0.0000 0.0000 0.0000 1.0867 0.0000 35.4684
#
#
#
# Elastic Compliance Matrix: (Units=1/GPa)
#
#
# Indices 1 2 3 4 5 6 
#
# 1 0.010036 -0.012305 0.003612 0.000000 0.011967 0.000000
# 2 -0.012305 0.048285 -0.011033 0.000000 -0.020747 0.000000
# 3 0.003612 -0.011033 0.011880 0.000000 0.014590 0.000000
# 4 0.000000 0.000000 0.000000 0.040288 0.000000 -0.001234
# 5 0.011967 -0.020747 0.014590 0.000000 0.054473 0.000000
# 6 0.000000 0.000000 0.000000 -0.001234 0.000000 0.028232
#
#
# Mechanical properties :
#
#
# Convention : Reuss Voigt Hill
#
# Bulk Modulus (GPa) = 32.52244 54.25324 43.38784
# Shear Modulus (GPa) = 20.58512 36.87414 28.72963
#
# Velocity S-wave (km/s) = 2.81077 3.76191 3.32057
# Velocity P-wave (km/s) = 4.79747 6.30010 5.59942
#
# Compressibility (1/GPa) = 0.03074800
#
# Stress axis : x y z
#
# Youngs Moduli (GPa) = 99.64475 20.71057 84.17793
#
# Poissons Ratio (x) = 0.25485 -0.30407
# Poissons Ratio (y) = 1.22617 0.92871
# Poissons Ratio (z) = -0.35994 0.22849
#
# Static dielectric constant tensor:
#      x y z
#    x 2.261600 0.000000 -0.029690 
#    y 0.000000 2.009670 0.000000 
#    z -0.029690 0.000000 2.156450 
# 
# From -- ./inp_files/39267.got.cif
#   From: 2010.05.17/outbox.cif.g08.bks.cpg/sg5_20_cif.got.tgz:39267.got - 2010.06.03 18:56:24.
