data_PCOD9127767
_publ_section_title
;
Structure prediction by ZEFSAII (Michael W. Deem and Ramdas Pophale) SiO2 
 PCOD9127767
Probable space group: C 2
;
_chemical_formula_sum "Si O2"
_cell_formula_units_Z 26
_cell_length_a 5.336770
_cell_length_b 23.553744
_cell_length_c 9.183041
_cell_angle_alpha 90.000000
_cell_angle_beta 84.588259
_cell_angle_gamma 90.000000
_cell_volume 1149.171468
_symmetry_space_group_name_H-M "C 2"
_symmetry_group_IT_number 5
_symmetry_cell_setting 'monoclinic'
loop_
_space_group_symop_operation_xyz
x,y,z
-x,y,-z
1/2+x,1/2+y,z
1/2-x,1/2+y,-z
loop_
_atom_site_type_symbol
_atom_site_label
_atom_site_fract_x
_atom_site_fract_y
_atom_site_fract_z
Si Si1 0.909011 0.206700 0.784300
Si Si2 0.500000 0.051046 0.500000
Si Si3 0.000000 0.545287 0.000000
Si Si4 0.500000 0.789135 0.000000
Si Si5 0.202603 0.989363 0.767849
Si Si6 0.682599 0.586404 0.268363
Si Si7 0.655631 0.362458 0.843576
Si Si8 0.445632 0.260006 0.669301
O O1 0.978633 0.140688 0.769790
O O2 0.662338 0.214743 0.699092
O O3 0.162814 0.239217 0.719106
O O4 0.824024 0.238371 0.938827
O O5 0.291959 0.087745 0.425596
O O6 0.390409 0.011951 0.633463
O O7 0.803445 0.506042 0.922977
O O8 0.104913 0.584688 0.866791
O O9 0.578067 0.835198 0.120802
O O10 0.175099 0.922213 0.763062
O O11 0.957740 0.026724 0.747141
O O12 0.506261 0.315654 0.760181
O O13 0.500000 0.371042 0.000000
O O14 0.500000 0.273887 0.500000
#
# Coordination Sequence:
#
# PCOD9127767 Si02
#       8
#     4   2   2   2   4   4   4   4
#     4  11  26  44  75 100 150 184 244 293 365 432
#     4  10  26  46  62 108 146 190 248 288 382 436
#     4  10  23  42  66 114 138 179 244 298 368 438
#     4  10  23  44  68 102 136 187 236 300 354 430
#     4  11  24  44  70 105 140 192 235 303 368 446
#     4  11  25  43  72 102 145 189 241 303 369 437
#     4  11  22  45  72  96 141 180 244 302 365 428
#     4  11  26  46  68 106 138 192 240 299 359 434
#
# _framework density 22.624997
#
# number of rings (size 3 to 8) (size 9 to 14) (size 15 to 20)
#    0.000    1.231    1.538    2.769    7.538    3.692 
#    5.538    0.000    0.000    0.000    0.000    0.000 
#    0.000    0.000    0.000    0.000    0.000    0.000 
#
# Total GULP energy -72420.368766 kJ/mol
# GULP energy per Si atom -5570.797597 kJ/mol
# Density = 2.257350 g / cm^3
# Si number density = 22.624997 Si / 1000 Ang^3
#
#
#
# Elastic Constant Matrix: (Units=GPa)
#
#
# Indices 1 2 3 4 5 6 
#
# 1 94.1621 25.5531 19.3309 0.0000 4.1278 0.0000
# 2 25.5531 152.7322 20.4237 0.0000 8.9325 0.0000
# 3 19.3309 20.4237 63.5981 0.0000 -3.0873 0.0000
# 4 0.0000 0.0000 0.0000 -1.9334 0.0000 -15.1055
# 5 4.1278 8.9325 -3.0873 0.0000 31.6554 0.0000
# 6 0.0000 0.0000 0.0000 -15.1055 0.0000 7.7437
#
#
#
# Elastic Compliance Matrix: (Units=1/GPa)
#
#
# Indices 1 2 3 4 5 6 
#
# 1 0.011728 -0.001455 -0.003167 0.000000 -0.001427 0.000000
# 2 -0.001455 0.007171 -0.001959 0.000000 -0.002025 0.000000
# 3 -0.003167 -0.001959 0.017445 0.000000 0.002667 0.000000
# 4 0.000000 0.000000 0.000000 -0.031848 0.000000 -0.062125
# 5 -0.001427 -0.002025 0.002667 0.000000 0.032608 0.000000
# 6 0.000000 0.000000 0.000000 -0.062125 0.000000 0.007952
#
#
# Mechanical properties :
#
#
# Convention : Reuss Voigt Hill
#
# Bulk Modulus (GPa) = 43.13668 49.01200 46.07434
# Shear Modulus (GPa) = 75.82169 23.83878 49.83024
#
# Velocity S-wave (km/s) = 5.79527 3.24952 4.69811
# Velocity P-wave (km/s) = 7.99296 5.98239 7.05962
#
# Compressibility (1/GPa) = 0.02318213
#
# Stress axis : x y z
#
# Youngs Moduli (GPa) = 85.26934 139.44580 57.32362
#
# Poissons Ratio (x) = 0.20292 0.18152
# Poissons Ratio (y) = 0.12408 0.11229
# Poissons Ratio (z) = 0.27002 0.27317
#
# Static dielectric constant tensor:
#      x y z
#    x 2.016820 0.000000 -0.114020 
#    y 0.000000 1.866290 0.000000 
#    z -0.114020 0.000000 2.004870 
# 
# From -- ./inp_files/12877.got.cif
#   From: 2010.05.17/outbox.cif.g08.bks.cpg/sg5_7_cif.got.tgz:12877.got - 2010.06.03 18:56:24.
