data_PCOD9127927
_publ_section_title
;
Structure prediction by ZEFSAII (Michael W. Deem and Ramdas Pophale) SiO2 
 PCOD9127927
Probable space group: C 2
;
_chemical_formula_sum "Si O2"
_cell_formula_units_Z 32
_cell_length_a 22.636184
_cell_length_b 7.209463
_cell_length_c 14.336985
_cell_angle_alpha 90.000000
_cell_angle_beta 33.705125
_cell_angle_gamma 90.000000
_cell_volume 1298.354941
_symmetry_space_group_name_H-M "C 2"
_symmetry_group_IT_number 5
_symmetry_cell_setting 'monoclinic'
loop_
_space_group_symop_operation_xyz
x,y,z
-x,y,-z
1/2+x,1/2+y,z
1/2-x,1/2+y,-z
loop_
_atom_site_type_symbol
_atom_site_label
_atom_site_fract_x
_atom_site_fract_y
_atom_site_fract_z
Si Si1 0.507756 0.810060 0.291853
Si Si2 0.664855 0.478745 0.094630
Si Si3 0.795877 0.797458 0.561251
Si Si4 0.882678 0.882354 0.644834
Si Si5 0.607562 0.064919 0.856817
Si Si6 0.869550 0.450237 0.703382
Si Si7 0.516834 0.199608 0.180683
Si Si8 0.279818 0.859362 0.625248
O O1 0.594726 0.655330 0.157397
O O2 0.531482 0.868504 0.368443
O O3 0.383689 0.764175 0.442719
O O4 0.519382 0.992237 0.216044
O O5 0.678920 0.467946 0.187461
O O6 0.595807 0.311236 0.144372
O O7 0.778635 0.468512 0.900604
O O8 0.837678 0.896290 0.601683
O O9 0.898669 0.786546 0.356848
O O10 0.773032 0.577749 0.609375
O O11 0.686513 0.913923 0.699101
O O12 0.889828 0.661940 0.648968
O O13 0.000000 0.963312 0.500000
O O14 0.675662 0.245303 0.738458
O O15 0.500000 0.943654 0.000000
O O16 0.558784 0.173684 0.019790
O O17 0.810803 0.350014 0.694611
#
# Coordination Sequence:
#
# PCOD9127927 Si02
#       8
#     4   4   4   4   4   4   4   4
#     4  11  24  38  64 100 141 193 224 268 357 423
#     4  12  23  35  60  98 138 190 225 274 333 418
#     4  10  24  46  71 100 142 187 224 288 364 421
#     4  11  21  37  61  93 142 181 216 267 328 418
#     4  12  28  49  76 103 129 178 248 310 367 421
#     4  11  21  36  58  96 141 182 224 268 334 424
#     4  11  24  48  66  99 145 178 235 292 343 431
#     4  10  23  44  66  97 139 178 234 291 344 429
#
# _framework density 24.646571000000002
#
# number of rings (size 3 to 8) (size 9 to 14) (size 15 to 20)
#    0.000    1.000    3.750    3.375    7.000    0.500 
#    4.500    0.000    0.000    0.000    0.000    0.000 
#    0.000    0.000    0.000    0.000    0.000    0.000 
#
# Total GULP energy -89084.669779 kJ/mol
# GULP energy per Si atom -5567.791861 kJ/mol
# Density = 2.459047 g / cm^3
# Si number density = 24.646571 Si / 1000 Ang^3
#
#
#
# Elastic Constant Matrix: (Units=GPa)
#
#
# Indices 1 2 3 4 5 6 
#
# 1 101.2476 19.3761 27.0156 0.0081 5.4758 -0.0237
# 2 19.3761 116.0604 34.6371 0.0144 -10.2998 -0.0447
# 3 27.0156 34.6371 93.3569 0.0095 -9.0636 -0.0255
# 4 0.0081 0.0144 0.0095 61.6523 -0.0051 -102.9196
# 5 5.4758 -10.2998 -9.0636 -0.0051 34.4508 0.0150
# 6 -0.0237 -0.0447 -0.0255 -102.9196 0.0150 265.3508
#
#
#
# Elastic Compliance Matrix: (Units=1/GPa)
#
#
# Indices 1 2 3 4 5 6 
#
# 1 0.011076 -0.001200 -0.003044 0.000000 -0.002920 0.000001
# 2 -0.001200 0.009956 -0.003119 0.000001 0.002347 0.000002
# 3 -0.003044 -0.003119 0.013039 0.000000 0.002982 0.000000
# 4 0.000000 0.000001 0.000000 0.046012 -0.000001 0.017846
# 5 -0.002920 0.002347 0.002982 -0.000001 0.030977 -0.000002
# 6 0.000001 0.000002 0.000000 0.017846 -0.000002 0.010690
#
#
# Mechanical properties :
#
#
# Convention : Reuss Voigt Hill
#
# Bulk Modulus (GPa) = 51.68895 52.52473 52.10684
# Shear Modulus (GPa) = 34.98381 87.59984 61.29183
#
# Velocity S-wave (km/s) = 3.77161 5.96821 4.99222
# Velocity P-wave (km/s) = 6.32331 8.29760 7.37680
#
# Compressibility (1/GPa) = 0.01934649
#
# Stress axis : x y z
#
# Youngs Moduli (GPa) = 90.28148 100.44684 76.69378
#
# Poissons Ratio (x) = 0.12054 0.23342
# Poissons Ratio (y) = 0.10834 0.23918
# Poissons Ratio (z) = 0.27478 0.31325
#
# Static dielectric constant tensor:
#      x y z
#    x 2.139210 0.000030 -0.033300 
#    y 0.000030 1.916960 0.000000 
#    z -0.033300 0.000000 1.950750 
# 
# From -- ./inp_files/57682.got.cif
#   From: 2010.05.17/outbox.cif.g08.bks.cpg/sg5_29_cif.got.tgz:57682.got - 2010.06.03 18:56:24.
