data_PCOD9127256
_publ_section_title
;
Structure prediction by ZEFSAII (Michael W. Deem and Ramdas Pophale) SiO2 
 PCOD9127256
Probable space group: C 2
;
_chemical_formula_sum "Si O2"
_cell_formula_units_Z 18
_cell_length_a 7.244089
_cell_length_b 11.810250
_cell_length_c 12.741590
_cell_angle_alpha 90.000000
_cell_angle_beta 138.868282
_cell_angle_gamma 90.000000
_cell_volume 717.059648
_symmetry_space_group_name_H-M "C 2"
_symmetry_group_IT_number 5
_symmetry_cell_setting 'monoclinic'
loop_
_space_group_symop_operation_xyz
x,y,z
-x,y,-z
1/2+x,1/2+y,z
1/2-x,1/2+y,-z
loop_
_atom_site_type_symbol
_atom_site_label
_atom_site_fract_x
_atom_site_fract_y
_atom_site_fract_z
Si Si1 0.535316 0.474370 0.258293
Si Si2 0.834497 0.663468 0.523377
Si Si3 0.680456 0.766890 0.181714
Si Si4 0.662556 0.797807 0.748919
Si Si5 0.000000 0.623933 0.000000
O O1 0.086529 0.707277 0.131370
O O2 0.720903 0.413193 0.248900
O O3 0.709549 0.550318 0.416344
O O4 0.278767 0.549073 0.101650
O O5 0.097395 0.661918 0.713656
O O6 0.000000 0.724956 0.500000
O O7 0.569117 0.742666 0.425936
O O8 0.478016 0.793822 0.194857
O O9 0.500000 0.755312 0.000000
O O10 0.882197 0.874529 0.254732
#
# Coordination Sequence:
#
# PCOD9127256 Si02
#       5
#     4   4   4   4   2
#     4  11  23  45  78 109 158 211 254 322 395 455
#     4   9  23  45  74 109 155 201 264 312 374 477
#     4  11  23  46  80 116 160 201 258 326 389 471
#     4  10  23  46  76 108 159 206 257 328 376 464
#     4  10  22  44  72 114 154 194 268 312 384 474
#
# _framework density 25.102515
#
# number of rings (size 3 to 8) (size 9 to 14) (size 15 to 20)
#    0.000    1.778    1.111    1.333    3.111    0.000 
#    0.000   26.667    2.444    0.000    0.000    0.000 
#    0.000    0.000    0.000    0.000    0.000    0.000 
#
# Total GULP energy -50239.603512 kJ/mol
# GULP energy per Si atom -5582.178168 kJ/mol
# Density = 2.504538 g / cm^3
# Si number density = 25.102515 Si / 1000 Ang^3
#
#
#
# Elastic Constant Matrix: (Units=GPa)
#
#
# Indices 1 2 3 4 5 6 
#
# 1 159.0574 81.1820 120.0519 0.0001 1.8025 0.0003
# 2 81.1820 178.5980 96.3148 -0.0002 26.0224 -0.0001
# 3 120.0519 96.3148 184.0545 -0.0001 25.9223 0.0012
# 4 0.0001 -0.0002 -0.0001 5.1304 0.0001 30.5049
# 5 1.8025 26.0224 25.9223 0.0001 52.4770 0.0005
# 6 0.0003 -0.0001 0.0012 30.5049 0.0005 42.1152
#
#
#
# Elastic Compliance Matrix: (Units=1/GPa)
#
#
# Indices 1 2 3 4 5 6 
#
# 1 0.013864 -0.002463 -0.008446 0.000000 0.004918 0.000000
# 2 -0.002463 0.008436 -0.002398 0.000000 -0.002915 0.000000
# 3 -0.008446 -0.002398 0.012885 -0.000001 -0.004886 0.000000
# 4 0.000000 0.000000 -0.000001 -0.058945 0.000000 0.042695
# 5 0.004918 -0.002915 -0.004886 0.000000 0.022746 0.000000
# 6 0.000000 0.000000 0.000000 0.042695 0.000000 -0.007181
#
#
# Mechanical properties :
#
#
# Convention : Reuss Voigt Hill
#
# Bulk Modulus (GPa) = 116.67326 124.08969 120.38148
# Shear Modulus (GPa) = 235.00123 34.88859 134.94491
#
# Velocity S-wave (km/s) = 9.68606 3.73211 7.33991
# Velocity P-wave (km/s) = 13.10239 8.25300 10.94954
#
# Compressibility (1/GPa) = 0.00857094
#
# Stress axis : x y z
#
# Youngs Moduli (GPa) = 72.13167 118.53263 77.60900
#
# Poissons Ratio (x) = 0.29198 0.65550
# Poissons Ratio (y) = 0.17768 0.18607
# Poissons Ratio (z) = 0.60924 0.28419
#
# Static dielectric constant tensor:
#      x y z
#    x 2.058430 0.000000 -0.000730 
#    y 0.000000 2.021450 0.000000 
#    z -0.000730 0.000000 2.190770 
# 
# From -- ./inp_files/52661.got.cif
#   From: 2010.05.17/outbox.cif.g08.bks.cpg/sg5_27_cif.got.tgz:52661.got - 2010.06.03 18:56:24.
