data_PCOD9127411
_publ_section_title
;
Structure prediction by ZEFSAII (Michael W. Deem and Ramdas Pophale) SiO2 
 PCOD9127411
Probable space group: C 2
;
_chemical_formula_sum "Si O2"
_cell_formula_units_Z 24
_cell_length_a 10.586186
_cell_length_b 13.937419
_cell_length_c 13.148643
_cell_angle_alpha 90.000000
_cell_angle_beta 145.425679
_cell_angle_gamma 90.000000
_cell_volume 1100.903798
_symmetry_space_group_name_H-M "C 2"
_symmetry_group_IT_number 5
_symmetry_cell_setting 'monoclinic'
loop_
_space_group_symop_operation_xyz
x,y,z
-x,y,-z
1/2+x,1/2+y,z
1/2-x,1/2+y,-z
loop_
_atom_site_type_symbol
_atom_site_label
_atom_site_fract_x
_atom_site_fract_y
_atom_site_fract_z
Si Si1 0.549137 0.034110 0.709815
Si Si2 0.000000 0.226913 0.500000
Si Si3 0.756556 0.388617 0.641159
Si Si4 0.852354 0.881572 0.802797
Si Si5 0.366866 0.534430 0.109540
Si Si6 0.700639 0.677786 0.423049
Si Si7 0.500000 0.954675 0.000000
O O1 0.440335 0.127789 0.590171
O O2 0.353262 0.970626 0.631070
O O3 0.679347 0.964820 0.719849
O O4 0.723640 0.057233 0.914530
O O5 0.790689 0.293255 0.330210
O O6 0.916521 0.172060 0.543997
O O7 0.500000 0.403798 0.500000
O O8 0.785292 0.286820 0.604526
O O9 0.905733 0.394693 0.842396
O O10 0.014870 0.931482 0.829809
O O11 0.000000 0.857232 0.000000
O O12 0.548154 0.614965 0.248289
O O13 0.197857 0.521163 0.089821
#
# Coordination Sequence:
#
# PCOD9127411 Si02
#       7
#     4   2   4   4   4   4   2
#     4  10  23  47  67  94 133 177 219 266 326 383
#     4  12  26  40  68 100 130 168 220 276 324 386
#     4  11  25  44  68  97 133 175 216 269 326 389
#     4  10  22  46  69  90 128 179 221 269 324 381
#     4  10  24  43  69  93 130 178 217 269 323 389
#     4  12  27  41  67 102 131 171 219 272 324 391
#     4  10  24  46  70  90 132 180 214 268 328 388
#
# _framework density 21.800270000000001
#
# number of rings (size 3 to 8) (size 9 to 14) (size 15 to 20)
#    0.000    1.333    1.667    2.000   10.500    2.667 
#    1.500    0.000    0.000    0.000    0.000    0.000 
#    0.000    0.000    0.000    0.000    0.000    0.000 
#
# Total GULP energy -67195.716809 kJ/mol
# GULP energy per Si atom -5599.643067 kJ/mol
# Density = 2.175065 g / cm^3
# Si number density = 21.800270 Si / 1000 Ang^3
#
#
#
# Elastic Constant Matrix: (Units=GPa)
#
#
# Indices 1 2 3 4 5 6 
#
# 1 60.8359 -14.0505 2.8961 0.0030 12.0612 0.0021
# 2 -14.0505 59.0700 40.9964 0.0037 -11.2579 0.0035
# 3 2.8961 40.9964 101.6709 0.0053 8.3733 0.0040
# 4 0.0030 0.0037 0.0053 -7.0736 0.0035 -16.6260
# 5 12.0612 -11.2579 8.3733 0.0035 29.4954 0.0026
# 6 0.0021 0.0035 0.0040 -16.6260 0.0026 -14.5343
#
#
#
# Elastic Compliance Matrix: (Units=1/GPa)
#
#
# Indices 1 2 3 4 5 6 
#
# 1 0.018697 0.004906 -0.002084 0.000000 -0.005181 0.000003
# 2 0.004906 0.029774 -0.013225 0.000001 0.013112 0.000006
# 3 -0.002084 -0.013225 0.015946 -0.000001 -0.008722 0.000000
# 4 0.000000 0.000001 -0.000001 0.083716 -0.000001 -0.095764
# 5 -0.005181 0.013112 -0.008722 -0.000001 0.043503 0.000009
# 6 0.000003 0.000006 0.000000 -0.095764 0.000009 0.040743
#
#
# Mechanical properties :
#
#
# Convention : Reuss Voigt Hill
#
# Bulk Modulus (GPa) = 22.92994 31.25122 27.09058
# Shear Modulus (GPa) = 18.67598 14.35982 16.51790
#
# Velocity S-wave (km/s) = 2.93009 2.56930 2.75561
# Velocity P-wave (km/s) = 4.68917 4.81332 4.75165
#
# Compressibility (1/GPa) = 0.04361111
#
# Stress axis : x y z
#
# Youngs Moduli (GPa) = 53.48374 33.58636 62.71090
#
# Poissons Ratio (x) = -0.16479 0.13071
# Poissons Ratio (y) = -0.26242 0.82937
# Poissons Ratio (z) = 0.11148 0.44419
#
# Static dielectric constant tensor:
#      x y z
#    x 1.808870 0.000000 -0.014010 
#    y 0.000000 1.748310 0.000000 
#    z -0.014010 0.000000 1.787040 
# 
# From -- ./inp_files/53235.got.cif
#   From: 2010.05.17/outbox.cif.g08.bks.cpg/sg5_27_cif.got.tgz:53235.got - 2010.06.03 18:56:24.
