data_PCOD9127600
_publ_section_title
;
Structure prediction by ZEFSAII (Michael W. Deem and Ramdas Pophale) SiO2 
 PCOD9127600
Probable space group: C 2
;
_chemical_formula_sum "Si O2"
_cell_formula_units_Z 32
_cell_length_a 12.071966
_cell_length_b 10.790321
_cell_length_c 12.974103
_cell_angle_alpha 90.000000
_cell_angle_beta 66.757393
_cell_angle_gamma 90.000000
_cell_volume 1552.853957
_symmetry_space_group_name_H-M "C 2"
_symmetry_group_IT_number 5
_symmetry_cell_setting 'monoclinic'
loop_
_space_group_symop_operation_xyz
x,y,z
-x,y,-z
1/2+x,1/2+y,z
1/2-x,1/2+y,-z
loop_
_atom_site_type_symbol
_atom_site_label
_atom_site_fract_x
_atom_site_fract_y
_atom_site_fract_z
Si Si1 0.082146 0.953670 0.879239
Si Si2 0.713791 0.534678 0.245838
Si Si3 0.955896 0.242968 0.632111
Si Si4 0.300501 0.881115 0.399540
Si Si5 0.382679 0.297904 0.828876
Si Si6 0.725616 0.948656 0.357717
Si Si7 0.396234 0.197167 0.609763
Si Si8 0.642159 0.210908 0.956741
O O1 0.158818 0.853511 0.915857
O O2 0.989837 0.869488 0.847191
O O3 0.171516 0.003120 0.757264
O O4 0.000000 0.019632 0.000000
O O5 0.588369 0.610974 0.306617
O O6 0.776668 0.497085 0.331149
O O7 0.695935 0.406518 0.191567
O O8 0.791527 0.621231 0.144138
O O9 0.835977 0.327254 0.668281
O O10 0.000000 0.218847 0.500000
O O11 0.063541 0.325585 0.642206
O O12 0.222853 0.769813 0.380053
O O13 0.248547 0.914576 0.532449
O O14 0.427756 0.218933 0.716525
O O15 0.321441 0.210572 0.936778
O O16 0.624756 0.053766 0.401882
O O17 0.500000 0.249141 0.500000
O O18 0.500000 0.182128 0.000000
#
# Coordination Sequence:
#
# PCOD9127600 Si02
#       8
#     4   4   4   4   4   4   4   4
#     4   9  19  37  60  89 118 165 214 251 310 392
#     4  11  22  42  67  91 132 174 209 278 342 393
#     4  10  23  40  60  97 130 173 217 270 342 400
#     4  10  25  40  61  99 133 161 229 265 338 413
#     4   9  22  38  60  93 124 153 225 260 324 399
#     4  11  22  38  63  89 131 168 212 278 327 392
#     4  11  23  39  62  92 124 165 211 273 332 388
#     4   9  20  40  62  88 118 167 214 261 317 394
#
# _framework density 20.607219000000001
#
# number of rings (size 3 to 8) (size 9 to 14) (size 15 to 20)
#    0.000    2.250    1.250    1.875    5.250    8.000 
#    2.250    0.000    0.000    0.000    0.000    0.000 
#    0.000    0.000    0.000    0.000    0.000    0.000 
#
# Total GULP energy -89088.123659 kJ/mol
# GULP energy per Si atom -5568.007729 kJ/mol
# Density = 2.056032 g / cm^3
# Si number density = 20.607219 Si / 1000 Ang^3
#
#
#
# Elastic Constant Matrix: (Units=GPa)
#
#
# Indices 1 2 3 4 5 6 
#
# 1 51.5298 5.9874 51.3051 0.0000 3.0707 0.0000
# 2 5.9874 53.5011 29.9477 0.0000 0.2274 0.0000
# 3 51.3051 29.9477 157.2486 0.0000 0.3283 0.0000
# 4 0.0000 0.0000 0.0000 17.6834 0.0000 11.8721
# 5 3.0707 0.2274 0.3283 0.0000 36.0589 0.0000
# 6 0.0000 0.0000 0.0000 11.8721 0.0000 14.4049
#
#
#
# Elastic Compliance Matrix: (Units=1/GPa)
#
#
# Indices 1 2 3 4 5 6 
#
# 1 0.029201 0.002320 -0.009964 0.000000 -0.002411 0.000000
# 2 0.002320 0.021106 -0.004776 0.000000 -0.000287 0.000000
# 3 -0.009964 -0.004776 0.010518 0.000000 0.000783 0.000000
# 4 0.000000 0.000000 0.000000 0.126604 0.000000 -0.104344
# 5 -0.002411 -0.000287 0.000783 0.000000 0.027932 0.000000
# 6 0.000000 0.000000 0.000000 -0.104344 0.000000 0.155419
#
#
# Mechanical properties :
#
#
# Convention : Reuss Voigt Hill
#
# Bulk Modulus (GPa) = 27.78938 48.52887 38.15913
# Shear Modulus (GPa) = 12.26644 25.29872 18.78258
#
# Velocity S-wave (km/s) = 2.44242 3.50760 3.02231
# Velocity P-wave (km/s) = 4.63340 6.32495 5.54407
#
# Compressibility (1/GPa) = 0.03598497
#
# Stress axis : x y z
#
# Youngs Moduli (GPa) = 34.24545 47.37953 95.07298
#
# Poissons Ratio (x) = -0.10991 0.94731
# Poissons Ratio (y) = -0.07944 0.45406
# Poissons Ratio (z) = 0.34122 0.22628
#
# Static dielectric constant tensor:
#      x y z
#    x 1.755820 0.000000 0.005020 
#    y 0.000000 1.737990 0.000000 
#    z 0.005020 0.000000 1.817640 
# 
# From -- ./inp_files/39398.got.cif
#   From: 2010.05.17/outbox.cif.g08.bks.cpg/sg5_20_cif.got.tgz:39398.got - 2010.06.03 18:56:24.
