data_PCOD9127176
_publ_section_title
;
Structure prediction by ZEFSAII (Michael W. Deem and Ramdas Pophale) SiO2 
 PCOD9127176
Probable space group: C 2
;
_chemical_formula_sum "Si O2"
_cell_formula_units_Z 22
_cell_length_a 14.937942
_cell_length_b 12.240888
_cell_length_c 11.544915
_cell_angle_alpha 90.000000
_cell_angle_beta 151.099172
_cell_angle_gamma 90.000000
_cell_volume 1020.250383
_symmetry_space_group_name_H-M "C 2"
_symmetry_group_IT_number 5
_symmetry_cell_setting 'monoclinic'
loop_
_space_group_symop_operation_xyz
x,y,z
-x,y,-z
1/2+x,1/2+y,z
1/2-x,1/2+y,-z
loop_
_atom_site_type_symbol
_atom_site_label
_atom_site_fract_x
_atom_site_fract_y
_atom_site_fract_z
Si Si1 0.207619 0.285350 0.847832
Si Si2 0.576085 0.571049 0.777690
Si Si3 0.000000 0.749590 0.000000
Si Si4 0.987579 0.829311 0.619672
Si Si5 0.536471 0.002942 0.671710
Si Si6 0.288836 0.159362 0.539929
O O1 0.142864 0.161081 0.760802
O O2 0.347148 0.315592 0.901221
O O3 0.043089 0.371167 0.676778
O O4 0.330845 0.290421 0.103890
O O5 0.484298 0.460209 0.627014
O O6 0.423660 0.631772 0.681706
O O7 0.758363 0.535982 0.054378
O O8 0.889995 0.681388 0.777681
O O9 0.000000 0.799964 0.500000
O O10 0.824441 0.765976 0.501116
O O11 0.500000 0.040159 0.500000
O O12 0.391387 0.059209 0.592324
#
# Coordination Sequence:
#
# PCOD9127176 Si02
#       6
#     4   4   2   4   4   4
#     4  10  24  43  69 100 137 180 229 276 346 395
#     4  11  25  43  71 101 132 185 228 270 348 400
#     4  10  22  44  68 102 136 174 232 284 320 424
#     4  10  23  45  67  99 140 171 225 285 328 407
#     4  11  25  45  68  99 144 174 225 289 335 402
#     4  11  25  42  70  99 140 175 231 275 341 402
#
# _framework density 21.563334000000001
#
# number of rings (size 3 to 8) (size 9 to 14) (size 15 to 20)
#    0.000    1.455    3.636    0.545    7.636    3.636 
#    0.000    0.000    0.000    0.000    0.000    0.000 
#    0.000    0.000    0.000    0.000    0.000    0.000 
#
# Total GULP energy -61475.662852 kJ/mol
# GULP energy per Si atom -5588.696623 kJ/mol
# Density = 2.151425 g / cm^3
# Si number density = 21.563334 Si / 1000 Ang^3
#
#
#
# Elastic Constant Matrix: (Units=GPa)
#
#
# Indices 1 2 3 4 5 6 
#
# 1 110.0057 17.1933 23.8092 0.0000 -14.4111 0.0000
# 2 17.1933 123.8499 -11.6498 0.0000 3.5213 0.0000
# 3 23.8092 -11.6498 52.5498 0.0000 -4.4850 0.0000
# 4 0.0000 0.0000 0.0000 -3.4150 0.0000 1.6882
# 5 -14.4111 3.5213 -4.4850 0.0000 43.9343 0.0000
# 6 0.0000 0.0000 0.0000 1.6882 0.0000 19.1286
#
#
#
# Elastic Compliance Matrix: (Units=1/GPa)
#
#
# Indices 1 2 3 4 5 6 
#
# 1 0.010958 -0.002098 -0.005154 0.000000 0.003236 0.000000
# 2 -0.002098 0.008658 0.002776 0.000000 -0.001099 0.000000
# 3 -0.005154 0.002776 0.022008 0.000000 0.000334 0.000000
# 4 0.000000 0.000000 0.000000 -0.280582 0.000000 0.024763
# 5 0.003236 -0.001099 0.000334 0.000000 0.023945 0.000000
# 6 0.000000 0.000000 0.000000 0.024763 0.000000 0.050092
#
#
# Mechanical properties :
#
#
# Convention : Reuss Voigt Hill
#
# Bulk Modulus (GPa) = 30.60604 38.34564 34.47584
# Shear Modulus (GPa) = -34.46413 29.06641 -2.69886
#
# Velocity S-wave (km/s) = -4.00218 3.67543 -1.11996
# Velocity P-wave (km/s) = 2.67062 5.98608 3.78820
#
# Compressibility (1/GPa) = 0.03267328
#
# Stress axis : x y z
#
# Youngs Moduli (GPa) = 91.25973 115.50127 45.43701
#
# Poissons Ratio (x) = 0.24232 0.23416
# Poissons Ratio (y) = 0.19146 -0.12614
# Poissons Ratio (z) = 0.47032 -0.32065
#
# Static dielectric constant tensor:
#      x y z
#    x 1.748150 0.000000 -0.010340 
#    y 0.000000 1.849260 0.000000 
#    z -0.010340 0.000000 1.770460 
# 
# From -- ./inp_files/42641.got.cif
#   From: 2010.05.17/outbox.cif.g08.bks.cpg/sg5_22_cif.got.tgz:42641.got - 2010.06.03 18:56:24.
