data_PCOD9127548
_publ_section_title
;
Structure prediction by ZEFSAII (Michael W. Deem and Ramdas Pophale) SiO2 
 PCOD9127548
Probable space group: C 2
;
_chemical_formula_sum "Si O2"
_cell_formula_units_Z 14
_cell_length_a 7.076354
_cell_length_b 9.658032
_cell_length_c 10.324669
_cell_angle_alpha 90.000000
_cell_angle_beta 131.950712
_cell_angle_gamma 90.000000
_cell_volume 524.787985
_symmetry_space_group_name_H-M "C 2"
_symmetry_group_IT_number 5
_symmetry_cell_setting 'monoclinic'
loop_
_space_group_symop_operation_xyz
x,y,z
-x,y,-z
1/2+x,1/2+y,z
1/2-x,1/2+y,-z
loop_
_atom_site_type_symbol
_atom_site_label
_atom_site_fract_x
_atom_site_fract_y
_atom_site_fract_z
Si Si1 0.735136 0.463930 0.513391
Si Si2 0.044690 0.100953 0.165919
Si Si3 0.989682 0.722509 0.707601
Si Si4 0.500000 0.206690 0.000000
O O1 0.500000 0.488897 0.500000
O O2 0.686238 0.526027 0.348731
O O3 0.948367 0.556969 0.678271
O O4 0.721556 0.300840 0.474647
O O5 0.764970 0.128012 0.095427
O O6 0.223236 0.236224 0.214478
O O7 0.000000 0.041832 0.000000
O O8 0.967078 0.774017 0.843581
#
# Coordination Sequence:
#
# PCOD9127548 Si02
#       4
#     4   4   4   2
#     4  12  24  46  75 110 147 191 243 305 360 436
#     4  10  23  47  73 108 148 190 244 301 364 434
#     4  11  26  48  76 110 147 191 247 302 362 438
#     4  10  22  52  72 108 146 200 236 302 368 434
#
# _framework density 26.677440000000001
#
# number of rings (size 3 to 8) (size 9 to 14) (size 15 to 20)
#    0.000    1.143    2.857    2.571    2.000    2.286 
#   18.000    0.000    0.000    0.000    0.000    0.000 
#    0.000    0.000    0.000    0.000    0.000    0.000 
#
# Total GULP energy -39044.204119 kJ/mol
# GULP energy per Si atom -5577.743446 kJ/mol
# Density = 2.661672 g / cm^3
# Si number density = 26.677440 Si / 1000 Ang^3
#
#
#
# Elastic Constant Matrix: (Units=GPa)
#
#
# Indices 1 2 3 4 5 6 
#
# 1 153.2712 21.2694 10.8903 0.0005 -35.0079 0.0004
# 2 21.2694 75.5035 45.7357 -0.0001 -1.0561 -0.0001
# 3 10.8903 45.7357 148.9611 0.0002 -34.1222 0.0004
# 4 0.0005 -0.0001 0.0002 51.3772 0.0005 -6.4724
# 5 -35.0079 -1.0561 -34.1222 0.0005 68.7790 0.0007
# 6 0.0004 -0.0001 0.0004 -6.4724 0.0007 9.8773
#
#
#
# Elastic Compliance Matrix: (Units=1/GPa)
#
#
# Indices 1 2 3 4 5 6 
#
# 1 0.007914 -0.003027 0.001425 0.000000 0.004689 -0.000001
# 2 -0.003027 0.017823 -0.006252 0.000000 -0.004368 0.000001
# 3 0.001425 -0.006252 0.009784 0.000000 0.005483 -0.000001
# 4 0.000000 0.000000 0.000000 0.021215 -0.000001 0.013902
# 5 0.004689 -0.004368 0.005483 -0.000001 0.019579 -0.000002
# 6 -0.000001 0.000001 -0.000001 0.013902 -0.000002 0.110352
#
#
# Mechanical properties :
#
#
# Convention : Reuss Voigt Hill
#
# Bulk Modulus (GPa) = 50.46913 59.28073 54.87493
# Shear Modulus (GPa) = 23.92582 45.99606 34.96094
#
# Velocity S-wave (km/s) = 2.99800 4.15680 3.62402
# Velocity P-wave (km/s) = 5.56268 6.73114 6.17461
#
# Compressibility (1/GPa) = 0.01981409
#
# Stress axis : x y z
#
# Youngs Moduli (GPa) = 126.35711 56.10786 102.20248
#
# Poissons Ratio (x) = 0.16983 -0.14561
# Poissons Ratio (y) = 0.38246 0.63892
# Poissons Ratio (z) = -0.18003 0.35076
#
# Static dielectric constant tensor:
#      x y z
#    x 2.070320 0.000000 0.049530 
#    y 0.000000 2.226910 0.000000 
#    z 0.049530 0.000000 2.049500 
# 
# From -- ./inp_files/14398.got.cif
#   From: 2010.05.17/outbox.cif.g08.bks.cpg/sg5_8_cif.got.tgz:14398.got - 2010.06.03 18:56:24.
