data_PCOD9127106
_publ_section_title
;
Structure prediction by ZEFSAII (Michael W. Deem and Ramdas Pophale) SiO2 
 PCOD9127106
Probable space group: C 2
;
_chemical_formula_sum "Si O2"
_cell_formula_units_Z 22
_cell_length_a 11.239395
_cell_length_b 12.240183
_cell_length_c 14.773727
_cell_angle_alpha 90.000000
_cell_angle_beta 150.152532
_cell_angle_gamma 90.000000
_cell_volume 1011.537982
_symmetry_space_group_name_H-M "C 2"
_symmetry_group_IT_number 5
_symmetry_cell_setting 'monoclinic'
loop_
_space_group_symop_operation_xyz
x,y,z
-x,y,-z
1/2+x,1/2+y,z
1/2-x,1/2+y,-z
loop_
_atom_site_type_symbol
_atom_site_label
_atom_site_fract_x
_atom_site_fract_y
_atom_site_fract_z
Si Si1 0.132307 0.880020 0.495057
Si Si2 0.097803 0.184684 0.255938
Si Si3 0.000000 0.136093 0.000000
Si Si4 0.455622 0.233507 0.076348
Si Si5 0.536543 0.440519 0.807811
Si Si6 0.059027 0.532674 0.817168
O O1 0.217339 0.755886 0.566539
O O2 0.985281 0.895187 0.307058
O O3 0.000000 0.913503 0.500000
O O4 0.366109 0.956910 0.643098
O O5 0.105807 0.054867 0.278276
O O6 0.112426 0.202044 0.157601
O O7 0.831184 0.224204 0.103769
O O8 0.780751 0.067467 0.898756
O O9 0.543139 0.349418 0.172453
O O10 0.549909 0.139551 0.206323
O O11 0.500000 0.217562 0.000000
O O12 0.808282 0.468657 0.014056
#
# Coordination Sequence:
#
# PCOD9127106 Si02
#       6
#     4   4   2   4   4   4
#     4  12  28  41  69 101 143 178 227 280 344 405
#     4  10  24  42  67 101 135 177 235 269 342 398
#     4   8  20  44  76  90 132 184 228 280 330 398
#     4  10  22  43  73  95 136 179 226 283 337 395
#     4  10  24  44  67  96 134 184 228 273 342 391
#     4  10  24  45  69 100 138 179 230 278 342 401
#
# _framework density 21.749058999999999
#
# number of rings (size 3 to 8) (size 9 to 14) (size 15 to 20)
#    0.000    2.182    1.818    0.000   17.818    0.000 
#    0.000    7.273    0.000    0.000    0.000    0.000 
#    0.000    0.000    0.000    0.000    0.000    0.000 
#
# Total GULP energy -61443.821273 kJ/mol
# GULP energy per Si atom -5585.801934 kJ/mol
# Density = 2.169956 g / cm^3
# Si number density = 21.749059 Si / 1000 Ang^3
#
#
#
# Elastic Constant Matrix: (Units=GPa)
#
#
# Indices 1 2 3 4 5 6 
#
# 1 126.2455 31.8273 29.4954 0.0004 -21.8802 0.0000
# 2 31.8273 129.8839 9.9301 0.0025 -5.6886 0.0007
# 3 29.4954 9.9301 56.8277 0.0076 -14.5827 0.0034
# 4 0.0004 0.0025 0.0076 14.6441 0.0020 -9.0287
# 5 -21.8802 -5.6886 -14.5827 0.0020 30.1405 -0.0001
# 6 0.0000 0.0007 0.0034 -9.0287 -0.0001 19.3128
#
#
#
# Elastic Compliance Matrix: (Units=1/GPa)
#
#
# Indices 1 2 3 4 5 6 
#
# 1 0.010173 -0.001988 -0.003578 0.000002 0.005279 0.000002
# 2 -0.001988 0.008215 -0.000429 -0.000002 -0.000101 -0.000001
# 3 -0.003578 -0.000429 0.021513 -0.000020 0.007730 -0.000013
# 4 0.000002 -0.000002 -0.000020 0.095940 -0.000015 0.044852
# 5 0.005279 -0.000101 0.007730 -0.000015 0.040731 -0.000008
# 6 0.000002 -0.000001 -0.000013 0.044852 -0.000008 0.072747
#
#
# Mechanical properties :
#
#
# Convention : Reuss Voigt Hill
#
# Bulk Modulus (GPa) = 35.83019 50.60695 43.21857
# Shear Modulus (GPa) = 18.47651 28.93310 23.70480
#
# Velocity S-wave (km/s) = 2.91783 3.65130 3.30498
# Velocity P-wave (km/s) = 5.27843 6.41055 5.87184
#
# Compressibility (1/GPa) = 0.02790942
#
# Stress axis : x y z
#
# Youngs Moduli (GPa) = 98.29798 121.73181 46.48376
#
# Poissons Ratio (x) = 0.24202 0.16633
# Poissons Ratio (y) = 0.19543 0.01996
# Poissons Ratio (z) = 0.35173 0.05227
#
# Static dielectric constant tensor:
#      x y z
#    x 1.805450 0.000000 0.005260 
#    y 0.000000 1.874880 0.000000 
#    z 0.005260 0.000000 1.767900 
# 
# From -- ./inp_files/52911.got.cif
#   From: 2010.05.17/outbox.cif.g08.bks.cpg/sg5_27_cif.got.tgz:52911.got - 2010.06.03 18:56:24.
