data_PCOD9127803
_publ_section_title
;
Structure prediction by ZEFSAII (Michael W. Deem and Ramdas Pophale) SiO2 
 PCOD9127803
Probable space group: C 2
;
_chemical_formula_sum "Si O2"
_cell_formula_units_Z 16
_cell_length_a 14.377635
_cell_length_b 4.805624
_cell_length_c 9.899831
_cell_angle_alpha 90.000000
_cell_angle_beta 115.947792
_cell_angle_gamma 90.000000
_cell_volume 615.060727
_symmetry_space_group_name_H-M "C 2"
_symmetry_group_IT_number 5
_symmetry_cell_setting 'monoclinic'
loop_
_space_group_symop_operation_xyz
x,y,z
-x,y,-z
1/2+x,1/2+y,z
1/2-x,1/2+y,-z
loop_
_atom_site_type_symbol
_atom_site_label
_atom_site_fract_x
_atom_site_fract_y
_atom_site_fract_z
Si Si1 0.086216 0.299150 0.459577
Si Si2 0.414235 0.727553 0.843619
Si Si3 0.188343 0.767198 0.645967
Si Si4 0.738883 0.429262 0.084051
O O1 0.048500 0.209238 0.286942
O O2 0.177950 0.529855 0.523510
O O3 0.000000 0.436964 0.500000
O O4 0.120513 0.024292 0.560738
O O5 0.365835 0.458857 0.892935
O O6 0.304507 0.877384 0.747620
O O7 0.500000 0.842199 0.000000
O O8 0.173380 0.581737 0.771252
O O9 0.772082 0.132792 0.051384
#
# Coordination Sequence:
#
# PCOD9127803 Si02
#       4
#     4   4   4   4
#     4  12  25  47  70 101 135 181 228 276 338 402
#     4  10  26  42  73 103 137 176 229 277 339 402
#     4  10  25  45  71  93 142 178 225 276 337 396
#     4  10  23  42  69  97 138 173 221 275 344 386
#
# _framework density 26.013687999999998
#
# number of rings (size 3 to 8) (size 9 to 14) (size 15 to 20)
#    1.500    0.000    0.000    3.750    7.000    2.000 
#    0.000    8.750    0.000    0.000    0.000    0.000 
#    0.000    0.000    0.000    0.000    0.000    0.000 
#
# Total GULP energy -44587.243349 kJ/mol
# GULP energy per Si atom -5573.405419 kJ/mol
# Density = 2.595448 g / cm^3
# Si number density = 26.013688 Si / 1000 Ang^3
#
#
#
# Elastic Constant Matrix: (Units=GPa)
#
#
# Indices 1 2 3 4 5 6 
#
# 1 85.7084 10.9345 61.0585 0.0000 -3.8407 0.0000
# 2 10.9345 121.0395 38.4486 0.0000 6.2290 0.0000
# 3 61.0585 38.4486 203.8634 0.0000 12.5445 0.0000
# 4 0.0000 0.0000 0.0000 35.9970 0.0000 11.5083
# 5 -3.8407 6.2290 12.5445 0.0000 47.6824 0.0000
# 6 0.0000 0.0000 0.0000 11.5083 0.0000 11.3077
#
#
#
# Elastic Compliance Matrix: (Units=1/GPa)
#
#
# Indices 1 2 3 4 5 6 
#
# 1 0.015108 -0.000006 -0.004674 0.000000 0.002447 0.000000
# 2 -0.000006 0.008813 -0.001616 0.000000 -0.000727 0.000000
# 3 -0.004674 -0.001616 0.006729 0.000000 -0.001936 0.000000
# 4 0.000000 0.000000 0.000000 0.041179 0.000000 -0.041909
# 5 0.002447 -0.000727 -0.001936 0.000000 0.021773 0.000000
# 6 0.000000 0.000000 0.000000 -0.041909 0.000000 0.131088
#
#
# Mechanical properties :
#
#
# Convention : Reuss Voigt Hill
#
# Bulk Modulus (GPa) = 55.37711 70.16605 62.77158
# Shear Modulus (GPa) = 20.55067 39.00875 29.77971
#
# Velocity S-wave (km/s) = 2.81373 3.87660 3.38712
# Velocity P-wave (km/s) = 5.64713 6.86066 6.28326
#
# Compressibility (1/GPa) = 0.01805800
#
# Stress axis : x y z
#
# Youngs Moduli (GPa) = 66.19036 113.46997 148.60857
#
# Poissons Ratio (x) = 0.00067 0.69466
# Poissons Ratio (y) = 0.00039 0.24009
# Poissons Ratio (z) = 0.30940 0.18332
#
# Static dielectric constant tensor:
#      x y z
#    x 2.259440 0.000000 -0.046680 
#    y 0.000000 1.982520 0.000000 
#    z -0.046680 0.000000 2.112800 
# 
# From -- ./inp_files/25866.got.cif
#   From: 2010.05.17/outbox.cif.g08.bks.cpg/sg5_13_cif.got.tgz:25866.got - 2010.06.03 18:56:24.
