data_PCOD9127989
_publ_section_title
;
Structure prediction by ZEFSAII (Michael W. Deem and Ramdas Pophale) SiO2 
 PCOD9127989
Probable space group: C 2
;
_chemical_formula_sum "Si O2"
_cell_formula_units_Z 20
_cell_length_a 9.186761
_cell_length_b 11.825735
_cell_length_c 13.851475
_cell_angle_alpha 90.000000
_cell_angle_beta 36.567864
_cell_angle_gamma 90.000000
_cell_volume 896.537568
_symmetry_space_group_name_H-M "C 2"
_symmetry_group_IT_number 5
_symmetry_cell_setting 'monoclinic'
loop_
_space_group_symop_operation_xyz
x,y,z
-x,y,-z
1/2+x,1/2+y,z
1/2-x,1/2+y,-z
loop_
_atom_site_type_symbol
_atom_site_label
_atom_site_fract_x
_atom_site_fract_y
_atom_site_fract_z
Si Si1 0.368341 0.513660 0.887238
Si Si2 0.698004 0.857000 0.313431
Si Si3 0.334084 0.614513 0.711063
Si Si4 0.450110 0.951365 0.260975
Si Si5 0.785719 0.194144 0.351037
O O1 0.569295 0.417357 0.767304
O O2 0.255255 0.537768 0.843069
O O3 0.536165 0.625373 0.816522
O O4 0.177736 0.479684 0.069812
O O5 0.500000 0.829188 0.500000
O O6 0.786968 0.738106 0.222434
O O7 0.566419 0.937735 0.305410
O O8 0.248987 0.545977 0.662520
O O9 0.606741 0.650874 0.602573
O O10 0.331873 0.826950 0.310449
O O11 0.500000 0.168212 0.500000
#
# Coordination Sequence:
#
# PCOD9127989 Si02
#       5
#     4   4   4   4   4
#     4  10  23  44  74 103 148 183 235 304 355 433
#     4  11  25  45  71 103 147 193 238 294 357 429
#     4   9  24  44  70 102 143 182 243 288 365 413
#     4  11  23  45  77 106 141 190 242 296 361 425
#     4   9  22  45  69 105 154 182 238 296 357 438
#
# _framework density 22.308046999999998
#
# number of rings (size 3 to 8) (size 9 to 14) (size 15 to 20)
#    1.200    0.800    0.000    1.800    2.800    7.200 
#    7.200    2.000    0.000    0.000    0.000    0.000 
#    0.000    0.000    0.000    0.000    0.000    0.000 
#
# Total GULP energy -55703.914223 kJ/mol
# GULP energy per Si atom -5570.391422 kJ/mol
# Density = 2.225727 g / cm^3
# Si number density = 22.308047 Si / 1000 Ang^3
#
#
#
# Elastic Constant Matrix: (Units=GPa)
#
#
# Indices 1 2 3 4 5 6 
#
# 1 94.6314 78.8432 35.3844 -0.0010 3.1136 -0.0005
# 2 78.8432 118.3932 25.3565 -0.0005 -11.7477 0.0012
# 3 35.3844 25.3565 97.7466 -0.0048 -8.0668 0.0010
# 4 -0.0010 -0.0005 -0.0048 5.3958 0.0013 -4.5577
# 5 3.1136 -11.7477 -8.0668 0.0013 37.6942 -0.0007
# 6 -0.0005 0.0012 0.0010 -4.5577 -0.0007 30.0650
#
#
#
# Elastic Compliance Matrix: (Units=1/GPa)
#
#
# Indices 1 2 3 4 5 6 
#
# 1 0.029063 -0.018942 -0.006405 0.000002 -0.009675 0.000001
# 2 -0.018942 0.021495 0.001998 -0.000003 0.008692 -0.000002
# 3 -0.006405 0.001998 0.012344 0.000010 0.003794 0.000001
# 4 0.000002 -0.000003 0.000010 0.212545 -0.000006 0.032220
# 5 -0.009675 0.008692 0.003794 -0.000006 0.030849 -0.000001
# 6 0.000001 -0.000002 0.000001 0.032220 -0.000001 0.038146
#
#
# Mechanical properties :
#
#
# Convention : Reuss Voigt Hill
#
# Bulk Modulus (GPa) = 61.71559 65.54883 63.63221
# Shear Modulus (GPa) = 12.60902 26.04346 19.32624
#
# Velocity S-wave (km/s) = 2.38002 3.42050 2.94655
# Velocity P-wave (km/s) = 5.93952 6.71171 6.33739
#
# Compressibility (1/GPa) = 0.01620336
#
# Stress axis : x y z
#
# Youngs Moduli (GPa) = 34.40840 46.52171 81.01115
#
# Poissons Ratio (x) = 0.88123 0.51890
# Poissons Ratio (y) = 0.65177 -0.16188
# Poissons Ratio (z) = 0.22040 -0.09296
#
# Static dielectric constant tensor:
#      x y z
#    x 1.867040 0.000000 0.002550 
#    y 0.000000 1.824830 0.000000 
#    z 0.002550 0.000000 1.880400 
# 
# From -- ./inp_files/50612.got.cif
#   From: 2010.05.17/outbox.cif.g08.bks.cpg/sg5_26_cif.got.tgz:50612.got - 2010.06.03 18:56:24.
