data_PCOD9127504
_publ_section_title
;
Structure prediction by ZEFSAII (Michael W. Deem and Ramdas Pophale) SiO2 
 PCOD9127504
Probable space group: C 2
;
_chemical_formula_sum "Si O2"
_cell_formula_units_Z 24
_cell_length_a 5.223775
_cell_length_b 15.324382
_cell_length_c 14.631162
_cell_angle_alpha 90.000000
_cell_angle_beta 126.325136
_cell_angle_gamma 90.000000
_cell_volume 943.631928
_symmetry_space_group_name_H-M "C 2"
_symmetry_group_IT_number 5
_symmetry_cell_setting 'monoclinic'
loop_
_space_group_symop_operation_xyz
x,y,z
-x,y,-z
1/2+x,1/2+y,z
1/2-x,1/2+y,-z
loop_
_atom_site_type_symbol
_atom_site_label
_atom_site_fract_x
_atom_site_fract_y
_atom_site_fract_z
Si Si1 0.957461 0.871100 0.689420
Si Si2 0.500000 0.581460 0.500000
Si Si3 0.000000 0.473188 0.500000
Si Si4 0.861759 0.970157 0.108704
Si Si5 0.500000 0.294911 0.500000
Si Si6 0.839430 0.201376 0.321744
Si Si7 0.500000 0.324961 0.000000
Si Si8 0.656750 0.658833 0.889282
O O1 0.608311 0.913489 0.606787
O O2 0.029884 0.849591 0.599680
O O3 0.920089 0.777875 0.729451
O O4 0.145452 0.941502 0.786820
O O5 0.291429 0.529550 0.528147
O O6 0.256265 0.633327 0.383088
O O7 0.018853 0.066532 0.125451
O O8 0.500000 0.963805 0.000000
O O9 0.033632 0.891343 0.091519
O O10 0.818025 0.236143 0.570506
O O11 0.862517 0.168614 0.223638
O O12 0.188503 0.259523 0.934214
O O13 0.000000 0.632093 0.000000
#
# Coordination Sequence:
#
# PCOD9127504 Si02
#       8
#     4   2   2   4   2   4   2   4
#     4  12  24  44  70 103 147 196 253 317 388 461
#     4  12  26  44  71 107 156 194 260 319 393 466
#     4  12  26  46  67 115 148 200 258 319 393 466
#     4  11  25  47  73 108 141 199 252 305 395 454
#     4  12  24  42  76 102 148 200 264 312 390 466
#     4  12  23  46  69 101 148 193 247 324 384 459
#     4  10  22  48  68 100 150 178 236 328 358 452
#     4   9  22  46  69 102 143 185 250 308 380 465
#
# _framework density 25.433644000000001
#
# number of rings (size 3 to 8) (size 9 to 14) (size 15 to 20)
#    0.500    0.333    5.000    2.000    2.333    0.000 
#    7.500    0.000    0.000    0.000    0.000    0.000 
#    0.000    0.000    0.000    0.000    0.000    0.000 
#
# Total GULP energy -66908.505859 kJ/mol
# GULP energy per Si atom -5575.708822 kJ/mol
# Density = 2.537576 g / cm^3
# Si number density = 25.433644 Si / 1000 Ang^3
#
#
#
# Elastic Constant Matrix: (Units=GPa)
#
#
# Indices 1 2 3 4 5 6 
#
# 1 48.9004 17.8017 15.6765 0.0000 -6.6884 0.0000
# 2 17.8017 165.5033 25.3451 0.0000 -18.2924 0.0000
# 3 15.6765 25.3451 138.5147 0.0000 -18.3863 0.0000
# 4 0.0000 0.0000 0.0000 61.4430 0.0000 -3.4693
# 5 -6.6884 -18.2924 -18.3863 0.0000 34.0861 0.0000
# 6 0.0000 0.0000 0.0000 -3.4693 0.0000 20.9566
#
#
#
# Elastic Compliance Matrix: (Units=1/GPa)
#
#
# Indices 1 2 3 4 5 6 
#
# 1 0.022028 -0.001827 -0.001847 0.000000 0.002345 0.000000
# 2 -0.001827 0.006653 -0.000629 0.000000 0.002872 0.000000
# 3 -0.001847 -0.000629 0.008025 0.000000 0.003629 0.000000
# 4 0.000000 0.000000 0.000000 0.016429 0.000000 0.002720
# 5 0.002345 0.002872 0.003629 0.000000 0.033296 0.000000
# 6 0.000000 0.000000 0.000000 0.002720 0.000000 0.048168
#
#
# Mechanical properties :
#
#
# Convention : Reuss Voigt Hill
#
# Bulk Modulus (GPa) = 35.58958 52.28500 43.93729
# Shear Modulus (GPa) = 32.77127 42.90348 37.83737
#
# Velocity S-wave (km/s) = 3.59346 4.11162 3.86124
# Velocity P-wave (km/s) = 5.58935 6.56830 6.09850
#
# Compressibility (1/GPa) = 0.02809811
#
# Stress axis : x y z
#
# Youngs Moduli (GPa) = 45.39696 150.31896 124.60529
#
# Poissons Ratio (x) = 0.27467 0.23019
# Poissons Ratio (y) = 0.08295 0.07840
# Poissons Ratio (z) = 0.08387 0.09458
#
# Static dielectric constant tensor:
#      x y z
#    x 2.761290 0.000000 -0.112690 
#    y 0.000000 2.213430 0.000000 
#    z -0.112690 0.000000 1.954780 
# 
# From -- ./inp_files/48899.got.cif
#   From: 2010.05.17/outbox.cif.g08.bks.cpg/sg5_25_cif.got.tgz:48899.got - 2010.06.03 18:56:24.
