data_PCOD9127559
_publ_section_title
;
Structure prediction by ZEFSAII (Michael W. Deem and Ramdas Pophale) SiO2 
 PCOD9127559
Probable space group: C 2
;
_chemical_formula_sum "Si O2"
_cell_formula_units_Z 24
_cell_length_a 25.989753
_cell_length_b 5.175633
_cell_length_c 13.415454
_cell_angle_alpha 90.000000
_cell_angle_beta 142.091144
_cell_angle_gamma 90.000000
_cell_volume 1108.733748
_symmetry_space_group_name_H-M "C 2"
_symmetry_group_IT_number 5
_symmetry_cell_setting 'monoclinic'
loop_
_space_group_symop_operation_xyz
x,y,z
-x,y,-z
1/2+x,1/2+y,z
1/2-x,1/2+y,-z
loop_
_atom_site_type_symbol
_atom_site_label
_atom_site_fract_x
_atom_site_fract_y
_atom_site_fract_z
Si Si1 0.165490 0.611060 0.956413
Si Si2 0.156171 0.028191 0.101800
Si Si3 0.252937 0.103412 0.444327
Si Si4 0.083579 0.787413 0.419103
Si Si5 0.687091 0.303027 0.768745
Si Si6 0.975122 0.287493 0.203388
O O1 0.163382 0.725547 0.843706
O O2 0.108566 0.353415 0.860155
O O3 0.131608 0.782533 0.996466
O O4 0.261525 0.566477 0.135592
O O5 0.187200 0.000157 0.261654
O O6 0.239021 0.136372 0.171233
O O7 0.075007 0.214824 0.974210
O O8 0.216776 0.341093 0.454606
O O9 0.329867 0.250517 0.508205
O O10 0.110242 0.797299 0.575843
O O11 0.030165 0.540013 0.304645
O O12 0.032501 0.046266 0.318835
#
# Coordination Sequence:
#
# PCOD9127559 Si02
#       6
#     4   4   4   4   4   4
#     4  11  21  42  65 101 136 190 231 264 329 402
#     4  10  23  44  69  96 139 177 224 283 328 396
#     4  11  26  46  75 103 124 171 234 284 343 403
#     4  11  25  45  67  99 140 172 220 287 337 392
#     4  10  23  37  69  96 136 184 237 268 316 393
#     4  11  24  44  65  98 144 177 213 274 349 397
#
# _framework density 21.646315000000001
#
# number of rings (size 3 to 8) (size 9 to 14) (size 15 to 20)
#    0.000    1.333    3.333    1.000   11.667    0.667 
#    3.000    5.000    0.000    0.000    0.000    0.000 
#    0.000    0.000    0.000    0.000    0.000    0.000 
#
# Total GULP energy -66827.756550 kJ/mol
# GULP energy per Si atom -5568.979713 kJ/mol
# Density = 2.159705 g / cm^3
# Si number density = 21.646315 Si / 1000 Ang^3
#
#
#
# Elastic Constant Matrix: (Units=GPa)
#
#
# Indices 1 2 3 4 5 6 
#
# 1 30.1194 36.6397 41.3098 0.0000 -24.7167 0.0000
# 2 36.6397 82.5510 39.1867 0.0000 3.0631 0.0000
# 3 41.3098 39.1867 138.6374 0.0000 -1.7672 0.0000
# 4 0.0000 0.0000 0.0000 39.4928 0.0000 17.9315
# 5 -24.7167 3.0631 -1.7672 0.0000 27.7479 0.0000
# 6 0.0000 0.0000 0.0000 17.9315 0.0000 29.5495
#
#
#
# Elastic Compliance Matrix: (Units=1/GPa)
#
#
# Indices 1 2 3 4 5 6 
#
# 1 -0.069485 0.027466 0.012123 0.000000 -0.064155 0.000000
# 2 0.027466 0.003224 -0.008795 0.000000 0.023550 0.000000
# 3 0.012123 -0.008795 0.006242 0.000000 0.012167 0.000000
# 4 0.000000 0.000000 0.000000 0.034951 0.000000 -0.021209
# 5 -0.064155 0.023550 0.012167 0.000000 -0.022932 0.000000
# 6 0.000000 0.000000 0.000000 -0.021209 0.000000 0.046712
#
#
# Mechanical properties :
#
#
# Convention : Reuss Voigt Hill
#
# Bulk Modulus (GPa) = 637.28123 53.95336 345.61729
# Shear Modulus (GPa) = -80.18739 28.30281 -25.94229
#
# Velocity S-wave (km/s) = -6.09301 3.61988 -3.46564
# Velocity P-wave (km/s) = 15.66990 6.51540 11.99992
#
# Compressibility (1/GPa) = 0.00156917
#
# Stress axis : x y z
#
# Youngs Moduli (GPa) = -14.39150 310.14636 160.20942
#
# Poissons Ratio (x) = -8.51856 -1.94226
# Poissons Ratio (y) = 0.39528 1.40909
# Poissons Ratio (z) = 0.17447 2.72783
#
# Static dielectric constant tensor:
#      x y z
#    x 1.831570 0.000000 0.024480 
#    y 0.000000 1.896280 0.000000 
#    z 0.024480 0.000000 1.816420 
# 
# From -- ./inp_files/53648.got.cif
#   From: 2010.05.17/outbox.cif.g08.bks.cpg/sg5_27_cif.got.tgz:53648.got - 2010.06.03 18:56:24.
