data_PCOD9127837
_publ_section_title
;
Structure prediction by ZEFSAII (Michael W. Deem and Ramdas Pophale) SiO2 
 PCOD9127837
Probable space group: C 2
;
_chemical_formula_sum "Si O2"
_cell_formula_units_Z 30
_cell_length_a 13.371892
_cell_length_b 9.559757
_cell_length_c 20.733681
_cell_angle_alpha 90.000000
_cell_angle_beta 34.052453
_cell_angle_gamma 90.000000
_cell_volume 1484.111883
_symmetry_space_group_name_H-M "C 2"
_symmetry_group_IT_number 5
_symmetry_cell_setting 'monoclinic'
loop_
_space_group_symop_operation_xyz
x,y,z
-x,y,-z
1/2+x,1/2+y,z
1/2-x,1/2+y,-z
loop_
_atom_site_type_symbol
_atom_site_label
_atom_site_fract_x
_atom_site_fract_y
_atom_site_fract_z
Si Si1 0.301414 0.095380 0.622478
Si Si2 0.500000 0.190533 0.000000
Si Si3 0.805425 0.445731 0.180051
Si Si4 0.034079 0.570918 0.224670
Si Si5 0.348121 0.638134 0.155900
Si Si6 0.979594 0.886899 0.777195
Si Si7 0.668253 0.423810 0.002503
Si Si8 0.296317 0.418182 0.615989
O O1 0.500000 0.044025 0.500000
O O2 0.258586 0.118327 0.720530
O O3 0.288600 0.253630 0.603039
O O4 0.148442 0.988777 0.683289
O O5 0.622328 0.290238 0.981032
O O6 0.394981 0.085327 0.104011
O O7 0.911302 0.298590 0.116334
O O8 0.635988 0.415497 0.224522
O O9 0.752380 0.451356 0.283335
O O10 0.200022 0.594084 0.183618
O O11 0.967027 0.725367 0.244400
O O12 0.860160 0.489824 0.341311
O O13 0.133544 0.481341 0.116160
O O14 0.518386 0.538583 0.064335
O O15 0.862938 0.907753 0.904457
O O16 0.500000 0.465388 0.500000
#
# Coordination Sequence:
#
# PCOD9127837 Si02
#       8
#     4   2   4   4   4   4   4   4
#     4   9  20  40  63  86 116 155 201 252 295 355
#     4  12  24  36  60  92 126 154 208 254 288 364
#     4  10  24  39  60  91 122 159 199 251 300 358
#     4  11  22  38  60  85 117 165 194 240 306 355
#     4   9  20  41  59  86 123 159 194 240 312 364
#     4  10  24  37  60  89 123 156 204 243 303 359
#     4  11  23  38  58  90 124 161 196 249 300 365
#     4  10  23  43  63  86 122 160 203 249 302 358
#
# _framework density 20.214108
#
# number of rings (size 3 to 8) (size 9 to 14) (size 15 to 20)
#    0.000    1.867    1.333    0.800    9.333    2.667 
#    0.000    0.000    0.000    0.000    0.000    0.000 
#    0.000    0.000    0.000    0.000    0.000    0.000 
#
# Total GULP energy -83683.702212 kJ/mol
# GULP energy per Si atom -5578.913481 kJ/mol
# Density = 2.016810 g / cm^3
# Si number density = 20.214108 Si / 1000 Ang^3
#
#
#
# Elastic Constant Matrix: (Units=GPa)
#
#
# Indices 1 2 3 4 5 6 
#
# 1 42.6359 18.0289 8.9707 -0.0001 -3.8624 0.0000
# 2 18.0289 109.1717 49.0914 -0.0001 -15.7720 0.0000
# 3 8.9707 49.0914 102.4757 -0.0004 -21.0920 0.0001
# 4 -0.0001 -0.0001 -0.0004 26.9619 0.0001 -0.8492
# 5 -3.8624 -15.7720 -21.0920 0.0001 18.9686 0.0000
# 6 0.0000 0.0000 0.0001 -0.8492 0.0000 17.8116
#
#
#
# Elastic Compliance Matrix: (Units=1/GPa)
#
#
# Indices 1 2 3 4 5 6 
#
# 1 0.025276 -0.003922 0.000070 0.000000 0.001964 0.000000
# 2 -0.003922 0.012591 -0.004795 0.000000 0.004338 0.000000
# 3 0.000070 -0.004795 0.014565 0.000000 0.012223 0.000000
# 4 0.000000 0.000000 0.000000 0.037145 0.000000 0.001771
# 5 0.001964 0.004338 0.012223 0.000000 0.070317 0.000000
# 6 0.000000 0.000000 0.000000 0.001771 0.000000 0.056228
#
#
# Mechanical properties :
#
#
# Convention : Reuss Voigt Hill
#
# Bulk Modulus (GPa) = 28.45935 45.16281 36.81108
# Shear Modulus (GPa) = 20.39750 24.62790 22.51270
#
# Velocity S-wave (km/s) = 3.18004 3.49428 3.34085
# Velocity P-wave (km/s) = 5.25291 6.21858 5.75603
#
# Compressibility (1/GPa) = 0.03513784
#
# Stress axis : x y z
#
# Youngs Moduli (GPa) = 39.56324 79.42395 68.65661
#
# Poissons Ratio (x) = 0.31151 -0.00484
# Poissons Ratio (y) = 0.15517 0.32924
# Poissons Ratio (z) = -0.00279 0.38087
#
# Static dielectric constant tensor:
#      x y z
#    x 1.746880 0.000000 0.028410 
#    y 0.000000 1.749690 0.000000 
#    z 0.028410 0.000000 1.697770 
# 
# From -- ./inp_files/68710.got.cif
#   From: 2010.05.17/outbox.cif.g08.bks.cpg/sg5_35_cif.got.tgz:68710.got - 2010.06.03 18:56:24.
