data_PCOD9127384
_publ_section_title
;
Structure prediction by ZEFSAII (Michael W. Deem and Ramdas Pophale) SiO2 
 PCOD9127384
Probable space group: C 2
;
_chemical_formula_sum "Si O2"
_cell_formula_units_Z 22
_cell_length_a 7.785092
_cell_length_b 23.153130
_cell_length_c 7.447116
_cell_angle_alpha 90.000000
_cell_angle_beta 132.677828
_cell_angle_gamma 90.000000
_cell_volume 986.855288
_symmetry_space_group_name_H-M "C 2"
_symmetry_group_IT_number 5
_symmetry_cell_setting 'monoclinic'
loop_
_space_group_symop_operation_xyz
x,y,z
-x,y,-z
1/2+x,1/2+y,z
1/2-x,1/2+y,-z
loop_
_atom_site_type_symbol
_atom_site_label
_atom_site_fract_x
_atom_site_fract_y
_atom_site_fract_z
Si Si1 0.961924 0.386350 0.259710
Si Si2 0.500000 0.451318 0.000000
Si Si3 0.000000 0.692389 0.500000
Si Si4 0.445229 0.107509 0.750042
Si Si5 0.283915 0.491730 0.480301
Si Si6 0.455973 0.754905 0.767865
Si Si7 0.000000 0.176643 0.500000
O O1 0.702886 0.412148 0.054293
O O2 0.000000 0.381791 0.500000
O O3 0.156018 0.432173 0.333958
O O4 0.996886 0.322543 0.210613
O O5 0.618451 0.486298 0.247352
O O6 0.092023 0.647898 0.719317
O O7 0.811028 0.735470 0.453522
O O8 0.188847 0.135161 0.546848
O O9 0.412967 0.041261 0.672137
O O10 0.500000 0.110840 0.000000
O O11 0.500000 0.503615 0.500000
O O12 0.600711 0.719270 0.723252
O O13 0.500000 0.735781 0.000000
#
# Coordination Sequence:
#
# PCOD9127384 Si02
#       7
#     4   2   2   4   4   4   2
#     4  10  24  44  66  97 134 172 221 276 332 390
#     4  10  26  46  64 100 138 172 218 278 336 388
#     4  10  26  42  64 100 134 172 220 270 326 390
#     4  11  24  43  68  96 132 174 220 272 326 395
#     4  11  26  42  69 100 130 179 220 272 335 396
#     4  11  23  41  67  94 128 175 218 272 324 391
#     4  10  22  46  58  94 132 170 222 270 324 382
#
# _framework density 22.293037999999999
#
# number of rings (size 3 to 8) (size 9 to 14) (size 15 to 20)
#    0.000    1.455    1.818    1.091   10.182    1.455 
#    8.182    0.000    0.000    0.000    0.000    0.000 
#    0.000    0.000    0.000    0.000    0.000    0.000 
#
# Total GULP energy -61420.741612 kJ/mol
# GULP energy per Si atom -5583.703783 kJ/mol
# Density = 2.224230 g / cm^3
# Si number density = 22.293038 Si / 1000 Ang^3
#
#
#
# Elastic Constant Matrix: (Units=GPa)
#
#
# Indices 1 2 3 4 5 6 
#
# 1 74.3560 31.6010 8.6003 0.0000 -8.6725 0.0000
# 2 31.6010 114.4921 24.0325 0.0000 -11.5918 0.0000
# 3 8.6003 24.0325 61.0586 0.0000 -21.4116 0.0000
# 4 0.0000 0.0000 0.0000 15.0663 0.0000 -3.0938
# 5 -8.6725 -11.5918 -21.4116 0.0000 37.5797 0.0000
# 6 0.0000 0.0000 0.0000 -3.0938 0.0000 28.5681
#
#
#
# Elastic Compliance Matrix: (Units=1/GPa)
#
#
# Indices 1 2 3 4 5 6 
#
# 1 0.015434 -0.004071 0.000296 0.000000 0.002475 0.000000
# 2 -0.004071 0.010625 -0.003485 0.000000 0.000352 0.000000
# 3 0.000296 -0.003485 0.021688 0.000000 0.011350 0.000000
# 4 0.000000 0.000000 0.000000 0.067883 0.000000 0.007351
# 5 0.002475 0.000352 0.011350 0.000000 0.033757 0.000000
# 6 0.000000 0.000000 0.000000 0.007351 0.000000 0.035800
#
#
# Mechanical properties :
#
#
# Convention : Reuss Voigt Hill
#
# Bulk Modulus (GPa) = 30.09647 42.04159 36.06903
# Shear Modulus (GPa) = 23.72117 28.62102 26.17109
#
# Velocity S-wave (km/s) = 3.26553 3.58698 3.43002
# Velocity P-wave (km/s) = 5.26764 6.00456 5.64813
#
# Compressibility (1/GPa) = 0.03322649
#
# Stress axis : x y z
#
# Youngs Moduli (GPa) = 64.79403 94.11593 46.10859
#
# Poissons Ratio (x) = 0.38319 -0.01367
# Poissons Ratio (y) = 0.26381 0.16069
# Poissons Ratio (z) = -0.01921 0.32800
#
# Static dielectric constant tensor:
#      x y z
#    x 1.927440 0.000000 0.012620 
#    y 0.000000 1.790520 0.000000 
#    z 0.012620 0.000000 1.859760 
# 
# From -- ./inp_files/2897.got.cif
#   From: 2010.05.17/outbox.cif.g08.bks.cpg/sg5_2_cif.got.tgz:2897.got - 2010.06.03 18:56:24.
