data_PCOD9127284
_publ_section_title
;
Structure prediction by ZEFSAII (Michael W. Deem and Ramdas Pophale) SiO2 
 PCOD9127284
Probable space group: C 2
;
_chemical_formula_sum "Si O2"
_cell_formula_units_Z 20
_cell_length_a 16.422411
_cell_length_b 11.105634
_cell_length_c 19.410532
_cell_angle_alpha 90.000000
_cell_angle_beta 13.602543
_cell_angle_gamma 90.000000
_cell_volume 832.583494
_symmetry_space_group_name_H-M "C 2"
_symmetry_group_IT_number 5
_symmetry_cell_setting 'monoclinic'
loop_
_space_group_symop_operation_xyz
x,y,z
-x,y,-z
1/2+x,1/2+y,z
1/2-x,1/2+y,-z
loop_
_atom_site_type_symbol
_atom_site_label
_atom_site_fract_x
_atom_site_fract_y
_atom_site_fract_z
Si Si1 0.500000 0.207381 0.500000
Si Si2 0.369468 0.843860 0.028243
Si Si3 0.867464 0.584362 0.221958
Si Si4 0.500000 0.804694 0.500000
Si Si5 0.926539 0.615512 0.793490
Si Si6 0.336411 0.017873 0.538129
O O1 0.598121 0.113279 0.359508
O O2 0.794213 0.292337 0.288310
O O3 0.346844 0.985826 0.032807
O O4 0.500000 0.830831 0.000000
O O5 0.090658 0.749497 0.227539
O O6 0.500000 0.529283 0.500000
O O7 0.828603 0.715601 0.219538
O O8 0.884638 0.610849 0.288759
O O9 0.422044 0.889751 0.499811
O O10 0.101933 0.530706 0.592831
O O11 0.543070 0.562314 0.125598
#
# Coordination Sequence:
#
# PCOD9127284 Si02
#       6
#     2   4   4   2   4   4
#     4   9  17  38  66 100 125 175 224 290 332 397
#     4  11  21  42  72  98 138 179 239 285 346 414
#     4  10  25  46  63 106 144 191 222 293 361 410
#     4   9  23  48  68 100 149 183 230 290 360 413
#     4  11  25  45  74 105 133 189 240 286 344 416
#     4  10  22  44  75 100 135 178 243 285 341 413
#
# _framework density 24.021614
#
# number of rings (size 3 to 8) (size 9 to 14) (size 15 to 20)
#    0.600    1.200    3.000    0.000    2.800    1.600 
#   10.800    0.000    0.000    0.000    0.000    0.000 
#    0.000    0.000    0.000    0.000    0.000    0.000 
#
# Total GULP energy -55721.115687 kJ/mol
# GULP energy per Si atom -5572.111569 kJ/mol
# Density = 2.396694 g / cm^3
# Si number density = 24.021614 Si / 1000 Ang^3
#
#
#
# Elastic Constant Matrix: (Units=GPa)
#
#
# Indices 1 2 3 4 5 6 
#
# 1 181.5087 71.5625 38.3539 0.3806 -5.3671 0.0130
# 2 71.5625 191.6950 35.7545 -0.1361 0.3582 0.0632
# 3 38.3539 35.7545 73.1203 0.2495 5.1572 -0.3473
# 4 0.3806 -0.1361 0.2495 -11.5886 0.1303 6.1069
# 5 -5.3671 0.3582 5.1572 0.1303 28.8482 -0.0861
# 6 0.0130 0.0632 -0.3473 6.1069 -0.0861 27.7430
#
#
#
# Elastic Compliance Matrix: (Units=1/GPa)
#
#
# Indices 1 2 3 4 5 6 
#
# 1 0.006971 -0.002090 -0.002763 0.000179 0.001816 -0.000067
# 2 -0.002090 0.006372 -0.002011 -0.000187 -0.000108 0.000002
# 3 -0.002763 -0.002011 0.016349 0.000315 -0.003413 0.000131
# 4 0.000179 -0.000187 0.000315 -0.077303 0.000379 0.017022
# 5 0.001816 -0.000108 -0.003413 0.000379 0.035612 -0.000016
# 6 -0.000067 0.000002 0.000131 0.017022 -0.000016 0.032300
#
#
# Mechanical properties :
#
#
# Convention : Reuss Voigt Hill
#
# Bulk Modulus (GPa) = 62.64623 81.96288 72.30455
# Shear Modulus (GPa) = 127.06149 29.04407 78.05278
#
# Velocity S-wave (km/s) = 7.28076 3.48096 5.70642
# Velocity P-wave (km/s) = 9.83946 7.09582 8.57804
#
# Compressibility (1/GPa) = 0.01596265
#
# Stress axis : x y z
#
# Youngs Moduli (GPa) = 143.45862 156.93454 61.16479
#
# Poissons Ratio (x) = 0.32801 0.16902
# Poissons Ratio (y) = 0.29984 0.12302
# Poissons Ratio (z) = 0.39642 0.31564
#
# Static dielectric constant tensor:
#      x y z
#    x 1.949970 -0.000070 -0.016080 
#    y -0.000070 1.951780 0.000420 
#    z -0.016080 0.000420 2.113210 
# 
# From -- ./inp_files/61557.got.cif
#   From: 2010.05.17/outbox.cif.g08.bks.cpg/sg5_31_cif.got.tgz:61557.got - 2010.06.03 18:56:24.
