data_PCOD9127121
_publ_section_title
;
Structure prediction by ZEFSAII (Michael W. Deem and Ramdas Pophale) SiO2 
 PCOD9127121
Probable space group: C 2
;
_chemical_formula_sum "Si O2"
_cell_formula_units_Z 26
_cell_length_a 15.112316
_cell_length_b 8.723146
_cell_length_c 12.011127
_cell_angle_alpha 90.000000
_cell_angle_beta 55.252214
_cell_angle_gamma 90.000000
_cell_volume 1301.022505
_symmetry_space_group_name_H-M "C 2"
_symmetry_group_IT_number 5
_symmetry_cell_setting 'monoclinic'
loop_
_space_group_symop_operation_xyz
x,y,z
-x,y,-z
1/2+x,1/2+y,z
1/2-x,1/2+y,-z
loop_
_atom_site_type_symbol
_atom_site_label
_atom_site_fract_x
_atom_site_fract_y
_atom_site_fract_z
Si Si1 0.339516 0.158210 0.018253
Si Si2 0.122118 0.156687 0.780042
Si Si3 0.500000 0.980133 0.500000
Si Si4 0.101086 0.195191 0.544837
Si Si5 0.158351 0.691897 0.247281
Si Si6 0.500000 0.407525 0.000000
Si Si7 0.362955 0.554716 0.704213
Si Si8 0.000000 0.409762 0.000000
O O1 0.336522 0.166492 0.888043
O O2 0.403601 0.303366 0.021783
O O3 0.221295 0.135423 0.153547
O O4 0.409247 0.013601 0.009031
O O5 0.150652 0.177378 0.630623
O O6 0.228734 0.148335 0.777535
O O7 0.054741 0.303639 0.868402
O O8 0.047670 0.012698 0.867070
O O9 0.577561 0.865984 0.515325
O O10 0.567686 0.086982 0.368912
O O11 0.163920 0.105169 0.403012
O O12 0.982530 0.118467 0.639172
O O13 0.139014 0.872326 0.282400
#
# Coordination Sequence:
#
# PCOD9127121 Si02
#       8
#     4   4   2   4   4   2   4   2
#     4  11  24  43  66  93 129 170 210 264 313 384
#     4  11  24  41  65  98 126 167 209 268 315 373
#     4  10  24  44  64  98 122 174 210 260 316 382
#     4  10  24  44  65  89 136 166 214 261 314 378
#     4  12  25  40  70  95 128 165 217 259 322 372
#     4  10  26  40  64  98 128 166 216 258 318 374
#     4  10  23  43  66  91 127 175 211 259 320 371
#     4  10  22  44  60  96 130 162 214 258 326 368
#
# _framework density 19.984282
#
# number of rings (size 3 to 8) (size 9 to 14) (size 15 to 20)
#    0.000    1.538    1.538    2.769   10.769    1.231 
#    5.538    0.000    0.000    0.000    0.000    0.000 
#    0.000    0.000    0.000    0.000    0.000    0.000 
#
# Total GULP energy -72693.980916 kJ/mol
# GULP energy per Si atom -5591.844686 kJ/mol
# Density = 1.993880 g / cm^3
# Si number density = 19.984282 Si / 1000 Ang^3
#
#
#
# Elastic Constant Matrix: (Units=GPa)
#
#
# Indices 1 2 3 4 5 6 
#
# 1 40.9352 20.3499 28.2473 0.0000 14.1772 0.0000
# 2 20.3499 128.9697 67.3032 0.0000 3.3187 0.0000
# 3 28.2473 67.3032 163.2272 0.0000 17.5077 0.0000
# 4 0.0000 0.0000 0.0000 -31.4894 0.0000 8.0624
# 5 14.1772 3.3187 17.5077 0.0000 39.4669 0.0000
# 6 0.0000 0.0000 0.0000 8.0624 0.0000 0.8626
#
#
#
# Elastic Compliance Matrix: (Units=1/GPa)
#
#
# Indices 1 2 3 4 5 6 
#
# 1 0.031470 -0.003078 -0.003142 0.000000 -0.009652 0.000000
# 2 -0.003078 0.010220 -0.003893 0.000000 0.001973 0.000000
# 3 -0.003142 -0.003893 0.008525 0.000000 -0.002326 0.000000
# 4 0.000000 0.000000 0.000000 -0.009360 0.000000 0.087477
# 5 -0.009652 0.001973 -0.002326 0.000000 0.029671 0.000000
# 6 0.000000 0.000000 0.000000 0.087477 0.000000 0.341659
#
#
# Mechanical properties :
#
#
# Convention : Reuss Voigt Hill
#
# Bulk Modulus (GPa) = 33.34483 62.77031 48.05757
# Shear Modulus (GPa) = 11.30184 16.25014 13.77599
#
# Velocity S-wave (km/s) = 2.38068 2.85467 2.62838
# Velocity P-wave (km/s) = 4.92733 6.50719 5.77157
#
# Compressibility (1/GPa) = 0.02998966
#
# Stress axis : x y z
#
# Youngs Moduli (GPa) = 31.77675 97.84504 117.30454
#
# Poissons Ratio (x) = 0.30113 0.36854
# Poissons Ratio (y) = 0.09780 0.45668
# Poissons Ratio (z) = 0.09983 0.38092
#
# Static dielectric constant tensor:
#      x y z
#    x 1.696310 0.000000 0.002390 
#    y 0.000000 1.701100 0.000000 
#    z 0.002390 0.000000 1.698210 
# 
# From -- ./inp_files/41651.got.cif
#   From: 2010.05.17/outbox.cif.g08.bks.cpg/sg5_21_cif.got.tgz:41651.got - 2010.06.03 18:56:24.
