data_PCOD9127091
_publ_section_title
;
Structure prediction by ZEFSAII (Michael W. Deem and Ramdas Pophale) SiO2 
 PCOD9127091
Probable space group: C 2
;
_chemical_formula_sum "Si O2"
_cell_formula_units_Z 20
_cell_length_a 13.175564
_cell_length_b 4.809231
_cell_length_c 13.794123
_cell_angle_alpha 90.000000
_cell_angle_beta 102.945479
_cell_angle_gamma 90.000000
_cell_volume 851.840103
_symmetry_space_group_name_H-M "C 2"
_symmetry_group_IT_number 5
_symmetry_cell_setting 'monoclinic'
loop_
_space_group_symop_operation_xyz
x,y,z
-x,y,-z
1/2+x,1/2+y,z
1/2-x,1/2+y,-z
loop_
_atom_site_type_symbol
_atom_site_label
_atom_site_fract_x
_atom_site_fract_y
_atom_site_fract_z
Si Si1 0.078285 0.288700 0.314628
Si Si2 0.719252 0.405535 0.554830
Si Si3 0.500000 0.659569 0.000000
Si Si4 0.512745 0.288914 0.814035
Si Si5 0.500000 0.664435 0.500000
Si Si6 0.184438 0.542297 0.964243
O O1 0.203465 0.273960 0.349383
O O2 0.049730 0.516103 0.229058
O O3 0.017629 0.009702 0.273625
O O4 0.036070 0.343115 0.414715
O O5 0.771604 0.695521 0.533409
O O6 0.600381 0.479262 0.549564
O O7 0.514242 0.455669 0.094038
O O8 0.404174 0.865476 0.000414
O O9 0.630306 0.179958 0.858549
O O10 0.229844 0.802893 0.033634
#
# Coordination Sequence:
#
# PCOD9127091 Si02
#       6
#     4   4   2   4   2   4
#     4  11  24  44  70 106 145 187 245 302 353 444
#     4  10  22  43  71  99 141 189 240 295 358 434
#     4  12  26  50  76 100 154 200 234 312 376 420
#     4  12  25  47  71 109 149 182 251 305 353 440
#     4  10  24  48  72 100 148 196 228 300 380 410
#     4  12  25  47  75 105 147 199 244 303 367 434
#
# _framework density 23.478584999999999
#
# number of rings (size 3 to 8) (size 9 to 14) (size 15 to 20)
#    0.000    0.800    4.000    3.000    0.000    7.200 
#   10.800    0.000    0.000    0.000    0.000    0.000 
#    0.000    0.000    0.000    0.000    0.000    0.000 
#
# Total GULP energy -55853.309441 kJ/mol
# GULP energy per Si atom -5585.330944 kJ/mol
# Density = 2.342515 g / cm^3
# Si number density = 23.478585 Si / 1000 Ang^3
#
#
#
# Elastic Constant Matrix: (Units=GPa)
#
#
# Indices 1 2 3 4 5 6 
#
# 1 146.2102 53.1869 53.1200 0.0000 30.3537 0.0000
# 2 53.1869 153.4385 34.5196 0.0000 28.3778 0.0000
# 3 53.1200 34.5196 93.9131 0.0000 35.1257 0.0000
# 4 0.0000 0.0000 0.0000 38.9530 0.0000 4.7051
# 5 30.3537 28.3778 35.1257 0.0000 39.4431 0.0000
# 6 0.0000 0.0000 0.0000 4.7051 0.0000 51.9486
#
#
#
# Elastic Compliance Matrix: (Units=1/GPa)
#
#
# Indices 1 2 3 4 5 6 
#
# 1 0.009412 -0.001966 -0.003630 0.000000 -0.002596 0.000000
# 2 -0.001966 0.008006 -0.000363 0.000000 -0.003924 0.000000
# 3 -0.003630 -0.000363 0.017532 0.000000 -0.012558 0.000000
# 4 0.000000 0.000000 0.000000 0.025956 0.000000 -0.002351
# 5 -0.002596 -0.003924 -0.012558 0.000000 0.041357 0.000000
# 6 0.000000 0.000000 0.000000 -0.002351 0.000000 0.019463
#
#
# Mechanical properties :
#
#
# Convention : Reuss Voigt Hill
#
# Bulk Modulus (GPa) = 43.41857 75.02386 59.22122
# Shear Modulus (GPa) = 35.38004 42.91796 39.14900
#
# Velocity S-wave (km/s) = 3.88610 4.28011 4.08785
# Velocity P-wave (km/s) = 6.21842 7.51327 6.89630
#
# Compressibility (1/GPa) = 0.02303162
#
# Stress axis : x y z
#
# Youngs Moduli (GPa) = 106.24170 124.90475 57.03831
#
# Poissons Ratio (x) = 0.24554 0.20707
# Poissons Ratio (y) = 0.20885 0.02072
# Poissons Ratio (z) = 0.38570 0.04538
#
# Static dielectric constant tensor:
#      x y z
#    x 1.901400 0.000000 0.033940 
#    y 0.000000 1.876440 0.000000 
#    z 0.033940 0.000000 1.916770 
# 
# From -- ./inp_files/53626.got.cif
#   From: 2010.05.17/outbox.cif.g08.bks.cpg/sg5_27_cif.got.tgz:53626.got - 2010.06.03 18:56:24.
