data_PCOD9127003
_publ_section_title
;
Structure prediction by ZEFSAII (Michael W. Deem and Ramdas Pophale) SiO2 
 PCOD9127003
Probable space group: C 2
;
_chemical_formula_sum "Si O2"
_cell_formula_units_Z 28
_cell_length_a 9.800378
_cell_length_b 10.635819
_cell_length_c 12.586355
_cell_angle_alpha 90.000000
_cell_angle_beta 67.346166
_cell_angle_gamma 90.000000
_cell_volume 1210.721520
_symmetry_space_group_name_H-M "C 2"
_symmetry_group_IT_number 5
_symmetry_cell_setting 'monoclinic'
loop_
_space_group_symop_operation_xyz
x,y,z
-x,y,-z
1/2+x,1/2+y,z
1/2-x,1/2+y,-z
loop_
_atom_site_type_symbol
_atom_site_label
_atom_site_fract_x
_atom_site_fract_y
_atom_site_fract_z
Si Si1 0.442505 0.543360 0.266574
Si Si2 0.501423 0.919988 0.874083
Si Si3 0.262067 0.880679 0.785056
Si Si4 0.073024 0.666696 0.720488
Si Si5 0.525739 0.775752 0.604601
Si Si6 0.772890 0.977197 0.533372
Si Si7 0.664622 0.365167 0.269282
O O1 0.336665 0.505345 0.201084
O O2 0.481425 0.681378 0.295042
O O3 0.351143 0.497897 0.398385
O O4 0.592293 0.463765 0.208509
O O5 0.517990 0.055249 0.812723
O O6 0.346071 0.868274 0.872392
O O7 0.659785 0.853516 0.799016
O O8 0.500000 0.927763 0.000000
O O9 0.165198 0.764885 0.766778
O O10 0.401723 0.880275 0.663244
O O11 0.175556 0.597498 0.601405
O O12 0.935464 0.741416 0.710484
O O13 0.500000 0.708232 0.500000
O O14 0.673781 0.852825 0.550583
O O15 0.861991 0.936148 0.611191
#
# Coordination Sequence:
#
# PCOD9127003 Si02
#       7
#     4   4   4   4   4   4   4
#     4  11  24  39  65  95 138 179 220 259 311 384
#     4  11  25  46  69  95 127 165 219 283 349 396
#     4  11  23  43  65  95 127 174 219 266 325 394
#     4  10  23  43  68  96 134 170 217 272 323 387
#     4  12  21  37  62  92 138 175 214 261 304 379
#     4  11  22  38  61  98 135 179 218 250 312 382
#     4  10  22  43  64  96 132 173 216 268 321 391
#
# _framework density 23.126705000000001
#
# number of rings (size 3 to 8) (size 9 to 14) (size 15 to 20)
#    0.000    1.143    4.286    3.857    4.000    1.143 
#    0.000    2.143    0.000    0.000    0.000    0.000 
#    0.000    0.000    0.000    0.000    0.000    0.000 
#
# Total GULP energy -78133.435870 kJ/mol
# GULP energy per Si atom -5580.959705 kJ/mol
# Density = 2.307407 g / cm^3
# Si number density = 23.126705 Si / 1000 Ang^3
#
#
#
# Elastic Constant Matrix: (Units=GPa)
#
#
# Indices 1 2 3 4 5 6 
#
# 1 152.3714 60.7549 14.1640 0.0000 18.5675 0.0000
# 2 60.7549 96.9461 7.9093 0.0000 6.9779 0.0000
# 3 14.1640 7.9093 51.3617 0.0000 15.3339 0.0000
# 4 0.0000 0.0000 0.0000 -0.4126 0.0000 8.4300
# 5 18.5675 6.9779 15.3339 0.0000 23.3996 0.0000
# 6 0.0000 0.0000 0.0000 8.4300 0.0000 45.3875
#
#
#
# Elastic Compliance Matrix: (Units=1/GPa)
#
#
# Indices 1 2 3 4 5 6 
#
# 1 0.009479 -0.005517 -0.000013 0.000000 -0.005868 0.000000
# 2 -0.005517 0.013782 -0.000846 0.000000 0.000822 0.000000
# 3 -0.000013 -0.000846 0.024274 0.000000 -0.015645 0.000000
# 4 0.000000 0.000000 0.000000 -0.505471 0.000000 0.093883
# 5 -0.005868 0.000822 -0.015645 0.000000 0.057399 0.000000
# 6 0.000000 0.000000 0.000000 0.093883 0.000000 0.004595
#
#
# Mechanical properties :
#
#
# Convention : Reuss Voigt Hill
#
# Bulk Modulus (GPa) = 28.74925 51.81505 40.28215
# Shear Modulus (GPa) = -13.45552 28.19831 7.37139
#
# Velocity S-wave (km/s) = -2.41471 3.49563 1.78726
# Velocity P-wave (km/s) = 2.16420 6.22463 4.65993
#
# Compressibility (1/GPa) = 0.03478352
#
# Stress axis : x y z
#
# Youngs Moduli (GPa) = 105.49761 72.55713 41.19598
#
# Poissons Ratio (x) = 0.40029 0.00052
# Poissons Ratio (y) = 0.58202 0.03487
# Poissons Ratio (z) = 0.00132 0.06142
#
# Static dielectric constant tensor:
#      x y z
#    x 2.013240 0.000000 0.043030 
#    y 0.000000 1.924310 0.000000 
#    z 0.043030 0.000000 1.866470 
# 
# From -- ./inp_files/50271.got.cif
#   From: 2010.05.17/outbox.cif.g08.bks.cpg/sg5_26_cif.got.tgz:50271.got - 2010.06.03 18:56:24.
