data_PCOD9127056
_publ_section_title
;
Structure prediction by ZEFSAII (Michael W. Deem and Ramdas Pophale) SiO2 
 PCOD9127056
Probable space group: C 2
;
_chemical_formula_sum "Si O2"
_cell_formula_units_Z 28
_cell_length_a 9.871041
_cell_length_b 16.511850
_cell_length_c 8.683783
_cell_angle_alpha 90.000000
_cell_angle_beta 100.771374
_cell_angle_gamma 90.000000
_cell_volume 1390.424768
_symmetry_space_group_name_H-M "C 2"
_symmetry_group_IT_number 5
_symmetry_cell_setting 'monoclinic'
loop_
_space_group_symop_operation_xyz
x,y,z
-x,y,-z
1/2+x,1/2+y,z
1/2-x,1/2+y,-z
loop_
_atom_site_type_symbol
_atom_site_label
_atom_site_fract_x
_atom_site_fract_y
_atom_site_fract_z
Si Si1 0.000000 0.151950 0.500000
Si Si2 0.153276 0.879377 0.525739
Si Si3 0.294163 0.976669 0.311248
Si Si4 0.500000 0.096729 0.500000
Si Si5 0.916297 0.105982 0.819516
Si Si6 0.704673 0.217837 0.368067
Si Si7 0.649575 0.807605 0.842052
Si Si8 0.831971 0.280344 0.798814
O O1 0.996110 0.108208 0.669140
O O2 0.856946 0.201563 0.469953
O O3 0.249096 0.947123 0.471764
O O4 0.142938 0.803050 0.408797
O O5 0.225266 0.836153 0.685203
O O6 0.000000 0.913320 0.500000
O O7 0.326867 0.894897 0.227780
O O8 0.416330 0.039234 0.366051
O O9 0.170299 0.023938 0.203130
O O10 0.603456 0.150784 0.416892
O O11 0.812123 0.183339 0.794668
O O12 0.000000 0.113571 0.000000
O O13 0.747890 0.238132 0.201850
O O14 0.489759 0.787562 0.772929
O O15 0.666779 0.810062 0.026744
#
# Coordination Sequence:
#
# PCOD9127056 Si02
#       8
#     2   4   4   2   4   4   4   4
#     4  12  20  41  73 100 128 188 238 280 346 419
#     4  11  23  39  65  97 138 179 227 280 343 421
#     4  11  26  41  63 102 144 176 226 299 361 404
#     4  12  22  41  69 100 140 182 230 298 340 423
#     4  12  24  43  72 104 138 183 240 295 344 427
#     4  11  20  39  69  97 129 176 237 272 343 416
#     4  10  22  43  68  99 129 184 231 293 351 414
#     4  11  20  44  73  96 131 187 244 279 339 440
#
# _framework density 20.137730999999999
#
# number of rings (size 3 to 8) (size 9 to 14) (size 15 to 20)
#    0.000    0.857    6.429    0.857    1.000    3.429 
#    0.000    6.429    3.143    0.000    0.000    0.000 
#    0.000    0.000    0.000    0.000    0.000    0.000 
#
# Total GULP energy -78015.166241 kJ/mol
# GULP energy per Si atom -5572.511874 kJ/mol
# Density = 2.009190 g / cm^3
# Si number density = 20.137731 Si / 1000 Ang^3
#
#
#
# Elastic Constant Matrix: (Units=GPa)
#
#
# Indices 1 2 3 4 5 6 
#
# 1 84.4192 38.1071 37.4178 0.0000 -17.3727 0.0000
# 2 38.1071 93.4154 25.8078 0.0000 -8.5190 0.0000
# 3 37.4178 25.8078 116.9362 0.0000 -5.5414 0.0000
# 4 0.0000 0.0000 0.0000 29.2397 0.0000 4.1173
# 5 -17.3727 -8.5190 -5.5414 0.0000 24.0693 0.0000
# 6 0.0000 0.0000 0.0000 4.1173 0.0000 22.1430
#
#
#
# Elastic Compliance Matrix: (Units=1/GPa)
#
#
# Indices 1 2 3 4 5 6 
#
# 1 0.018224 -0.005344 -0.004164 0.000000 0.010304 0.000000
# 2 -0.005344 0.013265 -0.001191 0.000000 0.000564 0.000000
# 3 -0.004164 -0.001191 0.010095 0.000000 -0.001103 0.000000
# 4 0.000000 0.000000 0.000000 0.035120 0.000000 -0.006530
# 5 0.010304 0.000564 -0.001103 0.000000 0.048929 0.000000
# 6 0.000000 0.000000 0.000000 -0.006530 0.000000 0.046375
#
#
# Mechanical properties :
#
#
# Convention : Reuss Voigt Hill
#
# Bulk Modulus (GPa) = 49.53844 55.27067 52.40455
# Shear Modulus (GPa) = 24.98325 27.98626 26.48476
#
# Velocity S-wave (km/s) = 3.52606 3.73197 3.63048
# Velocity P-wave (km/s) = 6.42111 6.78793 6.60707
#
# Compressibility (1/GPa) = 0.02018635
#
# Stress axis : x y z
#
# Youngs Moduli (GPa) = 54.87303 75.38438 99.06340
#
# Poissons Ratio (x) = 0.40287 0.41246
# Poissons Ratio (y) = 0.29325 0.11797
# Poissons Ratio (z) = 0.22847 0.08977
#
# Static dielectric constant tensor:
#      x y z
#    x 1.767500 0.000000 -0.032500 
#    y 0.000000 1.706000 0.000000 
#    z -0.032500 0.000000 1.750370 
# 
# From -- ./inp_files/16196.got.cif
#   From: 2010.05.17/outbox.cif.g08.bks.cpg/sg5_9_cif.got.tgz:16196.got - 2010.06.03 18:56:24.
