data_PCOD9127185
_publ_section_title
;
Structure prediction by ZEFSAII (Michael W. Deem and Ramdas Pophale) SiO2 
 PCOD9127185
Probable space group: C 2
;
_chemical_formula_sum "Si O2"
_cell_formula_units_Z 26
_cell_length_a 14.920385
_cell_length_b 5.353572
_cell_length_c 15.438812
_cell_angle_alpha 90.000000
_cell_angle_beta 64.524571
_cell_angle_gamma 90.000000
_cell_volume 1113.306104
_symmetry_space_group_name_H-M "C 2"
_symmetry_group_IT_number 5
_symmetry_cell_setting 'monoclinic'
loop_
_space_group_symop_operation_xyz
x,y,z
-x,y,-z
1/2+x,1/2+y,z
1/2-x,1/2+y,-z
loop_
_atom_site_type_symbol
_atom_site_label
_atom_site_fract_x
_atom_site_fract_y
_atom_site_fract_z
Si Si1 0.500000 0.983660 0.000000
Si Si2 0.288645 0.039996 0.594280
Si Si3 0.148083 0.111258 0.955959
Si Si4 0.948187 0.953690 0.708204
Si Si5 0.491090 0.399931 0.130741
Si Si6 0.123926 0.041976 0.512392
Si Si7 0.821603 0.455562 0.768751
O O1 0.392915 0.884016 0.006757
O O2 0.463368 0.137973 0.099949
O O3 0.198499 0.035792 0.564134
O O4 0.360668 0.811469 0.537309
O O5 0.340482 0.309725 0.561258
O O6 0.259922 0.983666 0.705035
O O7 0.253120 0.026568 0.878452
O O8 0.073515 0.080461 0.903239
O O9 0.104579 0.948705 0.052325
O O10 0.015639 0.949683 0.766483
O O11 0.901719 0.677378 0.726757
O O12 0.015437 0.003542 0.596739
O O13 0.870198 0.181392 0.751408
#
# Coordination Sequence:
#
# PCOD9127185 Si02
#       7
#     2   4   4   4   4   4   4
#     4   8  18  40  72  90 116 176 220 284 298 368
#     4  10  22  44  68  92 121 165 218 265 309 371
#     4   9  21  41  66  90 123 167 222 262 315 365
#     4  12  27  40  62  98 134 170 204 256 329 388
#     4   9  21  41  66  90 123 167 222 262 315 365
#     4  10  22  44  68  92 121 165 218 265 309 371
#     4  12  27  40  62  98 134 170 204 256 329 388
#
# _framework density 23.353863
#
# number of rings (size 3 to 8) (size 9 to 14) (size 15 to 20)
#    0.000    2.154    0.000    2.769    8.615    4.923 
#    8.308    0.000    0.000    0.000    0.000    0.000 
#    0.000    0.000    0.000    0.000    0.000    0.000 
#
# Total GULP energy -72498.452191 kJ/mol
# GULP energy per Si atom -5576.804015 kJ/mol
# Density = 2.330071 g / cm^3
# Si number density = 23.353863 Si / 1000 Ang^3
#
#
#
# Elastic Constant Matrix: (Units=GPa)
#
#
# Indices 1 2 3 4 5 6 
#
# 1 39.6615 -13.9810 -3.8631 0.0000 8.4023 -0.0001
# 2 -13.9810 72.8884 -13.7031 -0.0004 1.0546 -0.0001
# 3 -3.8631 -13.7031 63.4465 -0.0001 -8.1083 0.0001
# 4 0.0000 -0.0004 -0.0001 0.5903 -0.0002 -10.4336
# 5 8.4023 1.0546 -8.1083 -0.0002 44.5291 -0.0005
# 6 -0.0001 -0.0001 0.0001 -10.4336 -0.0005 -19.2291
#
#
#
# Elastic Compliance Matrix: (Units=1/GPa)
#
#
# Indices 1 2 3 4 5 6 
#
# 1 0.028651 0.006019 0.002391 0.000000 -0.005113 0.000000
# 2 0.006019 0.015567 0.003621 0.000001 -0.000845 -0.000001
# 3 0.002391 0.003621 0.017016 0.000001 0.002562 0.000000
# 4 0.000000 0.000001 0.000001 0.159962 0.000000 -0.086794
# 5 -0.005113 -0.000845 0.002562 0.000000 0.023909 -0.000001
# 6 0.000000 -0.000001 0.000000 -0.086794 -0.000001 -0.004911
#
#
# Mechanical properties :
#
#
# Convention : Reuss Voigt Hill
#
# Bulk Modulus (GPa) = 11.72383 12.54469 12.13426
# Shear Modulus (GPa) = 20.44445 19.01430 19.72937
#
# Velocity S-wave (km/s) = 2.96196 2.85648 2.90970
# Velocity P-wave (km/s) = 4.09006 4.03269 4.06147
#
# Compressibility (1/GPa) = 0.08529639
#
# Stress axis : x y z
#
# Youngs Moduli (GPa) = 34.90235 64.23810 58.76747
#
# Poissons Ratio (x) = -0.38666 -0.14051
# Poissons Ratio (y) = -0.21008 -0.21278
# Poissons Ratio (z) = -0.08345 -0.23258
#
# Static dielectric constant tensor:
#      x y z
#    x 1.957850 0.000000 -0.033590 
#    y 0.000000 2.018370 0.000000 
#    z -0.033590 0.000000 1.986310 
# 
# From -- ./inp_files/49084.got.cif
#   From: 2010.05.17/outbox.cif.g08.bks.cpg/sg5_25_cif.got.tgz:49084.got - 2010.06.03 18:56:24.
