data_PCOD9127195
_publ_section_title
;
Structure prediction by ZEFSAII (Michael W. Deem and Ramdas Pophale) SiO2 
 PCOD9127195
Probable space group: C 2
;
_chemical_formula_sum "Si O2"
_cell_formula_units_Z 30
_cell_length_a 9.788431
_cell_length_b 12.448744
_cell_length_c 10.608200
_cell_angle_alpha 90.000000
_cell_angle_beta 94.218538
_cell_angle_gamma 90.000000
_cell_volume 1289.145986
_symmetry_space_group_name_H-M "C 2"
_symmetry_group_IT_number 5
_symmetry_cell_setting 'monoclinic'
loop_
_space_group_symop_operation_xyz
x,y,z
-x,y,-z
1/2+x,1/2+y,z
1/2-x,1/2+y,-z
loop_
_atom_site_type_symbol
_atom_site_label
_atom_site_fract_x
_atom_site_fract_y
_atom_site_fract_z
Si Si1 0.500000 0.108950 0.500000
Si Si2 0.538330 0.683031 0.646415
Si Si3 0.706965 0.676563 0.188676
Si Si4 0.169466 0.798101 0.582793
Si Si5 0.868264 0.978521 0.242088
Si Si6 0.847087 0.381613 0.956524
Si Si7 0.158839 0.951180 0.154035
Si Si8 0.154665 0.405294 0.610084
O O1 0.616137 0.202725 0.486176
O O2 0.574674 0.018571 0.593027
O O3 0.500000 0.664097 0.500000
O O4 0.404919 0.650822 0.713813
O O5 0.647178 0.599299 0.708030
O O6 0.571322 0.808072 0.667788
O O7 0.818955 0.734298 0.282870
O O8 0.640423 0.760497 0.091038
O O9 0.731801 0.564753 0.124064
O O10 0.096623 0.904468 0.633206
O O11 0.298008 0.853223 0.520228
O O12 0.729043 0.943613 0.163057
O O13 0.995017 0.962076 0.152622
O O14 0.500000 0.921332 0.000000
O O15 0.734923 0.375491 0.060644
O O16 0.212618 0.922755 0.296491
#
# Coordination Sequence:
#
# PCOD9127195 Si02
#       8
#     2   4   4   4   4   4   4   4
#     4  12  24  40  66 104 152 196 244 310 366 454
#     4  11  22  41  70 107 147 195 235 292 374 467
#     4  10  22  44  68  96 141 188 241 297 364 443
#     4  11  23  42  65 106 149 193 234 313 370 443
#     4  10  26  45  72 104 146 193 250 299 382 450
#     4  11  25  48  73  99 138 186 254 313 367 433
#     4  11  24  45  71 101 142 194 243 303 365 443
#     4  12  24  40  69 108 149 196 245 297 380 453
#
# _framework density 23.271218999999999
#
# number of rings (size 3 to 8) (size 9 to 14) (size 15 to 20)
#    0.000    1.067    3.333    2.000    6.533    4.267 
#    0.000    2.667    0.000    0.000    0.000    0.000 
#    0.000    0.000    0.000    0.000    0.000    0.000 
#
# Total GULP energy -83504.258078 kJ/mol
# GULP energy per Si atom -5566.950539 kJ/mol
# Density = 2.321825 g / cm^3
# Si number density = 23.271219 Si / 1000 Ang^3
#
#
#
# Elastic Constant Matrix: (Units=GPa)
#
#
# Indices 1 2 3 4 5 6 
#
# 1 80.3413 23.8817 22.3469 0.0000 22.6232 0.0000
# 2 23.8817 115.2864 23.2119 0.0000 10.6272 0.0000
# 3 22.3469 23.2119 59.1438 0.0000 2.0300 0.0000
# 4 0.0000 0.0000 0.0000 -25.0023 0.0000 15.2670
# 5 22.6232 10.6272 2.0300 0.0000 31.3258 0.0000
# 6 0.0000 0.0000 0.0000 15.2670 0.0000 25.9355
#
#
#
# Elastic Compliance Matrix: (Units=1/GPa)
#
#
# Indices 1 2 3 4 5 6 
#
# 1 0.017871 -0.001428 -0.005778 0.000000 -0.012047 0.000000
# 2 -0.001428 0.009815 -0.003241 0.000000 -0.002088 0.000000
# 3 -0.005778 -0.003241 0.020227 0.000000 0.003962 0.000000
# 4 0.000000 0.000000 0.000000 -0.029421 0.000000 0.017319
# 5 -0.012047 -0.002088 0.003962 0.000000 0.041075 0.000000
# 6 0.000000 0.000000 0.000000 0.017319 0.000000 0.028362
#
#
# Mechanical properties :
#
#
# Convention : Reuss Voigt Hill
#
# Bulk Modulus (GPa) = 37.01145 43.73916 40.37531
# Shear Modulus (GPa) = 42.43406 18.80721 30.62063
#
# Velocity S-wave (km/s) = 4.27483 2.84593 3.63135
# Velocity P-wave (km/s) = 6.34858 5.44383 5.91353
#
# Compressibility (1/GPa) = 0.02701866
#
# Stress axis : x y z
#
# Youngs Moduli (GPa) = 55.95644 101.88619 49.43846
#
# Poissons Ratio (x) = 0.14550 0.28568
# Poissons Ratio (y) = 0.07991 0.16022
# Poissons Ratio (z) = 0.32334 0.33019
#
# Static dielectric constant tensor:
#      x y z
#    x 1.976660 0.000000 0.057970 
#    y 0.000000 1.954110 0.000000 
#    z 0.057970 0.000000 1.930630 
# 
# From -- ./inp_files/38822.got.cif
#   From: 2010.05.17/outbox.cif.g08.bks.cpg/sg5_20_cif.got.tgz:38822.got - 2010.06.03 18:56:24.
