data_PCOD9127575
_publ_section_title
;
Structure prediction by ZEFSAII (Michael W. Deem and Ramdas Pophale) SiO2 
 PCOD9127575
Probable space group: C 2
;
_chemical_formula_sum "Si O2"
_cell_formula_units_Z 26
_cell_length_a 21.050238
_cell_length_b 5.831282
_cell_length_c 7.503122
_cell_angle_alpha 90.000000
_cell_angle_beta 74.192762
_cell_angle_gamma 90.000000
_cell_volume 886.178090
_symmetry_space_group_name_H-M "C 2"
_symmetry_group_IT_number 5
_symmetry_cell_setting 'monoclinic'
loop_
_space_group_symop_operation_xyz
x,y,z
-x,y,-z
1/2+x,1/2+y,z
1/2-x,1/2+y,-z
loop_
_atom_site_type_symbol
_atom_site_label
_atom_site_fract_x
_atom_site_fract_y
_atom_site_fract_z
Si Si1 0.251956 0.254660 0.732399
Si Si2 0.607018 0.797822 0.927687
Si Si3 0.080438 0.998169 0.425099
Si Si4 0.608888 0.215855 0.732150
Si Si5 0.000000 0.912162 0.000000
Si Si6 0.757567 0.255693 0.692452
Si Si7 0.064324 0.502267 0.316002
O O1 0.183503 0.249437 0.892523
O O2 0.238455 0.253999 0.527646
O O3 0.281179 0.508119 0.746448
O O4 0.282938 0.003259 0.738508
O O5 0.604942 0.937125 0.740941
O O6 0.562702 0.573541 0.981066
O O7 0.572845 0.959258 0.098372
O O8 0.115928 0.911728 0.577874
O O9 0.092160 0.761041 0.309534
O O10 0.000000 0.012876 0.500000
O O11 0.096924 0.257238 0.355548
O O12 0.677311 0.248312 0.787913
O O13 0.531563 0.260540 0.825760
O O14 0.000000 0.510761 0.500000
#
# Coordination Sequence:
#
# PCOD9127575 Si02
#       7
#     4   4   4   4   2   4   4
#     4   9  18  35  56  84 117 149 192 251 306 343
#     4  11  24  36  60  91 120 157 207 252 297 363
#     4  10  23  39  55  76 118 165 192 232 303 368
#     4  11  24  36  60  91 120 157 207 252 297 363
#     4  12  22  32  58  90 124 140 196 246 306 344
#     4   9  18  35  56  84 117 149 192 251 306 343
#     4  10  23  39  55  76 118 165 192 232 303 368
#
# _framework density 29.339475
#
# number of rings (size 3 to 8) (size 9 to 14) (size 15 to 20)
#    0.000    1.846    1.538    2.308   12.923    0.000 
#    0.000    0.000    0.000    1.846    0.000    0.000 
#    0.000    0.000    0.000    0.000    0.000    0.000 
#
# Total GULP energy -72440.874922 kJ/mol
# GULP energy per Si atom -5572.374994 kJ/mol
# Density = 2.927270 g / cm^3
# Si number density = 29.339475 Si / 1000 Ang^3
#
#
#
# Elastic Constant Matrix: (Units=GPa)
#
#
# Indices 1 2 3 4 5 6 
#
# 1 83.2932 84.5185 43.4486 0.0000 -33.0627 0.0000
# 2 84.5185 280.4911 53.0959 0.0000 -5.2988 0.0000
# 3 43.4486 53.0959 93.1704 0.0000 -35.3256 0.0000
# 4 0.0000 0.0000 0.0000 23.0963 0.0000 -20.8522
# 5 -33.0627 -5.2988 -35.3256 0.0000 41.3460 0.0000
# 6 0.0000 0.0000 0.0000 -20.8522 0.0000 73.6205
#
#
#
# Elastic Compliance Matrix: (Units=1/GPa)
#
#
# Indices 1 2 3 4 5 6 
#
# 1 0.029593 -0.008372 -0.000686 0.000000 0.022005 0.000000
# 2 -0.008372 0.006494 -0.002987 0.000000 -0.008414 0.000000
# 3 -0.000686 -0.002987 0.018345 0.000000 0.014742 0.000000
# 4 0.000000 0.000000 0.000000 0.058173 0.000000 0.016477
# 5 0.022005 -0.008414 0.014742 0.000000 0.053300 0.000000
# 6 0.000000 0.000000 0.000000 0.016477 0.000000 0.018250
#
#
# Mechanical properties :
#
#
# Convention : Reuss Voigt Hill
#
# Bulk Modulus (GPa) = 32.95748 91.00899 61.98323
# Shear Modulus (GPa) = 22.89800 46.00534 34.45167
#
# Velocity S-wave (km/s) = 2.79668 3.96414 3.43044
# Velocity P-wave (km/s) = 4.65684 7.21382 6.07146
#
# Compressibility (1/GPa) = 0.03034213
#
# Stress axis : x y z
#
# Youngs Moduli (GPa) = 33.79141 153.98248 54.51091
#
# Poissons Ratio (x) = 1.28907 0.03741
# Poissons Ratio (y) = 0.28289 0.16284
# Poissons Ratio (z) = 0.02319 0.46000
#
# Static dielectric constant tensor:
#      x y z
#    x 2.437770 0.000000 0.190170 
#    y 0.000000 2.298450 0.000000 
#    z 0.190170 0.000000 2.583850 
# 
# From -- ./inp_files/13016.got.cif
#   From: 2010.05.17/outbox.cif.g08.bks.cpg/sg5_7_cif.got.tgz:13016.got - 2010.06.03 18:56:24.
