data_PCOD9127082
_publ_section_title
;
Structure prediction by ZEFSAII (Michael W. Deem and Ramdas Pophale) SiO2 
 PCOD9127082
Probable space group: C 2
;
_chemical_formula_sum "Si O2"
_cell_formula_units_Z 28
_cell_length_a 18.504920
_cell_length_b 5.349574
_cell_length_c 12.293126
_cell_angle_alpha 90.000000
_cell_angle_beta 114.283002
_cell_angle_gamma 90.000000
_cell_volume 1109.270546
_symmetry_space_group_name_H-M "C 2"
_symmetry_group_IT_number 5
_symmetry_cell_setting 'monoclinic'
loop_
_space_group_symop_operation_xyz
x,y,z
-x,y,-z
1/2+x,1/2+y,z
1/2-x,1/2+y,-z
loop_
_atom_site_type_symbol
_atom_site_label
_atom_site_fract_x
_atom_site_fract_y
_atom_site_fract_z
Si Si1 0.235371 0.812420 0.858223
Si Si2 0.217667 0.102846 0.645633
Si Si3 0.897591 0.140843 0.613035
Si Si4 0.893404 0.654629 0.742658
Si Si5 0.612009 0.932302 0.735032
Si Si6 0.881985 0.147989 0.066842
Si Si7 0.500000 0.305530 0.000000
Si Si8 0.500000 0.929493 0.500000
O O1 0.185645 0.561818 0.838776
O O2 0.230160 0.857728 0.725765
O O3 0.183273 0.000147 0.899779
O O4 0.325793 0.801414 0.950533
O O5 0.183740 0.081591 0.504096
O O6 0.302372 0.235835 0.707853
O O7 0.151646 0.243490 0.675427
O O8 0.886443 0.382213 0.683519
O O9 0.957514 0.247958 0.559786
O O10 0.924108 0.882877 0.685771
O O11 0.946980 0.650804 0.882792
O O12 0.570239 0.806356 0.813086
O O13 0.556283 0.085473 0.617189
O O14 0.939828 0.973735 0.034048
#
# Coordination Sequence:
#
# PCOD9127082 Si02
#       8
#     4   4   4   4   4   4   2   2
#     4  11  23  43  77 105 146 201 269 313 389 470
#     4  10  25  45  76 107 140 198 256 327 384 461
#     4  11  27  49  77 109 150 197 259 320 386 463
#     4  12  28  49  74 113 154 203 249 320 394 462
#     4  10  22  43  71 103 145 197 257 315 381 470
#     4  11  24  46  70 111 149 207 260 324 386 465
#     4  12  30  46  74 112 172 202 262 326 402 462
#     4  10  24  46  72 106 148 202 250 320 392 464
#
# _framework density 25.241814000000002
#
# number of rings (size 3 to 8) (size 9 to 14) (size 15 to 20)
#    0.000    1.143    1.429    2.571   12.000    1.143 
#    0.000    0.000    0.000    0.000    0.000    0.000 
#    0.000    0.000    0.000    0.000    0.000    0.000 
#
# Total GULP energy -78231.888561 kJ/mol
# GULP energy per Si atom -5587.992040 kJ/mol
# Density = 2.518436 g / cm^3
# Si number density = 25.241814 Si / 1000 Ang^3
#
#
#
# Elastic Constant Matrix: (Units=GPa)
#
#
# Indices 1 2 3 4 5 6 
#
# 1 100.1830 7.9815 50.4411 0.0000 -7.6558 0.0000
# 2 7.9815 67.5395 55.7516 0.0000 -10.9209 0.0000
# 3 50.4411 55.7516 232.3344 0.0000 34.3099 0.0000
# 4 0.0000 0.0000 0.0000 18.9797 0.0000 -3.3775
# 5 -7.6558 -10.9209 34.3099 0.0000 37.1475 0.0000
# 6 0.0000 0.0000 0.0000 -3.3775 0.0000 39.0277
#
#
#
# Elastic Compliance Matrix: (Units=1/GPa)
#
#
# Indices 1 2 3 4 5 6 
#
# 1 0.012808 0.003939 -0.004964 0.000000 0.008382 0.000000
# 2 0.003939 0.024617 -0.009207 0.000000 0.016552 0.000000
# 3 -0.004964 -0.009207 0.009428 0.000000 -0.012437 0.000000
# 4 0.000000 0.000000 0.000000 0.053512 0.000000 0.004631
# 5 0.008382 0.016552 -0.012437 0.000000 0.045000 0.000000
# 6 0.000000 0.000000 0.000000 0.004631 0.000000 0.026024
#
#
# Mechanical properties :
#
#
# Convention : Reuss Voigt Hill
#
# Bulk Modulus (GPa) = 37.89347 69.82283 53.85815
# Shear Modulus (GPa) = 24.91937 38.08984 31.50461
#
# Velocity S-wave (km/s) = 3.14542 3.88880 3.53670
# Velocity P-wave (km/s) = 5.31379 6.91992 6.16934
#
# Compressibility (1/GPa) = 0.02638977
#
# Stress axis : x y z
#
# Youngs Moduli (GPa) = 78.07857 40.62249 106.07033
#
# Poissons Ratio (x) = -0.16002 0.52650
# Poissons Ratio (y) = -0.30757 0.97656
# Poissons Ratio (z) = 0.38756 0.37400
#
# Static dielectric constant tensor:
#      x y z
#    x 2.090100 0.000000 0.016940 
#    y 0.000000 2.023450 0.000000 
#    z 0.016940 0.000000 2.080220 
# 
# From -- ./inp_files/45730.got.cif
#   From: 2010.05.17/outbox.cif.g08.bks.cpg/sg5_23_cif.got.tgz:45730.got - 2010.06.03 18:56:24.
