data_PCOD9127833
_publ_section_title
;
Structure prediction by ZEFSAII (Michael W. Deem and Ramdas Pophale) SiO2 
 PCOD9127833
Probable space group: C 2
;
_chemical_formula_sum "Si O2"
_cell_formula_units_Z 28
_cell_length_a 12.267827
_cell_length_b 7.144126
_cell_length_c 24.768381
_cell_angle_alpha 90.000000
_cell_angle_beta 143.274058
_cell_angle_gamma 90.000000
_cell_volume 1298.096311
_symmetry_space_group_name_H-M "C 2"
_symmetry_group_IT_number 5
_symmetry_cell_setting 'monoclinic'
loop_
_space_group_symop_operation_xyz
x,y,z
-x,y,-z
1/2+x,1/2+y,z
1/2-x,1/2+y,-z
loop_
_atom_site_type_symbol
_atom_site_label
_atom_site_fract_x
_atom_site_fract_y
_atom_site_fract_z
Si Si1 0.000291 0.634950 0.618970
Si Si2 0.500000 0.906469 0.000000
Si Si3 0.676239 0.519400 0.699170
Si Si4 0.517145 0.073886 0.893248
Si Si5 0.000000 0.662487 0.500000
Si Si6 0.767264 0.375577 0.225184
Si Si7 0.703874 0.530737 0.590124
Si Si8 0.202472 0.041303 0.087787
O O1 0.972546 0.565549 0.546660
O O2 0.183154 0.540833 0.714974
O O3 0.841983 0.588420 0.598521
O O4 0.030779 0.858604 0.630959
O O5 0.339573 0.761809 0.919487
O O6 0.551301 0.026621 0.968590
O O7 0.847074 0.452464 0.802828
O O8 0.609500 0.701124 0.705418
O O9 0.754060 0.580513 0.671518
O O10 0.433943 0.282878 0.852269
O O11 0.686082 0.030973 0.922710
O O12 0.169964 0.806486 0.574431
O O13 0.796856 0.444785 0.176166
O O14 0.500000 0.610336 0.500000
O O15 0.000000 0.958783 0.000000
#
# Coordination Sequence:
#
# PCOD9127833 Si02
#       8
#     4   2   4   4   2   4   4   4
#     4  11  20  46  69  92 135 172 217 262 333 385
#     4  10  24  38  68  96 128 172 212 270 326 368
#     4   9  22  42  63  98 132 167 216 270 318 376
#     4  10  23  43  61  98 134 160 222 273 312 386
#     4   8  22  42  64 102 126 168 220 276 310 372
#     4  10  24  41  67  98 125 175 219 260 329 382
#     4   9  20  42  66  95 135 164 214 279 309 385
#     4  10  24  41  67  94 129 173 214 266 324 388
#
# _framework density 21.570049999999998
#
# number of rings (size 3 to 8) (size 9 to 14) (size 15 to 20)
#    1.714    0.571    0.000    1.714    3.000    1.143 
#    3.857    8.571    0.000    0.000    0.000    0.000 
#    0.000    0.000    0.000    0.000    0.000    0.000 
#
# Total GULP energy -77954.520384 kJ/mol
# GULP energy per Si atom -5568.180027 kJ/mol
# Density = 2.152096 g / cm^3
# Si number density = 21.570050 Si / 1000 Ang^3
#
#
#
# Elastic Constant Matrix: (Units=GPa)
#
#
# Indices 1 2 3 4 5 6 
#
# 1 161.2753 34.7953 62.9544 0.0000 -41.6503 0.0000
# 2 34.7953 59.9590 27.6628 0.0000 -16.4974 0.0000
# 3 62.9544 27.6628 85.3902 0.0000 -45.2458 0.0000
# 4 0.0000 0.0000 0.0000 23.4255 0.0000 -10.7171
# 5 -41.6503 -16.4974 -45.2458 0.0000 42.6711 0.0000
# 6 0.0000 0.0000 0.0000 -10.7171 0.0000 19.0024
#
#
#
# Elastic Compliance Matrix: (Units=1/GPa)
#
#
# Indices 1 2 3 4 5 6 
#
# 1 0.009298 -0.002486 -0.003994 0.000000 0.003879 0.000000
# 2 -0.002486 0.020343 -0.004281 0.000000 0.000899 0.000000
# 3 -0.003994 -0.004281 0.029897 0.000000 0.026148 0.000000
# 4 0.000000 0.000000 0.000000 0.057534 0.000000 0.032448
# 5 0.003879 0.000899 0.026148 0.000000 0.055295 0.000000
# 6 0.000000 0.000000 0.000000 0.032448 0.000000 0.070926
#
#
# Mechanical properties :
#
#
# Convention : Reuss Voigt Hill
#
# Bulk Modulus (GPa) = 26.30439 61.93883 44.12161
# Shear Modulus (GPa) = 18.01888 29.10058 23.55973
#
# Velocity S-wave (km/s) = 2.89341 3.67702 3.30849
# Velocity P-wave (km/s) = 4.83567 6.84141 5.92404
#
# Compressibility (1/GPa) = 0.03801646
#
# Stress axis : x y z
#
# Youngs Moduli (GPa) = 107.55217 49.15650 33.44764
#
# Poissons Ratio (x) = 0.12218 0.13359
# Poissons Ratio (y) = 0.26733 0.14320
# Poissons Ratio (z) = 0.42957 0.21046
#
# Static dielectric constant tensor:
#      x y z
#    x 1.764750 0.000000 0.010220 
#    y 0.000000 1.841020 0.000000 
#    z 0.010220 0.000000 1.819090 
# 
# From -- ./inp_files/68206.got.cif
#   From: 2010.05.17/outbox.cif.g08.bks.cpg/sg5_35_cif.got.tgz:68206.got - 2010.06.03 18:56:24.
