data_PCOD9127337
_publ_section_title
;
Structure prediction by ZEFSAII (Michael W. Deem and Ramdas Pophale) SiO2 
 PCOD9127337
Probable space group: C 2
;
_chemical_formula_sum "Si O2"
_cell_formula_units_Z 16
_cell_length_a 5.123050
_cell_length_b 24.336745
_cell_length_c 5.424527
_cell_angle_alpha 90.000000
_cell_angle_beta 83.806033
_cell_angle_gamma 90.000000
_cell_volume 672.372999
_symmetry_space_group_name_H-M "C 2"
_symmetry_group_IT_number 5
_symmetry_cell_setting 'monoclinic'
loop_
_space_group_symop_operation_xyz
x,y,z
-x,y,-z
1/2+x,1/2+y,z
1/2-x,1/2+y,-z
loop_
_atom_site_type_symbol
_atom_site_label
_atom_site_fract_x
_atom_site_fract_y
_atom_site_fract_z
Si Si1 0.269420 0.720450 0.322305
Si Si2 0.726961 0.836861 0.668227
Si Si3 0.500000 0.936122 0.000000
Si Si4 0.833514 0.600608 0.770580
Si Si5 0.000000 0.014909 0.000000
O O1 0.500000 0.714164 0.500000
O O2 0.264030 0.779317 0.181558
O O3 0.255502 0.663507 0.179810
O O4 0.000000 0.723292 0.500000
O O5 0.500000 0.823952 0.500000
O O6 0.630450 0.892680 0.799546
O O7 0.000000 0.845822 0.500000
O O8 0.747390 0.975115 0.029322
O O9 0.000000 0.597273 0.500000
O O10 0.587444 0.558954 0.782100
O O11 0.000000 0.585772 0.000000
#
# Coordination Sequence:
#
# PCOD9127337 Si02
#       5
#     4   4   2   4   2
#     4   9  21  42  72 108 146 184 236 296 376 440
#     4  10  22  45  70 104 143 183 234 301 360 434
#     4  12  26  47  68 107 132 200 244 294 360 428
#     4  11  27  51  76 111 151 193 244 308 370 438
#     4  12  28  47  68 105 144 198 254 298 360 430
#
# _framework density 23.796317999999999
#
# number of rings (size 3 to 8) (size 9 to 14) (size 15 to 20)
#    0.000    1.500    1.250    1.500    7.000    4.000 
#   20.250    0.000    0.000    0.000    0.000    0.000 
#    0.000    0.000    0.000    0.000    0.000    0.000 
#
# Total GULP energy -44590.283246 kJ/mol
# GULP energy per Si atom -5573.785406 kJ/mol
# Density = 2.374216 g / cm^3
# Si number density = 23.796318 Si / 1000 Ang^3
#
#
#
# Elastic Constant Matrix: (Units=GPa)
#
#
# Indices 1 2 3 4 5 6 
#
# 1 180.7620 46.1112 45.3249 0.0000 -37.1257 0.0000
# 2 46.1112 232.2534 33.6973 0.0000 -19.8301 0.0000
# 3 45.3249 33.6973 88.8393 0.0000 -30.1848 0.0000
# 4 0.0000 0.0000 0.0000 36.3989 0.0000 -14.7694
# 5 -37.1257 -19.8301 -30.1848 0.0000 51.2848 0.0000
# 6 0.0000 0.0000 0.0000 -14.7694 0.0000 53.0256
#
#
#
# Elastic Compliance Matrix: (Units=1/GPa)
#
#
# Indices 1 2 3 4 5 6 
#
# 1 0.006974 -0.000784 -0.002060 0.000000 0.003533 0.000000
# 2 -0.000784 0.004680 -0.001191 0.000000 0.000541 0.000000
# 3 -0.002060 -0.001191 0.015120 0.000000 0.006947 0.000000
# 4 0.000000 0.000000 0.000000 0.030974 0.000000 0.008627
# 5 0.003533 0.000541 0.006947 0.000000 0.026354 0.000000
# 6 0.000000 0.000000 0.000000 0.008627 0.000000 0.021262
#
#
# Mechanical properties :
#
#
# Convention : Reuss Voigt Hill
#
# Bulk Modulus (GPa) = 53.46915 83.56907 68.51911
# Shear Modulus (GPa) = 41.78127 53.25662 47.51894
#
# Velocity S-wave (km/s) = 4.19476 4.73590 4.47352
# Velocity P-wave (km/s) = 6.78083 8.06844 7.45250
#
# Compressibility (1/GPa) = 0.01870237
#
# Stress axis : x y z
#
# Youngs Moduli (GPa) = 143.38121 213.65854 66.13874
#
# Poissons Ratio (x) = 0.16753 0.13628
# Poissons Ratio (y) = 0.11242 0.07880
# Poissons Ratio (z) = 0.29544 0.25457
#
# Static dielectric constant tensor:
#      x y z
#    x 1.922230 0.000000 -0.016940 
#    y 0.000000 2.034160 0.000000 
#    z -0.016940 0.000000 1.953660 
# 
# From -- ./inp_files/848.got.cif
#   From: 2010.05.17/outbox.cif.g08.bks.cpg/sg5_1_cif.got.tgz:848.got - 2010.06.03 18:56:24.
