data_PCOD9127691
_publ_section_title
;
Structure prediction by ZEFSAII (Michael W. Deem and Ramdas Pophale) SiO2 
 PCOD9127691
Probable space group: C 2
;
_chemical_formula_sum "Si O2"
_cell_formula_units_Z 28
_cell_length_a 15.555900
_cell_length_b 8.789357
_cell_length_c 12.326167
_cell_angle_alpha 90.000000
_cell_angle_beta 56.710393
_cell_angle_gamma 90.000000
_cell_volume 1408.763931
_symmetry_space_group_name_H-M "C 2"
_symmetry_group_IT_number 5
_symmetry_cell_setting 'monoclinic'
loop_
_space_group_symop_operation_xyz
x,y,z
-x,y,-z
1/2+x,1/2+y,z
1/2-x,1/2+y,-z
loop_
_atom_site_type_symbol
_atom_site_label
_atom_site_fract_x
_atom_site_fract_y
_atom_site_fract_z
Si Si1 0.000000 0.400520 0.500000
Si Si2 0.513022 0.212229 0.147676
Si Si3 0.000000 0.278102 0.000000
Si Si4 0.322550 0.464302 0.499581
Si Si5 0.352299 0.057897 0.095480
Si Si6 0.877647 0.621997 0.431826
Si Si7 0.881046 0.121633 0.677262
Si Si8 0.519650 0.546830 0.787282
O O1 0.922093 0.508006 0.489258
O O2 0.926999 0.288796 0.621051
O O3 0.424059 0.144046 0.132906
O O4 0.475661 0.172744 0.293167
O O5 0.514153 0.391432 0.132012
O O6 0.617740 0.132605 0.040213
O O7 0.100766 0.387546 0.938905
O O8 0.014041 0.178598 0.880896
O O9 0.207551 0.530337 0.577902
O O10 0.327972 0.281821 0.503422
O O11 0.384121 0.535073 0.558628
O O12 0.371886 0.516864 0.349912
O O13 0.236492 0.093550 0.206105
O O14 0.945556 0.067045 0.735588
#
# Coordination Sequence:
#
# PCOD9127691 Si02
#       8
#     2   4   2   4   4   4   4   4
#     4  12  28  42  66 102 136 172 218 292 330 404
#     4   9  21  43  66  87 133 169 226 262 332 388
#     4  10  24  44  68  96 130 180 232 264 336 396
#     4  11  24  44  70 101 132 179 220 273 341 403
#     4  10  23  41  67  92 127 178 221 277 323 405
#     4  11  25  42  71  97 133 175 224 274 337 398
#     4  12  25  42  67  99 141 167 224 277 340 386
#     4  11  24  42  67  97 134 174 220 284 321 398
#
# _framework density 19.875581
#
# number of rings (size 3 to 8) (size 9 to 14) (size 15 to 20)
#    0.000    1.429    2.857    1.714   12.000    1.143 
#    0.000    0.000    0.000    0.000    0.000    0.000 
#    0.000    0.000    0.000    0.000    0.000    0.000 
#
# Total GULP energy -78078.441003 kJ/mol
# GULP energy per Si atom -5577.031500 kJ/mol
# Density = 1.983034 g / cm^3
# Si number density = 19.875581 Si / 1000 Ang^3
#
#
#
# Elastic Constant Matrix: (Units=GPa)
#
#
# Indices 1 2 3 4 5 6 
#
# 1 75.8978 45.3952 28.2006 0.0000 -4.5481 0.0000
# 2 45.3952 158.7050 57.4598 0.0000 0.8825 0.0000
# 3 28.2006 57.4598 84.0867 0.0000 -12.0210 0.0000
# 4 0.0000 0.0000 0.0000 39.2294 0.0000 5.8834
# 5 -4.5481 0.8825 -12.0210 0.0000 37.3217 0.0000
# 6 0.0000 0.0000 0.0000 5.8834 0.0000 8.9648
#
#
#
# Elastic Compliance Matrix: (Units=1/GPa)
#
#
# Indices 1 2 3 4 5 6 
#
# 1 0.016516 -0.003703 -0.002839 0.000000 0.001186 0.000000
# 2 -0.003703 0.009369 -0.005510 0.000000 -0.002448 0.000000
# 3 -0.002839 -0.005510 0.017379 0.000000 0.005382 0.000000
# 4 0.000000 0.000000 0.000000 0.028274 0.000000 -0.018556
# 5 0.001186 -0.002448 0.005382 0.000000 0.028730 0.000000
# 6 0.000000 0.000000 0.000000 -0.018556 0.000000 0.123725
#
#
# Mechanical properties :
#
#
# Convention : Reuss Voigt Hill
#
# Bulk Modulus (GPa) = 52.19228 64.53341 58.36284
# Shear Modulus (GPa) = 19.64755 29.61209 24.62982
#
# Velocity S-wave (km/s) = 3.14750 3.86407 3.52405
# Velocity P-wave (km/s) = 6.28693 7.24205 6.78133
#
# Compressibility (1/GPa) = 0.01915992
#
# Stress axis : x y z
#
# Youngs Moduli (GPa) = 60.54602 106.73848 57.53940
#
# Poissons Ratio (x) = 0.39524 0.16338
# Poissons Ratio (y) = 0.22419 0.31705
# Poissons Ratio (z) = 0.17191 0.58813
#
# Static dielectric constant tensor:
#      x y z
#    x 1.727670 0.000000 -0.004170 
#    y 0.000000 1.711930 0.000000 
#    z -0.004170 0.000000 1.787990 
# 
# From -- ./inp_files/41732.got.cif
#   From: 2010.05.17/outbox.cif.g08.bks.cpg/sg5_21_cif.got.tgz:41732.got - 2010.06.03 18:56:24.
