data_PCOD9127595
_publ_section_title
;
Structure prediction by ZEFSAII (Michael W. Deem and Ramdas Pophale) SiO2 
 PCOD9127595
Probable space group: C 2
;
_chemical_formula_sum "Si O2"
_cell_formula_units_Z 30
_cell_length_a 23.459696
_cell_length_b 5.270009
_cell_length_c 13.710209
_cell_angle_alpha 90.000000
_cell_angle_beta 62.811210
_cell_angle_gamma 90.000000
_cell_volume 1507.740465
_symmetry_space_group_name_H-M "C 2"
_symmetry_group_IT_number 5
_symmetry_cell_setting 'monoclinic'
loop_
_space_group_symop_operation_xyz
x,y,z
-x,y,-z
1/2+x,1/2+y,z
1/2-x,1/2+y,-z
loop_
_atom_site_type_symbol
_atom_site_label
_atom_site_fract_x
_atom_site_fract_y
_atom_site_fract_z
Si Si1 0.226467 0.222330 0.068565
Si Si2 0.605646 0.695308 0.429035
Si Si3 0.891559 0.507790 0.761237
Si Si4 0.297801 0.380026 0.749093
Si Si5 0.738243 0.576429 0.638592
Si Si6 0.500000 0.343563 0.500000
Si Si7 0.170760 0.577355 0.615913
Si Si8 0.039616 0.490620 0.642396
O O1 0.153791 0.321034 0.141859
O O2 0.243439 0.080040 0.156903
O O3 0.263032 0.486272 0.014424
O O4 0.670200 0.535874 0.366152
O O5 0.553322 0.524117 0.415311
O O6 0.609736 0.929370 0.352510
O O7 0.575285 0.755242 0.558022
O O8 0.851699 0.770426 0.781982
O O9 0.965794 0.480405 0.735506
O O10 0.260398 0.147800 0.729777
O O11 0.799806 0.578612 0.517397
O O12 0.701973 0.313893 0.647650
O O13 0.693740 0.810817 0.641226
O O14 0.531698 0.181902 0.558706
O O15 0.093952 0.589143 0.672226
#
# Coordination Sequence:
#
# PCOD9127595 Si02
#       8
#     4   4   4   4   4   2   4   4
#     4  11  24  43  62  93 128 153 198 266 337 385
#     4  11  20  30  52  85 123 169 203 241 294 367
#     4  11  21  36  59  92 121 160 195 256 317 388
#     4  11  23  38  66  86 124 162 217 254 309 380
#     4  10  23  40  54  84 117 181 219 245 283 339
#     4  12  18  30  48  76 128 164 208 238 288 362
#     4  10  24  37  56  78 132 173 215 250 277 340
#     4  12  22  35  51  90 128 173 207 251 304 365
#
# _framework density 19.897324000000001
#
# number of rings (size 3 to 8) (size 9 to 14) (size 15 to 20)
#    0.000    1.067    5.333    1.600   11.200    0.000 
#    0.000    0.000    0.000    0.000    0.000    0.933 
#    8.000    0.000    0.000    0.000    0.000    0.000 
#
# Total GULP energy -83573.736062 kJ/mol
# GULP energy per Si atom -5571.582404 kJ/mol
# Density = 1.985204 g / cm^3
# Si number density = 19.897324 Si / 1000 Ang^3
#
#
#
# Elastic Constant Matrix: (Units=GPa)
#
#
# Indices 1 2 3 4 5 6 
#
# 1 117.9424 34.7994 35.4553 0.0000 -20.9798 0.0002
# 2 34.7994 112.6087 36.9988 -0.0005 -12.6900 -0.0001
# 3 35.4553 36.9988 80.4043 0.0001 -21.2012 0.0001
# 4 0.0000 -0.0005 0.0001 40.3049 0.0000 -2.0412
# 5 -20.9798 -12.6900 -21.2012 0.0000 19.5081 0.0000
# 6 0.0002 -0.0001 0.0001 -2.0412 0.0000 26.0124
#
#
#
# Elastic Compliance Matrix: (Units=1/GPa)
#
#
# Indices 1 2 3 4 5 6 
#
# 1 0.011126 -0.001878 -0.001695 0.000000 0.008902 0.000000
# 2 -0.001878 0.010847 -0.003974 0.000000 0.000717 0.000000
# 3 -0.001695 -0.003974 0.019414 0.000000 0.016692 0.000000
# 4 0.000000 0.000000 0.000000 0.024910 0.000000 0.001955
# 5 0.008902 0.000717 0.016692 0.000000 0.079441 0.000000
# 6 0.000000 0.000000 0.000000 0.001955 0.000000 0.038597
#
#
# Mechanical properties :
#
#
# Convention : Reuss Voigt Hill
#
# Bulk Modulus (GPa) = 38.03207 58.38471 48.20839
# Shear Modulus (GPa) = 24.01614 30.74520 27.38067
#
# Velocity S-wave (km/s) = 3.47796 3.93516 3.71360
# Velocity P-wave (km/s) = 5.94003 7.07488 6.53215
#
# Compressibility (1/GPa) = 0.02629360
#
# Stress axis : x y z
#
# Youngs Moduli (GPa) = 89.88159 92.18866 51.50799
#
# Poissons Ratio (x) = 0.17316 0.08728
# Poissons Ratio (y) = 0.16882 0.20470
# Poissons Ratio (z) = 0.15231 0.36637
#
# Static dielectric constant tensor:
#      x y z
#    x 1.745380 0.000000 -0.024240 
#    y 0.000000 1.811180 0.000000 
#    z -0.024240 0.000000 1.754870 
# 
# From -- ./inp_files/57388.got.cif
#   From: 2010.05.17/outbox.cif.g08.bks.cpg/sg5_29_cif.got.tgz:57388.got - 2010.06.03 18:56:24.
