data_PCOD9127724
_publ_section_title
;
Structure prediction by ZEFSAII (Michael W. Deem and Ramdas Pophale) SiO2 
 PCOD9127724
Probable space group: C 2
;
_chemical_formula_sum "Si O2"
_cell_formula_units_Z 28
_cell_length_a 20.684976
_cell_length_b 11.863487
_cell_length_c 8.745448
_cell_angle_alpha 90.000000
_cell_angle_beta 35.032916
_cell_angle_gamma 90.000000
_cell_volume 1231.960680
_symmetry_space_group_name_H-M "C 2"
_symmetry_group_IT_number 5
_symmetry_cell_setting 'monoclinic'
loop_
_space_group_symop_operation_xyz
x,y,z
-x,y,-z
1/2+x,1/2+y,z
1/2-x,1/2+y,-z
loop_
_atom_site_type_symbol
_atom_site_label
_atom_site_fract_x
_atom_site_fract_y
_atom_site_fract_z
Si Si1 0.906354 0.558290 0.095981
Si Si2 0.752705 0.919637 0.768461
Si Si3 0.226568 0.124039 0.047049
Si Si4 0.430640 0.041041 0.488835
Si Si5 0.374056 0.298743 0.281414
Si Si6 0.948992 0.248918 0.767311
Si Si7 0.320785 0.807359 0.596688
O O1 0.971457 0.585612 0.812819
O O2 0.790319 0.502875 0.281071
O O3 0.884125 0.663645 0.246997
O O4 0.000000 0.482690 0.000000
O O5 0.842614 0.842626 0.509746
O O6 0.782763 0.003992 0.847628
O O7 0.642873 0.843875 0.016254
O O8 0.125123 0.138570 0.122490
O O9 0.224998 0.226382 0.175690
O O10 0.340623 0.127978 0.729314
O O11 0.500000 0.001218 0.500000
O O12 0.359697 0.933964 0.565424
O O13 0.273355 0.318527 0.352653
O O14 0.500000 0.342371 0.000000
O O15 0.000000 0.268820 0.500000
O O16 0.056203 0.248736 0.671790
#
# Coordination Sequence:
#
# PCOD9127724 Si02
#       7
#     4   4   4   4   4   4   4
#     4  11  24  44  70 100 136 194 254 293 356 437
#     4  12  23  45  73 101 147 189 238 313 357 437
#     4  11  22  39  69 109 137 178 234 306 371 415
#     4  12  21  41  75 105 139 189 250 308 351 430
#     4  11  27  47  66 101 148 194 246 292 369 445
#     4  10  23  41  70 104 137 180 243 303 362 432
#     4  11  21  46  67 102 145 181 249 303 355 448
#
# _framework density 22.727996999999998
#
# number of rings (size 3 to 8) (size 9 to 14) (size 15 to 20)
#    0.000    0.857    4.286    3.857    4.000    0.000 
#    7.714    0.000    0.000    0.000    0.000    0.000 
#    0.000    0.000    0.000    0.000    0.000    0.000 
#
# Total GULP energy -78031.815882 kJ/mol
# GULP energy per Si atom -5573.701134 kJ/mol
# Density = 2.267627 g / cm^3
# Si number density = 22.727997 Si / 1000 Ang^3
#
#
#
# Elastic Constant Matrix: (Units=GPa)
#
#
# Indices 1 2 3 4 5 6 
#
# 1 118.9617 17.5424 -9.6391 0.0000 -32.6409 0.0000
# 2 17.5424 73.9366 34.7236 0.0000 -2.2678 0.0000
# 3 -9.6391 34.7236 105.7848 0.0000 -8.5530 0.0000
# 4 0.0000 0.0000 0.0000 39.0745 0.0000 -3.0355
# 5 -32.6409 -2.2678 -8.5530 0.0000 36.0020 0.0000
# 6 0.0000 0.0000 0.0000 -3.0355 0.0000 35.1953
#
#
#
# Elastic Compliance Matrix: (Units=1/GPa)
#
#
# Indices 1 2 3 4 5 6 
#
# 1 0.012618 -0.004281 0.003526 0.000000 0.012008 0.000000
# 2 -0.004281 0.017445 -0.006466 0.000000 -0.004319 0.000000
# 3 0.003526 -0.006466 0.012360 0.000000 0.005726 0.000000
# 4 0.000000 0.000000 0.000000 0.025765 0.000000 0.002222
# 5 0.012008 -0.004319 0.005726 0.000000 0.039751 0.000000
# 6 0.000000 0.000000 0.000000 0.002222 0.000000 0.028605
#
#
# Mechanical properties :
#
#
# Convention : Reuss Voigt Hill
#
# Bulk Modulus (GPa) = 35.73920 42.65967 39.19943
# Shear Modulus (GPa) = 31.18923 39.12476 35.15699
#
# Velocity S-wave (km/s) = 3.70845 4.15352 3.93728
# Velocity P-wave (km/s) = 5.83915 6.46627 6.16070
#
# Compressibility (1/GPa) = 0.02798048
#
# Stress axis : x y z
#
# Youngs Moduli (GPa) = 79.25305 57.32325 80.90818
#
# Poissons Ratio (x) = 0.24542 -0.28528
# Poissons Ratio (y) = 0.33931 0.52312
# Poissons Ratio (z) = -0.27944 0.37063
#
# Static dielectric constant tensor:
#      x y z
#    x 1.950370 0.000000 0.001030 
#    y 0.000000 1.937210 0.000000 
#    z 0.001030 0.000000 1.886870 
# 
# From -- ./inp_files/29569.got.cif
#   From: 2010.05.17/outbox.cif.g08.bks.cpg/sg5_15_cif.got.tgz:29569.got - 2010.06.03 18:56:24.
