data_PCOD9127209
_publ_section_title
;
Structure prediction by ZEFSAII (Michael W. Deem and Ramdas Pophale) SiO2 
 PCOD9127209
Probable space group: C 2
;
_chemical_formula_sum "Si O2"
_cell_formula_units_Z 30
_cell_length_a 15.166373
_cell_length_b 4.912254
_cell_length_c 17.379292
_cell_angle_alpha 90.000000
_cell_angle_beta 95.480353
_cell_angle_gamma 90.000000
_cell_volume 1288.857548
_symmetry_space_group_name_H-M "C 2"
_symmetry_group_IT_number 5
_symmetry_cell_setting 'monoclinic'
loop_
_space_group_symop_operation_xyz
x,y,z
-x,y,-z
1/2+x,1/2+y,z
1/2-x,1/2+y,-z
loop_
_atom_site_type_symbol
_atom_site_label
_atom_site_fract_x
_atom_site_fract_y
_atom_site_fract_z
Si Si1 0.121576 0.405010 0.657701
Si Si2 0.997131 0.901501 0.837516
Si Si3 0.694113 0.965103 0.968117
Si Si4 0.000000 0.673793 0.000000
Si Si5 0.275220 0.123765 0.452462
Si Si6 0.042344 0.384918 0.262204
Si Si7 0.723740 0.973084 0.309454
Si Si8 0.322467 0.268929 0.191059
O O1 0.129600 0.539386 0.574465
O O2 0.196920 0.174380 0.663385
O O3 0.145892 0.614750 0.728477
O O4 0.026767 0.303855 0.677319
O O5 0.100366 0.974702 0.829721
O O6 0.993069 0.597156 0.803638
O O7 0.938669 0.112008 0.784829
O O8 0.979824 0.867072 0.925460
O O9 0.591709 0.008384 0.988593
O O10 0.762319 0.169510 0.017845
O O11 0.695927 0.068339 0.880191
O O12 0.272126 0.371178 0.511283
O O13 0.228049 0.225940 0.370601
O O14 0.122280 0.551120 0.306768
O O15 0.737764 0.917297 0.219593
#
# Coordination Sequence:
#
# PCOD9127209 Si02
#       8
#     4   4   4   2   4   4   4   4
#     4  10  22  44  69  95 133 176 210 275 326 396
#     4  10  23  42  61  93 131 176 219 286 330 391
#     4  11  27  42  64  95 133 179 233 283 350 404
#     4  10  26  44  64  92 140 182 226 288 356 392
#     4  11  23  43  72  97 131 171 206 256 333 398
#     4  11  25  39  67  99 129 166 232 268 324 389
#     4  11  23  40  73  96 129 172 218 268 325 396
#     4   9  22  40  63  93 129 171 225 273 329 396
#
# _framework density 23.276426000000001
#
# number of rings (size 3 to 8) (size 9 to 14) (size 15 to 20)
#    0.000    1.600    2.667    0.000    9.333    4.267 
#    0.000    0.667    5.867    0.000    0.000    0.000 
#    0.000    0.000    0.000    0.000    0.000    0.000 
#
# Total GULP energy -83680.990264 kJ/mol
# GULP energy per Si atom -5578.732684 kJ/mol
# Density = 2.322345 g / cm^3
# Si number density = 23.276426 Si / 1000 Ang^3
#
#
#
# Elastic Constant Matrix: (Units=GPa)
#
#
# Indices 1 2 3 4 5 6 
#
# 1 92.1406 11.6148 27.9339 0.0000 -11.9169 0.0000
# 2 11.6148 86.0517 18.7344 0.0000 -13.0840 0.0000
# 3 27.9339 18.7344 113.0899 0.0000 -43.7539 0.0000
# 4 0.0000 0.0000 0.0000 24.9545 0.0000 4.5547
# 5 -11.9169 -13.0840 -43.7539 0.0000 22.3915 0.0000
# 6 0.0000 0.0000 0.0000 4.5547 0.0000 21.4697
#
#
#
# Elastic Compliance Matrix: (Units=1/GPa)
#
#
# Indices 1 2 3 4 5 6 
#
# 1 0.011824 -0.000894 -0.002213 0.000000 0.001446 0.000000
# 2 -0.000894 0.013103 0.003395 0.000000 0.013815 0.000000
# 3 -0.002213 0.003395 0.037454 0.000000 0.073994 0.000000
# 4 0.000000 0.000000 0.000000 0.041687 0.000000 -0.008844
# 5 0.001446 0.013815 0.073994 0.000000 0.198088 0.000000
# 6 0.000000 0.000000 0.000000 -0.008844 0.000000 0.048454
#
#
# Mechanical properties :
#
#
# Convention : Reuss Voigt Hill
#
# Bulk Modulus (GPa) = 15.88399 45.31650 30.60024
# Shear Modulus (GPa) = 13.47639 29.29641 21.38640
#
# Velocity S-wave (km/s) = 2.40879 3.55157 3.03446
# Velocity P-wave (km/s) = 3.81776 6.02738 5.04502
#
# Compressibility (1/GPa) = 0.06295647
#
# Stress axis : x y z
#
# Youngs Moduli (GPa) = 84.57667 76.31861 26.69907
#
# Poissons Ratio (x) = 0.06825 0.05909
# Poissons Ratio (y) = 0.07563 -0.09064
# Poissons Ratio (z) = 0.18717 -0.25911
#
# Static dielectric constant tensor:
#      x y z
#    x 2.053100 0.000000 -0.018360 
#    y 0.000000 1.953580 0.000000 
#    z -0.018360 0.000000 1.864030 
# 
# From -- ./inp_files/61112.got.cif
#   From: 2010.05.17/outbox.cif.g08.bks.cpg/sg5_31_cif.got.tgz:61112.got - 2010.06.03 18:56:24.
