data_PCOD9127327
_publ_section_title
;
Structure prediction by ZEFSAII (Michael W. Deem and Ramdas Pophale) SiO2 
 PCOD9127327
Probable space group: C 2
;
_chemical_formula_sum "Si O2"
_cell_formula_units_Z 24
_cell_length_a 13.665249
_cell_length_b 5.233601
_cell_length_c 23.601421
_cell_angle_alpha 90.000000
_cell_angle_beta 32.645562
_cell_angle_gamma 90.000000
_cell_volume 910.541808
_symmetry_space_group_name_H-M "C 2"
_symmetry_group_IT_number 5
_symmetry_cell_setting 'monoclinic'
loop_
_space_group_symop_operation_xyz
x,y,z
-x,y,-z
1/2+x,1/2+y,z
1/2-x,1/2+y,-z
loop_
_atom_site_type_symbol
_atom_site_label
_atom_site_fract_x
_atom_site_fract_y
_atom_site_fract_z
Si Si1 0.514355 0.225210 0.112204
Si Si2 0.000000 0.935342 0.000000
Si Si3 0.309419 0.833323 0.167956
Si Si4 0.624854 0.941585 0.663344
Si Si5 0.390449 0.961094 0.669262
Si Si6 0.000000 0.687259 0.500000
Si Si7 0.439438 0.464847 0.798063
O O1 0.577376 0.308414 0.019200
O O2 0.302694 0.313750 0.229370
O O3 0.616851 0.353896 0.113715
O O4 0.483319 0.925796 0.117141
O O5 0.851444 0.111201 0.102937
O O6 0.162726 0.745997 0.284082
O O7 0.224632 0.029186 0.164963
O O8 0.539952 0.879343 0.642575
O O9 0.547632 0.728715 0.744691
O O10 0.835900 0.874131 0.561909
O O11 0.559240 0.226965 0.713306
O O12 0.454679 0.999713 0.574551
#
# Coordination Sequence:
#
# PCOD9127327 Si02
#       7
#     4   2   4   4   4   2   4
#     4  11  21  44  71  95 141 184 228 293 354 423
#     4  10  24  42  66 104 132 176 236 290 358 420
#     4  10  22  45  68  98 142 184 229 300 351 424
#     4  11  25  46  68 106 138 188 238 297 347 427
#     4  10  23  43  69  97 144 184 236 288 358 417
#     4  12  24  46  72 108 144 190 246 298 362 422
#     4  11  24  45  75  98 140 188 237 281 367 423
#
# _framework density 26.357931000000001
#
# number of rings (size 3 to 8) (size 9 to 14) (size 15 to 20)
#    0.000    1.333    3.333    1.500    2.333    3.333 
#   12.000    0.000    0.000    0.000    0.000    0.000 
#    0.000    0.000    0.000    0.000    0.000    0.000 
#
# Total GULP energy -67027.682280 kJ/mol
# GULP energy per Si atom -5585.640190 kJ/mol
# Density = 2.629794 g / cm^3
# Si number density = 26.357931 Si / 1000 Ang^3
#
#
#
# Elastic Constant Matrix: (Units=GPa)
#
#
# Indices 1 2 3 4 5 6 
#
# 1 152.2714 20.3569 61.0668 0.0075 25.2051 0.0071
# 2 20.3569 79.8848 24.7054 0.0064 14.3231 0.0865
# 3 61.0668 24.7054 154.4216 0.0090 46.0186 -0.0139
# 4 0.0075 0.0064 0.0090 26.2710 -0.0146 2.8086
# 5 25.2051 14.3231 46.0186 -0.0146 59.5266 -0.0009
# 6 0.0071 0.0865 -0.0139 2.8086 -0.0009 40.6204
#
#
#
# Elastic Compliance Matrix: (Units=1/GPa)
#
#
# Indices 1 2 3 4 5 6 
#
# 1 0.007947 -0.001011 -0.002664 -0.000002 -0.001062 0.000000
# 2 -0.001011 0.013484 -0.001193 -0.000001 -0.001894 -0.000029
# 3 -0.002664 -0.001193 0.009483 -0.000006 -0.005916 0.000007
# 4 -0.000002 -0.000001 -0.000006 0.038348 0.000015 -0.002652
# 5 -0.001062 -0.001894 -0.005916 0.000015 0.022278 0.000002
# 6 0.000000 -0.000029 0.000007 -0.002652 0.000002 0.024802
#
#
# Mechanical properties :
#
#
# Convention : Reuss Voigt Hill
#
# Bulk Modulus (GPa) = 47.21923 66.53733 56.87828
# Shear Modulus (GPa) = 37.55503 43.98017 40.76760
#
# Velocity S-wave (km/s) = 3.77876 4.08925 3.93707
# Velocity P-wave (km/s) = 6.08212 6.89888 6.50334
#
# Compressibility (1/GPa) = 0.02117781
#
# Stress axis : x y z
#
# Youngs Moduli (GPa) = 125.83953 74.16076 105.44797
#
# Poissons Ratio (x) = 0.07495 0.28096
# Poissons Ratio (y) = 0.12718 0.12581
# Poissons Ratio (z) = 0.33529 0.08848
#
# Static dielectric constant tensor:
#      x y z
#    x 2.120650 -0.000110 -0.048380 
#    y -0.000110 2.242040 0.000000 
#    z -0.048380 0.000000 2.055300 
# 
# From -- ./inp_files/53700.got.cif
#   From: 2010.05.17/outbox.cif.g08.bks.cpg/sg5_27_cif.got.tgz:53700.got - 2010.06.03 18:56:24.
