data_PCOD9127170
_publ_section_title
;
Structure prediction by ZEFSAII (Michael W. Deem and Ramdas Pophale) SiO2 
 PCOD9127170
Probable space group: C 2
;
_chemical_formula_sum "Si O2"
_cell_formula_units_Z 28
_cell_length_a 16.382790
_cell_length_b 10.314483
_cell_length_c 19.899368
_cell_angle_alpha 90.000000
_cell_angle_beta 20.384683
_cell_angle_gamma 90.000000
_cell_volume 1171.264164
_symmetry_space_group_name_H-M "C 2"
_symmetry_group_IT_number 5
_symmetry_cell_setting 'monoclinic'
loop_
_space_group_symop_operation_xyz
x,y,z
-x,y,-z
1/2+x,1/2+y,z
1/2-x,1/2+y,-z
loop_
_atom_site_type_symbol
_atom_site_label
_atom_site_fract_x
_atom_site_fract_y
_atom_site_fract_z
Si Si1 0.226895 0.014610 0.276041
Si Si2 0.991171 0.774077 0.118457
Si Si3 0.355265 0.016424 0.432710
Si Si4 0.368487 0.262239 0.360311
Si Si5 0.786553 0.410504 0.083399
Si Si6 0.579708 0.621183 0.153829
Si Si7 0.392619 0.551831 0.018974
O O1 0.355604 0.154483 0.187567
O O2 0.000000 0.004879 0.500000
O O3 0.194647 0.987883 0.220935
O O4 0.433294 0.909726 0.132319
O O5 0.861697 0.802484 0.288436
O O6 0.254194 0.729994 0.939953
O O7 0.997033 0.907742 0.074527
O O8 0.325790 0.108814 0.390809
O O9 0.178304 0.094818 0.618033
O O10 0.290128 0.866570 0.479113
O O11 0.623498 0.025381 0.243753
O O12 0.617454 0.288337 0.204723
O O13 0.720641 0.493469 0.068570
O O14 0.566989 0.618975 0.083919
O O15 0.500000 0.623580 0.000000
#
# Coordination Sequence:
#
# PCOD9127170 Si02
#       7
#     4   4   4   4   4   4   4
#     4  10  23  40  69 103 143 180 239 294 363 414
#     4  11  23  44  72 105 143 186 242 313 352 427
#     4  11  24  46  74 107 139 199 242 297 358 447
#     4  11  23  44  79 103 145 187 252 295 363 428
#     4   9  21  42  63 102 143 175 234 302 350 420
#     4  10  22  44  67  96 139 186 246 285 354 434
#     4  12  26  43  68 105 149 187 229 304 378 421
#
# _framework density 23.905795000000001
#
# number of rings (size 3 to 8) (size 9 to 14) (size 15 to 20)
#    0.000    1.429    4.286    0.857    8.000    1.714 
#    5.143    0.000    0.000    0.000    0.000    0.000 
#    0.000    0.000    0.000    0.000    0.000    0.000 
#
# Total GULP energy -78104.664494 kJ/mol
# GULP energy per Si atom -5578.904607 kJ/mol
# Density = 2.385138 g / cm^3
# Si number density = 23.905795 Si / 1000 Ang^3
#
#
#
# Elastic Constant Matrix: (Units=GPa)
#
#
# Indices 1 2 3 4 5 6 
#
# 1 89.9951 -2.6687 -5.7366 -0.0348 19.1585 0.0031
# 2 -2.6687 84.7825 -6.1089 -0.1413 9.6021 0.0182
# 3 -5.7366 -6.1089 102.0710 -0.1119 -1.2920 0.0135
# 4 -0.0348 -0.1413 -0.1119 26.8128 0.0507 -2.2830
# 5 19.1585 9.6021 -1.2920 0.0507 17.6371 -0.0071
# 6 0.0031 0.0182 0.0135 -2.2830 -0.0071 29.5925
#
#
#
# Elastic Compliance Matrix: (Units=1/GPa)
#
#
# Indices 1 2 3 4 5 6 
#
# 1 0.014979 0.002519 0.000770 0.000069 -0.017587 -0.000002
# 2 0.002519 0.013039 0.000798 0.000093 -0.009777 -0.000004
# 3 0.000770 0.000798 0.009881 0.000047 -0.000547 -0.000002
# 4 0.000069 0.000093 0.000047 0.037543 -0.000229 0.002896
# 5 -0.017587 -0.009777 -0.000547 -0.000229 0.081085 0.000010
# 6 -0.000002 -0.000004 -0.000002 0.002896 0.000010 0.034016
#
#
# Mechanical properties :
#
#
# Convention : Reuss Voigt Hill
#
# Bulk Modulus (GPa) = 21.70400 27.53558 24.61979
# Shear Modulus (GPa) = 25.28723 34.23266 29.75995
#
# Velocity S-wave (km/s) = 3.25589 3.78826 3.53212
# Velocity P-wave (km/s) = 4.82008 5.53876 5.19187
#
# Compressibility (1/GPa) = 0.04607445
#
# Stress axis : x y z
#
# Youngs Moduli (GPa) = 66.75812 76.69231 101.20139
#
# Poissons Ratio (x) = -0.19318 -0.07794
# Poissons Ratio (y) = -0.16816 -0.08079
# Poissons Ratio (z) = -0.05141 -0.06122
#
# Static dielectric constant tensor:
#      x y z
#    x 1.943940 0.000010 0.005740 
#    y 0.000010 1.975660 0.000010 
#    z 0.005740 0.000010 2.004230 
# 
# From -- ./inp_files/66685.got.cif
#   From: 2010.05.17/outbox.cif.g08.bks.cpg/sg5_34_cif.got.tgz:66685.got - 2010.06.03 18:56:24.
