data_PCOD9127534
_publ_section_title
;
Structure prediction by ZEFSAII (Michael W. Deem and Ramdas Pophale) SiO2 
 PCOD9127534
Probable space group: C 2
;
_chemical_formula_sum "Si O2"
_cell_formula_units_Z 20
_cell_length_a 21.597558
_cell_length_b 6.052050
_cell_length_c 6.702878
_cell_angle_alpha 90.000000
_cell_angle_beta 78.146495
_cell_angle_gamma 90.000000
_cell_volume 857.447242
_symmetry_space_group_name_H-M "C 2"
_symmetry_group_IT_number 5
_symmetry_cell_setting 'monoclinic'
loop_
_space_group_symop_operation_xyz
x,y,z
-x,y,-z
1/2+x,1/2+y,z
1/2-x,1/2+y,-z
loop_
_atom_site_type_symbol
_atom_site_label
_atom_site_fract_x
_atom_site_fract_y
_atom_site_fract_z
Si Si1 0.568805 0.906410 0.262922
Si Si2 0.605454 0.489448 0.333316
Si Si3 0.345346 0.159170 0.033601
Si Si4 0.057012 0.643266 0.670115
Si Si5 0.264371 0.648539 0.590947
O O1 0.556416 0.649542 0.254654
O O2 0.574046 0.957079 0.494286
O O3 0.513827 0.070439 0.224519
O O4 0.633861 0.943606 0.102962
O O5 0.568146 0.354261 0.524284
O O6 0.662590 0.612548 0.407591
O O7 0.639818 0.342701 0.142249
O O8 0.394931 0.165416 0.182470
O O9 0.277784 0.160989 0.180829
O O10 0.245598 0.399537 0.503556
#
# Coordination Sequence:
#
# PCOD9127534 Si02
#       5
#     4   4   4   4   4
#     4  10  24  42  75 103 148 200 251 321 377 465
#     4  11  26  45  75 113 151 205 260 319 390 464
#     4  11  25  44  73 108 151 196 258 313 388 459
#     4  10  22  49  67 106 149 195 254 312 388 453
#     4  12  28  49  81 113 161 207 257 324 394 468
#
# _framework density 23.325051999999999
#
# number of rings (size 3 to 8) (size 9 to 14) (size 15 to 20)
#    0.000    1.200    2.000    1.800    8.400    8.000 
#    0.000    6.000    0.000    0.000    0.000    0.000 
#    0.000    0.000    0.000    0.000    0.000    0.000 
#
# Total GULP energy -55691.340126 kJ/mol
# GULP energy per Si atom -5569.134013 kJ/mol
# Density = 2.327196 g / cm^3
# Si number density = 23.325052 Si / 1000 Ang^3
#
#
#
# Elastic Constant Matrix: (Units=GPa)
#
#
# Indices 1 2 3 4 5 6 
#
# 1 108.1203 41.0433 11.6938 0.0000 -8.5801 0.0000
# 2 41.0433 123.8192 21.6624 0.0000 -10.2935 0.0000
# 3 11.6938 21.6624 78.7727 0.0000 -18.0968 0.0000
# 4 0.0000 0.0000 0.0000 -1.1581 0.0000 9.9718
# 5 -8.5801 -10.2935 -18.0968 0.0000 50.9968 0.0000
# 6 0.0000 0.0000 0.0000 9.9718 0.0000 36.5366
#
#
#
# Elastic Compliance Matrix: (Units=1/GPa)
#
#
# Indices 1 2 3 4 5 6 
#
# 1 0.010653 -0.003376 -0.000433 0.000000 0.000957 0.000000
# 2 -0.003376 0.009598 -0.001986 0.000000 0.000665 0.000000
# 3 -0.000433 -0.001986 0.014368 0.000000 0.004625 0.000000
# 4 0.000000 0.000000 0.000000 -0.257755 0.000000 0.070348
# 5 0.000957 0.000665 0.004625 0.000000 0.021545 0.000000
# 6 0.000000 0.000000 0.000000 0.070348 0.000000 0.008170
#
#
# Mechanical properties :
#
#
# Convention : Reuss Voigt Hill
#
# Bulk Modulus (GPa) = 43.42267 51.05681 47.23974
# Shear Modulus (GPa) = -28.71020 33.02923 2.15952
#
# Velocity S-wave (km/s) = -3.51219 3.76711 0.96325
# Velocity P-wave (km/s) = 1.48642 6.39205 4.64046
#
# Compressibility (1/GPa) = 0.02302945
#
# Stress axis : x y z
#
# Youngs Moduli (GPa) = 93.86745 104.18848 69.60112
#
# Poissons Ratio (x) = 0.35174 0.03015
# Poissons Ratio (y) = 0.31689 0.13820
# Poissons Ratio (z) = 0.04066 0.20687
#
# Static dielectric constant tensor:
#      x y z
#    x 1.912740 0.000000 0.012960 
#    y 0.000000 1.987260 0.000000 
#    z 0.012960 0.000000 1.847800 
# 
# From -- ./inp_files/10578.got.cif
#   From: 2010.05.17/outbox.cif.g08.bks.cpg/sg5_6_cif.got.tgz:10578.got - 2010.06.03 18:56:24.
