data_PCOD9127264
_publ_section_title
;
Structure prediction by ZEFSAII (Michael W. Deem and Ramdas Pophale) SiO2 
 PCOD9127264
Probable space group: C 2
;
_chemical_formula_sum "Si O2"
_cell_formula_units_Z 16
_cell_length_a 15.627992
_cell_length_b 9.147173
_cell_length_c 6.549468
_cell_angle_alpha 90.000000
_cell_angle_beta 44.407959
_cell_angle_gamma 90.000000
_cell_volume 655.159154
_symmetry_space_group_name_H-M "C 2"
_symmetry_group_IT_number 5
_symmetry_cell_setting 'monoclinic'
loop_
_space_group_symop_operation_xyz
x,y,z
-x,y,-z
1/2+x,1/2+y,z
1/2-x,1/2+y,-z
loop_
_atom_site_type_symbol
_atom_site_label
_atom_site_fract_x
_atom_site_fract_y
_atom_site_fract_z
Si Si1 0.138628 0.575110 0.263851
Si Si2 0.828128 0.294856 0.065872
Si Si3 0.501289 0.526417 0.261198
Si Si4 0.212039 0.929053 0.637531
O O1 0.232114 0.708425 0.086693
O O2 0.182865 0.501734 0.403256
O O3 0.000000 0.626165 0.500000
O O4 0.147895 0.451387 0.074620
O O5 0.772884 0.309537 0.387396
O O6 0.944181 0.188099 0.867060
O O7 0.500000 0.496641 0.500000
O O8 0.366785 0.516674 0.398450
O O9 0.598173 0.414456 0.990503
#
# Coordination Sequence:
#
# PCOD9127264 Si02
#       4
#     4   4   4   4
#     4  11  27  44  69 105 144 185 234 292 354 422
#     4  11  25  46  72 105 143 186 237 295 354 420
#     4  10  22  44  73 101 137 186 234 287 350 416
#     4  10  23  43  70 103 138 184 233 285 352 417
#
# _framework density 24.421547
#
# number of rings (size 3 to 8) (size 9 to 14) (size 15 to 20)
#    0.000    1.500    0.000    3.750    0.000   26.000 
#    0.000    0.000    0.000    0.000    0.000    0.000 
#    0.000    0.000    0.000    0.000    0.000    0.000 
#
# Total GULP energy -44690.775409 kJ/mol
# GULP energy per Si atom -5586.346926 kJ/mol
# Density = 2.436596 g / cm^3
# Si number density = 24.421547 Si / 1000 Ang^3
#
#
#
# Elastic Constant Matrix: (Units=GPa)
#
#
# Indices 1 2 3 4 5 6 
#
# 1 150.7358 -9.5289 31.3427 0.0000 -7.7992 0.0000
# 2 -9.5289 49.1801 34.7538 0.0000 -1.4696 0.0000
# 3 31.3427 34.7538 104.5852 0.0000 26.4874 0.0000
# 4 0.0000 0.0000 0.0000 49.5228 0.0000 -8.1781
# 5 -7.7992 -1.4696 26.4874 0.0000 52.7274 0.0000
# 6 0.0000 0.0000 0.0000 -8.1781 0.0000 37.9651
#
#
#
# Elastic Compliance Matrix: (Units=1/GPa)
#
#
# Indices 1 2 3 4 5 6 
#
# 1 0.008306 0.005513 -0.005352 0.000000 0.004071 0.000000
# 2 0.005513 0.031957 -0.014556 0.000000 0.009018 0.000000
# 3 -0.005352 -0.014556 0.018683 0.000000 -0.010583 0.000000
# 4 0.000000 0.000000 0.000000 0.020938 0.000000 0.004510
# 5 0.004071 0.009018 -0.010583 0.000000 0.025135 0.000000
# 6 0.000000 0.000000 0.000000 0.004510 0.000000 0.027312
#
#
# Mechanical properties :
#
#
# Convention : Reuss Voigt Hill
#
# Bulk Modulus (GPa) = 33.16021 46.40405 39.78213
# Shear Modulus (GPa) = 29.21049 44.57196 36.89122
#
# Velocity S-wave (km/s) = 3.46221 4.27676 3.89086
# Velocity P-wave (km/s) = 5.43970 6.59015 6.04237
#
# Compressibility (1/GPa) = 0.03015662
#
# Stress axis : x y z
#
# Youngs Moduli (GPa) = 120.39172 31.29202 53.52579
#
# Poissons Ratio (x) = -0.17252 0.28649
# Poissons Ratio (y) = -0.66376 0.77910
# Poissons Ratio (z) = 0.64438 0.45547
#
# Static dielectric constant tensor:
#      x y z
#    x 1.923550 0.000000 0.032870 
#    y 0.000000 1.968580 0.000000 
#    z 0.032870 0.000000 1.969940 
# 
# From -- ./inp_files/6474.got.cif
#   From: 2010.05.17/outbox.cif.g08.bks.cpg/sg5_4_cif.got.tgz:6474.got - 2010.06.03 18:56:24.
