data_PCOD9127348
_publ_section_title
;
Structure prediction by ZEFSAII (Michael W. Deem and Ramdas Pophale) SiO2 
 PCOD9127348
Probable space group: C 2
;
_chemical_formula_sum "Si O2"
_cell_formula_units_Z 22
_cell_length_a 7.648083
_cell_length_b 22.727824
_cell_length_c 5.176762
_cell_angle_alpha 90.000000
_cell_angle_beta 102.942740
_cell_angle_gamma 90.000000
_cell_volume 876.985788
_symmetry_space_group_name_H-M "C 2"
_symmetry_group_IT_number 5
_symmetry_cell_setting 'monoclinic'
loop_
_space_group_symop_operation_xyz
x,y,z
-x,y,-z
1/2+x,1/2+y,z
1/2-x,1/2+y,-z
loop_
_atom_site_type_symbol
_atom_site_label
_atom_site_fract_x
_atom_site_fract_y
_atom_site_fract_z
Si Si1 0.717091 0.688440 0.553289
Si Si2 0.634019 0.372376 0.761965
Si Si3 0.198195 0.055864 0.439570
Si Si4 0.500000 0.970562 0.500000
Si Si5 0.280427 0.758763 0.948578
Si Si6 0.000000 0.985795 0.000000
Si Si7 0.500000 0.911047 0.000000
O O1 0.500000 0.688687 0.500000
O O2 0.765463 0.622108 0.493297
O O3 0.772159 0.732957 0.346418
O O4 0.770512 0.711919 0.850147
O O5 0.500000 0.350698 0.500000
O O6 0.678316 0.319564 0.976253
O O7 0.843025 0.382848 0.770853
O O8 0.558285 0.436664 0.809789
O O9 0.000000 0.052137 0.500000
O O10 0.349960 0.011537 0.586384
O O11 0.153060 0.031527 0.139650
O O12 0.594698 0.939807 0.779595
O O13 0.500000 0.766587 0.000000
#
# Coordination Sequence:
#
# PCOD9127348 Si02
#       7
#     4   4   4   2   4   2   2
#     4   9  22  41  73 102 137 193 253 306 376 445
#     4  12  27  46  73 111 153 201 250 315 390 465
#     4  11  25  45  75 105 152 198 258 320 382 461
#     4  12  26  46  72 108 150 198 248 310 384 460
#     4  10  22  45  71 102 140 194 249 308 376 448
#     4  12  24  44  71 111 148 200 248 312 394 454
#     4  12  26  48  71 107 154 194 252 308 374 472
#
# _framework density 25.085926000000001
#
# number of rings (size 3 to 8) (size 9 to 14) (size 15 to 20)
#    0.000    1.091    2.727    2.727    8.909    0.000 
#    1.636    0.000    0.000    0.000    0.000    0.000 
#    0.000    0.000    0.000    0.000    0.000    0.000 
#
# Total GULP energy -61262.530939 kJ/mol
# GULP energy per Si atom -5569.320994 kJ/mol
# Density = 2.502883 g / cm^3
# Si number density = 25.085926 Si / 1000 Ang^3
#
#
#
# Elastic Constant Matrix: (Units=GPa)
#
#
# Indices 1 2 3 4 5 6 
#
# 1 77.4404 10.8240 23.1038 0.0000 9.6261 0.0000
# 2 10.8240 134.1481 37.1615 0.0000 -1.1929 0.0000
# 3 23.1038 37.1615 116.3316 0.0000 3.0627 0.0000
# 4 0.0000 0.0000 0.0000 16.2805 0.0000 22.6464
# 5 9.6261 -1.1929 3.0627 0.0000 38.2955 0.0000
# 6 0.0000 0.0000 0.0000 22.6464 0.0000 -334.5032
#
#
#
# Elastic Compliance Matrix: (Units=1/GPa)
#
#
# Indices 1 2 3 4 5 6 
#
# 1 0.014165 -0.000459 -0.002578 0.000000 -0.003369 0.000000
# 2 -0.000459 0.008201 -0.002544 0.000000 0.000574 0.000000
# 3 -0.002578 -0.002544 0.009927 0.000000 -0.000225 0.000000
# 4 0.000000 0.000000 0.000000 0.056137 0.000000 0.003801
# 5 -0.003369 0.000574 -0.000225 0.000000 0.026995 0.000000
# 6 0.000000 0.000000 0.000000 0.003801 0.000000 -0.002732
#
#
# Mechanical properties :
#
#
# Convention : Reuss Voigt Hill
#
# Bulk Modulus (GPa) = 47.32193 52.23320 49.77756
# Shear Modulus (GPa) = 38.19770 -38.86338 -0.33284
#
# Velocity S-wave (km/s) = 3.90638 -3.94027 -0.36465
# Velocity P-wave (km/s) = 6.26508 0.40735 4.43944
#
# Compressibility (1/GPa) = 0.02113185
#
# Stress axis : x y z
#
# Youngs Moduli (GPa) = 70.59586 121.93240 100.73882
#
# Poissons Ratio (x) = 0.05594 0.25970
# Poissons Ratio (y) = 0.03239 0.25627
# Poissons Ratio (z) = 0.18200 0.31018
#
# Static dielectric constant tensor:
#      x y z
#    x 2.571220 0.000000 0.246070 
#    y 0.000000 2.025460 0.000000 
#    z 0.246070 0.000000 2.262630 
# 
# From -- ./inp_files/3065.got.cif
#   From: 2010.05.17/outbox.cif.g08.bks.cpg/sg5_2_cif.got.tgz:3065.got - 2010.06.03 18:56:24.
