data_PCOD9127630
_publ_section_title
;
Structure prediction by ZEFSAII (Michael W. Deem and Ramdas Pophale) SiO2 
 PCOD9127630
Probable space group: C 2
;
_chemical_formula_sum "Si O2"
_cell_formula_units_Z 32
_cell_length_a 8.826161
_cell_length_b 22.836127
_cell_length_c 15.634580
_cell_angle_alpha 90.000000
_cell_angle_beta 31.185296
_cell_angle_gamma 90.000000
_cell_volume 1631.732003
_symmetry_space_group_name_H-M "C 2"
_symmetry_group_IT_number 5
_symmetry_cell_setting 'monoclinic'
loop_
_space_group_symop_operation_xyz
x,y,z
-x,y,-z
1/2+x,1/2+y,z
1/2-x,1/2+y,-z
loop_
_atom_site_type_symbol
_atom_site_label
_atom_site_fract_x
_atom_site_fract_y
_atom_site_fract_z
Si Si1 0.670821 0.453840 0.634469
Si Si2 0.643225 0.259300 0.026105
Si Si3 0.151350 0.181054 0.334013
Si Si4 0.664744 0.965339 0.141796
Si Si5 0.159862 0.042921 0.331473
Si Si6 0.651891 0.757124 0.662703
Si Si7 0.248133 0.882945 0.051260
Si Si8 0.219087 0.385646 0.574487
O O1 0.503321 0.503874 0.661265
O O2 0.480018 0.431474 0.805681
O O3 0.683305 0.395379 0.569352
O O4 0.000000 0.471249 0.500000
O O5 0.470087 0.210836 0.164750
O O6 0.617149 0.320646 0.088032
O O7 0.500000 0.262420 0.000000
O O8 0.981710 0.249032 0.834985
O O9 0.163101 0.111706 0.311972
O O10 0.000000 0.190918 0.500000
O O11 0.958967 0.211302 0.353429
O O12 0.500265 0.939249 0.303204
O O13 0.486169 0.018583 0.188082
O O14 0.625300 0.911374 0.095589
O O15 0.000000 0.977277 0.000000
O O16 0.000000 0.034494 0.500000
O O17 0.586297 0.822583 0.658917
O O18 0.000000 0.753365 0.500000
O O19 0.500000 0.875682 0.000000
O O20 0.500000 0.392885 0.500000
#
# Coordination Sequence:
#
# PCOD9127630 Si02
#       8
#     4   4   4   4   4   4   4   4
#     4  12  25  37  63 101 131 170 206 275 325 379
#     4  10  23  43  63  93 132 177 214 260 327 391
#     4  10  25  45  69  90 124 179 226 271 311 380
#     4  12  22  40  66  93 127 173 212 258 329 396
#     4  11  23  49  66  88 132 176 222 256 322 394
#     4  10  23  40  67  96 125 177 212 262 330 393
#     4  12  24  37  59 102 140 158 205 277 328 378
#     4  11  20  40  66  90 134 171 212 253 332 405
#
# _framework density 19.611063999999999
#
# number of rings (size 3 to 8) (size 9 to 14) (size 15 to 20)
#    0.000    1.000    5.000    1.125    8.750    0.500 
#    6.750    3.125    0.000    0.000    0.000    0.000 
#    0.000    0.000    0.000    0.000    0.000    0.000 
#
# Total GULP energy -89338.839073 kJ/mol
# GULP energy per Si atom -5583.677442 kJ/mol
# Density = 1.956643 g / cm^3
# Si number density = 19.611064 Si / 1000 Ang^3
#
#
#
# Elastic Constant Matrix: (Units=GPa)
#
#
# Indices 1 2 3 4 5 6 
#
# 1 86.8394 44.2745 30.2836 0.0001 -15.9374 0.0001
# 2 44.2745 147.2697 52.8343 -0.0009 -4.4029 0.0004
# 3 30.2836 52.8343 95.1788 -0.0028 -16.2069 0.0025
# 4 0.0001 -0.0009 -0.0028 28.6780 0.0014 2.5365
# 5 -15.9374 -4.4029 -16.2069 0.0014 36.6970 -0.0008
# 6 0.0001 0.0004 0.0025 2.5365 -0.0008 28.3757
#
#
#
# Elastic Compliance Matrix: (Units=1/GPa)
#
#
# Indices 1 2 3 4 5 6 
#
# 1 0.015004 -0.003699 -0.001824 -0.000001 0.005267 0.000000
# 2 -0.003699 0.009436 -0.004478 0.000000 -0.002452 0.000000
# 3 -0.001824 -0.004478 0.014432 0.000001 0.005044 -0.000001
# 4 -0.000001 0.000000 0.000001 0.035148 -0.000001 -0.003142
# 5 0.005267 -0.002452 0.005044 -0.000001 0.031471 0.000001
# 6 0.000000 0.000000 -0.000001 -0.003142 0.000001 0.035522
#
#
# Mechanical properties :
#
#
# Convention : Reuss Voigt Hill
#
# Bulk Modulus (GPa) = 52.99657 64.89697 58.94677
# Shear Modulus (GPa) = 29.88557 32.20984 31.04771
#
# Velocity S-wave (km/s) = 3.90797 4.05709 3.98323
# Velocity P-wave (km/s) = 6.88807 7.42364 7.16086
#
# Compressibility (1/GPa) = 0.01886915
#
# Stress axis : x y z
#
# Youngs Moduli (GPa) = 66.64861 105.98075 69.29167
#
# Poissons Ratio (x) = 0.39202 0.12637
# Poissons Ratio (y) = 0.24653 0.31032
# Poissons Ratio (z) = 0.12155 0.47463
#
# Static dielectric constant tensor:
#      x y z
#    x 1.687050 0.000000 -0.027460 
#    y 0.000000 1.657690 0.000000 
#    z -0.027460 0.000000 1.739990 
# 
# From -- ./inp_files/51701.got.cif
#   From: 2010.05.17/outbox.cif.g08.bks.cpg/sg5_26_cif.got.tgz:51701.got - 2010.06.03 18:56:24.
