data_PCOD9127107
_publ_section_title
;
Structure prediction by ZEFSAII (Michael W. Deem and Ramdas Pophale) SiO2 
 PCOD9127107
Probable space group: C 2
;
_chemical_formula_sum "Si O2"
_cell_formula_units_Z 26
_cell_length_a 21.649995
_cell_length_b 8.855611
_cell_length_c 8.795018
_cell_angle_alpha 90.000000
_cell_angle_beta 132.616351
_cell_angle_gamma 90.000000
_cell_volume 1240.892510
_symmetry_space_group_name_H-M "C 2"
_symmetry_group_IT_number 5
_symmetry_cell_setting 'monoclinic'
loop_
_space_group_symop_operation_xyz
x,y,z
-x,y,-z
1/2+x,1/2+y,z
1/2-x,1/2+y,-z
loop_
_atom_site_type_symbol
_atom_site_label
_atom_site_fract_x
_atom_site_fract_y
_atom_site_fract_z
Si Si1 0.652983 0.939170 0.258592
Si Si2 0.000000 0.083327 0.500000
Si Si3 0.123439 0.817524 0.726081
Si Si4 0.784945 0.412986 0.168821
Si Si5 0.927131 0.546621 0.184563
Si Si6 0.931919 0.315431 0.608107
Si Si7 0.716511 0.177077 0.616505
O O1 0.588769 0.837554 0.250738
O O2 0.723716 0.818108 0.324314
O O3 0.688476 0.073918 0.426313
O O4 0.605855 0.018058 0.040260
O O5 0.012142 0.184100 0.369748
O O6 0.081128 0.979011 0.644980
O O7 0.067711 0.715145 0.744573
O O8 0.140224 0.747336 0.588111
O O9 0.213140 0.829167 0.958531
O O10 0.853949 0.474387 0.166338
O O11 0.840989 0.312105 0.375543
O O12 0.747426 0.551115 0.205598
O O13 0.015474 0.463748 0.349459
#
# Coordination Sequence:
#
# PCOD9127107 Si02
#       7
#     4   2   4   4   4   4   4
#     4  11  25  43  72  98 146 179 229 284 351 412
#     4  12  28  42  74 100 142 170 242 290 334 406
#     4  11  27  44  73 101 134 182 236 288 339 408
#     4  10  22  43  73  95 137 177 234 278 331 417
#     4  11  23  44  70  99 138 181 231 276 356 407
#     4  11  25  45  70 100 137 184 225 288 344 408
#     4  10  25  42  69 103 137 180 231 281 345 405
#
# _framework density 20.952663000000001
#
# number of rings (size 3 to 8) (size 9 to 14) (size 15 to 20)
#    0.000    1.231    3.077    0.462   19.385    0.000 
#    0.000    0.000    0.000    0.000    0.000    0.000 
#    0.000    0.000    0.000    0.000    0.000    0.000 
#
# Total GULP energy -72588.753093 kJ/mol
# GULP energy per Si atom -5583.750238 kJ/mol
# Density = 2.090497 g / cm^3
# Si number density = 20.952663 Si / 1000 Ang^3
#
#
#
# Elastic Constant Matrix: (Units=GPa)
#
#
# Indices 1 2 3 4 5 6 
#
# 1 113.5517 51.2774 34.9489 0.0000 -15.5166 0.0000
# 2 51.2774 101.7198 23.7546 0.0000 -5.4569 0.0000
# 3 34.9489 23.7546 92.0433 0.0000 -9.1347 0.0000
# 4 0.0000 0.0000 0.0000 28.2278 0.0000 1.5100
# 5 -15.5166 -5.4569 -9.1347 0.0000 39.5579 0.0000
# 6 0.0000 0.0000 0.0000 1.5100 0.0000 48.4702
#
#
#
# Elastic Compliance Matrix: (Units=1/GPa)
#
#
# Indices 1 2 3 4 5 6 
#
# 1 0.012716 -0.005507 -0.003057 0.000000 0.003522 0.000000
# 2 -0.005507 0.012874 -0.001299 0.000000 -0.000684 0.000000
# 3 -0.003057 -0.001299 0.012511 0.000000 0.001510 0.000000
# 4 0.000000 0.000000 0.000000 0.035485 0.000000 -0.001106
# 5 0.003522 -0.000684 0.001510 0.000000 0.026915 0.000000
# 6 0.000000 0.000000 0.000000 -0.001106 0.000000 0.020666
#
#
# Mechanical properties :
#
#
# Convention : Reuss Voigt Hill
#
# Bulk Modulus (GPa) = 54.42920 58.58626 56.50773
# Shear Modulus (GPa) = 34.00943 36.40679 35.20811
#
# Velocity S-wave (km/s) = 4.03321 4.17294 4.10367
# Velocity P-wave (km/s) = 6.90816 7.15820 7.03429
#
# Compressibility (1/GPa) = 0.01837249
#
# Stress axis : x y z
#
# Youngs Moduli (GPa) = 78.64277 77.67711 79.93247
#
# Poissons Ratio (x) = 0.42778 0.24438
# Poissons Ratio (y) = 0.43310 0.10386
# Poissons Ratio (z) = 0.24044 0.10093
#
# Static dielectric constant tensor:
#      x y z
#    x 1.767870 0.000000 -0.011630 
#    y 0.000000 1.770040 0.000000 
#    z -0.011630 0.000000 1.755200 
# 
# From -- ./inp_files/26793.got.cif
#   From: 2010.05.17/outbox.cif.g08.bks.cpg/sg5_14_cif.got.tgz:26793.got - 2010.06.03 18:56:24.
