data_PCOD9127065
_publ_section_title
;
Structure prediction by ZEFSAII (Michael W. Deem and Ramdas Pophale) SiO2 
 PCOD9127065
Probable space group: C 2
;
_chemical_formula_sum "Si O2"
_cell_formula_units_Z 26
_cell_length_a 27.279164
_cell_length_b 6.377747
_cell_length_c 18.656946
_cell_angle_alpha 90.000000
_cell_angle_beta 158.681342
_cell_angle_gamma 90.000000
_cell_volume 1180.072134
_symmetry_space_group_name_H-M "C 2"
_symmetry_group_IT_number 5
_symmetry_cell_setting 'monoclinic'
loop_
_space_group_symop_operation_xyz
x,y,z
-x,y,-z
1/2+x,1/2+y,z
1/2-x,1/2+y,-z
loop_
_atom_site_type_symbol
_atom_site_label
_atom_site_fract_x
_atom_site_fract_y
_atom_site_fract_z
Si Si1 0.000000 0.664930 0.000000
Si Si2 0.818496 0.862290 0.425556
Si Si3 0.919127 0.636526 0.232413
Si Si4 0.875668 0.033105 0.912656
Si Si5 0.692658 0.463892 0.024207
Si Si6 0.932716 0.254266 0.639280
Si Si7 0.872803 0.320690 0.718270
O O1 0.895276 0.830058 0.890966
O O2 0.938961 0.515184 0.853702
O O3 0.706131 0.734306 0.228715
O O4 0.774740 0.794105 0.447245
O O5 0.961032 0.795511 0.586722
O O6 0.835235 0.109577 0.459406
O O7 0.819656 0.574022 0.160150
O O8 0.002285 0.441160 0.316100
O O9 0.833005 0.744926 0.051478
O O10 0.800927 0.954756 0.882115
O O11 0.026361 0.126011 0.130250
O O12 0.559464 0.604464 0.830486
O O13 0.869685 0.335407 0.628190
#
# Coordination Sequence:
#
# PCOD9127065 Si02
#       7
#     2   4   4   4   4   4   4
#     4  12  20  40  70  92 136 186 220 270 340 412
#     4  11  24  40  62 101 136 171 217 285 330 406
#     4  11  22  42  68  95 129 177 228 284 330 396
#     4  11  23  43  67  98 137 176 225 276 343 407
#     4  10  22  43  69  92 127 178 230 275 333 404
#     4  10  24  40  66  93 132 172 225 277 344 391
#     4  11  23  42  63 100 133 180 219 274 341 414
#
# _framework density 22.032550000000001
#
# number of rings (size 3 to 8) (size 9 to 14) (size 15 to 20)
#    0.000    1.231    4.615    0.923    4.308    0.615 
#    0.000    0.000    3.385    0.000    0.000    0.000 
#    0.000    0.000    0.000    0.000    0.000    0.000 
#
# Total GULP energy -72522.472159 kJ/mol
# GULP energy per Si atom -5578.651705 kJ/mol
# Density = 2.198240 g / cm^3
# Si number density = 22.032550 Si / 1000 Ang^3
#
#
#
# Elastic Constant Matrix: (Units=GPa)
#
#
# Indices 1 2 3 4 5 6 
#
# 1 153.5843 60.2680 34.2900 0.0000 29.3486 0.0000
# 2 60.2680 111.6142 39.0236 0.0000 -1.3220 0.0000
# 3 34.2900 39.0236 67.1493 0.0000 21.7063 0.0000
# 4 0.0000 0.0000 0.0000 43.6217 0.0000 7.1346
# 5 29.3486 -1.3220 21.7063 0.0000 33.3671 0.0000
# 6 0.0000 0.0000 0.0000 7.1346 0.0000 29.9474
#
#
#
# Elastic Compliance Matrix: (Units=1/GPa)
#
#
# Indices 1 2 3 4 5 6 
#
# 1 0.010780 -0.006608 0.001881 0.000000 -0.010967 0.000000
# 2 -0.006608 0.016311 -0.010374 0.000000 0.013207 0.000000
# 3 0.001881 -0.010374 0.026121 0.000000 -0.019058 0.000000
# 4 0.000000 0.000000 0.000000 0.023854 0.000000 -0.005683
# 5 -0.010967 0.013207 -0.019058 0.000000 0.052537 0.000000
# 6 0.000000 0.000000 0.000000 -0.005683 0.000000 0.034746
#
#
# Mechanical properties :
#
#
# Convention : Reuss Voigt Hill
#
# Bulk Modulus (GPa) = 43.46100 66.61234 55.03667
# Shear Modulus (GPa) = 24.72538 34.63833 29.68185
#
# Velocity S-wave (km/s) = 3.35359 3.96933 3.67438
# Velocity P-wave (km/s) = 5.89611 7.16287 6.56013
#
# Compressibility (1/GPa) = 0.02300913
#
# Stress axis : x y z
#
# Youngs Moduli (GPa) = 92.76378 61.30775 38.28335
#
# Poissons Ratio (x) = 0.40514 -0.07200
# Poissons Ratio (y) = 0.61301 0.39715
# Poissons Ratio (z) = -0.17446 0.63600
#
# Static dielectric constant tensor:
#      x y z
#    x 1.777370 0.000000 -0.024890 
#    y 0.000000 1.847450 0.000000 
#    z -0.024890 0.000000 1.867430 
# 
# From -- ./inp_files/67698.got.cif
#   From: 2010.05.17/outbox.cif.g08.bks.cpg/sg5_34_cif.got.tgz:67698.got - 2010.06.03 18:56:24.
