data_PCOD9127925
_publ_section_title
;
Structure prediction by ZEFSAII (Michael W. Deem and Ramdas Pophale) SiO2 
 PCOD9127925
Probable space group: C 2
;
_chemical_formula_sum "Si O2"
_cell_formula_units_Z 30
_cell_length_a 15.401538
_cell_length_b 11.851156
_cell_length_c 27.671813
_cell_angle_alpha 90.000000
_cell_angle_beta 162.009642
_cell_angle_gamma 90.000000
_cell_volume 1559.982720
_symmetry_space_group_name_H-M "C 2"
_symmetry_group_IT_number 5
_symmetry_cell_setting 'monoclinic'
loop_
_space_group_symop_operation_xyz
x,y,z
-x,y,-z
1/2+x,1/2+y,z
1/2-x,1/2+y,-z
loop_
_atom_site_type_symbol
_atom_site_label
_atom_site_fract_x
_atom_site_fract_y
_atom_site_fract_z
Si Si1 0.000000 0.710531 0.000000
Si Si2 0.391052 0.578435 0.889585
Si Si3 0.582354 0.559695 0.717060
Si Si4 0.349058 0.246311 0.105414
Si Si5 0.709240 0.022343 0.274303
Si Si6 0.282372 0.367575 0.620612
Si Si7 0.242708 0.135560 0.543037
Si Si8 0.214534 0.871121 0.028992
O O1 0.233884 0.632962 0.149268
O O2 0.134202 0.789468 0.030021
O O3 0.061057 0.595861 0.714181
O O4 0.500000 0.544394 0.000000
O O5 0.550042 0.694658 0.962145
O O6 0.504401 0.478507 0.916025
O O7 0.783315 0.510852 0.780509
O O8 0.411090 0.464161 0.654776
O O9 0.370835 0.634846 0.572149
O O10 0.551968 0.137717 0.205985
O O11 0.484961 0.326290 0.217569
O O12 0.319260 0.306245 0.038759
O O13 0.035024 0.045093 0.458695
O O14 0.527944 0.921782 0.199856
O O15 0.211434 0.256910 0.551087
O O16 0.000000 0.401776 0.500000
#
# Coordination Sequence:
#
# PCOD9127925 Si02
#       8
#     2   4   4   4   4   4   4   4
#     4  12  24  48  66  94 144 174 224 280 332 406
#     4  11  23  39  68 101 128 177 226 270 331 410
#     4  10  26  43  68 100 133 179 221 274 339 394
#     4  11  23  40  68  98 134 173 230 276 328 395
#     4   9  22  45  63  99 130 178 220 269 333 390
#     4  12  24  41  70  97 134 182 223 278 336 392
#     4  10  23  44  66  96 144 162 225 281 327 390
#     4  11  24  42  69  96 134 179 222 276 341 389
#
# _framework density 19.230982000000001
#
# number of rings (size 3 to 8) (size 9 to 14) (size 15 to 20)
#    0.800    0.533    4.667    0.000    5.600    0.000 
#    0.000    0.000    2.933    0.000    0.000    0.000 
#    0.000    0.000    0.000    0.000    0.000    0.000 
#
# Total GULP energy -83723.237949 kJ/mol
# GULP energy per Si atom -5581.549197 kJ/mol
# Density = 1.918721 g / cm^3
# Si number density = 19.230982 Si / 1000 Ang^3
#
#
#
# Elastic Constant Matrix: (Units=GPa)
#
#
# Indices 1 2 3 4 5 6 
#
# 1 90.7573 46.1657 40.5302 -0.0025 0.6563 -0.0008
# 2 46.1657 65.0039 32.4508 0.0118 2.1539 -0.0039
# 3 40.5302 32.4508 131.7621 0.0599 9.5170 -0.0361
# 4 -0.0025 0.0118 0.0599 15.8996 -0.0220 10.2956
# 5 0.6563 2.1539 9.5170 -0.0220 32.2069 -0.0035
# 6 -0.0008 -0.0039 -0.0361 10.2956 -0.0035 55.9965
#
#
#
# Elastic Compliance Matrix: (Units=1/GPa)
#
#
# Indices 1 2 3 4 5 6 
#
# 1 0.018123 -0.011498 -0.002832 0.000029 0.001237 -0.000008
# 2 -0.011498 0.024835 -0.002531 -0.000013 -0.000679 0.000002
# 3 -0.002832 -0.002531 0.009265 -0.000046 -0.002511 0.000014
# 4 0.000029 -0.000013 -0.000046 0.071395 0.000061 -0.013127
# 5 0.001237 -0.000679 -0.002511 0.000061 0.031811 -0.000011
# 6 -0.000008 0.000002 0.000014 -0.013127 -0.000011 0.020272
#
#
# Mechanical properties :
#
#
# Convention : Reuss Voigt Hill
#
# Bulk Modulus (GPa) = 54.04878 58.42408 56.23643
# Shear Modulus (GPa) = 23.19207 32.04572 27.61889
#
# Velocity S-wave (km/s) = 3.47648 4.08653 3.79379
# Velocity P-wave (km/s) = 6.65437 7.26034 6.96395
#
# Compressibility (1/GPa) = 0.01850180
#
# Stress axis : x y z
#
# Youngs Moduli (GPa) = 55.17861 40.26511 107.92972
#
# Poissons Ratio (x) = 0.46297 0.30568
# Poissons Ratio (y) = 0.63444 0.27314
# Poissons Ratio (z) = 0.15628 0.10190
#
# Static dielectric constant tensor:
#      x y z
#    x 1.682770 0.000000 0.021070 
#    y 0.000000 1.655030 -0.000010 
#    z 0.021070 -0.000010 1.668490 
# 
# From -- ./inp_files/70698.got.cif
#   From: 2010.05.17/outbox.cif.g08.bks.cpg/sg5_36_cif.got.tgz:70698.got - 2010.06.03 18:56:24.
