data_PCOD9127874
_publ_section_title
;
Structure prediction by ZEFSAII (Michael W. Deem and Ramdas Pophale) SiO2 
 PCOD9127874
Probable space group: C 2
;
_chemical_formula_sum "Si O2"
_cell_formula_units_Z 20
_cell_length_a 12.610959
_cell_length_b 6.411751
_cell_length_c 9.515202
_cell_angle_alpha 90.000000
_cell_angle_beta 106.005189
_cell_angle_gamma 90.000000
_cell_volume 739.559519
_symmetry_space_group_name_H-M "C 2"
_symmetry_group_IT_number 5
_symmetry_cell_setting 'monoclinic'
loop_
_space_group_symop_operation_xyz
x,y,z
-x,y,-z
1/2+x,1/2+y,z
1/2-x,1/2+y,-z
loop_
_atom_site_type_symbol
_atom_site_label
_atom_site_fract_x
_atom_site_fract_y
_atom_site_fract_z
Si Si1 0.455998 0.787510 0.744101
Si Si2 0.693033 0.973876 0.802924
Si Si3 0.764868 0.685853 0.473537
Si Si4 0.918406 0.942404 0.599947
Si Si5 0.374078 0.132892 0.922673
O O1 0.209987 0.632662 0.681519
O O2 0.471092 0.533774 0.763750
O O3 0.573088 0.872129 0.744720
O O4 0.397982 0.916781 0.844808
O O5 0.788350 0.799082 0.825933
O O6 0.687366 0.075605 0.953684
O O7 0.783087 0.948584 0.494230
O O8 0.885333 0.694328 0.602755
O O9 0.624778 0.725845 0.415668
O O10 0.000000 0.951150 0.500000
O O11 0.500000 0.202984 0.000000
#
# Coordination Sequence:
#
# PCOD9127874 Si02
#       5
#     4   4   4   4   4
#     4   9  24  42  67  99 138 178 230 281 337 409
#     4  11  23  43  72 100 140 177 227 291 340 408
#     4  10  25  41  67  98 136 183 230 274 342 410
#     4  10  25  43  65  96 138 187 228 277 337 404
#     4  10  23  43  69 104 136 176 230 285 347 408
#
# _framework density 27.043126999999998
#
# number of rings (size 3 to 8) (size 9 to 14) (size 15 to 20)
#    1.200    0.800    0.000    1.200    5.600    6.400 
#    0.000    0.000    0.000    0.000    0.000    0.000 
#    0.000    0.000    0.000    0.000    0.000    0.000 
#
# Total GULP energy -55717.121890 kJ/mol
# GULP energy per Si atom -5571.712189 kJ/mol
# Density = 2.698158 g / cm^3
# Si number density = 27.043127 Si / 1000 Ang^3
#
#
#
# Elastic Constant Matrix: (Units=GPa)
#
#
# Indices 1 2 3 4 5 6 
#
# 1 179.3836 75.1313 59.1659 0.0000 -15.4672 0.0000
# 2 75.1313 185.8839 97.0463 0.0000 -9.2227 0.0000
# 3 59.1659 97.0463 127.7802 0.0000 -39.8330 0.0000
# 4 0.0000 0.0000 0.0000 75.7076 0.0000 15.9653
# 5 -15.4672 -9.2227 -39.8330 0.0000 63.3439 0.0000
# 6 0.0000 0.0000 0.0000 15.9653 0.0000 40.4015
#
#
#
# Elastic Compliance Matrix: (Units=1/GPa)
#
#
# Indices 1 2 3 4 5 6 
#
# 1 0.006959 -0.001948 -0.001619 0.000000 0.000398 0.000000
# 2 -0.001948 0.010207 -0.008129 0.000000 -0.004101 0.000000
# 3 -0.001619 -0.008129 0.017733 0.000000 0.009573 0.000000
# 4 0.000000 0.000000 0.000000 0.014409 0.000000 -0.005694
# 5 0.000398 -0.004101 0.009573 0.000000 0.021306 0.000000
# 6 0.000000 0.000000 0.000000 -0.005694 0.000000 0.027002
#
#
# Mechanical properties :
#
#
# Convention : Reuss Voigt Hill
#
# Bulk Modulus (GPa) = 86.89347 106.19273 96.54310
# Shear Modulus (GPa) = 40.05001 53.33756 46.69379
#
# Velocity S-wave (km/s) = 3.85251 4.44589 4.15980
# Velocity P-wave (km/s) = 7.21043 8.10603 7.67131
#
# Compressibility (1/GPa) = 0.01150834
#
# Stress axis : x y z
#
# Youngs Moduli (GPa) = 143.70668 97.96845 56.39092
#
# Poissons Ratio (x) = 0.19081 0.09129
# Poissons Ratio (y) = 0.27989 0.45840
# Poissons Ratio (z) = 0.23265 0.79638
#
# Static dielectric constant tensor:
#      x y z
#    x 2.024610 0.000000 0.071650 
#    y 0.000000 2.274850 0.000000 
#    z 0.071650 0.000000 2.082820 
# 
# From -- ./inp_files/51823.got.cif
#   From: 2010.05.17/outbox.cif.g08.bks.cpg/sg5_26_cif.got.tgz:51823.got - 2010.06.03 18:56:24.
