data_PCOD9127593
_publ_section_title
;
Structure prediction by ZEFSAII (Michael W. Deem and Ramdas Pophale) SiO2 
 PCOD9127593
Probable space group: C 2
;
_chemical_formula_sum "Si O2"
_cell_formula_units_Z 28
_cell_length_a 13.630586
_cell_length_b 6.531070
_cell_length_c 16.130203
_cell_angle_alpha 90.000000
_cell_angle_beta 121.345888
_cell_angle_gamma 90.000000
_cell_volume 1226.360544
_symmetry_space_group_name_H-M "C 2"
_symmetry_group_IT_number 5
_symmetry_cell_setting 'monoclinic'
loop_
_space_group_symop_operation_xyz
x,y,z
-x,y,-z
1/2+x,1/2+y,z
1/2-x,1/2+y,-z
loop_
_atom_site_type_symbol
_atom_site_label
_atom_site_fract_x
_atom_site_fract_y
_atom_site_fract_z
Si Si1 0.889675 0.989200 0.555302
Si Si2 0.130420 0.497216 0.865401
Si Si3 0.801380 0.322431 0.941722
Si Si4 0.103636 0.636065 0.151132
Si Si5 0.822225 0.657248 0.638042
Si Si6 0.529746 0.867340 0.661214
Si Si7 0.500000 0.498973 0.000000
Si Si8 0.000000 0.639471 0.500000
O O1 0.858377 0.886993 0.628937
O O2 0.916897 0.792498 0.511468
O O3 0.789956 0.108763 0.464442
O O4 0.993124 0.144955 0.614672
O O5 0.183825 0.714442 0.862698
O O6 0.010645 0.529210 0.860909
O O7 0.115752 0.367343 0.775936
O O8 0.211664 0.400404 0.970411
O O9 0.842680 0.499860 0.898172
O O10 0.900477 0.150518 0.986575
O O11 0.186947 0.648514 0.267088
O O12 0.058446 0.849657 0.093570
O O13 0.918380 0.491626 0.649646
O O14 0.563228 0.998646 0.595306
#
# Coordination Sequence:
#
# PCOD9127593 Si02
#       8
#     4   4   4   4   4   4   2   2
#     4  11  21  44  66  98 135 176 224 286 343 419
#     4  11  24  46  70 100 141 185 237 289 360 422
#     4  12  25  46  71 102 146 187 234 303 352 429
#     4  11  24  46  68 105 140 184 241 292 352 432
#     4  10  23  39  72  98 132 179 228 281 353 413
#     4  10  23  44  66  98 137 179 229 288 340 424
#     4  12  22  46  68 102 142 184 236 294 354 422
#     4  10  24  42  62  96 136 176 218 284 336 408
#
# _framework density 22.831786000000001
#
# number of rings (size 3 to 8) (size 9 to 14) (size 15 to 20)
#    0.000    1.143    4.286    1.286    4.000    0.000 
#    7.714    0.000    0.000    0.000    0.000    0.000 
#    0.000    0.000    0.000    0.000    0.000    0.000 
#
# Total GULP energy -78314.481242 kJ/mol
# GULP energy per Si atom -5593.891517 kJ/mol
# Density = 2.277982 g / cm^3
# Si number density = 22.831786 Si / 1000 Ang^3
#
#
#
# Elastic Constant Matrix: (Units=GPa)
#
#
# Indices 1 2 3 4 5 6 
#
# 1 50.9584 23.1999 34.3337 0.0000 -15.8585 0.0000
# 2 23.1999 111.5744 49.9624 0.0000 -22.0963 0.0000
# 3 34.3337 49.9624 118.0337 0.0000 -29.7207 0.0000
# 4 0.0000 0.0000 0.0000 27.3981 0.0000 1.9419
# 5 -15.8585 -22.0963 -29.7207 0.0000 27.1806 0.0000
# 6 0.0000 0.0000 0.0000 1.9419 0.0000 32.7611
#
#
#
# Elastic Compliance Matrix: (Units=1/GPa)
#
#
# Indices 1 2 3 4 5 6 
#
# 1 0.026304 -0.001588 -0.004747 0.000000 0.008866 0.000000
# 2 -0.001588 0.011747 -0.003228 0.000000 0.005094 0.000000
# 3 -0.004747 -0.003228 0.013608 0.000000 0.009486 0.000000
# 4 0.000000 0.000000 0.000000 0.036653 0.000000 -0.002173
# 5 0.008866 0.005094 0.009486 0.000000 0.056477 0.000000
# 6 0.000000 0.000000 0.000000 -0.002173 0.000000 0.030653
#
#
# Mechanical properties :
#
#
# Convention : Reuss Voigt Hill
#
# Bulk Modulus (GPa) = 30.73770 55.06205 42.89988
# Shear Modulus (GPa) = 24.34141 29.00598 26.67369
#
# Velocity S-wave (km/s) = 3.26869 3.56816 3.42170
# Velocity P-wave (km/s) = 5.26666 6.41440 5.86865
#
# Compressibility (1/GPa) = 0.03253334
#
# Stress axis : x y z
#
# Youngs Moduli (GPa) = 38.01687 85.12810 73.48745
#
# Poissons Ratio (x) = 0.13519 0.34883
# Poissons Ratio (y) = 0.06038 0.23721
# Poissons Ratio (z) = 0.18046 0.27478
#
# Static dielectric constant tensor:
#      x y z
#    x 1.936240 0.000000 0.005910 
#    y 0.000000 1.855490 0.000000 
#    z 0.005910 0.000000 1.848860 
# 
# From -- ./inp_files/61164.got.cif
#   From: 2010.05.17/outbox.cif.g08.bks.cpg/sg5_31_cif.got.tgz:61164.got - 2010.06.03 18:56:24.
