data_PCOD9127721
_publ_section_title
;
Structure prediction by ZEFSAII (Michael W. Deem and Ramdas Pophale) SiO2 
 PCOD9127721
Probable space group: C 2
;
_chemical_formula_sum "Si O2"
_cell_formula_units_Z 16
_cell_length_a 8.040259
_cell_length_b 7.358344
_cell_length_c 10.273677
_cell_angle_alpha 90.000000
_cell_angle_beta 94.967695
_cell_angle_gamma 90.000000
_cell_volume 605.538294
_symmetry_space_group_name_H-M "C 2"
_symmetry_group_IT_number 5
_symmetry_cell_setting 'monoclinic'
loop_
_space_group_symop_operation_xyz
x,y,z
-x,y,-z
1/2+x,1/2+y,z
1/2-x,1/2+y,-z
loop_
_atom_site_type_symbol
_atom_site_label
_atom_site_fract_x
_atom_site_fract_y
_atom_site_fract_z
Si Si1 0.845607 0.115120 0.676423
Si Si2 0.106861 0.468826 0.191334
Si Si3 0.109105 0.171423 0.885400
Si Si4 0.157924 0.740200 0.420848
O O1 0.791385 0.278911 0.770632
O O2 0.033992 0.097552 0.743282
O O3 0.803069 0.186590 0.530396
O O4 0.785674 0.908713 0.663450
O O5 0.935194 0.384297 0.127358
O O6 0.204859 0.601464 0.102439
O O7 0.094958 0.576684 0.325687
O O8 0.000000 0.101769 0.000000
O O9 0.000000 0.794787 0.500000
#
# Coordination Sequence:
#
# PCOD9127721 Si02
#       4
#     4   4   4   4
#     4  10  23  41  70 100 151 188 247 307 383 442
#     4  10  25  44  73 106 147 195 250 319 373 459
#     4  10  24  49  73 106 149 199 259 311 383 448
#     4  12  24  41  72 111 148 197 249 314 391 458
#
# _framework density 26.42277
#
# number of rings (size 3 to 8) (size 9 to 14) (size 15 to 20)
#    1.500    0.000    2.500    1.500    3.500    3.000 
#    0.000    1.250    0.000    0.000    0.000    0.000 
#    0.000    0.000    0.000    0.000    0.000    0.000 
#
# Total GULP energy -44622.085741 kJ/mol
# GULP energy per Si atom -5577.760718 kJ/mol
# Density = 2.636263 g / cm^3
# Si number density = 26.422770 Si / 1000 Ang^3
#
#
#
# Elastic Constant Matrix: (Units=GPa)
#
#
# Indices 1 2 3 4 5 6 
#
# 1 94.2782 47.3994 44.6352 0.0000 -18.0433 0.0000
# 2 47.3994 162.9321 35.4407 0.0000 5.1488 0.0000
# 3 44.6352 35.4407 92.1587 0.0000 -3.7591 0.0000
# 4 0.0000 0.0000 0.0000 42.3651 0.0000 10.3367
# 5 -18.0433 5.1488 -3.7591 0.0000 53.1948 0.0000
# 6 0.0000 0.0000 0.0000 10.3367 0.0000 50.1869
#
#
#
# Elastic Compliance Matrix: (Units=1/GPa)
#
#
# Indices 1 2 3 4 5 6 
#
# 1 0.016476 -0.003579 -0.006380 0.000000 0.005484 0.000000
# 2 -0.003579 0.007512 -0.001238 0.000000 -0.002028 0.000000
# 3 -0.006380 -0.001238 0.014375 0.000000 -0.001028 0.000000
# 4 0.000000 0.000000 0.000000 0.024853 0.000000 -0.005119
# 5 0.005484 -0.002028 -0.001028 0.000000 0.020783 0.000000
# 6 0.000000 0.000000 0.000000 -0.005119 0.000000 0.020980
#
#
# Mechanical properties :
#
#
# Convention : Reuss Voigt Hill
#
# Bulk Modulus (GPa) = 62.61979 67.14661 64.88320
# Shear Modulus (GPa) = 37.67992 43.94228 40.81110
#
# Velocity S-wave (km/s) = 3.78039 4.08247 3.93433
# Velocity P-wave (km/s) = 6.54261 6.90577 6.72664
#
# Compressibility (1/GPa) = 0.01596939
#
# Stress axis : x y z
#
# Youngs Moduli (GPa) = 60.69318 133.11863 69.56449
#
# Poissons Ratio (x) = 0.47640 0.44382
# Poissons Ratio (y) = 0.21721 0.08614
# Poissons Ratio (z) = 0.38722 0.16484
#
# Static dielectric constant tensor:
#      x y z
#    x 2.103330 0.000000 -0.041200 
#    y 0.000000 2.047750 0.000000 
#    z -0.041200 0.000000 2.063740 
# 
# From -- ./inp_files/34591.got.cif
#   From: 2010.05.17/outbox.cif.g08.bks.cpg/sg5_18_cif.got.tgz:34591.got - 2010.06.03 18:56:24.
