data_PCOD9127502
_publ_section_title
;
Structure prediction by ZEFSAII (Michael W. Deem and Ramdas Pophale) SiO2 
 PCOD9127502
Probable space group: C 2
;
_chemical_formula_sum "Si O2"
_cell_formula_units_Z 16
_cell_length_a 11.309523
_cell_length_b 12.285275
_cell_length_c 7.331624
_cell_angle_alpha 90.000000
_cell_angle_beta 138.132151
_cell_angle_gamma 90.000000
_cell_volume 679.868906
_symmetry_space_group_name_H-M "C 2"
_symmetry_group_IT_number 5
_symmetry_cell_setting 'monoclinic'
loop_
_space_group_symop_operation_xyz
x,y,z
-x,y,-z
1/2+x,1/2+y,z
1/2-x,1/2+y,-z
loop_
_atom_site_type_symbol
_atom_site_label
_atom_site_fract_x
_atom_site_fract_y
_atom_site_fract_z
Si Si1 0.247724 0.357010 0.525369
Si Si2 0.500000 0.208763 0.000000
Si Si3 0.047451 0.505436 0.845014
Si Si4 0.055673 0.024709 0.762447
Si Si5 0.500000 0.705506 0.000000
O O1 0.101807 0.441148 0.432713
O O2 0.410450 0.432715 0.644069
O O3 0.155790 0.278759 0.268799
O O4 0.328275 0.280584 0.772245
O O5 0.478004 0.134685 0.156493
O O6 0.000000 0.474129 0.000000
O O7 0.246627 0.478306 0.025889
O O8 0.000000 0.067770 0.500000
O O9 0.059279 0.123006 0.909028
#
# Coordination Sequence:
#
# PCOD9127502 Si02
#       5
#     4   2   4   4   2
#     4  12  23  47  72 107 142 188 243 288 357 428
#     4  10  24  44  72 102 146 184 238 292 350 426
#     4  10  22  48  67 100 149 183 231 302 345 414
#     4  12  24  47  75 103 152 185 230 308 351 415
#     4  12  26  46  78 110 136 192 246 280 366 430
#
# _framework density 23.533949
#
# number of rings (size 3 to 8) (size 9 to 14) (size 15 to 20)
#    0.750    0.000    3.750    3.750    0.000    4.000 
#    0.000   20.000    0.000    0.000    0.000    0.000 
#    0.000    0.000    0.000    0.000    0.000    0.000 
#
# Total GULP energy -44687.846822 kJ/mol
# GULP energy per Si atom -5585.980853 kJ/mol
# Density = 2.348038 g / cm^3
# Si number density = 23.533949 Si / 1000 Ang^3
#
#
#
# Elastic Constant Matrix: (Units=GPa)
#
#
# Indices 1 2 3 4 5 6 
#
# 1 120.2256 54.9131 62.5262 0.0000 39.6765 0.0000
# 2 54.9131 142.9068 95.5373 0.0000 19.9762 0.0000
# 3 62.5262 95.5373 171.6331 0.0000 37.1405 0.0000
# 4 0.0000 0.0000 0.0000 23.0682 0.0000 20.5789
# 5 39.6765 19.9762 37.1405 0.0000 58.4641 0.0000
# 6 0.0000 0.0000 0.0000 20.5789 0.0000 -2.9624
#
#
#
# Elastic Compliance Matrix: (Units=1/GPa)
#
#
# Indices 1 2 3 4 5 6 
#
# 1 0.012623 -0.002880 -0.001570 0.000000 -0.006585 0.000000
# 2 -0.002880 0.011803 -0.005879 0.000000 0.001657 0.000000
# 3 -0.001570 -0.005879 0.010441 0.000000 -0.003558 0.000000
# 4 0.000000 0.000000 0.000000 0.006023 0.000000 0.041842
# 5 -0.006585 0.001657 -0.003558 0.000000 0.023268 0.000000
# 6 0.000000 0.000000 0.000000 0.041842 0.000000 -0.046903
#
#
# Mechanical properties :
#
#
# Convention : Reuss Voigt Hill
#
# Bulk Modulus (GPa) = 70.38530 95.63540 83.01035
# Shear Modulus (GPa) = 117.22962 30.49991 73.86476
#
# Velocity S-wave (km/s) = 7.06549 3.60390 5.60844
# Velocity P-wave (km/s) = 9.82519 7.61859 8.79140
#
# Compressibility (1/GPa) = 0.01420751
#
# Stress axis : x y z
#
# Youngs Moduli (GPa) = 79.21992 84.72255 95.77469
#
# Poissons Ratio (x) = 0.24401 0.15041
# Poissons Ratio (y) = 0.22817 0.56309
# Poissons Ratio (z) = 0.12441 0.49811
#
# Static dielectric constant tensor:
#      x y z
#    x 1.913460 0.000000 -0.017280 
#    y 0.000000 1.973140 0.000000 
#    z -0.017280 0.000000 1.984300 
# 
# From -- ./inp_files/23238.got.cif
#   From: 2010.05.17/outbox.cif.g08.bks.cpg/sg5_12_cif.got.tgz:23238.got - 2010.06.03 18:56:24.
