data_PCOD9127020
_publ_section_title
;
Structure prediction by ZEFSAII (Michael W. Deem and Ramdas Pophale) SiO2 
 PCOD9127020
Probable space group: C 2
;
_chemical_formula_sum "Si O2"
_cell_formula_units_Z 30
_cell_length_a 15.532922
_cell_length_b 8.567639
_cell_length_c 11.355196
_cell_angle_alpha 90.000000
_cell_angle_beta 65.174845
_cell_angle_gamma 90.000000
_cell_volume 1371.513876
_symmetry_space_group_name_H-M "C 2"
_symmetry_group_IT_number 5
_symmetry_cell_setting 'monoclinic'
loop_
_space_group_symop_operation_xyz
x,y,z
-x,y,-z
1/2+x,1/2+y,z
1/2-x,1/2+y,-z
loop_
_atom_site_type_symbol
_atom_site_label
_atom_site_fract_x
_atom_site_fract_y
_atom_site_fract_z
Si Si1 0.522173 0.299400 0.766519
Si Si2 0.667480 0.730067 0.669527
Si Si3 0.000000 0.027409 0.000000
Si Si4 0.821138 0.903164 0.463956
Si Si5 0.262485 0.063432 0.119963
Si Si6 0.054466 0.497438 0.851908
Si Si7 0.081823 0.010648 0.366870
Si Si8 0.701134 0.696278 0.910083
O O1 0.523577 0.412628 0.878061
O O2 0.624777 0.281392 0.647745
O O3 0.492745 0.124891 0.817508
O O4 0.463716 0.394795 0.702536
O O5 0.716251 0.847621 0.549232
O O6 0.656229 0.570173 0.605772
O O7 0.721783 0.673339 0.758124
O O8 0.583139 0.839543 0.767673
O O9 0.093682 0.126839 0.979793
O O10 0.863296 0.907063 0.570019
O O11 0.164714 0.101123 0.247584
O O12 0.278515 0.879384 0.091862
O O13 0.352971 0.093456 0.152481
O O14 0.255921 0.130151 0.992159
O O15 0.000000 0.450981 0.000000
O O16 0.000000 0.086853 0.500000
#
# Coordination Sequence:
#
# PCOD9127020 Si02
#       8
#     4   4   2   4   4   4   4   4
#     4  11  23  40  73  95 135 183 237 271 355 414
#     4  11  24  42  65  98 135 179 234 281 346 409
#     4  12  22  42  68 106 136 188 228 282 352 418
#     4  11  22  41  67  92 137 182 228 281 342 413
#     4  11  25  43  67 101 143 178 233 289 352 405
#     4  11  25  41  68 104 141 177 230 293 351 410
#     4  10  22  43  66  97 132 181 226 288 335 413
#     4  11  25  42  69 101 143 175 236 286 346 410
#
# _framework density 21.873640999999999
#
# number of rings (size 3 to 8) (size 9 to 14) (size 15 to 20)
#    0.000    1.067    6.000    0.800    7.467    0.000 
#    0.000    0.000    0.000   12.000    0.000    0.000 
#    0.000    0.000    0.000    0.000    0.000    0.000 
#
# Total GULP energy -83511.704881 kJ/mol
# GULP energy per Si atom -5567.446992 kJ/mol
# Density = 2.182386 g / cm^3
# Si number density = 21.873641 Si / 1000 Ang^3
#
#
#
# Elastic Constant Matrix: (Units=GPa)
#
#
# Indices 1 2 3 4 5 6 
#
# 1 47.9353 10.2748 17.4123 0.0000 25.1042 0.0000
# 2 10.2748 44.8497 32.8091 0.0000 11.3759 0.0000
# 3 17.4123 32.8091 125.1401 0.0000 14.4239 0.0000
# 4 0.0000 0.0000 0.0000 43.2290 0.0000 8.4897
# 5 25.1042 11.3759 14.4239 0.0000 42.7174 0.0000
# 6 0.0000 0.0000 0.0000 8.4897 0.0000 18.6642
#
#
#
# Elastic Compliance Matrix: (Units=1/GPa)
#
#
# Indices 1 2 3 4 5 6 
#
# 1 0.030808 -0.001271 -0.001983 0.000000 -0.017097 0.000000
# 2 -0.001271 0.028753 -0.006831 0.000000 -0.004604 0.000000
# 3 -0.001983 -0.006831 0.010107 0.000000 -0.000428 0.000000
# 4 0.000000 0.000000 0.000000 0.025402 0.000000 -0.011554
# 5 -0.017097 -0.004604 -0.000428 0.000000 0.034828 0.000000
# 6 0.000000 0.000000 0.000000 -0.011554 0.000000 0.058834
#
#
# Mechanical properties :
#
#
# Convention : Reuss Voigt Hill
#
# Bulk Modulus (GPa) = 20.20245 37.65750 28.92997
# Shear Modulus (GPa) = 22.18275 31.41740 26.80008
#
# Velocity S-wave (km/s) = 3.18800 3.79398 3.50412
# Velocity P-wave (km/s) = 4.77568 6.03703 5.44302
#
# Compressibility (1/GPa) = 0.04949895
#
# Stress axis : x y z
#
# Youngs Moduli (GPa) = 32.45894 34.77956 98.93900
#
# Poissons Ratio (x) = 0.04420 0.19618
# Poissons Ratio (y) = 0.04125 0.67584
# Poissons Ratio (z) = 0.06436 0.23757
#
# Static dielectric constant tensor:
#      x y z
#    x 1.990300 0.000000 -0.050150 
#    y 0.000000 1.850120 0.000000 
#    z -0.050150 0.000000 1.841600 
# 
# From -- ./inp_files/44310.got.cif
#   From: 2010.05.17/outbox.cif.g08.bks.cpg/sg5_23_cif.got.tgz:44310.got - 2010.06.03 18:56:24.
