data_PCOD9127751
_publ_section_title
;
Structure prediction by ZEFSAII (Michael W. Deem and Ramdas Pophale) SiO2 
 PCOD9127751
Probable space group: C 2
;
_chemical_formula_sum "Si O2"
_cell_formula_units_Z 28
_cell_length_a 17.285244
_cell_length_b 16.621004
_cell_length_c 6.922826
_cell_angle_alpha 90.000000
_cell_angle_beta 132.996931
_cell_angle_gamma 90.000000
_cell_volume 1454.672873
_symmetry_space_group_name_H-M "C 2"
_symmetry_group_IT_number 5
_symmetry_cell_setting 'monoclinic'
loop_
_space_group_symop_operation_xyz
x,y,z
-x,y,-z
1/2+x,1/2+y,z
1/2-x,1/2+y,-z
loop_
_atom_site_type_symbol
_atom_site_label
_atom_site_fract_x
_atom_site_fract_y
_atom_site_fract_z
Si Si1 0.740446 0.436040 0.190311
Si Si2 0.248744 0.226761 0.372303
Si Si3 0.768505 0.519134 0.835739
Si Si4 0.877192 0.389133 0.766241
Si Si5 0.610612 0.160031 0.744353
Si Si6 0.624309 0.568130 0.250824
Si Si7 0.400993 0.285855 0.956773
O O1 0.843143 0.406923 0.486284
O O2 0.689481 0.511150 0.216361
O O3 0.661407 0.362181 0.075244
O O4 0.752359 0.461293 0.990813
O O5 0.192817 0.314591 0.269627
O O6 0.317338 0.196933 0.304824
O O7 0.162341 0.158879 0.273840
O O8 0.328195 0.234505 0.687783
O O9 0.846372 0.470422 0.826962
O O10 0.664810 0.541183 0.532715
O O11 0.819117 0.599135 0.011295
O O12 0.000000 0.370915 0.000000
O O13 0.500000 0.117259 0.500000
O O14 0.570819 0.231315 0.814589
O O15 0.500000 0.559150 0.000000
O O16 0.500000 0.312908 0.000000
#
# Coordination Sequence:
#
# PCOD9127751 Si02
#       7
#     4   4   4   4   4   4   4
#     4  10  23  42  63  93 132 162 215 265 316 387
#     4  11  22  43  62  93 132 163 222 264 309 389
#     4  11  24  42  64  97 131 160 219 268 314 393
#     4  10  24  41  66  93 126 175 210 262 324 380
#     4  12  24  38  68  97 128 170 208 269 325 375
#     4  11  23  42  67  91 128 175 210 264 326 377
#     4  11  22  41  64  93 127 168 211 262 322 379
#
# _framework density 19.248314000000001
#
# number of rings (size 3 to 8) (size 9 to 14) (size 15 to 20)
#    0.000    1.143    4.286    1.714    2.000    1.143 
#    2.571    0.000    0.000    0.000    0.000    0.000 
#    0.000    0.000    0.000    0.000    0.000    0.000 
#
# Total GULP energy -78148.891754 kJ/mol
# GULP energy per Si atom -5582.063697 kJ/mol
# Density = 1.920450 g / cm^3
# Si number density = 19.248314 Si / 1000 Ang^3
#
#
#
# Elastic Constant Matrix: (Units=GPa)
#
#
# Indices 1 2 3 4 5 6 
#
# 1 74.9375 -1.7083 54.8888 0.0000 0.2853 0.0000
# 2 -1.7083 46.7883 19.7109 0.0000 -7.1901 0.0000
# 3 54.8888 19.7109 117.9577 0.0000 7.5706 0.0000
# 4 0.0000 0.0000 0.0000 87.8792 0.0000 83.8644
# 5 0.2853 -7.1901 7.5706 0.0000 38.8684 0.0000
# 6 0.0000 0.0000 0.0000 83.8644 0.0000 182.0903
#
#
#
# Elastic Compliance Matrix: (Units=1/GPa)
#
#
# Indices 1 2 3 4 5 6 
#
# 1 0.021789 0.006068 -0.011357 0.000000 0.003174 0.000000
# 2 0.006068 0.025710 -0.007516 0.000000 0.006175 0.000000
# 3 -0.011357 -0.007516 0.015293 0.000000 -0.004286 0.000000
# 4 0.000000 0.000000 0.000000 0.020303 0.000000 -0.009351
# 5 0.003174 0.006175 -0.004286 0.000000 0.027682 0.000000
# 6 0.000000 0.000000 0.000000 -0.009351 0.000000 0.009798
#
#
# Mechanical properties :
#
#
# Convention : Reuss Voigt Hill
#
# Bulk Modulus (GPa) = 26.89468 42.82958 34.86213
# Shear Modulus (GPa) = 31.53014 72.88707 52.20861
#
# Velocity S-wave (km/s) = 4.05170 6.16027 5.21369
# Velocity P-wave (km/s) = 5.99093 8.53803 7.37527
#
# Compressibility (1/GPa) = 0.03718207
#
# Stress axis : x y z
#
# Youngs Moduli (GPa) = 45.89474 38.89585 65.38883
#
# Poissons Ratio (x) = -0.23601 0.74260
# Poissons Ratio (y) = -0.27847 0.49146
# Poissons Ratio (z) = 0.52121 0.29234
#
# Static dielectric constant tensor:
#      x y z
#    x 1.610010 0.000000 0.072180 
#    y 0.000000 1.671070 0.000000 
#    z 0.072180 0.000000 1.575200 
# 
# From -- ./inp_files/7255.got.cif
#   From: 2010.05.17/outbox.cif.g08.bks.cpg/sg5_4_cif.got.tgz:7255.got - 2010.06.03 18:56:24.
