data_PCOD9127632
_publ_section_title
;
Structure prediction by ZEFSAII (Michael W. Deem and Ramdas Pophale) SiO2 
 PCOD9127632
Probable space group: C 2
;
_chemical_formula_sum "Si O2"
_cell_formula_units_Z 24
_cell_length_a 21.374248
_cell_length_b 5.733633
_cell_length_c 20.354520
_cell_angle_alpha 90.000000
_cell_angle_beta 154.569696
_cell_angle_gamma 90.000000
_cell_volume 1071.165653
_symmetry_space_group_name_H-M "C 2"
_symmetry_group_IT_number 5
_symmetry_cell_setting 'monoclinic'
loop_
_space_group_symop_operation_xyz
x,y,z
-x,y,-z
1/2+x,1/2+y,z
1/2-x,1/2+y,-z
loop_
_atom_site_type_symbol
_atom_site_label
_atom_site_fract_x
_atom_site_fract_y
_atom_site_fract_z
Si Si1 0.108377 0.908790 0.349996
Si Si2 0.642077 0.934200 0.680683
Si Si3 0.627552 0.738822 0.805561
Si Si4 0.186126 0.270321 0.337060
Si Si5 0.675970 0.430283 0.666980
Si Si6 0.900508 0.511087 0.096478
O O1 0.235980 0.855213 0.522112
O O2 0.001359 0.705306 0.226284
O O3 0.177457 0.997912 0.346727
O O4 0.006375 0.090193 0.293465
O O5 0.500000 0.951620 0.500000
O O6 0.592606 0.888089 0.708550
O O7 0.722089 0.692745 0.733256
O O8 0.715399 0.191186 0.744382
O O9 0.675490 0.889639 0.913559
O O10 0.771547 0.589829 0.927185
O O11 0.270749 0.366793 0.355478
O O12 0.018478 0.347502 0.173854
O O13 0.500000 0.445947 0.500000
#
# Coordination Sequence:
#
# PCOD9127632 Si02
#       6
#     4   4   4   4   4   4
#     4  11  22  39  66 100 131 176 218 292 342 400
#     4  10  23  40  68 100 129 181 231 283 324 404
#     4  11  24  42  70  98 137 175 232 276 351 420
#     4  11  24  39  68  99 138 170 233 285 343 407
#     4  10  23  41  66  99 132 179 229 283 334 400
#     4  11  24  41  66 101 135 177 215 291 352 400
#
# _framework density 22.405495999999999
#
# number of rings (size 3 to 8) (size 9 to 14) (size 15 to 20)
#    0.000    1.333    3.333    2.000    9.333    0.000 
#    0.000    0.833    0.000    0.000    0.000    0.000 
#    0.000    0.000    0.000    0.000    0.000    0.000 
#
# Total GULP energy -66906.407039 kJ/mol
# GULP energy per Si atom -5575.533920 kJ/mol
# Density = 2.235450 g / cm^3
# Si number density = 22.405496 Si / 1000 Ang^3
#
#
#
# Elastic Constant Matrix: (Units=GPa)
#
#
# Indices 1 2 3 4 5 6 
#
# 1 66.7654 -7.0637 -5.4226 0.0000 8.4996 0.0000
# 2 -7.0637 97.2894 -11.2287 0.0002 3.0966 0.0000
# 3 -5.4226 -11.2287 62.7957 0.0000 7.8574 0.0000
# 4 0.0000 0.0002 0.0000 27.9587 0.0000 1.3697
# 5 8.4996 3.0966 7.8574 0.0000 21.9039 0.0000
# 6 0.0000 0.0000 0.0000 1.3697 0.0000 17.8109
#
#
#
# Elastic Compliance Matrix: (Units=1/GPa)
#
#
# Indices 1 2 3 4 5 6 
#
# 1 0.016338 0.001734 0.002664 0.000000 -0.007541 0.000000
# 2 0.001734 0.010787 0.002464 0.000000 -0.003082 0.000000
# 3 0.002664 0.002464 0.017556 0.000000 -0.007680 0.000000
# 4 0.000000 0.000000 0.000000 0.035902 0.000000 -0.002761
# 5 -0.007541 -0.003082 -0.007680 0.000000 0.051771 0.000000
# 6 0.000000 0.000000 0.000000 -0.002761 0.000000 0.056358
#
#
# Mechanical properties :
#
#
# Convention : Reuss Voigt Hill
#
# Bulk Modulus (GPa) = 17.12174 19.93561 18.52868
# Shear Modulus (GPa) = 25.71278 30.23906 27.97592
#
# Velocity S-wave (km/s) = 3.39132 3.67771 3.53741
# Velocity P-wave (km/s) = 4.79511 5.19144 4.99720
#
# Compressibility (1/GPa) = 0.05840529
#
# Stress axis : x y z
#
# Youngs Moduli (GPa) = 61.20856 92.70439 56.95950
#
# Poissons Ratio (x) = -0.16072 -0.15176
# Poissons Ratio (y) = -0.10612 -0.14036
# Poissons Ratio (z) = -0.16308 -0.22844
#
# Static dielectric constant tensor:
#      x y z
#    x 1.776890 0.000000 0.010120 
#    y 0.000000 2.010240 0.000000 
#    z 0.010120 0.000000 1.769000 
# 
# From -- ./inp_files/66869.got.cif
#   From: 2010.05.17/outbox.cif.g08.bks.cpg/sg5_34_cif.got.tgz:66869.got - 2010.06.03 18:56:24.
