data_PCOD9127615
_publ_section_title
;
Structure prediction by ZEFSAII (Michael W. Deem and Ramdas Pophale) SiO2 
 PCOD9127615
Probable space group: C 2
;
_chemical_formula_sum "Si O2"
_cell_formula_units_Z 32
_cell_length_a 11.090302
_cell_length_b 8.544094
_cell_length_c 28.444146
_cell_angle_alpha 90.000000
_cell_angle_beta 34.793903
_cell_angle_gamma 90.000000
_cell_volume 1537.991677
_symmetry_space_group_name_H-M "C 2"
_symmetry_group_IT_number 5
_symmetry_cell_setting 'monoclinic'
loop_
_space_group_symop_operation_xyz
x,y,z
-x,y,-z
1/2+x,1/2+y,z
1/2-x,1/2+y,-z
loop_
_atom_site_type_symbol
_atom_site_label
_atom_site_fract_x
_atom_site_fract_y
_atom_site_fract_z
Si Si1 0.573894 0.245710 0.777737
Si Si2 0.469044 0.596074 0.228967
Si Si3 0.219613 0.632732 0.953827
Si Si4 0.519443 0.186866 0.617005
Si Si5 0.650000 0.535006 0.549044
Si Si6 0.703699 0.756607 0.965947
Si Si7 0.281976 0.069305 0.355518
Si Si8 0.470229 0.744983 0.326826
O O1 0.496706 0.409166 0.780521
O O2 0.413362 0.203789 0.870607
O O3 0.601718 0.108946 0.730711
O O4 0.807605 0.289069 0.720960
O O5 0.599918 0.659215 0.142871
O O6 0.534498 0.662004 0.258121
O O7 0.226286 0.648800 0.301452
O O8 0.200746 0.445487 0.967003
O O9 0.279988 0.701948 0.985305
O O10 0.000000 0.688152 0.000000
O O11 0.579792 0.356907 0.578347
O O12 0.621739 0.177416 0.635418
O O13 0.631012 0.060132 0.547442
O O14 0.463789 0.601562 0.575197
O O15 0.643948 0.629057 0.599992
O O16 0.500000 0.705022 0.000000
O O17 0.329422 0.894451 0.358485
#
# Coordination Sequence:
#
# PCOD9127615 Si02
#       8
#     4   4   4   4   4   4   4   4
#     4  10  23  40  65  94 128 169 213 265 324 388
#     4  11  23  41  67  94 128 172 215 262 324 386
#     4  10  23  44  65  96 135 171 216 272 325 390
#     4  12  24  43  66  93 128 169 214 267 323 388
#     4  11  26  43  63  92 129 168 214 268 327 380
#     4  10  23  40  64  98 131 170 215 270 328 392
#     4  11  23  42  65  91 127 166 214 266 318 384
#     4  11  22  43  64  93 126 167 217 266 319 386
#
# _framework density 20.806356000000001
#
# number of rings (size 3 to 8) (size 9 to 14) (size 15 to 20)
#    0.000    1.250    2.500    2.625    3.500    2.000 
#    4.500    0.000    0.000    0.000    0.000    0.000 
#    0.000    0.000    0.000    0.000    0.000    0.000 
#
# Total GULP energy -89413.993491 kJ/mol
# GULP energy per Si atom -5588.374593 kJ/mol
# Density = 2.075900 g / cm^3
# Si number density = 20.806356 Si / 1000 Ang^3
#
#
#
# Elastic Constant Matrix: (Units=GPa)
#
#
# Indices 1 2 3 4 5 6 
#
# 1 96.9587 30.2171 34.0682 0.0000 15.7948 0.0001
# 2 30.2171 39.3112 27.2480 0.0001 -0.5828 0.0000
# 3 34.0682 27.2480 145.2229 -0.0005 4.6182 0.0005
# 4 0.0000 0.0001 -0.0005 27.6920 0.0001 12.1595
# 5 15.7948 -0.5828 4.6182 0.0001 26.5323 0.0000
# 6 0.0001 0.0000 0.0005 12.1595 0.0000 34.8480
#
#
#
# Elastic Compliance Matrix: (Units=1/GPa)
#
#
# Indices 1 2 3 4 5 6 
#
# 1 0.015878 -0.011464 -0.001272 0.000000 -0.009483 0.000000
# 2 -0.011464 0.037585 -0.004632 0.000000 0.008456 0.000000
# 3 -0.001272 -0.004632 0.008077 0.000000 -0.000750 0.000000
# 4 0.000000 0.000000 0.000000 0.042645 0.000000 -0.014880
# 5 -0.009483 0.008456 -0.000750 0.000000 0.043651 0.000000
# 6 0.000000 0.000000 0.000000 -0.014880 0.000000 0.033888
#
#
# Mechanical properties :
#
#
# Convention : Reuss Voigt Hill
#
# Bulk Modulus (GPa) = 37.30583 51.61772 44.46177
# Shear Modulus (GPa) = 22.18315 30.47844 26.33080
#
# Velocity S-wave (km/s) = 3.26877 3.83150 3.56127
# Velocity P-wave (km/s) = 5.67586 6.66606 6.19079
#
# Compressibility (1/GPa) = 0.02680546
#
# Stress axis : x y z
#
# Youngs Moduli (GPa) = 62.97988 26.60606 123.80251
#
# Poissons Ratio (x) = 0.30500 0.15753
# Poissons Ratio (y) = 0.72197 0.57342
# Poissons Ratio (z) = 0.08014 0.12323
#
# Static dielectric constant tensor:
#      x y z
#    x 1.727200 0.000000 -0.007550 
#    y 0.000000 1.755560 0.000000 
#    z -0.007550 0.000000 1.727700 
# 
# From -- ./inp_files/65147.got.cif
#   From: 2010.05.17/outbox.cif.g08.bks.cpg/sg5_33_cif.got.tgz:65147.got - 2010.06.03 18:56:24.
