data_PCOD9127889
_publ_section_title
;
Structure prediction by ZEFSAII (Michael W. Deem and Ramdas Pophale) SiO2 
 PCOD9127889
Probable space group: C 2
;
_chemical_formula_sum "Si O2"
_cell_formula_units_Z 30
_cell_length_a 14.018740
_cell_length_b 11.425793
_cell_length_c 16.588099
_cell_angle_alpha 90.000000
_cell_angle_beta 27.159273
_cell_angle_gamma 90.000000
_cell_volume 1212.830199
_symmetry_space_group_name_H-M "C 2"
_symmetry_group_IT_number 5
_symmetry_cell_setting 'monoclinic'
loop_
_space_group_symop_operation_xyz
x,y,z
-x,y,-z
1/2+x,1/2+y,z
1/2-x,1/2+y,-z
loop_
_atom_site_type_symbol
_atom_site_label
_atom_site_fract_x
_atom_site_fract_y
_atom_site_fract_z
Si Si1 0.712591 0.160400 0.235773
Si Si2 0.188902 0.605638 0.791671
Si Si3 0.001263 0.419696 0.815879
Si Si4 0.229544 0.172548 0.627772
Si Si5 0.341476 0.430812 0.342714
Si Si6 0.360288 0.448516 0.029826
Si Si7 0.168388 0.901024 0.210962
Si Si8 0.000000 0.305965 0.500000
O O1 0.463732 0.160357 0.420897
O O2 0.768268 0.119462 0.283013
O O3 0.763121 0.295550 0.190548
O O4 0.816124 0.083177 0.089328
O O5 0.332322 0.511920 0.730780
O O6 0.323014 0.720387 0.670329
O O7 0.117747 0.537564 0.761970
O O8 0.000000 0.624904 0.000000
O O9 0.872227 0.419812 0.828689
O O10 0.138416 0.301695 0.705047
O O11 0.826759 0.411804 0.017356
O O12 0.118183 0.067847 0.664564
O O13 0.443276 0.368621 0.342870
O O14 0.117557 0.386120 0.478973
O O15 0.495894 0.411485 0.152174
O O16 0.500000 0.403393 0.000000
#
# Coordination Sequence:
#
# PCOD9127889 Si02
#       8
#     4   4   4   4   4   4   4   2
#     4  11  23  39  74 104 141 185 239 301 364 427
#     4  10  24  49  76 107 146 192 246 304 373 435
#     4  10  23  44  76 107 140 187 248 301 364 441
#     4  11  23  44  70 108 140 185 246 304 358 440
#     4  11  26  47  65 103 147 190 244 296 360 442
#     4  11  24  45  71 101 141 193 238 294 370 429
#     4  10  23  43  71 107 140 189 241 296 365 434
#     4  12  28  48  72 102 156 194 244 308 364 440
#
# _framework density 24.735531999999999
#
# number of rings (size 3 to 8) (size 9 to 14) (size 15 to 20)
#    0.000    1.333    2.667    1.600    3.733    2.667 
#    9.600    0.000    0.000    0.000    0.000    0.000 
#    0.000    0.000    0.000    0.000    0.000    0.000 
#
# Total GULP energy -83630.674603 kJ/mol
# GULP energy per Si atom -5575.378307 kJ/mol
# Density = 2.467923 g / cm^3
# Si number density = 24.735532 Si / 1000 Ang^3
#
#
#
# Elastic Constant Matrix: (Units=GPa)
#
#
# Indices 1 2 3 4 5 6 
#
# 1 136.8356 39.1830 41.5069 -0.0007 -23.4116 -0.0003
# 2 39.1830 113.6449 29.5600 -0.0012 -4.4371 -0.0004
# 3 41.5069 29.5600 76.9072 -0.0025 -5.2695 0.0003
# 4 -0.0007 -0.0012 -0.0025 42.0147 0.0013 -6.2581
# 5 -23.4116 -4.4371 -5.2695 0.0013 33.5543 0.0002
# 6 -0.0003 -0.0004 0.0003 -6.2581 0.0002 23.5525
#
#
#
# Elastic Compliance Matrix: (Units=1/GPa)
#
#
# Indices 1 2 3 4 5 6 
#
# 1 0.010303 -0.002193 -0.004291 0.000000 0.006224 0.000000
# 2 -0.002193 0.010260 -0.002802 0.000000 -0.000613 0.000000
# 3 -0.004291 -0.002802 0.016341 0.000001 -0.000798 0.000000
# 4 0.000000 0.000000 0.000001 0.024782 -0.000001 0.006585
# 5 0.006224 -0.000613 -0.000798 -0.000001 0.033939 0.000000
# 6 0.000000 0.000000 0.000000 0.006585 0.000000 0.044208
#
#
# Mechanical properties :
#
#
# Convention : Reuss Voigt Hill
#
# Bulk Modulus (GPa) = 54.55047 60.87637 57.71342
# Shear Modulus (GPa) = 30.39233 34.30017 32.34625
#
# Velocity S-wave (km/s) = 3.50907 3.72785 3.62011
# Velocity P-wave (km/s) = 6.20641 6.57217 6.39191
#
# Compressibility (1/GPa) = 0.01833165
#
# Stress axis : x y z
#
# Youngs Moduli (GPa) = 97.06329 97.46244 61.19646
#
# Poissons Ratio (x) = 0.21374 0.26259
# Poissons Ratio (y) = 0.21286 0.17148
# Poissons Ratio (z) = 0.41649 0.27310
#
# Static dielectric constant tensor:
#      x y z
#    x 2.060480 0.000000 -0.007020 
#    y 0.000000 1.971340 0.000000 
#    z -0.007020 0.000000 1.991980 
# 
# From -- ./inp_files/61622.got.cif
#   From: 2010.05.17/outbox.cif.g08.bks.cpg/sg5_31_cif.got.tgz:61622.got - 2010.06.03 18:56:24.
