data_PCOD9127359
_publ_section_title
;
Structure prediction by ZEFSAII (Michael W. Deem and Ramdas Pophale) SiO2 
 PCOD9127359
Probable space group: C 2
;
_chemical_formula_sum "Si O2"
_cell_formula_units_Z 20
_cell_length_a 7.953532
_cell_length_b 12.241304
_cell_length_c 10.171741
_cell_angle_alpha 90.000000
_cell_angle_beta 65.474806
_cell_angle_gamma 90.000000
_cell_volume 900.987651
_symmetry_space_group_name_H-M "C 2"
_symmetry_group_IT_number 5
_symmetry_cell_setting 'monoclinic'
loop_
_space_group_symop_operation_xyz
x,y,z
-x,y,-z
1/2+x,1/2+y,z
1/2-x,1/2+y,-z
loop_
_atom_site_type_symbol
_atom_site_label
_atom_site_fract_x
_atom_site_fract_y
_atom_site_fract_z
Si Si1 0.848485 0.396600 0.261098
Si Si2 0.905326 0.175628 0.160709
Si Si3 0.220276 0.309222 0.445168
Si Si4 0.993080 0.615593 0.343430
Si Si5 0.487964 0.501354 0.343978
O O1 0.962498 0.302634 0.154440
O O2 0.750298 0.326624 0.408902
O O3 0.679525 0.447359 0.236580
O O4 0.952677 0.497758 0.293134
O O5 0.684249 0.161984 0.225133
O O6 0.961502 0.112250 0.274479
O O7 0.000000 0.128418 0.000000
O O8 0.327750 0.201006 0.366741
O O9 0.322303 0.418307 0.359899
O O10 0.000000 0.306640 0.500000
O O11 0.000000 0.604606 0.500000
O O12 0.500000 0.516367 0.500000
#
# Coordination Sequence:
#
# PCOD9127359 Si02
#       5
#     4   4   4   4   4
#     4  11  24  41  71 101 139 180 234 294 346 411
#     4  12  27  47  70 103 152 186 227 290 360 421
#     4  11  22  38  73 110 138 176 239 301 347 401
#     4  12  23  45  70 105 144 181 241 296 342 417
#     4  10  22  45  72 104 138 182 237 296 341 415
#
# _framework density 22.197861
#
# number of rings (size 3 to 8) (size 9 to 14) (size 15 to 20)
#    0.000    0.800    4.000    4.800    2.800    2.400 
#    0.000    0.000    0.000    0.000    0.000    0.000 
#    0.000    0.000    0.000    0.000    0.000    0.000 
#
# Total GULP energy -55897.591267 kJ/mol
# GULP energy per Si atom -5589.759127 kJ/mol
# Density = 2.214734 g / cm^3
# Si number density = 22.197861 Si / 1000 Ang^3
#
#
#
# Elastic Constant Matrix: (Units=GPa)
#
#
# Indices 1 2 3 4 5 6 
#
# 1 138.9494 74.1891 30.0747 0.0000 -18.9849 0.0000
# 2 74.1891 184.2151 42.6587 0.0000 2.9943 0.0000
# 3 30.0747 42.6587 74.9133 0.0000 -1.9436 0.0000
# 4 0.0000 0.0000 0.0000 13.1392 0.0000 -5.1013
# 5 -18.9849 2.9943 -1.9436 0.0000 16.4278 0.0000
# 6 0.0000 0.0000 0.0000 -5.1013 0.0000 40.6311
#
#
#
# Elastic Compliance Matrix: (Units=1/GPa)
#
#
# Indices 1 2 3 4 5 6 
#
# 1 0.012086 -0.004687 -0.001804 0.000000 0.014608 0.000000
# 2 -0.004687 0.008111 -0.002925 0.000000 -0.007241 0.000000
# 3 -0.001804 -0.002925 0.015747 0.000000 0.000311 0.000000
# 4 0.000000 0.000000 0.000000 0.080008 0.000000 0.010045
# 5 0.014608 -0.007241 0.000311 0.000000 0.079111 0.000000
# 6 0.000000 0.000000 0.000000 0.010045 0.000000 0.025873
#
#
# Mechanical properties :
#
#
# Convention : Reuss Voigt Hill
#
# Bulk Modulus (GPa) = 58.44011 76.88032 67.66022
# Shear Modulus (GPa) = 20.36898 30.78330 25.57614
#
# Velocity S-wave (km/s) = 3.03249 3.72797 3.39807
# Velocity P-wave (km/s) = 6.21654 7.29655 6.77809
#
# Compressibility (1/GPa) = 0.01711153
#
# Stress axis : x y z
#
# Youngs Moduli (GPa) = 82.74198 123.28810 63.50549
#
# Poissons Ratio (x) = 0.57785 0.11456
# Poissons Ratio (y) = 0.38781 0.18575
# Poissons Ratio (z) = 0.14927 0.36062
#
# Static dielectric constant tensor:
#      x y z
#    x 1.867420 0.000000 -0.018360 
#    y 0.000000 1.895060 0.000000 
#    z -0.018360 0.000000 1.809780 
# 
# From -- ./inp_files/35120.got.cif
#   From: 2010.05.17/outbox.cif.g08.bks.cpg/sg5_18_cif.got.tgz:35120.got - 2010.06.03 18:56:24.
