data_PCOD9127419
_publ_section_title
;
Structure prediction by ZEFSAII (Michael W. Deem and Ramdas Pophale) SiO2 
 PCOD9127419
Probable space group: C 2
;
_chemical_formula_sum "Si O2"
_cell_formula_units_Z 16
_cell_length_a 14.497792
_cell_length_b 4.850845
_cell_length_c 11.735848
_cell_angle_alpha 90.000000
_cell_angle_beta 48.060586
_cell_angle_gamma 90.000000
_cell_volume 613.931975
_symmetry_space_group_name_H-M "C 2"
_symmetry_group_IT_number 5
_symmetry_cell_setting 'monoclinic'
loop_
_space_group_symop_operation_xyz
x,y,z
-x,y,-z
1/2+x,1/2+y,z
1/2-x,1/2+y,-z
loop_
_atom_site_type_symbol
_atom_site_label
_atom_site_fract_x
_atom_site_fract_y
_atom_site_fract_z
Si Si1 0.378420 0.242480 0.133807
Si Si2 0.377263 0.080289 0.655879
Si Si3 0.829720 0.478590 0.940995
Si Si4 0.254644 0.926729 0.415991
O O1 0.251511 0.413048 0.242011
O O2 0.369395 0.065307 0.255852
O O3 0.500000 0.415454 0.000000
O O4 0.376604 0.038334 0.027759
O O5 0.500000 0.951595 0.500000
O O6 0.399393 0.099371 0.772940
O O7 0.343449 0.338204 0.601332
O O8 0.798624 0.157898 0.954558
O O9 0.291194 0.656462 0.457161
#
# Coordination Sequence:
#
# PCOD9127419 Si02
#       4
#     4   4   4   4
#     4  11  26  49  77 117 151 202 253 316 385 453
#     4  11  26  49  77 117 151 202 253 316 385 453
#     4  10  22  46  70 106 148 194 246 306 368 448
#     4  12  26  50  72 114 158 204 250 314 378 462
#
# _framework density 26.061520999999999
#
# number of rings (size 3 to 8) (size 9 to 14) (size 15 to 20)
#    0.000    1.000    5.000    0.000    3.500    2.000 
#    4.500    0.000    0.000    0.000    0.000    0.000 
#    0.000    0.000    0.000    0.000    0.000    0.000 
#
# Total GULP energy -44696.348135 kJ/mol
# GULP energy per Si atom -5587.043517 kJ/mol
# Density = 2.600220 g / cm^3
# Si number density = 26.061521 Si / 1000 Ang^3
#
#
#
# Elastic Constant Matrix: (Units=GPa)
#
#
# Indices 1 2 3 4 5 6 
#
# 1 96.9985 36.3439 70.7378 -0.0116 12.2048 0.0046
# 2 36.3439 114.6732 49.9732 -0.0203 3.3706 0.0130
# 3 70.7378 49.9732 215.3774 -0.0032 11.2545 0.0029
# 4 -0.0116 -0.0203 -0.0032 24.3205 -0.0018 7.4787
# 5 12.2048 3.3706 11.2545 -0.0018 67.4987 -0.0007
# 6 0.0046 0.0130 0.0029 7.4787 -0.0007 31.1972
#
#
#
# Elastic Compliance Matrix: (Units=1/GPa)
#
#
# Indices 1 2 3 4 5 6 
#
# 1 0.014521 -0.002794 -0.004026 0.000004 -0.001815 -0.000002
# 2 -0.002794 0.010240 -0.001471 0.000009 0.000239 -0.000006
# 3 -0.004026 -0.001471 0.006320 -0.000003 -0.000252 0.000001
# 4 0.000004 0.000009 -0.000003 0.044390 0.000000 -0.010641
# 5 -0.001815 0.000239 -0.000252 0.000000 0.015173 0.000000
# 6 -0.000002 -0.000006 0.000001 -0.010641 0.000000 0.034605
#
#
# Mechanical properties :
#
#
# Convention : Reuss Voigt Hill
#
# Bulk Modulus (GPa) = 68.97268 82.35097 75.66183
# Shear Modulus (GPa) = 34.09161 42.60287 38.34724
#
# Velocity S-wave (km/s) = 3.62072 4.04753 3.84006
# Velocity P-wave (km/s) = 6.63342 7.31510 6.98258
#
# Compressibility (1/GPa) = 0.01449849
#
# Stress axis : x y z
#
# Youngs Moduli (GPa) = 68.86681 97.65695 158.23516
#
# Poissons Ratio (x) = 0.27289 0.63705
# Poissons Ratio (y) = 0.19244 0.23271
# Poissons Ratio (z) = 0.27726 0.14362
#
# Static dielectric constant tensor:
#      x y z
#    x 2.250900 -0.000010 -0.052490 
#    y -0.000010 2.058180 0.000000 
#    z -0.052490 0.000000 2.047490 
# 
# From -- ./inp_files/4261.got.cif
#   From: 2010.05.17/outbox.cif.g08.bks.cpg/sg5_3_cif.got.tgz:4261.got - 2010.06.03 18:56:24.
