data_PCOD9127518
_publ_section_title
;
Structure prediction by ZEFSAII (Michael W. Deem and Ramdas Pophale) SiO2 
 PCOD9127518
Probable space group: C 2
;
_chemical_formula_sum "Si O2"
_cell_formula_units_Z 20
_cell_length_a 29.114867
_cell_length_b 5.186438
_cell_length_c 4.973325
_cell_angle_alpha 90.000000
_cell_angle_beta 110.751732
_cell_angle_gamma 90.000000
_cell_volume 702.263792
_symmetry_space_group_name_H-M "C 2"
_symmetry_group_IT_number 5
_symmetry_cell_setting 'monoclinic'
loop_
_space_group_symop_operation_xyz
x,y,z
-x,y,-z
1/2+x,1/2+y,z
1/2-x,1/2+y,-z
loop_
_atom_site_type_symbol
_atom_site_label
_atom_site_fract_x
_atom_site_fract_y
_atom_site_fract_z
Si Si1 0.243272 0.065460 0.814374
Si Si2 0.000000 0.423803 0.000000
Si Si3 0.576981 0.593550 0.816815
Si Si4 0.862848 0.857710 0.466206
Si Si5 0.000000 0.689237 0.500000
Si Si6 0.848006 0.502217 0.907905
O O1 0.289928 0.002479 0.724488
O O2 0.188695 0.005817 0.605424
O O3 0.248323 0.355518 0.930310
O O4 0.961010 0.282091 0.112331
O O5 0.027848 0.558560 0.307406
O O6 0.594785 0.553601 0.542266
O O7 0.541393 0.345291 0.748174
O O8 0.627973 0.720412 0.028930
O O9 0.873049 0.691649 0.748271
O O10 0.855197 0.652437 0.205904
#
# Coordination Sequence:
#
# PCOD9127518 Si02
#       6
#     4   2   4   4   2   4
#     4  10  22  48  74 120 168 228 278 340 412 502
#     4  12  28  48  78 116 162 212 274 346 414 496
#     4  12  26  52  78 118 158 214 274 336 422 488
#     4  11  26  46  77 114 163 215 273 334 409 498
#     4  12  28  48  78 116 162 212 274 346 414 496
#     4  11  26  46  77 114 163 215 273 334 409 498
#
# _framework density 28.479323000000001
#
# number of rings (size 3 to 8) (size 9 to 14) (size 15 to 20)
#    0.000    0.800    2.000    3.600    0.000   14.400 
#    0.000    0.000    0.000    0.000    0.000    0.000 
#    0.000    0.000    0.000    0.000    0.000    0.000 
#
# Total GULP energy -55876.697451 kJ/mol
# GULP energy per Si atom -5587.669745 kJ/mol
# Density = 2.841450 g / cm^3
# Si number density = 28.479323 Si / 1000 Ang^3
#
#
#
# Elastic Constant Matrix: (Units=GPa)
#
#
# Indices 1 2 3 4 5 6 
#
# 1 196.8961 36.6571 27.7297 0.0000 -12.6678 0.0000
# 2 36.6571 100.7450 62.9448 0.0000 -13.9866 0.0000
# 3 27.7297 62.9448 152.9210 0.0000 -13.4459 0.0000
# 4 0.0000 0.0000 0.0000 51.9348 0.0000 -6.6885
# 5 -12.6678 -13.9866 -13.4459 0.0000 40.6510 0.0000
# 6 0.0000 0.0000 0.0000 -6.6885 0.0000 35.6201
#
#
#
# Elastic Compliance Matrix: (Units=1/GPa)
#
#
# Indices 1 2 3 4 5 6 
#
# 1 0.005496 -0.001735 -0.000190 0.000000 0.001053 0.000000
# 2 -0.001735 0.014241 -0.005319 0.000000 0.002600 0.000000
# 3 -0.000190 -0.005319 0.008854 0.000000 0.001040 0.000000
# 4 0.000000 0.000000 0.000000 0.019732 0.000000 0.003705
# 5 0.001053 0.002600 0.001040 0.000000 0.026166 0.000000
# 6 0.000000 0.000000 0.000000 0.003705 0.000000 0.028770
#
#
# Mechanical properties :
#
#
# Convention : Reuss Voigt Hill
#
# Bulk Modulus (GPa) = 70.89791 78.35836 74.62814
# Shear Modulus (GPa) = 40.83315 47.18986 44.01151
#
# Velocity S-wave (km/s) = 3.79064 4.07503 3.93540
# Velocity P-wave (km/s) = 6.64132 7.05088 6.84917
#
# Compressibility (1/GPa) = 0.01410479
#
# Stress axis : x y z
#
# Youngs Moduli (GPa) = 181.93931 70.21735 112.93734
#
# Poissons Ratio (x) = 0.12183 0.02145
# Poissons Ratio (y) = 0.31568 0.60069
# Poissons Ratio (z) = 0.03455 0.37347
#
# Static dielectric constant tensor:
#      x y z
#    x 2.182820 0.000000 0.041890 
#    y 0.000000 2.462360 0.000000 
#    z 0.041890 0.000000 2.239090 
# 
# From -- ./inp_files/10955.got.cif
#   From: 2010.05.17/outbox.cif.g08.bks.cpg/sg5_6_cif.got.tgz:10955.got - 2010.06.03 18:56:24.
