data_PCOD9127958
_publ_section_title
;
Structure prediction by ZEFSAII (Michael W. Deem and Ramdas Pophale) SiO2 
 PCOD9127958
Probable space group: C 2
;
_chemical_formula_sum "Si O2"
_cell_formula_units_Z 24
_cell_length_a 22.481009
_cell_length_b 5.286577
_cell_length_c 9.180449
_cell_angle_alpha 90.000000
_cell_angle_beta 78.985049
_cell_angle_gamma 90.000000
_cell_volume 1070.973726
_symmetry_space_group_name_H-M "C 2"
_symmetry_group_IT_number 5
_symmetry_cell_setting 'monoclinic'
loop_
_space_group_symop_operation_xyz
x,y,z
-x,y,-z
1/2+x,1/2+y,z
1/2-x,1/2+y,-z
loop_
_atom_site_type_symbol
_atom_site_label
_atom_site_fract_x
_atom_site_fract_y
_atom_site_fract_z
Si Si1 0.274861 0.748080 0.908102
Si Si2 0.013545 0.780567 0.330496
Si Si3 0.395965 0.063669 0.223017
Si Si4 0.898841 0.518558 0.903316
Si Si5 0.013764 0.170482 0.850817
Si Si6 0.268371 0.185380 0.404890
O O1 0.258285 0.716285 0.745949
O O2 0.344928 0.831257 0.888577
O O3 0.260118 0.486783 0.000148
O O4 0.078374 0.693747 0.238659
O O5 0.000000 0.710349 0.500000
O O6 0.955662 0.688448 0.262825
O O7 0.008034 0.074607 0.296033
O O8 0.338671 0.113634 0.348578
O O9 0.418088 0.771328 0.198833
O O10 0.381856 0.149944 0.064367
O O11 0.961051 0.373187 0.908962
O O12 0.000000 0.995709 0.000000
O O13 0.260848 0.448085 0.495683
#
# Coordination Sequence:
#
# PCOD9127958 Si02
#       6
#     4   4   4   4   4   4
#     4  12  27  49  79 112 149 204 267 313 369 463
#     4  11  24  39  67 106 143 186 240 316 385 443
#     4  10  23  46  69  98 141 194 252 300 376 454
#     4  10  23  44  70 100 135 189 254 306 361 454
#     4   9  20  39  70  96 131 187 246 303 369 437
#     4  12  29  49  75 112 157 204 251 320 393 446
#
# _framework density 22.409514000000001
#
# number of rings (size 3 to 8) (size 9 to 14) (size 15 to 20)
#    0.000    1.333    1.667    3.500    7.000    5.333 
#    0.000    0.000    0.000    0.000    0.000    0.000 
#    0.000    0.000    0.000    0.000    0.000    0.000 
#
# Total GULP energy -66895.438566 kJ/mol
# GULP energy per Si atom -5574.619880 kJ/mol
# Density = 2.235851 g / cm^3
# Si number density = 22.409514 Si / 1000 Ang^3
#
#
#
# Elastic Constant Matrix: (Units=GPa)
#
#
# Indices 1 2 3 4 5 6 
#
# 1 116.8984 30.0691 41.3646 0.0000 -12.1649 0.0000
# 2 30.0691 88.7623 62.1118 0.0000 1.5192 0.0000
# 3 41.3646 62.1118 158.3668 0.0000 2.0772 0.0000
# 4 0.0000 0.0000 0.0000 34.1280 0.0000 -2.5661
# 5 -12.1649 1.5192 2.0772 0.0000 38.7899 0.0000
# 6 0.0000 0.0000 0.0000 -2.5661 0.0000 30.4194
#
#
#
# Elastic Compliance Matrix: (Units=1/GPa)
#
#
# Indices 1 2 3 4 5 6 
#
# 1 0.010116 -0.002212 -0.001819 0.000000 0.003357 0.000000
# 2 -0.002212 0.016014 -0.005690 0.000000 -0.001016 0.000000
# 3 -0.001819 -0.005690 0.009032 0.000000 -0.000831 0.000000
# 4 0.000000 0.000000 0.000000 0.029489 0.000000 0.002488
# 5 0.003357 -0.001016 -0.000831 0.000000 0.026917 0.000000
# 6 0.000000 0.000000 0.000000 0.002488 0.000000 0.033084
#
#
# Mechanical properties :
#
#
# Convention : Reuss Voigt Hill
#
# Bulk Modulus (GPa) = 63.60642 70.12426 66.86534
# Shear Modulus (GPa) = 33.48232 36.03291 34.75762
#
# Velocity S-wave (km/s) = 3.86957 4.01425 3.94257
# Velocity P-wave (km/s) = 6.95773 7.26951 7.11533
#
# Compressibility (1/GPa) = 0.01572168
#
# Stress axis : x y z
#
# Youngs Moduli (GPa) = 98.85081 62.44502 110.71752
#
# Poissons Ratio (x) = 0.13810 0.20139
# Poissons Ratio (y) = 0.21862 0.62996
# Poissons Ratio (z) = 0.17980 0.35530
#
# Static dielectric constant tensor:
#      x y z
#    x 1.810760 0.000000 0.064240 
#    y 0.000000 2.337380 0.000000 
#    z 0.064240 0.000000 1.974920 
# 
# From -- ./inp_files/30243.got.cif
#   From: 2010.05.17/outbox.cif.g08.bks.cpg/sg5_16_cif.got.tgz:30243.got - 2010.06.03 18:56:24.
