data_PCOD9127907
_publ_section_title
;
Structure prediction by ZEFSAII (Michael W. Deem and Ramdas Pophale) SiO2 
 PCOD9127907
Probable space group: C 2
;
_chemical_formula_sum "Si O2"
_cell_formula_units_Z 18
_cell_length_a 7.296243
_cell_length_b 18.407601
_cell_length_c 5.657083
_cell_angle_alpha 90.000000
_cell_angle_beta 107.221263
_cell_angle_gamma 90.000000
_cell_volume 725.719929
_symmetry_space_group_name_H-M "C 2"
_symmetry_group_IT_number 5
_symmetry_cell_setting 'monoclinic'
loop_
_space_group_symop_operation_xyz
x,y,z
-x,y,-z
1/2+x,1/2+y,z
1/2-x,1/2+y,-z
loop_
_atom_site_type_symbol
_atom_site_label
_atom_site_fract_x
_atom_site_fract_y
_atom_site_fract_z
Si Si1 0.785091 0.621130 0.814926
Si Si2 0.000000 0.220816 0.000000
Si Si3 0.725749 0.398151 0.300432
Si Si4 0.286025 0.452878 0.202083
Si Si5 0.284343 0.252843 0.498743
O O1 0.713222 0.539407 0.765892
O O2 0.775763 0.669105 0.574100
O O3 0.650013 0.667347 0.932551
O O4 0.000000 0.620855 0.000000
O O5 0.128100 0.264255 0.236472
O O6 0.501834 0.421632 0.248042
O O7 0.801714 0.421952 0.587832
O O8 0.745267 0.310942 0.303006
O O9 0.801388 0.433697 0.088280
O O10 0.500000 0.267207 0.500000
#
# Coordination Sequence:
#
# PCOD9127907 Si02
#       5
#     4   2   4   4   4
#     4  12  28  48  79 119 167 215 275 338 416 496
#     4  12  28  48  78 118 164 208 284 332 418 484
#     4  10  23  45  79 108 164 212 267 335 416 473
#     4  10  23  43  75 110 155 214 263 328 410 481
#     4  12  26  49  83 120 163 220 274 345 413 496
#
# _framework density 24.802955999999998
#
# number of rings (size 3 to 8) (size 9 to 14) (size 15 to 20)
#    0.000    0.889    4.444    2.000   15.556    0.000 
#    2.000    0.000    0.000    0.000    0.000    0.000 
#    0.000    0.000    0.000    0.000    0.000    0.000 
#
# Total GULP energy -50380.175640 kJ/mol
# GULP energy per Si atom -5597.797293 kJ/mol
# Density = 2.474650 g / cm^3
# Si number density = 24.802956 Si / 1000 Ang^3
#
#
#
# Elastic Constant Matrix: (Units=GPa)
#
#
# Indices 1 2 3 4 5 6 
#
# 1 108.5783 18.8423 52.5687 0.0000 17.7849 0.0000
# 2 18.8423 194.2447 66.3923 0.0000 -5.4660 0.0000
# 3 52.5687 66.3923 163.8869 0.0000 -4.3779 0.0000
# 4 0.0000 0.0000 0.0000 33.9480 0.0000 -3.7292
# 5 17.7849 -5.4660 -4.3779 0.0000 63.8925 0.0000
# 6 0.0000 0.0000 0.0000 -3.7292 0.0000 18.8780
#
#
#
# Elastic Compliance Matrix: (Units=1/GPa)
#
#
# Indices 1 2 3 4 5 6 
#
# 1 0.011637 0.000093 -0.003864 0.000000 -0.003496 0.000000
# 2 0.000093 0.005984 -0.002446 0.000000 0.000318 0.000000
# 3 -0.003864 -0.002446 0.008370 0.000000 0.001440 0.000000
# 4 0.000000 0.000000 0.000000 0.030110 0.000000 0.005948
# 5 -0.003496 0.000318 0.001440 0.000000 0.016750 0.000000
# 6 0.000000 0.000000 0.000000 0.005948 0.000000 0.054147
#
#
# Mechanical properties :
#
#
# Convention : Reuss Voigt Hill
#
# Bulk Modulus (GPa) = 73.75084 82.47963 78.11523
# Shear Modulus (GPa) = 34.73407 45.27080 40.00243
#
# Velocity S-wave (km/s) = 3.74625 4.27689 4.02034
# Velocity P-wave (km/s) = 6.96504 7.59705 7.28790
#
# Compressibility (1/GPa) = 0.01355917
#
# Stress axis : x y z
#
# Youngs Moduli (GPa) = 85.93173 167.11374 119.46829
#
# Poissons Ratio (x) = -0.01562 0.46163
# Poissons Ratio (y) = -0.00803 0.29218
# Poissons Ratio (z) = 0.33204 0.40870
#
# Static dielectric constant tensor:
#      x y z
#    x 1.958070 0.000000 -0.034230 
#    y 0.000000 1.897470 0.000000 
#    z -0.034230 0.000000 2.054290 
# 
# From -- ./inp_files/3080.got.cif
#   From: 2010.05.17/outbox.cif.g08.bks.cpg/sg5_2_cif.got.tgz:3080.got - 2010.06.03 18:56:24.
