data_PCOD9127012
_publ_section_title
;
Structure prediction by ZEFSAII (Michael W. Deem and Ramdas Pophale) SiO2 
 PCOD9127012
Probable space group: C 2
;
_chemical_formula_sum "Si O2"
_cell_formula_units_Z 16
_cell_length_a 9.885104
_cell_length_b 12.568487
_cell_length_c 9.169697
_cell_angle_alpha 90.000000
_cell_angle_beta 135.486435
_cell_angle_gamma 90.000000
_cell_volume 798.703588
_symmetry_space_group_name_H-M "C 2"
_symmetry_group_IT_number 5
_symmetry_cell_setting 'monoclinic'
loop_
_space_group_symop_operation_xyz
x,y,z
-x,y,-z
1/2+x,1/2+y,z
1/2-x,1/2+y,-z
loop_
_atom_site_type_symbol
_atom_site_label
_atom_site_fract_x
_atom_site_fract_y
_atom_site_fract_z
Si Si1 0.115980 0.989570 0.940244
Si Si2 0.544663 0.128126 0.864073
Si Si3 0.009132 0.416771 0.331993
Si Si4 0.594863 0.331042 0.416081
O O1 0.230679 0.096530 0.986415
O O2 0.291223 0.905266 0.105067
O O3 0.000000 0.003177 0.000000
O O4 0.981796 0.940837 0.713493
O O5 0.440248 0.033496 0.693306
O O6 0.476491 0.237954 0.744609
O O7 0.500000 0.121090 0.000000
O O8 0.173313 0.337505 0.403446
O O9 0.000000 0.416966 0.500000
O O10 0.500000 0.315638 0.500000
#
# Coordination Sequence:
#
# PCOD9127012 Si02
#       4
#     4   4   4   4
#     4  10  22  44  66  92 129 163 210 266 309 371
#     4  10  23  42  62  95 129 162 212 256 314 373
#     4  10  22  43  66  91 128 168 209 259 313 372
#     4  12  23  41  66  94 129 168 211 256 315 376
#
# _framework density 20.032461000000001
#
# number of rings (size 3 to 8) (size 9 to 14) (size 15 to 20)
#    1.500    0.000    2.500    3.000    0.000    0.000 
#    9.000    1.250    0.000    0.000    0.000    0.000 
#    0.000    0.000    0.000    0.000    0.000    0.000 
#
# Total GULP energy -44596.141791 kJ/mol
# GULP energy per Si atom -5574.517724 kJ/mol
# Density = 1.998687 g / cm^3
# Si number density = 20.032461 Si / 1000 Ang^3
#
#
#
# Elastic Constant Matrix: (Units=GPa)
#
#
# Indices 1 2 3 4 5 6 
#
# 1 171.6902 25.1944 35.3767 0.0000 2.5018 0.0000
# 2 25.1944 46.1158 -12.8529 0.0000 11.6534 0.0000
# 3 35.3767 -12.8529 37.5568 0.0000 11.7365 0.0000
# 4 0.0000 0.0000 0.0000 25.5720 0.0000 12.9648
# 5 2.5018 11.6534 11.7365 0.0000 34.9789 0.0000
# 6 0.0000 0.0000 0.0000 12.9648 0.0000 1.9950
#
#
#
# Elastic Compliance Matrix: (Units=1/GPa)
#
#
# Indices 1 2 3 4 5 6 
#
# 1 0.011766 -0.014443 -0.019289 0.000000 0.010442 0.000000
# 2 -0.014443 0.047249 0.038397 0.000000 -0.027592 0.000000
# 3 -0.019289 0.038397 0.068707 0.000000 -0.034466 0.000000
# 4 0.000000 0.000000 0.000000 -0.017041 0.000000 0.110744
# 5 0.010442 -0.027592 -0.034466 0.000000 0.048598 0.000000
# 6 0.000000 0.000000 0.000000 0.110744 0.000000 -0.218434
#
#
# Mechanical properties :
#
#
# Convention : Reuss Voigt Hill
#
# Bulk Modulus (GPa) = 7.29653 38.97767 23.13710
# Shear Modulus (GPa) = -219.30123 26.35217 -96.47453
#
# Velocity S-wave (km/s) = -10.47428 3.63088 -6.94720
# Velocity P-wave (km/s) = 11.94280 6.08911 7.26475
#
# Compressibility (1/GPa) = 0.13705151
#
# Stress axis : x y z
#
# Youngs Moduli (GPa) = 84.98878 21.16437 14.55459
#
# Poissons Ratio (x) = 0.30568 0.28075
# Poissons Ratio (y) = 1.22750 -0.55885
# Poissons Ratio (z) = 1.63937 -0.81265
#
# Static dielectric constant tensor:
#      x y z
#    x 1.683900 0.000000 0.041580 
#    y 0.000000 1.699710 0.000000 
#    z 0.041580 0.000000 1.701690 
# 
# From -- ./inp_files/13756.got.cif
#   From: 2010.05.17/outbox.cif.g08.bks.cpg/sg5_7_cif.got.tgz:13756.got - 2010.06.03 18:56:24.
