data_PCOD9127920
_publ_section_title
;
Structure prediction by ZEFSAII (Michael W. Deem and Ramdas Pophale) SiO2 
 PCOD9127920
Probable space group: C 2
;
_chemical_formula_sum "Si O2"
_cell_formula_units_Z 20
_cell_length_a 29.745978
_cell_length_b 4.813404
_cell_length_c 11.758540
_cell_angle_alpha 90.000000
_cell_angle_beta 26.374256
_cell_angle_gamma 90.000000
_cell_volume 747.901609
_symmetry_space_group_name_H-M "C 2"
_symmetry_group_IT_number 5
_symmetry_cell_setting 'monoclinic'
loop_
_space_group_symop_operation_xyz
x,y,z
-x,y,-z
1/2+x,1/2+y,z
1/2-x,1/2+y,-z
loop_
_atom_site_type_symbol
_atom_site_label
_atom_site_fract_x
_atom_site_fract_y
_atom_site_fract_z
Si Si1 0.323862 0.117080 0.709224
Si Si2 0.253389 0.411586 0.660691
Si Si3 0.878196 0.890191 0.060313
Si Si4 0.395889 0.379652 0.759476
Si Si5 0.559253 0.090277 0.766638
O O1 0.288878 0.385845 0.712661
O O2 0.391316 0.162350 0.666543
O O3 0.387270 0.956867 0.466082
O O4 0.215597 0.009606 0.995327
O O5 0.349998 0.269936 0.384295
O O6 0.222130 0.708610 0.686781
O O7 0.156861 0.208612 0.862698
O O8 0.899461 0.794640 0.882193
O O9 0.977168 0.804586 0.902806
O O10 0.500000 0.545878 0.500000
O O11 0.500000 0.927109 0.000000
#
# Coordination Sequence:
#
# PCOD9127920 Si02
#       5
#     4   4   4   4   4
#     4   9  21  39  61 101 125 174 214 277 321 398
#     4   9  23  42  64  98 132 169 227 268 326 398
#     4  11  22  43  67  96 131 179 216 273 338 385
#     4  11  19  39  64  93 137 165 222 271 336 393
#     4  10  23  44  65  97 136 176 224 273 331 398
#
# _framework density 26.741485000000001
#
# number of rings (size 3 to 8) (size 9 to 14) (size 15 to 20)
#    1.200    0.800    2.000    1.200    0.000    3.200 
#    7.200    3.000    0.000    0.000    0.000    0.000 
#    0.000    0.000    0.000    0.000    0.000    0.000 
#
# Total GULP energy -55785.053157 kJ/mol
# GULP energy per Si atom -5578.505316 kJ/mol
# Density = 2.668062 g / cm^3
# Si number density = 26.741485 Si / 1000 Ang^3
#
#
#
# Elastic Constant Matrix: (Units=GPa)
#
#
# Indices 1 2 3 4 5 6 
#
# 1 133.0244 11.6966 41.2443 0.0000 11.0247 -0.0001
# 2 11.6966 71.2776 17.2600 0.0000 -2.2089 0.0001
# 3 41.2443 17.2600 178.4129 0.0000 4.0828 0.0000
# 4 0.0000 0.0000 0.0000 14.2768 0.0000 -11.6780
# 5 11.0247 -2.2089 4.0828 0.0000 41.4670 0.0000
# 6 -0.0001 0.0001 0.0000 -11.6780 0.0000 22.0533
#
#
#
# Elastic Compliance Matrix: (Units=1/GPa)
#
#
# Indices 1 2 3 4 5 6 
#
# 1 0.008331 -0.001001 -0.001781 0.000000 -0.002093 0.000000
# 2 -0.001001 0.014520 -0.001200 0.000000 0.001158 0.000000
# 3 -0.001781 -0.001200 0.006137 0.000000 -0.000195 0.000000
# 4 0.000000 0.000000 0.000000 0.123565 0.000000 0.065432
# 5 -0.002093 0.001158 -0.000195 0.000000 0.024753 0.000000
# 6 0.000000 0.000000 0.000000 0.065432 0.000000 0.079993
#
#
# Mechanical properties :
#
#
# Convention : Reuss Voigt Hill
#
# Bulk Modulus (GPa) = 47.56210 58.12407 52.84309
# Shear Modulus (GPa) = 18.36406 36.39371 27.37888
#
# Velocity S-wave (km/s) = 2.62339 3.69310 3.20321
# Velocity P-wave (km/s) = 5.19622 6.32203 5.78657
#
# Compressibility (1/GPa) = 0.02102515
#
# Stress axis : x y z
#
# Youngs Moduli (GPa) = 120.03175 68.86912 162.93857
#
# Poissons Ratio (x) = 0.06891 0.29023
# Poissons Ratio (y) = 0.12011 0.19551
# Poissons Ratio (z) = 0.21380 0.08264
#
# Static dielectric constant tensor:
#      x y z
#    x 2.094560 0.000000 0.073540 
#    y 0.000000 2.090480 0.000000 
#    z 0.073540 0.000000 2.153140 
# 
# From -- ./inp_files/47796.got.cif
#   From: 2010.05.17/outbox.cif.g08.bks.cpg/sg5_24_cif.got.tgz:47796.got - 2010.06.03 18:56:24.
