data_PCOD9127438
_publ_section_title
;
Structure prediction by ZEFSAII (Michael W. Deem and Ramdas Pophale) SiO2 
 PCOD9127438
Probable space group: C 2
;
_chemical_formula_sum "Si O2"
_cell_formula_units_Z 30
_cell_length_a 5.681459
_cell_length_b 14.308773
_cell_length_c 16.804254
_cell_angle_alpha 90.000000
_cell_angle_beta 63.025511
_cell_angle_gamma 90.000000
_cell_volume 1217.477279
_symmetry_space_group_name_H-M "C 2"
_symmetry_group_IT_number 5
_symmetry_cell_setting 'monoclinic'
loop_
_space_group_symop_operation_xyz
x,y,z
-x,y,-z
1/2+x,1/2+y,z
1/2-x,1/2+y,-z
loop_
_atom_site_type_symbol
_atom_site_label
_atom_site_fract_x
_atom_site_fract_y
_atom_site_fract_z
Si Si1 0.500000 0.168200 0.500000
Si Si2 0.416730 0.619588 0.096992
Si Si3 0.900178 0.321893 0.433942
Si Si4 0.108442 0.901940 0.899610
Si Si5 0.198029 0.435113 0.749112
Si Si6 0.274870 0.018870 0.430725
Si Si7 0.772347 0.627028 0.192051
Si Si8 0.391808 0.301974 0.261893
O O1 0.475848 0.095416 0.430675
O O2 0.707800 0.242903 0.433451
O O3 0.491289 0.509192 0.087106
O O4 0.587026 0.660458 0.145896
O O5 0.095884 0.620865 0.138312
O O6 0.500000 0.662784 0.000000
O O7 0.137397 0.349090 0.339703
O O8 0.000000 0.278036 0.500000
O O9 0.775953 0.420563 0.477481
O O10 0.422989 0.910645 0.834732
O O11 0.023496 0.838706 0.838186
O O12 0.000000 0.863506 0.000000
O O13 0.188405 0.485764 0.664890
O O14 0.326461 0.521730 0.777259
O O15 0.369252 0.340396 0.721305
O O16 0.000000 0.063210 0.500000
O O17 0.774282 0.698723 0.265873
#
# Coordination Sequence:
#
# PCOD9127438 Si02
#       8
#     2   4   4   4   4   4   4   4
#     4  12  30  48  78 114 158 202 264 334 396 498
#     4  10  22  46  73 105 151 209 259 332 395 472
#     4  12  27  49  74 111 152 200 261 329 401 482
#     4  10  23  46  75 105 151 203 266 321 401 467
#     4  11  26  47  72 113 152 205 261 333 398 486
#     4  12  26  48  78 108 152 210 261 324 412 482
#     4  11  26  43  74 111 156 201 263 325 404 473
#     4  12  27  45  75 111 154 200 259 328 399 474
#
# _framework density 24.641114000000002
#
# number of rings (size 3 to 8) (size 9 to 14) (size 15 to 20)
#    0.000    0.800    4.000    1.600    5.600    3.733 
#    0.000    0.000    0.000    0.000    0.000    0.000 
#    0.000    0.000    0.000    0.000    0.000    0.000 
#
# Total GULP energy -83529.789285 kJ/mol
# GULP energy per Si atom -5568.652619 kJ/mol
# Density = 2.458503 g / cm^3
# Si number density = 24.641114 Si / 1000 Ang^3
#
#
#
# Elastic Constant Matrix: (Units=GPa)
#
#
# Indices 1 2 3 4 5 6 
#
# 1 84.7577 41.5221 43.2337 0.0000 17.1242 0.0000
# 2 41.5221 111.4739 7.2198 0.0000 13.5759 0.0000
# 3 43.2337 7.2198 128.6870 0.0000 9.3469 0.0000
# 4 0.0000 0.0000 0.0000 4.7001 0.0000 12.5432
# 5 17.1242 13.5759 9.3469 0.0000 33.3358 0.0000
# 6 0.0000 0.0000 0.0000 12.5432 0.0000 41.2399
#
#
#
# Elastic Compliance Matrix: (Units=1/GPa)
#
#
# Indices 1 2 3 4 5 6 
#
# 1 0.018644 -0.005902 -0.005524 0.000000 -0.005625 0.000000
# 2 -0.005902 0.011315 0.001493 0.000000 -0.001995 0.000000
# 3 -0.005524 0.001493 0.009576 0.000000 -0.000455 0.000000
# 4 0.000000 0.000000 0.000000 1.129898 0.000000 -0.343661
# 5 -0.005625 -0.001995 -0.000455 0.000000 0.033827 0.000000
# 6 0.000000 0.000000 0.000000 -0.343661 0.000000 0.128774
#
#
# Mechanical properties :
#
#
# Convention : Reuss Voigt Hill
#
# Bulk Modulus (GPa) = 50.84054 56.54108 53.69081
# Shear Modulus (GPa) = 3.68065 31.38469 17.53267
#
# Velocity S-wave (km/s) = 1.22350 3.57273 2.67033
# Velocity P-wave (km/s) = 4.76163 6.32572 5.59857
#
# Compressibility (1/GPa) = 0.01966934
#
# Stress axis : x y z
#
# Youngs Moduli (GPa) = 53.63790 88.37628 104.42877
#
# Poissons Ratio (x) = 0.52156 0.57685
# Poissons Ratio (y) = 0.31655 -0.15589
# Poissons Ratio (z) = 0.29629 -0.13193
#
# Static dielectric constant tensor:
#      x y z
#    x 2.203140 0.000000 0.057370 
#    y 0.000000 1.982650 0.000000 
#    z 0.057370 0.000000 1.994310 
# 
# From -- ./inp_files/58867.got.cif
#   From: 2010.05.17/outbox.cif.g08.bks.cpg/sg5_30_cif.got.tgz:58867.got - 2010.06.03 18:56:24.
