data_PCOD9127706
_publ_section_title
;
Structure prediction by ZEFSAII (Michael W. Deem and Ramdas Pophale) SiO2 
 PCOD9127706
Probable space group: C 2
;
_chemical_formula_sum "Si O2"
_cell_formula_units_Z 18
_cell_length_a 18.468544
_cell_length_b 5.236244
_cell_length_c 9.712123
_cell_angle_alpha 90.000000
_cell_angle_beta 53.890126
_cell_angle_gamma 90.000000
_cell_volume 758.783790
_symmetry_space_group_name_H-M "C 2"
_symmetry_group_IT_number 5
_symmetry_cell_setting 'monoclinic'
loop_
_space_group_symop_operation_xyz
x,y,z
-x,y,-z
1/2+x,1/2+y,z
1/2-x,1/2+y,-z
loop_
_atom_site_type_symbol
_atom_site_label
_atom_site_fract_x
_atom_site_fract_y
_atom_site_fract_z
Si Si1 0.500000 0.627960 0.500000
Si Si2 0.151679 0.375286 0.836219
Si Si3 0.381466 0.264021 0.775523
Si Si4 0.508801 0.939548 0.769281
Si Si5 0.243208 0.884960 0.835754
O O1 0.414017 0.448419 0.621048
O O2 0.516376 0.786161 0.619984
O O3 0.216656 0.611259 0.802683
O O4 0.099052 0.433808 0.755135
O O5 0.202639 0.107587 0.785060
O O6 0.072869 0.350260 0.039984
O O7 0.470521 0.213746 0.766063
O O8 0.340891 0.998048 0.763586
O O9 0.308383 0.383474 0.959034
#
# Coordination Sequence:
#
# PCOD9127706 Si02
#       5
#     2   4   4   4   4
#     4  12  24  42  74 106 150 184 234 296 364 436
#     4  10  23  42  73 104 137 180 245 294 345 413
#     4  11  24  43  72 106 141 186 244 290 355 426
#     4  10  23  41  69 104 141 187 235 295 355 424
#     4  11  23  42  73 104 136 184 243 295 340 416
#
# _framework density 23.722173999999999
#
# number of rings (size 3 to 8) (size 9 to 14) (size 15 to 20)
#    0.000    1.333    2.222    3.333    6.222    1.778 
#    0.000    0.000    9.778    0.000    0.000    0.000 
#    0.000    0.000    0.000    0.000    0.000    0.000 
#
# Total GULP energy -50339.179290 kJ/mol
# GULP energy per Si atom -5593.242143 kJ/mol
# Density = 2.366818 g / cm^3
# Si number density = 23.722174 Si / 1000 Ang^3
#
#
#
# Elastic Constant Matrix: (Units=GPa)
#
#
# Indices 1 2 3 4 5 6 
#
# 1 178.0877 58.1742 48.4166 0.0001 24.1496 0.0004
# 2 58.1742 119.1600 41.0418 0.0003 3.3090 0.0024
# 3 48.4166 41.0418 93.5954 0.0001 16.5809 0.0001
# 4 0.0001 0.0003 0.0001 42.8501 -0.0002 -11.2914
# 5 24.1496 3.3090 16.5809 -0.0002 26.0418 0.0000
# 6 0.0004 0.0024 0.0001 -11.2914 0.0000 40.7253
#
#
#
# Elastic Compliance Matrix: (Units=1/GPa)
#
#
# Indices 1 2 3 4 5 6 
#
# 1 0.007878 -0.003106 -0.001678 0.000000 -0.005843 0.000000
# 2 -0.003106 0.011176 -0.004005 0.000000 0.004010 -0.000001
# 3 -0.001678 -0.004005 0.014588 0.000000 -0.007223 0.000000
# 4 0.000000 0.000000 0.000000 0.025177 0.000000 0.006980
# 5 -0.005843 0.004010 -0.007223 0.000000 0.047907 0.000000
# 6 0.000000 -0.000001 0.000000 0.006980 0.000000 0.026490
#
#
# Mechanical properties :
#
#
# Convention : Reuss Voigt Hill
#
# Bulk Modulus (GPa) = 62.24694 76.23424 69.24059
# Shear Modulus (GPa) = 32.02057 38.13748 35.07903
#
# Velocity S-wave (km/s) = 3.67797 4.01393 3.84962
# Velocity P-wave (km/s) = 6.65835 7.32722 7.00078
#
# Compressibility (1/GPa) = 0.01606505
#
# Stress axis : x y z
#
# Youngs Moduli (GPa) = 126.92931 89.47505 68.54883
#
# Poissons Ratio (x) = 0.27790 0.11506
# Poissons Ratio (y) = 0.39423 0.27451
# Poissons Ratio (z) = 0.21305 0.35831
#
# Static dielectric constant tensor:
#      x y z
#    x 1.924600 0.000000 -0.034120 
#    y 0.000000 1.932880 0.000000 
#    z -0.034120 0.000000 1.905790 
# 
# From -- ./inp_files/25870.got.cif
#   From: 2010.05.17/outbox.cif.g08.bks.cpg/sg5_13_cif.got.tgz:25870.got - 2010.06.03 18:56:24.
