data_PCOD9127292
_publ_section_title
;
Structure prediction by ZEFSAII (Michael W. Deem and Ramdas Pophale) SiO2 
 PCOD9127292
Probable space group: C 2
;
_chemical_formula_sum "Si O2"
_cell_formula_units_Z 22
_cell_length_a 10.482927
_cell_length_b 8.685796
_cell_length_c 11.903546
_cell_angle_alpha 90.000000
_cell_angle_beta 131.442558
_cell_angle_gamma 90.000000
_cell_volume 812.474065
_symmetry_space_group_name_H-M "C 2"
_symmetry_group_IT_number 5
_symmetry_cell_setting 'monoclinic'
loop_
_space_group_symop_operation_xyz
x,y,z
-x,y,-z
1/2+x,1/2+y,z
1/2-x,1/2+y,-z
loop_
_atom_site_type_symbol
_atom_site_label
_atom_site_fract_x
_atom_site_fract_y
_atom_site_fract_z
Si Si1 0.000000 0.056401 0.500000
Si Si2 0.818502 0.341555 0.635463
Si Si3 0.114394 0.776913 0.315572
Si Si4 0.149344 0.609698 0.968396
Si Si5 0.267162 0.798176 0.856208
Si Si6 0.329780 0.815149 0.251522
O O1 0.064137 0.833473 0.737944
O O2 0.162577 0.958720 0.557373
O O3 0.960188 0.648556 0.814004
O O4 0.735510 0.235172 0.489597
O O5 0.837352 0.276632 0.772387
O O6 0.223728 0.883911 0.294343
O O7 0.271916 0.640698 0.932066
O O8 0.002460 0.399060 0.698211
O O9 0.162215 0.447539 0.037359
O O10 0.209971 0.749936 0.083945
O O11 0.081026 0.165873 0.641560
#
# Coordination Sequence:
#
# PCOD9127292 Si02
#       6
#     2   4   4   4   4   4
#     4  12  22  44  78 102 160 194 258 326 398 452
#     4  12  22  45  80 110 143 212 260 321 391 477
#     4  10  22  44  77 111 151 197 265 325 386 471
#     4  10  23  46  75 110 154 209 248 325 401 463
#     4  10  23  45  81 104 157 202 267 315 395 472
#     4  12  24  44  75 111 153 204 261 323 399 465
#
# _framework density 27.077788999999999
#
# number of rings (size 3 to 8) (size 9 to 14) (size 15 to 20)
#    1.091    0.000    5.455    0.545    0.000    2.182 
#    3.273    5.455   12.000    0.000    0.000    0.000 
#    0.000    0.000    0.000    0.000    0.000    0.000 
#
# Total GULP energy -61440.161663 kJ/mol
# GULP energy per Si atom -5585.469242 kJ/mol
# Density = 2.701616 g / cm^3
# Si number density = 27.077789 Si / 1000 Ang^3
#
#
#
# Elastic Constant Matrix: (Units=GPa)
#
#
# Indices 1 2 3 4 5 6 
#
# 1 195.2428 22.5025 53.1631 0.0000 -3.5556 0.0000
# 2 22.5025 66.3916 33.5379 0.0000 10.5484 0.0000
# 3 53.1631 33.5379 177.1282 0.0000 0.6994 0.0000
# 4 0.0000 0.0000 0.0000 42.5101 0.0000 3.4096
# 5 -3.5556 10.5484 0.6994 0.0000 58.4911 0.0000
# 6 0.0000 0.0000 0.0000 3.4096 0.0000 34.8169
#
#
#
# Elastic Compliance Matrix: (Units=1/GPa)
#
#
# Indices 1 2 3 4 5 6 
#
# 1 0.005679 -0.001279 -0.001465 0.000000 0.000593 0.000000
# 2 -0.001279 0.017474 -0.002912 0.000000 -0.003194 0.000000
# 3 -0.001465 -0.002912 0.006635 0.000000 0.000357 0.000000
# 4 0.000000 0.000000 0.000000 0.023710 0.000000 -0.002322
# 5 0.000593 -0.003194 0.000357 0.000000 0.017705 0.000000
# 6 0.000000 0.000000 0.000000 -0.002322 0.000000 0.028949
#
#
# Mechanical properties :
#
#
# Convention : Reuss Voigt Hill
#
# Bulk Modulus (GPa) = 54.12257 73.01883 63.57070
# Shear Modulus (GPa) = 42.50886 49.13421 45.82154
#
# Velocity S-wave (km/s) = 3.96647 4.26438 4.11812
# Velocity P-wave (km/s) = 6.40378 7.16041 6.79264
#
# Compressibility (1/GPa) = 0.01847658
#
# Stress axis : x y z
#
# Youngs Moduli (GPa) = 176.09158 57.22699 150.71183
#
# Poissons Ratio (x) = 0.07321 0.22073
# Poissons Ratio (y) = 0.22526 0.43888
# Poissons Ratio (z) = 0.25790 0.16665
#
# Static dielectric constant tensor:
#      x y z
#    x 2.164250 0.000000 -0.119760 
#    y 0.000000 2.148500 0.000000 
#    z -0.119760 0.000000 2.287950 
# 
# From -- ./inp_files/41324.got.cif
#   From: 2010.05.17/outbox.cif.g08.bks.cpg/sg5_21_cif.got.tgz:41324.got - 2010.06.03 18:56:24.
