data_PCOD9127720
_publ_section_title
;
Structure prediction by ZEFSAII (Michael W. Deem and Ramdas Pophale) SiO2 
 PCOD9127720
Probable space group: C 2
;
_chemical_formula_sum "Si O2"
_cell_formula_units_Z 32
_cell_length_a 21.541463
_cell_length_b 14.844631
_cell_length_c 16.205037
_cell_angle_alpha 90.000000
_cell_angle_beta 162.257909
_cell_angle_gamma 90.000000
_cell_volume 1579.115414
_symmetry_space_group_name_H-M "C 2"
_symmetry_group_IT_number 5
_symmetry_cell_setting 'monoclinic'
loop_
_space_group_symop_operation_xyz
x,y,z
-x,y,-z
1/2+x,1/2+y,z
1/2-x,1/2+y,-z
loop_
_atom_site_type_symbol
_atom_site_label
_atom_site_fract_x
_atom_site_fract_y
_atom_site_fract_z
Si Si1 0.508345 0.387920 0.644299
Si Si2 0.936716 0.158487 0.743411
Si Si3 0.623731 0.466174 0.242377
Si Si4 0.696482 0.128112 0.102225
Si Si5 0.878033 0.307773 0.929932
Si Si6 0.951997 0.791861 0.741119
Si Si7 0.538998 0.948739 0.837214
Si Si8 0.567743 0.591355 0.445313
O O1 0.344532 0.347348 0.372644
O O2 0.509128 0.321277 0.721727
O O3 0.421259 0.485462 0.558969
O O4 0.738827 0.412085 0.908914
O O5 0.743682 0.225354 0.509524
O O6 0.958610 0.141986 0.673665
O O7 0.914654 0.062890 0.762099
O O8 0.121123 0.216289 0.016157
O O9 0.563010 0.381798 0.223182
O O10 0.869867 0.451662 0.551712
O O11 0.500000 0.463696 0.000000
O O12 0.743720 0.116330 0.258260
O O13 0.883300 0.109674 0.275755
O O14 0.623120 0.227851 0.994925
O O15 0.546046 0.048612 0.883967
O O16 0.004983 0.381831 0.142659
O O17 0.000000 0.290613 0.000000
#
# Coordination Sequence:
#
# PCOD9127720 Si02
#       8
#     4   4   4   4   4   4   4   4
#     4  11  23  45  72 101 136 178 242 287 346 407
#     4  12  25  42  69 102 143 183 231 288 349 423
#     4  12  27  47  66 100 144 190 232 289 360 420
#     4  10  23  41  70 100 134 176 230 292 350 410
#     4  12  23  40  71 106 136 179 231 292 351 410
#     4  12  25  42  67 101 137 183 233 287 340 425
#     4  11  23  44  72 103 135 180 233 304 341 410
#     4  10  23  45  67  99 136 179 230 293 351 405
#
# _framework density 20.264509
#
# number of rings (size 3 to 8) (size 9 to 14) (size 15 to 20)
#    0.000    0.750    6.250    0.750    3.500    0.000 
#    2.250    0.000    0.000    0.000    0.000    0.000 
#    0.000    0.000    0.000    0.000    0.000    0.000 
#
# Total GULP energy -89306.885299 kJ/mol
# GULP energy per Si atom -5581.680331 kJ/mol
# Density = 2.021839 g / cm^3
# Si number density = 20.264509 Si / 1000 Ang^3
#
#
#
# Elastic Constant Matrix: (Units=GPa)
#
#
# Indices 1 2 3 4 5 6 
#
# 1 87.4787 39.8953 42.2070 0.0003 -29.9036 0.0003
# 2 39.8953 137.2196 41.0315 0.0002 -12.7766 0.0001
# 3 42.2070 41.0315 127.0247 0.0003 -30.5167 0.0003
# 4 0.0003 0.0002 0.0003 42.2512 0.0003 -10.6951
# 5 -29.9036 -12.7766 -30.5167 0.0003 29.2751 0.0002
# 6 0.0003 0.0001 0.0003 -10.6951 0.0002 29.4454
#
#
#
# Elastic Compliance Matrix: (Units=1/GPa)
#
#
# Indices 1 2 3 4 5 6 
#
# 1 0.019556 -0.003740 -0.001178 0.000000 0.017116 0.000000
# 2 -0.003740 0.008807 -0.002130 0.000000 -0.002197 0.000000
# 3 -0.001178 -0.002130 0.011259 0.000000 0.009604 0.000000
# 4 0.000000 0.000000 0.000000 0.026064 -0.000001 0.009467
# 5 0.017116 -0.002197 0.009604 -0.000001 0.060695 -0.000001
# 6 0.000000 0.000000 0.000000 0.009467 -0.000001 0.037400
#
#
# Mechanical properties :
#
#
# Convention : Reuss Voigt Hill
#
# Bulk Modulus (GPa) = 39.17437 66.44341 52.80889
# Shear Modulus (GPa) = 26.82602 35.43361 31.12982
#
# Velocity S-wave (km/s) = 3.64234 4.18611 3.92366
# Velocity P-wave (km/s) = 6.08789 7.49826 6.82958
#
# Compressibility (1/GPa) = 0.02552690
#
# Stress axis : x y z
#
# Youngs Moduli (GPa) = 51.13469 113.54217 88.81634
#
# Poissons Ratio (x) = 0.42463 0.10463
# Poissons Ratio (y) = 0.19124 0.18918
# Poissons Ratio (z) = 0.06024 0.24185
#
# Static dielectric constant tensor:
#      x y z
#    x 1.726960 0.000000 0.038310 
#    y 0.000000 1.703790 0.000000 
#    z 0.038310 0.000000 1.805720 
# 
# From -- ./inp_files/57184.got.cif
#   From: 2010.05.17/outbox.cif.g08.bks.cpg/sg5_29_cif.got.tgz:57184.got - 2010.06.03 18:56:24.
