data_PCOD9127116
_publ_section_title
;
Structure prediction by ZEFSAII (Michael W. Deem and Ramdas Pophale) SiO2 
 PCOD9127116
Probable space group: C 2
;
_chemical_formula_sum "Si O2"
_cell_formula_units_Z 20
_cell_length_a 5.034741
_cell_length_b 21.657109
_cell_length_c 6.596904
_cell_angle_alpha 90.000000
_cell_angle_beta 72.802357
_cell_angle_gamma 90.000000
_cell_volume 687.152691
_symmetry_space_group_name_H-M "C 2"
_symmetry_group_IT_number 5
_symmetry_cell_setting 'monoclinic'
loop_
_space_group_symop_operation_xyz
x,y,z
-x,y,-z
1/2+x,1/2+y,z
1/2-x,1/2+y,-z
loop_
_atom_site_type_symbol
_atom_site_label
_atom_site_fract_x
_atom_site_fract_y
_atom_site_fract_z
Si Si1 0.549746 0.025700 0.710972
Si Si2 0.500000 0.419187 0.500000
Si Si3 0.740667 0.347337 0.193423
Si Si4 0.084344 0.135119 0.246421
Si Si5 0.423052 0.209107 0.755354
Si Si6 0.500000 0.454127 0.000000
O O1 0.500000 0.056054 0.500000
O O2 0.731012 0.073186 0.806554
O O3 0.759789 0.971768 0.603375
O O4 0.269117 0.994773 0.871750
O O5 0.741222 0.361739 0.426837
O O6 0.675543 0.277216 0.165412
O O7 0.525274 0.404251 0.182230
O O8 0.000000 0.364970 0.000000
O O9 0.299184 0.191519 0.188414
O O10 0.000000 0.133570 0.500000
O O11 0.806775 0.153563 0.186251
O O12 0.500000 0.212872 0.500000
#
# Coordination Sequence:
#
# PCOD9127116 Si02
#       6
#     4   2   4   4   4   2
#     4  12  24  45  77 110 156 198 253 320 398 461
#     4  12  24  44  74 110 146 206 246 318 404 458
#     4  12  26  46  73 108 154 196 261 320 382 467
#     4  10  22  43  76 107 141 199 259 311 375 457
#     4  10  23  44  74 106 142 201 259 311 376 452
#     4  12  28  44  74 122 150 200 258 324 386 482
#
# _framework density 29.105609999999999
#
# number of rings (size 3 to 8) (size 9 to 14) (size 15 to 20)
#    0.000    0.800    6.000    1.800    2.800    0.000 
#    5.400    0.000    8.800    0.000    0.000    0.000 
#    0.000    0.000    0.000    0.000    0.000    0.000 
#
# Total GULP energy -55815.892760 kJ/mol
# GULP energy per Si atom -5581.589276 kJ/mol
# Density = 2.903936 g / cm^3
# Si number density = 29.105610 Si / 1000 Ang^3
#
#
#
# Elastic Constant Matrix: (Units=GPa)
#
#
# Indices 1 2 3 4 5 6 
#
# 1 187.4647 94.4637 58.4595 0.0000 -9.9394 0.0000
# 2 94.4637 225.8779 67.8346 0.0000 -28.5918 0.0000
# 3 58.4595 67.8346 177.5817 0.0000 -54.0413 0.0000
# 4 0.0000 0.0000 0.0000 26.0170 0.0000 -48.0807
# 5 -9.9394 -28.5918 -54.0413 0.0000 77.4604 0.0000
# 6 0.0000 0.0000 0.0000 -48.0807 0.0000 30.0172
#
#
#
# Elastic Compliance Matrix: (Units=1/GPa)
#
#
# Indices 1 2 3 4 5 6 
#
# 1 0.007127 -0.002621 -0.001728 0.000000 -0.001259 0.000000
# 2 -0.002621 0.005991 -0.001085 0.000000 0.001118 0.000000
# 3 -0.001728 -0.001085 0.008157 0.000000 0.005069 0.000000
# 4 0.000000 0.000000 0.000000 -0.019609 0.000000 -0.031409
# 5 -0.001259 0.001118 0.005069 0.000000 0.016697 0.000000
# 6 0.000000 0.000000 0.000000 -0.031409 0.000000 -0.016996
#
#
# Mechanical properties :
#
#
# Convention : Reuss Voigt Hill
#
# Bulk Modulus (GPa) = 96.09726 114.71555 105.40641
# Shear Modulus (GPa) = 318.36690 51.37669 184.87179
#
# Velocity S-wave (km/s) = 10.47000 4.20596 7.97844
# Velocity P-wave (km/s) = 13.38841 7.94267 11.00762
#
# Compressibility (1/GPa) = 0.01040612
#
# Stress axis : x y z
#
# Youngs Moduli (GPa) = 140.30719 166.92420 122.59139
#
# Poissons Ratio (x) = 0.43751 0.21185
# Poissons Ratio (y) = 0.36774 0.13307
# Poissons Ratio (z) = 0.24246 0.18119
#
# Static dielectric constant tensor:
#      x y z
#    x 2.336730 0.000000 -0.342230 
#    y 0.000000 2.138300 0.000000 
#    z -0.342230 0.000000 2.149030 
# 
# From -- ./inp_files/12407.got.cif
#   From: 2010.05.17/outbox.cif.g08.bks.cpg/sg5_7_cif.got.tgz:12407.got - 2010.06.03 18:56:24.
