data_PCOD9127067
_publ_section_title
;
Structure prediction by ZEFSAII (Michael W. Deem and Ramdas Pophale) SiO2 
 PCOD9127067
Probable space group: C 2
;
_chemical_formula_sum "Si O2"
_cell_formula_units_Z 28
_cell_length_a 27.228153
_cell_length_b 8.602542
_cell_length_c 7.381840
_cell_angle_alpha 90.000000
_cell_angle_beta 139.881705
_cell_angle_gamma 90.000000
_cell_volume 1114.149501
_symmetry_space_group_name_H-M "C 2"
_symmetry_group_IT_number 5
_symmetry_cell_setting 'monoclinic'
loop_
_space_group_symop_operation_xyz
x,y,z
-x,y,-z
1/2+x,1/2+y,z
1/2-x,1/2+y,-z
loop_
_atom_site_type_symbol
_atom_site_label
_atom_site_fract_x
_atom_site_fract_y
_atom_site_fract_z
Si Si1 0.500000 0.323480 0.000000
Si Si2 0.571491 0.075590 0.936080
Si Si3 0.367071 0.512832 0.799338
Si Si4 0.643854 0.736833 0.715595
Si Si5 0.660543 0.308250 0.955916
Si Si6 0.000000 0.310910 0.500000
Si Si7 0.334337 0.845039 0.591171
Si Si8 0.283531 0.424422 0.232300
O O1 0.517692 0.200626 0.886262
O O2 0.567508 0.447629 0.150133
O O3 0.616192 0.158466 0.898817
O O4 0.637942 0.008280 0.253863
O O5 0.527531 0.928115 0.734780
O O6 0.376803 0.441865 0.024508
O O7 0.352697 0.695884 0.766851
O O8 0.297021 0.441358 0.483705
O O9 0.568939 0.710151 0.618816
O O10 0.617201 0.811219 0.452154
O O11 0.694811 0.587612 0.803365
O O12 0.699517 0.859357 0.968003
O O13 0.747956 0.327745 0.273358
O O14 0.663281 0.316243 0.746302
#
# Coordination Sequence:
#
# PCOD9127067 Si02
#       8
#     2   4   4   4   4   2   4   4
#     4  10  24  44  60 100 128 188 224 284 364 406
#     4  11  25  42  68  96 143 179 232 281 353 426
#     4  10  23  41  69  95 136 181 225 292 348 405
#     4  10  25  44  68 104 136 188 230 291 354 409
#     4  10  23  42  68 106 126 182 229 294 342 404
#     4  12  28  40  68 106 142 186 226 286 366 412
#     4  10  22  43  69  96 134 175 236 284 341 413
#     4  10  24  44  71  99 142 178 245 287 341 425
#
# _framework density 25.131276
#
# number of rings (size 3 to 8) (size 9 to 14) (size 15 to 20)
#    0.000    1.714    0.000    1.714   12.000    7.429 
#    5.143    0.000    0.000    0.000    0.000    0.000 
#    0.000    0.000    0.000    0.000    0.000    0.000 
#
# Total GULP energy -78173.465318 kJ/mol
# GULP energy per Si atom -5583.818951 kJ/mol
# Density = 2.507408 g / cm^3
# Si number density = 25.131276 Si / 1000 Ang^3
#
#
#
# Elastic Constant Matrix: (Units=GPa)
#
#
# Indices 1 2 3 4 5 6 
#
# 1 120.2122 16.2426 9.3263 0.0000 9.1831 0.0000
# 2 16.2426 66.6911 9.3561 0.0000 4.5440 0.0000
# 3 9.3263 9.3561 27.5587 0.0000 7.0820 0.0000
# 4 0.0000 0.0000 0.0000 30.4224 0.0000 -8.2289
# 5 9.1831 4.5440 7.0820 0.0000 30.3315 0.0000
# 6 0.0000 0.0000 0.0000 -8.2289 0.0000 36.9169
#
#
#
# Elastic Compliance Matrix: (Units=1/GPa)
#
#
# Indices 1 2 3 4 5 6 
#
# 1 0.008854 -0.001756 -0.001892 0.000000 -0.001976 0.000000
# 2 -0.001756 0.016133 -0.004679 0.000000 -0.000793 0.000000
# 3 -0.001892 -0.004679 0.040625 0.000000 -0.008212 0.000000
# 4 0.000000 0.000000 0.000000 0.034980 0.000000 0.007797
# 5 -0.001976 -0.000793 -0.008212 0.000000 0.035603 0.000000
# 6 0.000000 0.000000 0.000000 0.007797 0.000000 0.028826
#
#
# Mechanical properties :
#
#
# Convention : Reuss Voigt Hill
#
# Bulk Modulus (GPa) = 20.42623 31.59023 26.00823
# Shear Modulus (GPa) = 25.25326 31.50328 28.37827
#
# Velocity S-wave (km/s) = 3.17338 3.54439 3.36400
# Velocity P-wave (km/s) = 4.64463 5.41735 5.04580
#
# Compressibility (1/GPa) = 0.04895666
#
# Stress axis : x y z
#
# Youngs Moduli (GPa) = 112.94788 61.98607 24.61516
#
# Poissons Ratio (x) = 0.10886 0.04658
# Poissons Ratio (y) = 0.19836 0.11517
# Poissons Ratio (z) = 0.21373 0.29003
#
# Static dielectric constant tensor:
#      x y z
#    x 2.025950 0.000000 0.020380 
#    y 0.000000 2.002870 0.000000 
#    z 0.020380 0.000000 2.088140 
# 
# From -- ./inp_files/31791.got.cif
#   From: 2010.05.17/outbox.cif.g08.bks.cpg/sg5_16_cif.got.tgz:31791.got - 2010.06.03 18:56:24.
