data_PCOD9127220
_publ_section_title
;
Structure prediction by ZEFSAII (Michael W. Deem and Ramdas Pophale) SiO2 
 PCOD9127220
Probable space group: C 2
;
_chemical_formula_sum "Si O2"
_cell_formula_units_Z 24
_cell_length_a 22.223502
_cell_length_b 6.328767
_cell_length_c 22.998861
_cell_angle_alpha 90.000000
_cell_angle_beta 161.283256
_cell_angle_gamma 90.000000
_cell_volume 1037.991573
_symmetry_space_group_name_H-M "C 2"
_symmetry_group_IT_number 5
_symmetry_cell_setting 'monoclinic'
loop_
_space_group_symop_operation_xyz
x,y,z
-x,y,-z
1/2+x,1/2+y,z
1/2-x,1/2+y,-z
loop_
_atom_site_type_symbol
_atom_site_label
_atom_site_fract_x
_atom_site_fract_y
_atom_site_fract_z
Si Si1 0.000000 0.822110 0.000000
Si Si2 0.914954 0.683316 0.325819
Si Si3 0.286858 0.884385 0.351069
Si Si4 0.558587 0.295458 0.253231
Si Si5 0.000000 0.993844 0.500000
Si Si6 0.594321 0.511251 0.407030
Si Si7 0.757602 0.794291 0.885892
O O1 0.842445 0.951220 0.821082
O O2 0.886161 0.711379 0.949178
O O3 0.769780 0.543596 0.155091
O O4 0.029707 0.511516 0.466894
O O5 0.882404 0.858782 0.345724
O O6 0.050330 0.804814 0.404751
O O7 0.164670 0.902989 0.296607
O O8 0.352867 0.645975 0.397972
O O9 0.549968 0.446601 0.300525
O O10 0.694418 0.099092 0.394102
O O11 0.361538 0.247266 0.041841
O O12 0.445571 0.686069 0.294026
#
# Coordination Sequence:
#
# PCOD9127220 Si02
#       7
#     2   4   4   4   2   4   4
#     4  10  22  44  70 104 150 188 248 304 376 452
#     4  12  23  44  75 105 147 202 248 310 388 438
#     4  11  22  45  67 105 150 189 244 314 368 452
#     4  11  26  47  76 107 154 198 256 309 382 448
#     4  12  22  40  78 104 146 202 240 306 390 446
#     4  12  26  49  74 111 151 205 252 323 372 457
#     4  11  26  48  72 113 151 199 254 320 378 461
#
# _framework density 23.121576000000001
#
# number of rings (size 3 to 8) (size 9 to 14) (size 15 to 20)
#    0.000    0.667    3.333    4.500    2.333    0.000 
#    6.000    7.500    0.000    0.000    0.000    0.000 
#    0.000    0.000    0.000    0.000    0.000    0.000 
#
# Total GULP energy -66986.506623 kJ/mol
# GULP energy per Si atom -5582.208885 kJ/mol
# Density = 2.306895 g / cm^3
# Si number density = 23.121576 Si / 1000 Ang^3
#
#
#
# Elastic Constant Matrix: (Units=GPa)
#
#
# Indices 1 2 3 4 5 6 
#
# 1 134.4888 42.2428 31.9651 -0.0004 -30.3574 -0.0003
# 2 42.2428 96.4354 49.4361 0.0027 -6.3834 0.0006
# 3 31.9651 49.4361 141.3656 0.0053 -26.8763 0.0016
# 4 -0.0004 0.0027 0.0053 21.4201 0.0017 -0.4746
# 5 -30.3574 -6.3834 -26.8763 0.0017 46.2170 0.0000
# 6 -0.0003 0.0006 0.0016 -0.4746 0.0000 40.6268
#
#
#
# Elastic Compliance Matrix: (Units=1/GPa)
#
#
# Indices 1 2 3 4 5 6 
#
# 1 0.010075 -0.004193 0.000378 0.000000 0.006259 0.000000
# 2 -0.004193 0.014415 -0.004765 0.000000 -0.003534 0.000000
# 3 0.000378 -0.004765 0.009643 -0.000002 0.005198 0.000000
# 4 0.000000 0.000000 -0.000002 0.046697 -0.000003 0.000546
# 5 0.006259 -0.003534 0.005198 -0.000003 0.028283 0.000000
# 6 0.000000 0.000000 0.000000 0.000546 0.000000 0.024621
#
#
# Mechanical properties :
#
#
# Convention : Reuss Voigt Hill
#
# Bulk Modulus (GPa) = 58.91436 68.84195 63.87816
# Shear Modulus (GPa) = 31.93847 38.22916 35.08381
#
# Velocity S-wave (km/s) = 3.72065 4.07061 3.89956
# Velocity P-wave (km/s) = 6.63274 7.20637 6.92549
#
# Compressibility (1/GPa) = 0.01697379
#
# Stress axis : x y z
#
# Youngs Moduli (GPa) = 99.25095 69.37232 103.70402
#
# Poissons Ratio (x) = 0.29087 -0.03920
# Poissons Ratio (y) = 0.41615 0.49412
# Poissons Ratio (z) = -0.03751 0.33054
#
# Static dielectric constant tensor:
#      x y z
#    x 1.900330 0.000000 0.013620 
#    y 0.000000 1.893700 0.000000 
#    z 0.013620 0.000000 1.917370 
# 
# From -- ./inp_files/69555.got.cif
#   From: 2010.05.17/outbox.cif.g08.bks.cpg/sg5_35_cif.got.tgz:69555.got - 2010.06.03 18:56:24.
