data_PCOD9127494
_publ_section_title
;
Structure prediction by ZEFSAII (Michael W. Deem and Ramdas Pophale) SiO2 
 PCOD9127494
Probable space group: C 2
;
_chemical_formula_sum "Si O2"
_cell_formula_units_Z 20
_cell_length_a 13.860733
_cell_length_b 5.015829
_cell_length_c 23.238731
_cell_angle_alpha 90.000000
_cell_angle_beta 153.800048
_cell_angle_gamma 90.000000
_cell_volume 713.307934
_symmetry_space_group_name_H-M "C 2"
_symmetry_group_IT_number 5
_symmetry_cell_setting 'monoclinic'
loop_
_space_group_symop_operation_xyz
x,y,z
-x,y,-z
1/2+x,1/2+y,z
1/2-x,1/2+y,-z
loop_
_atom_site_type_symbol
_atom_site_label
_atom_site_fract_x
_atom_site_fract_y
_atom_site_fract_z
Si Si1 0.162574 0.782730 0.354151
Si Si2 0.289075 0.837619 0.042143
Si Si3 0.751999 0.641892 0.857207
Si Si4 0.404594 0.276893 0.512937
Si Si5 0.773910 0.656307 0.743574
O O1 0.209086 0.491130 0.403534
O O2 0.242831 0.778415 0.329811
O O3 0.922788 0.905894 0.228814
O O4 0.309245 0.984609 0.471233
O O5 0.210760 0.332970 0.889227
O O6 0.023251 0.549869 0.879307
O O7 0.388153 0.555918 0.074290
O O8 0.737332 0.778572 0.786982
O O9 0.000000 0.541470 0.000000
O O10 0.500000 0.266759 0.500000
O O11 0.602446 0.408228 0.653239
#
# Coordination Sequence:
#
# PCOD9127494 Si02
#       5
#     4   4   4   4   4
#     4  11  25  50  73 114 152 194 256 318 372 464
#     4  12  27  53  73 110 163 203 260 322 375 465
#     4  12  27  50  78 117 153 214 257 314 390 463
#     4  10  22  47  79 108 150 197 249 314 390 445
#     4  11  26  51  84 114 158 206 255 326 392 457
#
# _framework density 28.03838
#
# number of rings (size 3 to 8) (size 9 to 14) (size 15 to 20)
#    0.000    0.800    2.000    5.400    0.000    3.200 
#   10.800    0.000    0.000    0.000    0.000    0.000 
#    0.000    0.000    0.000    0.000    0.000    0.000 
#
# Total GULP energy -55920.418988 kJ/mol
# GULP energy per Si atom -5592.041899 kJ/mol
# Density = 2.797456 g / cm^3
# Si number density = 28.038380 Si / 1000 Ang^3
#
#
#
# Elastic Constant Matrix: (Units=GPa)
#
#
# Indices 1 2 3 4 5 6 
#
# 1 197.5016 60.4456 84.6266 -0.0027 -31.6983 0.0048
# 2 60.4456 176.3276 61.3982 -0.0049 -2.8206 0.0121
# 3 84.6266 61.3982 234.0378 0.0021 20.2422 -0.0007
# 4 -0.0027 -0.0049 0.0021 17.2893 0.0004 16.1657
# 5 -31.6983 -2.8206 20.2422 0.0004 91.2854 -0.0018
# 6 0.0048 0.0121 -0.0007 16.1657 -0.0018 24.5496
#
#
#
# Elastic Compliance Matrix: (Units=1/GPa)
#
#
# Indices 1 2 3 4 5 6 
#
# 1 0.007025 -0.001529 -0.002392 0.000003 0.002923 -0.000003
# 2 -0.001529 0.006603 -0.001174 0.000012 -0.000066 -0.000011
# 3 -0.002392 -0.001174 0.005629 -0.000006 -0.002115 0.000005
# 4 0.000003 0.000012 -0.000006 0.150506 0.000000 -0.099107
# 5 0.002923 -0.000066 -0.002115 0.000000 0.012436 0.000000
# 6 -0.000003 -0.000011 0.000005 -0.099107 0.000000 0.105995
#
#
# Mechanical properties :
#
#
# Convention : Reuss Voigt Hill
#
# Bulk Modulus (GPa) = 110.27850 113.42310 111.85080
# Shear Modulus (GPa) = 16.58896 53.38463 34.98680
#
# Velocity S-wave (km/s) = 2.43503 4.36820 3.53628
# Velocity P-wave (km/s) = 6.87913 8.12294 7.52677
#
# Compressibility (1/GPa) = 0.00906795
#
# Stress axis : x y z
#
# Youngs Moduli (GPa) = 142.34737 151.44850 177.66403
#
# Poissons Ratio (x) = 0.23150 0.42497
# Poissons Ratio (y) = 0.21759 0.20853
# Poissons Ratio (z) = 0.34049 0.17776
#
# Static dielectric constant tensor:
#      x y z
#    x 2.217380 0.000000 0.384920 
#    y 0.000000 1.925370 0.000000 
#    z 0.384920 0.000000 3.042800 
# 
# From -- ./inp_files/65753.got.cif
#   From: 2010.05.17/outbox.cif.g08.bks.cpg/sg5_33_cif.got.tgz:65753.got - 2010.06.03 18:56:24.
