data_PCOD9127790
_publ_section_title
;
Structure prediction by ZEFSAII (Michael W. Deem and Ramdas Pophale) SiO2 
 PCOD9127790
Probable space group: C 2
;
_chemical_formula_sum "Si O2"
_cell_formula_units_Z 16
_cell_length_a 8.163822
_cell_length_b 20.128545
_cell_length_c 7.186742
_cell_angle_alpha 90.000000
_cell_angle_beta 143.416410
_cell_angle_gamma 90.000000
_cell_volume 703.850656
_symmetry_space_group_name_H-M "C 2"
_symmetry_group_IT_number 5
_symmetry_cell_setting 'monoclinic'
loop_
_space_group_symop_operation_xyz
x,y,z
-x,y,-z
1/2+x,1/2+y,z
1/2-x,1/2+y,-z
loop_
_atom_site_type_symbol
_atom_site_label
_atom_site_fract_x
_atom_site_fract_y
_atom_site_fract_z
Si Si1 0.749357 0.990670 0.125973
Si Si2 0.000000 0.066075 0.000000
Si Si3 0.945928 0.364593 0.669828
Si Si4 0.561245 0.278739 0.838070
Si Si5 0.000000 0.661635 0.500000
O O1 0.000000 0.978844 0.500000
O O2 0.500000 0.031041 0.000000
O O3 0.575244 0.927629 0.889618
O O4 0.885229 0.023335 0.067696
O O5 0.242048 0.113871 0.286736
O O6 0.634774 0.339631 0.408166
O O7 0.000000 0.375611 0.500000
O O8 0.127898 0.302286 0.898951
O O9 0.516213 0.211463 0.688177
O O10 0.500000 0.270480 0.000000
#
# Coordination Sequence:
#
# PCOD9127790 Si02
#       5
#     4   2   4   4   2
#     4  12  28  46  75 111 143 197 242 302 367 431
#     4  12  30  50  70 104 152 196 250 296 352 432
#     4  10  23  42  71 105 150 178 227 307 369 423
#     4  10  23  42  68 106 139 186 232 296 363 422
#     4  12  26  46  74  98 146 202 238 294 350 446
#
# _framework density 22.732095000000001
#
# number of rings (size 3 to 8) (size 9 to 14) (size 15 to 20)
#    0.000    1.000    0.000    4.500   15.750    3.000 
#    0.000    0.000    0.000    0.000    0.000    0.000 
#    0.000    0.000    0.000    0.000    0.000    0.000 
#
# Total GULP energy -44761.329509 kJ/mol
# GULP energy per Si atom -5595.166189 kJ/mol
# Density = 2.268036 g / cm^3
# Si number density = 22.732095 Si / 1000 Ang^3
#
#
#
# Elastic Constant Matrix: (Units=GPa)
#
#
# Indices 1 2 3 4 5 6 
#
# 1 161.1424 65.7096 59.6356 0.0000 -11.7758 0.0000
# 2 65.7096 97.8448 36.0907 0.0000 -24.9249 0.0000
# 3 59.6356 36.0907 131.9979 0.0000 -8.1631 0.0000
# 4 0.0000 0.0000 0.0000 55.7995 0.0000 9.0246
# 5 -11.7758 -24.9249 -8.1631 0.0000 39.4393 0.0000
# 6 0.0000 0.0000 0.0000 9.0246 0.0000 34.7369
#
#
#
# Elastic Compliance Matrix: (Units=1/GPa)
#
#
# Indices 1 2 3 4 5 6 
#
# 1 0.009452 -0.005651 -0.002807 0.000000 -0.001330 0.000000
# 2 -0.005651 0.016756 -0.001497 0.000000 0.008593 0.000000
# 3 -0.002807 -0.001497 0.009262 0.000000 0.000133 0.000000
# 4 0.000000 0.000000 0.000000 0.018707 0.000000 -0.004860
# 5 -0.001330 0.008593 0.000133 0.000000 0.030416 0.000000
# 6 0.000000 0.000000 0.000000 -0.004860 0.000000 0.030050
#
#
# Mechanical properties :
#
#
# Convention : Reuss Voigt Hill
#
# Bulk Modulus (GPa) = 64.27113 79.31745 71.79429
# Shear Modulus (GPa) = 35.78058 41.29843 38.53950
#
# Velocity S-wave (km/s) = 3.97169 4.26695 4.12196
# Velocity P-wave (km/s) = 7.02617 7.69700 7.36922
#
# Compressibility (1/GPa) = 0.01555909
#
# Stress axis : x y z
#
# Youngs Moduli (GPa) = 105.80104 59.67925 107.97049
#
# Poissons Ratio (x) = 0.33723 0.30312
# Poissons Ratio (y) = 0.59786 0.16164
# Poissons Ratio (z) = 0.29703 0.08935
#
# Static dielectric constant tensor:
#      x y z
#    x 1.890530 0.000000 -0.019420 
#    y 0.000000 1.818240 0.000000 
#    z -0.019420 0.000000 1.816720 
# 
# From -- ./inp_files/16963.got.cif
#   From: 2010.05.17/outbox.cif.g08.bks.cpg/sg5_9_cif.got.tgz:16963.got - 2010.06.03 18:56:24.
