data_PCOD9127410
_publ_section_title
;
Structure prediction by ZEFSAII (Michael W. Deem and Ramdas Pophale) SiO2 
 PCOD9127410
Probable space group: C 2
;
_chemical_formula_sum "Si O2"
_cell_formula_units_Z 26
_cell_length_a 8.499529
_cell_length_b 14.408408
_cell_length_c 11.648627
_cell_angle_alpha 90.000000
_cell_angle_beta 123.178112
_cell_angle_gamma 90.000000
_cell_volume 1193.980596
_symmetry_space_group_name_H-M "C 2"
_symmetry_group_IT_number 5
_symmetry_cell_setting 'monoclinic'
loop_
_space_group_symop_operation_xyz
x,y,z
-x,y,-z
1/2+x,1/2+y,z
1/2-x,1/2+y,-z
loop_
_atom_site_type_symbol
_atom_site_label
_atom_site_fract_x
_atom_site_fract_y
_atom_site_fract_z
Si Si1 0.500000 0.626570 0.500000
Si Si2 0.908194 0.609595 0.671376
Si Si3 0.801007 0.617060 0.870118
Si Si4 0.095643 0.787488 0.650416
Si Si5 0.593796 0.437813 0.849507
Si Si6 0.513626 0.751437 0.735036
Si Si7 0.295522 0.944883 0.176302
O O1 0.697356 0.572809 0.562280
O O2 0.497634 0.692610 0.611468
O O3 0.870789 0.658722 0.778223
O O4 0.982564 0.691262 0.621819
O O5 0.061710 0.530183 0.750809
O O6 0.676356 0.525055 0.812618
O O7 0.666275 0.693941 0.872154
O O8 0.000000 0.589850 0.000000
O O9 0.087923 0.851271 0.760762
O O10 0.312098 0.763160 0.712038
O O11 0.000000 0.833762 0.500000
O O12 0.387733 0.457934 0.818068
O O13 0.725058 0.431363 0.016248
O O14 0.597955 0.851898 0.745454
#
# Coordination Sequence:
#
# PCOD9127410 Si02
#       7
#     2   4   4   4   4   4   4
#     4  10  22  46  68  98 142 186 238 288 354 426
#     4  11  23  46  71 103 142 184 237 292 355 422
#     4  11  23  44  72 103 140 181 229 294 358 424
#     4  12  26  48  73 105 144 193 237 291 351 430
#     4  11  25  46  71 110 143 183 240 291 363 421
#     4  11  25  44  69 105 137 189 234 295 353 418
#     4  11  25  45  75 107 142 184 237 304 354 421
#
# _framework density 21.7759
#
# number of rings (size 3 to 8) (size 9 to 14) (size 15 to 20)
#    0.000    0.923    3.077    3.692    4.308    0.000 
#   13.846    0.000    0.000    0.000    0.000    0.000 
#    0.000    0.000    0.000    0.000    0.000    0.000 
#
# Total GULP energy -72541.024160 kJ/mol
# GULP energy per Si atom -5580.078782 kJ/mol
# Density = 2.172634 g / cm^3
# Si number density = 21.775900 Si / 1000 Ang^3
#
#
#
# Elastic Constant Matrix: (Units=GPa)
#
#
# Indices 1 2 3 4 5 6 
#
# 1 174.3494 58.7865 72.3344 0.0000 28.4698 0.0000
# 2 58.7865 88.1175 44.5308 0.0000 14.5126 0.0000
# 3 72.3344 44.5308 82.7928 0.0000 5.3325 0.0000
# 4 0.0000 0.0000 0.0000 31.4693 0.0000 0.9423
# 5 28.4698 14.5126 5.3325 0.0000 42.3625 0.0000
# 6 0.0000 0.0000 0.0000 0.9423 0.0000 28.7067
#
#
#
# Elastic Compliance Matrix: (Units=1/GPa)
#
#
# Indices 1 2 3 4 5 6 
#
# 1 0.010553 -0.002300 -0.007638 0.000000 -0.005342 0.000000
# 2 -0.002300 0.016911 -0.006868 0.000000 -0.003383 0.000000
# 3 -0.007638 -0.006868 0.022143 0.000000 0.004699 0.000000
# 4 0.000000 0.000000 0.000000 0.031808 0.000000 -0.001044
# 5 -0.005342 -0.003383 0.004699 0.000000 0.027764 0.000000
# 6 0.000000 0.000000 0.000000 -0.001044 0.000000 0.034869
#
#
# Mechanical properties :
#
#
# Convention : Reuss Voigt Hill
#
# Bulk Modulus (GPa) = 62.52549 77.39589 69.96069
# Shear Modulus (GPa) = 27.32345 31.81488 29.56916
#
# Velocity S-wave (km/s) = 3.54610 3.82647 3.68895
# Velocity P-wave (km/s) = 6.74847 7.42574 7.09519
#
# Compressibility (1/GPa) = 0.01599348
#
# Stress axis : x y z
#
# Youngs Moduli (GPa) = 94.76422 59.13284 45.16016
#
# Poissons Ratio (x) = 0.13601 0.34495
# Poissons Ratio (y) = 0.21796 0.31018
# Poissons Ratio (z) = 0.72384 0.40615
#
# Static dielectric constant tensor:
#      x y z
#    x 1.768470 0.000000 0.041350 
#    y 0.000000 1.745120 0.000000 
#    z 0.041350 0.000000 1.947100 
# 
# From -- ./inp_files/36242.got.cif
#   From: 2010.05.17/outbox.cif.g08.bks.cpg/sg5_19_cif.got.tgz:36242.got - 2010.06.03 18:56:24.
