data_PCOD9127371
_publ_section_title
;
Structure prediction by ZEFSAII (Michael W. Deem and Ramdas Pophale) SiO2 
 PCOD9127371
Probable space group: C 2
;
_chemical_formula_sum "Si O2"
_cell_formula_units_Z 32
_cell_length_a 11.737687
_cell_length_b 8.518359
_cell_length_c 21.307041
_cell_angle_alpha 90.000000
_cell_angle_beta 37.159623
_cell_angle_gamma 90.000000
_cell_volume 1286.843128
_symmetry_space_group_name_H-M "C 2"
_symmetry_group_IT_number 5
_symmetry_cell_setting 'monoclinic'
loop_
_space_group_symop_operation_xyz
x,y,z
-x,y,-z
1/2+x,1/2+y,z
1/2-x,1/2+y,-z
loop_
_atom_site_type_symbol
_atom_site_label
_atom_site_fract_x
_atom_site_fract_y
_atom_site_fract_z
Si Si1 0.672689 0.975560 0.687919
Si Si2 0.501317 0.288579 0.608595
Si Si3 0.081593 0.022119 0.094940
Si Si4 0.114806 0.457093 0.566275
Si Si5 0.214874 0.889559 0.184330
Si Si6 0.353838 0.711908 0.818657
Si Si7 0.222820 0.788178 0.748267
Si Si8 0.614841 0.827409 0.023214
O O1 0.867539 0.891460 0.622532
O O2 0.659475 0.004315 0.619279
O O3 0.510831 0.840594 0.767239
O O4 0.663491 0.136072 0.733369
O O5 0.695418 0.375483 0.539504
O O6 0.377718 0.272356 0.726245
O O7 0.554377 0.117794 0.559506
O O8 0.202067 0.124082 0.092960
O O9 0.028974 0.156814 0.070632
O O10 0.911119 0.937388 0.204485
O O11 0.226980 0.900922 0.001679
O O12 0.939440 0.336565 0.640699
O O13 0.429713 0.934234 0.108820
O O14 0.091301 0.049043 0.242365
O O15 0.263594 0.821997 0.094425
O O16 0.211310 0.778712 0.829809
#
# Coordination Sequence:
#
# PCOD9127371 Si02
#       8
#     4   4   4   4   4   4   4   4
#     4  11  24  43  75 108 145 191 251 302 368 457
#     4  12  24  48  74 104 158 191 246 310 368 446
#     4  11  25  45  72 105 147 192 245 307 374 442
#     4  11  27  44  72 113 142 199 246 303 380 444
#     4  10  22  45  74  97 151 194 237 310 371 433
#     4  10  23  43  74 104 137 193 236 295 381 428
#     4  11  24  46  75 106 149 185 249 310 371 441
#     4  10  24  44  70 107 141 191 254 296 372 440
#
# _framework density 24.867056000000002
#
# number of rings (size 3 to 8) (size 9 to 14) (size 15 to 20)
#    0.000    1.250    1.250    3.375    7.000    0.000 
#    9.000    0.000    0.000    0.000    0.000    0.000 
#    0.000    0.000    0.000    0.000    0.000    0.000 
#
# Total GULP energy -89205.890013 kJ/mol
# GULP energy per Si atom -5575.368126 kJ/mol
# Density = 2.481046 g / cm^3
# Si number density = 24.867056 Si / 1000 Ang^3
#
#
#
# Elastic Constant Matrix: (Units=GPa)
#
#
# Indices 1 2 3 4 5 6 
#
# 1 76.6071 42.9804 36.7845 0.0000 -20.2935 0.0000
# 2 42.9804 117.3861 41.0960 0.0000 -15.1780 0.0000
# 3 36.7845 41.0960 121.3415 0.0000 -23.6298 0.0000
# 4 0.0000 0.0000 0.0000 42.3309 0.0000 -7.8079
# 5 -20.2935 -15.1780 -23.6298 0.0000 34.3337 0.0000
# 6 0.0000 0.0000 0.0000 -7.8079 0.0000 42.4323
#
#
#
# Elastic Compliance Matrix: (Units=1/GPa)
#
#
# Indices 1 2 3 4 5 6 
#
# 1 0.019119 -0.005141 -0.002652 0.000000 0.007203 0.000000
# 2 -0.005141 0.011211 -0.002154 0.000000 0.000435 0.000000
# 3 -0.002652 -0.002154 0.010721 0.000000 0.004859 0.000000
# 4 0.000000 0.000000 0.000000 0.024453 0.000000 0.004500
# 5 0.007203 0.000435 0.004859 0.000000 0.036920 0.000000
# 6 0.000000 0.000000 0.000000 0.004500 0.000000 0.024395
#
#
# Mechanical properties :
#
#
# Convention : Reuss Voigt Hill
#
# Bulk Modulus (GPa) = 47.26334 61.89517 54.57925
# Shear Modulus (GPa) = 32.51691 36.78430 34.65060
#
# Velocity S-wave (km/s) = 3.62004 3.85026 3.73692
# Velocity P-wave (km/s) = 6.04323 6.68659 6.37303
#
# Compressibility (1/GPa) = 0.02115805
#
# Stress axis : x y z
#
# Youngs Moduli (GPa) = 52.30297 89.19426 93.27559
#
# Poissons Ratio (x) = 0.45851 0.24740
# Poissons Ratio (y) = 0.26887 0.20091
# Poissons Ratio (z) = 0.13872 0.19212
#
# Static dielectric constant tensor:
#      x y z
#    x 2.180840 0.000000 0.056600 
#    y 0.000000 2.086580 0.000000 
#    z 0.056600 0.000000 1.908730 
# 
# From -- ./inp_files/70603.got.cif
#   From: 2010.05.17/outbox.cif.g08.bks.cpg/sg5_36_cif.got.tgz:70603.got - 2010.06.03 18:56:24.
