data_PCOD9127795
_publ_section_title
;
Structure prediction by ZEFSAII (Michael W. Deem and Ramdas Pophale) SiO2 
 PCOD9127795
Probable space group: C 2
;
_chemical_formula_sum "Si O2"
_cell_formula_units_Z 26
_cell_length_a 14.990637
_cell_length_b 11.341937
_cell_length_c 8.009536
_cell_angle_alpha 90.000000
_cell_angle_beta 50.439607
_cell_angle_gamma 90.000000
_cell_volume 1049.887993
_symmetry_space_group_name_H-M "C 2"
_symmetry_group_IT_number 5
_symmetry_cell_setting 'monoclinic'
loop_
_space_group_symop_operation_xyz
x,y,z
-x,y,-z
1/2+x,1/2+y,z
1/2-x,1/2+y,-z
loop_
_atom_site_type_symbol
_atom_site_label
_atom_site_fract_x
_atom_site_fract_y
_atom_site_fract_z
Si Si1 0.000000 0.690760 0.000000
Si Si2 0.433007 0.575389 0.756680
Si Si3 0.337808 0.944888 0.602085
Si Si4 0.441929 0.841857 0.820374
Si Si5 0.596662 0.216887 0.522482
Si Si6 0.207210 0.521797 0.830694
Si Si7 0.143328 0.934137 0.608638
O O1 0.948859 0.740922 0.233692
O O2 0.889824 0.622501 0.055938
O O3 0.500000 0.591333 0.500000
O O4 0.433480 0.702023 0.843543
O O5 0.303388 0.536980 0.861859
O O6 0.513141 0.482266 0.758445
O O7 0.358098 0.086216 0.568774
O O8 0.377362 0.887382 0.728173
O O9 0.427269 0.887298 0.362758
O O10 0.207100 0.915477 0.707280
O O11 0.375135 0.909961 0.042647
O O12 0.500000 0.236845 0.500000
O O13 0.672588 0.334051 0.433773
O O14 0.277086 0.535678 0.574396
#
# Coordination Sequence:
#
# PCOD9127795 Si02
#       7
#     2   4   4   4   4   4   4
#     4  12  24  42  76 100 132 188 248 276 354 426
#     4  10  23  42  68  96 139 186 220 287 364 416
#     4  11  22  42  69 102 135 182 239 285 358 419
#     4  11  22  41  74  99 139 185 237 297 354 423
#     4  12  24  46  70 102 142 179 231 302 344 421
#     4  11  22  43  66 102 133 179 240 284 344 431
#     4  11  26  43  68 102 142 181 229 291 366 417
#
# _framework density 24.764544999999998
#
# number of rings (size 3 to 8) (size 9 to 14) (size 15 to 20)
#    0.000    0.923    6.154    1.385    4.308    3.692 
#    0.000    0.000    3.385    0.000    0.000    0.000 
#    0.000    0.000    0.000    0.000    0.000    0.000 
#
# Total GULP energy -72587.107268 kJ/mol
# GULP energy per Si atom -5583.623636 kJ/mol
# Density = 2.470818 g / cm^3
# Si number density = 24.764545 Si / 1000 Ang^3
#
#
#
# Elastic Constant Matrix: (Units=GPa)
#
#
# Indices 1 2 3 4 5 6 
#
# 1 156.5650 12.7256 2.2548 0.0000 7.5531 0.0000
# 2 12.7256 98.9031 -22.8149 0.0000 4.7582 0.0000
# 3 2.2548 -22.8149 43.7757 0.0000 1.6479 0.0000
# 4 0.0000 0.0000 0.0000 3.3637 0.0000 2.2710
# 5 7.5531 4.7582 1.6479 0.0000 35.6290 0.0000
# 6 0.0000 0.0000 0.0000 2.2710 0.0000 20.5596
#
#
#
# Elastic Compliance Matrix: (Units=1/GPa)
#
#
# Indices 1 2 3 4 5 6 
#
# 1 0.006536 -0.000965 -0.000794 0.000000 -0.001220 0.000000
# 2 -0.000965 0.011754 0.006238 0.000000 -0.001654 0.000000
# 3 -0.000794 0.006238 0.026206 0.000000 -0.001877 0.000000
# 4 0.000000 0.000000 0.000000 0.321250 0.000000 -0.035485
# 5 -0.001220 -0.001654 -0.001877 0.000000 0.028633 0.000000
# 6 0.000000 0.000000 0.000000 -0.035485 0.000000 0.052559
#
#
# Mechanical properties :
#
#
# Convention : Reuss Voigt Hill
#
# Bulk Modulus (GPa) = 18.70823 31.50833 25.10828
# Shear Modulus (GPa) = 10.96976 32.38235 21.67605
#
# Velocity S-wave (km/s) = 2.10695 3.62001 2.96173
# Velocity P-wave (km/s) = 3.67285 5.49758 4.67511
#
# Compressibility (1/GPa) = 0.05345241
#
# Stress axis : x y z
#
# Youngs Moduli (GPa) = 153.00165 85.08053 38.15892
#
# Poissons Ratio (x) = 0.08214 0.03029
# Poissons Ratio (y) = 0.14771 -0.23802
# Poissons Ratio (z) = 0.12146 -0.53070
#
# Static dielectric constant tensor:
#      x y z
#    x 1.992010 0.000000 -0.018970 
#    y 0.000000 2.054170 0.000000 
#    z -0.018970 0.000000 2.033690 
# 
# From -- ./inp_files/23535.got.cif
#   From: 2010.05.17/outbox.cif.g08.bks.cpg/sg5_12_cif.got.tgz:23535.got - 2010.06.03 18:56:24.
