data_PCOD9127851
_publ_section_title
;
Structure prediction by ZEFSAII (Michael W. Deem and Ramdas Pophale) SiO2 
 PCOD9127851
Probable space group: C 2
;
_chemical_formula_sum "Si O2"
_cell_formula_units_Z 28
_cell_length_a 12.030583
_cell_length_b 8.187962
_cell_length_c 23.711721
_cell_angle_alpha 90.000000
_cell_angle_beta 26.653769
_cell_angle_gamma 90.000000
_cell_volume 1047.810889
_symmetry_space_group_name_H-M "C 2"
_symmetry_group_IT_number 5
_symmetry_cell_setting 'monoclinic'
loop_
_space_group_symop_operation_xyz
x,y,z
-x,y,-z
1/2+x,1/2+y,z
1/2-x,1/2+y,-z
loop_
_atom_site_type_symbol
_atom_site_label
_atom_site_fract_x
_atom_site_fract_y
_atom_site_fract_z
Si Si1 0.252598 0.515550 0.912793
Si Si2 0.429617 0.072441 0.204498
Si Si3 0.607887 0.075127 0.565092
Si Si4 0.718234 0.285439 0.358298
Si Si5 0.078284 0.181518 0.053831
Si Si6 0.047109 0.234525 0.309171
Si Si7 0.468457 0.255801 0.733820
O O1 0.168261 0.358741 0.990034
O O2 0.401566 0.428322 0.793596
O O3 0.388079 0.633956 0.895741
O O4 0.000000 0.583623 0.000000
O O5 0.723901 0.061586 0.065448
O O6 0.384550 0.163805 0.283598
O O7 0.319917 0.180914 0.203639
O O8 0.284111 0.905508 0.277445
O O9 0.403467 0.124566 0.611848
O O10 0.867474 0.095377 0.416042
O O11 0.612259 0.214841 0.611595
O O12 0.532628 0.904315 0.625650
O O13 0.500000 0.349678 0.500000
O O14 0.966120 0.262070 0.281940
O O15 0.798486 0.171851 0.159084
#
# Coordination Sequence:
#
# PCOD9127851 Si02
#       7
#     4   4   4   4   4   4   4
#     4   9  21  43  63  94 133 175 226 269 331 394
#     4  11  23  42  72  98 134 180 224 276 340 400
#     4  11  24  46  72  96 140 179 219 287 340 397
#     4  10  23  45  64  97 135 174 222 283 339 399
#     4  10  23  43  66  97 139 175 222 278 325 404
#     4  11  24  47  66 103 134 173 234 278 336 406
#     4  10  23  43  68  98 135 185 216 274 344 395
#
# _framework density 26.722377999999999
#
# number of rings (size 3 to 8) (size 9 to 14) (size 15 to 20)
#    0.000    1.714    1.429    3.000    8.000    0.000 
#   12.857    3.571    0.000    0.000    0.000    0.000 
#    0.000    0.000    0.000    0.000    0.000    0.000 
#
# Total GULP energy -78395.613487 kJ/mol
# GULP energy per Si atom -5599.686678 kJ/mol
# Density = 2.666156 g / cm^3
# Si number density = 26.722378 Si / 1000 Ang^3
#
#
#
# Elastic Constant Matrix: (Units=GPa)
#
#
# Indices 1 2 3 4 5 6 
#
# 1 175.3409 32.0286 32.9068 0.0000 -5.5757 0.0000
# 2 32.0286 98.0649 14.0521 0.0003 -6.2276 0.0001
# 3 32.9068 14.0521 67.1814 -0.0033 6.0887 0.0002
# 4 0.0000 0.0003 -0.0033 33.7700 0.0000 0.4758
# 5 -5.5757 -6.2276 6.0887 0.0000 53.0110 0.0002
# 6 0.0000 0.0001 0.0002 0.4758 0.0002 55.5518
#
#
#
# Elastic Compliance Matrix: (Units=1/GPa)
#
#
# Indices 1 2 3 4 5 6 
#
# 1 0.006590 -0.001676 -0.002953 0.000000 0.000835 0.000000
# 2 -0.001676 0.011059 -0.001611 0.000000 0.001308 0.000000
# 3 -0.002953 -0.001611 0.016890 0.000002 -0.002440 0.000000
# 4 0.000000 0.000000 0.000002 0.029616 0.000000 -0.000254
# 5 0.000835 0.001308 -0.002440 0.000000 0.019386 0.000000
# 6 0.000000 0.000000 0.000000 -0.000254 0.000000 0.018003
#
#
# Mechanical properties :
#
#
# Convention : Reuss Voigt Hill
#
# Bulk Modulus (GPa) = 45.33384 55.39580 50.36482
# Shear Modulus (GPa) = 41.19441 45.90654 43.55047
#
# Velocity S-wave (km/s) = 3.93054 4.14926 4.04138
# Velocity P-wave (km/s) = 6.13192 6.61289 6.37694
#
# Compressibility (1/GPa) = 0.02205858
#
# Stress axis : x y z
#
# Youngs Moduli (GPa) = 151.74196 90.42721 59.20815
#
# Poissons Ratio (x) = 0.15157 0.17485
# Poissons Ratio (y) = 0.25434 0.09536
# Poissons Ratio (z) = 0.44811 0.14564
#
# Static dielectric constant tensor:
#      x y z
#    x 2.031310 0.000000 0.063410 
#    y 0.000000 2.097960 0.000000 
#    z 0.063410 0.000000 2.143450 
# 
# From -- ./inp_files/70357.got.cif
#   From: 2010.05.17/outbox.cif.g08.bks.cpg/sg5_36_cif.got.tgz:70357.got - 2010.06.03 18:56:24.
