data_PCOD9127653
_publ_section_title
;
Structure prediction by ZEFSAII (Michael W. Deem and Ramdas Pophale) SiO2 
 PCOD9127653
Probable space group: C 2
;
_chemical_formula_sum "Si O2"
_cell_formula_units_Z 22
_cell_length_a 30.525166
_cell_length_b 4.974393
_cell_length_c 5.120734
_cell_angle_alpha 90.000000
_cell_angle_beta 98.112922
_cell_angle_gamma 90.000000
_cell_volume 769.771745
_symmetry_space_group_name_H-M "C 2"
_symmetry_group_IT_number 5
_symmetry_cell_setting 'monoclinic'
loop_
_space_group_symop_operation_xyz
x,y,z
-x,y,-z
1/2+x,1/2+y,z
1/2-x,1/2+y,-z
loop_
_atom_site_type_symbol
_atom_site_label
_atom_site_fract_x
_atom_site_fract_y
_atom_site_fract_z
Si Si1 0.347544 0.726680 0.554773
Si Si2 0.500000 0.517447 0.500000
Si Si3 0.578527 0.331461 0.870836
Si Si4 0.562241 0.831368 0.209787
Si Si5 0.741369 0.840737 0.676817
Si Si6 0.830522 0.724462 0.904862
O O1 0.398628 0.792233 0.542312
O O2 0.310155 0.786484 0.306928
O O3 0.341516 0.435774 0.679509
O O4 0.335899 0.936654 0.776295
O O5 0.541290 0.334432 0.619406
O O6 0.517566 0.716696 0.291784
O O7 0.576443 0.624017 0.997150
O O8 0.630039 0.271579 0.856365
O O9 0.563288 0.121415 0.080843
O O10 0.752005 0.626729 0.454345
O O11 0.779149 0.781513 0.922977
#
# Coordination Sequence:
#
# PCOD9127653 Si02
#       6
#     4   2   4   4   4   4
#     4   8  14  27  47  75 111 147 188 241 294 355
#     4  12  26  42  68  92 124 174 214 258 320 370
#     4  10  23  41  60  88 124 159 206 260 308 367
#     4  10  23  41  60  88 124 159 206 260 308 367
#     4   8  12  20  42  74 104 142 188 228 288 360
#     4   8  14  27  47  75 111 147 188 241 294 355
#
# _framework density 28.579903999999999
#
# number of rings (size 3 to 8) (size 9 to 14) (size 15 to 20)
#    0.000    2.909    0.000    0.545    0.000    5.818 
#    0.000    0.000    0.000    0.000    0.000   38.182 
#    0.000    5.818    0.000    0.000    0.000    0.364 
#
# Total GULP energy -61710.932375 kJ/mol
# GULP energy per Si atom -5610.084761 kJ/mol
# Density = 2.851486 g / cm^3
# Si number density = 28.579904 Si / 1000 Ang^3
#
#
#
# Elastic Constant Matrix: (Units=GPa)
#
#
# Indices 1 2 3 4 5 6 
#
# 1 192.1468 29.7351 76.4787 0.0000 57.6902 0.0000
# 2 29.7351 143.6772 47.7718 0.0000 -8.8122 0.0000
# 3 76.4787 47.7718 116.3697 0.0000 21.8760 0.0000
# 4 0.0000 0.0000 0.0000 24.5445 0.0000 13.0995
# 5 57.6902 -8.8122 21.8760 0.0000 64.5601 0.0000
# 6 0.0000 0.0000 0.0000 13.0995 0.0000 39.3423
#
#
#
# Elastic Compliance Matrix: (Units=1/GPa)
#
#
# Indices 1 2 3 4 5 6 
#
# 1 0.009106 -0.000850 -0.004362 0.000000 -0.006775 0.000000
# 2 -0.000850 0.008495 -0.003513 0.000000 0.003109 0.000000
# 3 -0.004362 -0.003513 0.013094 0.000000 -0.001018 0.000000
# 4 0.000000 0.000000 0.000000 0.049547 0.000000 -0.016497
# 5 -0.006775 0.003109 -0.001018 0.000000 0.022313 0.000000
# 6 0.000000 0.000000 0.000000 -0.016497 0.000000 0.030911
#
#
# Mechanical properties :
#
#
# Convention : Reuss Voigt Hill
#
# Bulk Modulus (GPa) = 75.50361 84.46278 79.98319
# Shear Modulus (GPa) = 32.18928 45.56992 38.87960
#
# Velocity S-wave (km/s) = 3.35967 3.99742 3.69234
# Velocity P-wave (km/s) = 6.44403 7.13605 6.79885
#
# Compressibility (1/GPa) = 0.01324440
#
# Stress axis : x y z
#
# Youngs Moduli (GPa) = 109.81432 117.71959 76.37158
#
# Poissons Ratio (x) = 0.10003 0.33315
# Poissons Ratio (y) = 0.09331 0.26832
# Poissons Ratio (z) = 0.47903 0.41358
#
# Static dielectric constant tensor:
#      x y z
#    x 2.291480 0.000000 0.140750 
#    y 0.000000 2.136130 0.000000 
#    z 0.140750 0.000000 2.191910 
# 
# From -- ./inp_files/11040.got.cif
#   From: 2010.05.17/outbox.cif.g08.bks.cpg/sg5_6_cif.got.tgz:11040.got - 2010.06.03 18:56:24.
