data_PCOD9127436
_publ_section_title
;
Structure prediction by ZEFSAII (Michael W. Deem and Ramdas Pophale) SiO2 
 PCOD9127436
Probable space group: C 2
;
_chemical_formula_sum "Si O2"
_cell_formula_units_Z 26
_cell_length_a 7.119622
_cell_length_b 8.502268
_cell_length_c 19.042403
_cell_angle_alpha 90.000000
_cell_angle_beta 56.762993
_cell_angle_gamma 90.000000
_cell_volume 964.124102
_symmetry_space_group_name_H-M "C 2"
_symmetry_group_IT_number 5
_symmetry_cell_setting 'monoclinic'
loop_
_space_group_symop_operation_xyz
x,y,z
-x,y,-z
1/2+x,1/2+y,z
1/2-x,1/2+y,-z
loop_
_atom_site_type_symbol
_atom_site_label
_atom_site_fract_x
_atom_site_fract_y
_atom_site_fract_z
Si Si1 0.983483 0.158880 0.428073
Si Si2 0.500000 0.184320 0.500000
Si Si3 0.171737 0.497073 0.722291
Si Si4 0.746166 0.013455 0.972237
Si Si5 0.849008 0.463211 0.657711
Si Si6 0.040677 0.814064 0.820574
Si Si7 0.603258 0.810484 0.126541
O O1 0.742732 0.243026 0.473416
O O2 0.000000 0.078544 0.500000
O O3 0.072726 0.039967 0.350417
O O4 0.154429 0.302143 0.385810
O O5 0.415468 0.092433 0.587600
O O6 0.044946 0.651380 0.777910
O O7 0.046588 0.452806 0.675808
O O8 0.128269 0.365877 0.790056
O O9 0.907635 0.157644 0.920269
O O10 0.500000 0.069490 0.000000
O O11 0.822410 0.870749 0.906306
O O12 0.716726 0.946461 0.055819
O O13 0.628464 0.454240 0.751582
O O14 0.229773 0.786954 0.842058
#
# Coordination Sequence:
#
# PCOD9127436 Si02
#       7
#     4   2   4   4   4   4   4
#     4  11  23  43  70 103 146 188 246 304 358 428
#     4  12  24  40  70 102 136 194 242 298 370 426
#     4  10  22  46  72  99 144 192 233 303 367 417
#     4  12  25  42  70 104 141 183 237 297 354 436
#     4  10  23  42  67 100 142 183 244 302 356 434
#     4  10  24  46  69  97 142 185 233 298 357 429
#     4  11  24  44  69 102 143 186 236 294 360 428
#
# _framework density 26.967483000000001
#
# number of rings (size 3 to 8) (size 9 to 14) (size 15 to 20)
#    0.000    1.231    2.308    3.231    0.000    9.846 
#    0.000    5.385    0.000    0.000    0.000    0.000 
#    0.000    0.000    0.000    0.000    0.000    0.000 
#
# Total GULP energy -72739.421526 kJ/mol
# GULP energy per Si atom -5595.340117 kJ/mol
# Density = 2.690610 g / cm^3
# Si number density = 26.967483 Si / 1000 Ang^3
#
#
#
# Elastic Constant Matrix: (Units=GPa)
#
#
# Indices 1 2 3 4 5 6 
#
# 1 53.8881 10.5155 35.4188 0.0000 2.7468 0.0000
# 2 10.5155 70.9302 46.3863 0.0000 7.6378 0.0000
# 3 35.4188 46.3863 193.9884 0.0000 1.0996 0.0000
# 4 0.0000 0.0000 0.0000 63.0165 0.0000 6.0056
# 5 2.7468 7.6378 1.0996 0.0000 51.9057 0.0000
# 6 0.0000 0.0000 0.0000 6.0056 0.0000 29.4223
#
#
#
# Elastic Compliance Matrix: (Units=1/GPa)
#
#
# Indices 1 2 3 4 5 6 
#
# 1 0.021165 -0.000606 -0.003714 0.000000 -0.000952 0.000000
# 2 -0.000606 0.017027 -0.003947 0.000000 -0.002390 0.000000
# 3 -0.003714 -0.003947 0.006773 0.000000 0.000634 0.000000
# 4 0.000000 0.000000 0.000000 0.016184 0.000000 -0.003303
# 5 -0.000952 -0.002390 0.000634 0.000000 0.019654 0.000000
# 6 0.000000 0.000000 0.000000 -0.003303 0.000000 0.034662
#
#
# Mechanical properties :
#
#
# Convention : Reuss Voigt Hill
#
# Bulk Modulus (GPa) = 35.17399 55.93864 45.55631
# Shear Modulus (GPa) = 35.34144 43.96797 39.65470
#
# Velocity S-wave (km/s) = 3.62404 4.04221 3.83882
# Velocity P-wave (km/s) = 5.53019 6.52487 6.04801
#
# Compressibility (1/GPa) = 0.02843010
#
# Stress axis : x y z
#
# Youngs Moduli (GPa) = 47.24810 58.73037 147.63844
#
# Poissons Ratio (x) = 0.03561 0.54832
# Poissons Ratio (y) = 0.02865 0.58276
# Poissons Ratio (z) = 0.17548 0.23182
#
# Static dielectric constant tensor:
#      x y z
#    x 2.195090 0.000000 -0.011250 
#    y 0.000000 2.100050 0.000000 
#    z -0.011250 0.000000 2.060180 
# 
# From -- ./inp_files/64379.got.cif
#   From: 2010.05.17/outbox.cif.g08.bks.cpg/sg5_33_cif.got.tgz:64379.got - 2010.06.03 18:56:24.
