data_PCOD9127871
_publ_section_title
;
Structure prediction by ZEFSAII (Michael W. Deem and Ramdas Pophale) SiO2 
 PCOD9127871
Probable space group: C 2
;
_chemical_formula_sum "Si O2"
_cell_formula_units_Z 24
_cell_length_a 23.022907
_cell_length_b 5.558740
_cell_length_c 16.956550
_cell_angle_alpha 90.000000
_cell_angle_beta 25.425122
_cell_angle_gamma 90.000000
_cell_volume 931.679276
_symmetry_space_group_name_H-M "C 2"
_symmetry_group_IT_number 5
_symmetry_cell_setting 'monoclinic'
loop_
_space_group_symop_operation_xyz
x,y,z
-x,y,-z
1/2+x,1/2+y,z
1/2-x,1/2+y,-z
loop_
_atom_site_type_symbol
_atom_site_label
_atom_site_fract_x
_atom_site_fract_y
_atom_site_fract_z
Si Si1 0.653694 0.973360 0.722885
Si Si2 0.332156 0.370565 0.974225
Si Si3 0.792310 0.357780 0.638691
Si Si4 0.000000 0.095751 0.000000
Si Si5 0.112492 0.682629 0.622996
Si Si6 0.000000 0.619755 0.500000
Si Si7 0.238445 0.868193 0.115078
O O1 0.758284 0.849419 0.536811
O O2 0.749801 0.081273 0.673197
O O3 0.581918 0.158863 0.753782
O O4 0.543181 0.782346 0.880462
O O5 0.479014 0.316658 0.759067
O O6 0.244951 0.391888 0.000736
O O7 0.325944 0.627839 0.024198
O O8 0.280619 0.139143 0.087036
O O9 0.852236 0.470623 0.482693
O O10 0.900557 0.450066 0.569640
O O11 0.640521 0.458646 0.840739
O O12 0.904774 0.788572 0.671629
#
# Coordination Sequence:
#
# PCOD9127871 Si02
#       7
#     4   4   4   2   4   2   4
#     4  11  24  44  73 108 142 194 252 317 375 460
#     4  10  23  43  69 100 143 194 246 303 369 462
#     4  11  25  48  71 110 151 193 249 311 388 460
#     4  10  26  46  72 112 144 194 246 310 392 454
#     4  11  23  42  74 104 139 195 252 311 369 453
#     4  12  26  48  72 110 150 200 240 328 382 468
#     4  10  24  43  67 102 144 193 243 300 381 451
#
# _framework density 25.759938999999999
#
# number of rings (size 3 to 8) (size 9 to 14) (size 15 to 20)
#    0.000    1.333    3.333    0.500    4.667    4.667 
#    3.000    0.000    0.000    0.000    0.000    0.000 
#    0.000    0.000    0.000    0.000    0.000    0.000 
#
# Total GULP energy -66939.821216 kJ/mol
# GULP energy per Si atom -5578.318435 kJ/mol
# Density = 2.570131 g / cm^3
# Si number density = 25.759939 Si / 1000 Ang^3
#
#
#
# Elastic Constant Matrix: (Units=GPa)
#
#
# Indices 1 2 3 4 5 6 
#
# 1 117.4393 19.6045 17.8639 -0.0393 -8.1034 0.0172
# 2 19.6045 74.5279 14.5307 -0.1749 -12.2867 0.0561
# 3 17.8639 14.5307 132.5229 -0.0985 -18.6635 0.0278
# 4 -0.0393 -0.1749 -0.0985 -175.9828 0.0102 -34.7415
# 5 -8.1034 -12.2867 -18.6635 0.0102 13.4040 0.0011
# 6 0.0172 0.0561 0.0278 -34.7415 0.0011 12.9284
#
#
#
# Elastic Compliance Matrix: (Units=1/GPa)
#
#
# Indices 1 2 3 4 5 6 
#
# 1 0.009114 -0.001779 -0.000606 0.000001 0.003035 -0.000002
# 2 -0.001779 0.016169 0.000501 -0.000001 0.014444 -0.000072
# 3 -0.000606 0.000501 0.009436 0.000000 0.013232 -0.000023
# 4 0.000001 -0.000001 0.000000 -0.003713 0.000003 -0.009977
# 5 0.003035 0.014444 0.013232 0.000003 0.108103 -0.000097
# 6 -0.000002 -0.000072 -0.000023 -0.009977 -0.000097 0.050539
#
#
# Mechanical properties :
#
#
# Convention : Reuss Voigt Hill
#
# Bulk Modulus (GPa) = 32.30862 47.60983 39.95922
# Shear Modulus (GPa) = 24.54195 -11.76402 6.38897
#
# Velocity S-wave (km/s) = 3.08996 -2.13932 1.57657
# Velocity P-wave (km/s) = 5.02990 3.52420 4.34280
#
# Compressibility (1/GPa) = 0.03095150
#
# Stress axis : x y z
#
# Youngs Moduli (GPa) = 109.72619 61.84567 105.97659
#
# Poissons Ratio (x) = 0.11001 0.06422
# Poissons Ratio (y) = 0.19518 -0.05310
# Poissons Ratio (z) = 0.06649 -0.03099
#
# Static dielectric constant tensor:
#      x y z
#    x 2.253480 -0.000010 0.145750 
#    y -0.000010 2.131820 0.000040 
#    z 0.145750 0.000040 2.283100 
# 
# From -- ./inp_files/48132.got.cif
#   From: 2010.05.17/outbox.cif.g08.bks.cpg/sg5_25_cif.got.tgz:48132.got - 2010.06.03 18:56:24.
