data_PCOD9127923
_publ_section_title
;
Structure prediction by ZEFSAII (Michael W. Deem and Ramdas Pophale) SiO2 
 PCOD9127923
Probable space group: C 2
;
_chemical_formula_sum "Si O2"
_cell_formula_units_Z 30
_cell_length_a 14.889915
_cell_length_b 8.097503
_cell_length_c 11.985494
_cell_angle_alpha 90.000000
_cell_angle_beta 78.592059
_cell_angle_gamma 90.000000
_cell_volume 1416.554754
_symmetry_space_group_name_H-M "C 2"
_symmetry_group_IT_number 5
_symmetry_cell_setting 'monoclinic'
loop_
_space_group_symop_operation_xyz
x,y,z
-x,y,-z
1/2+x,1/2+y,z
1/2-x,1/2+y,-z
loop_
_atom_site_type_symbol
_atom_site_label
_atom_site_fract_x
_atom_site_fract_y
_atom_site_fract_z
Si Si1 0.033983 0.465090 0.261176
Si Si2 0.986955 0.067793 0.732758
Si Si3 0.645412 0.083272 0.443119
Si Si4 0.795690 0.467786 0.922587
Si Si5 0.835725 0.496521 0.311341
Si Si6 0.500000 0.370122 0.500000
Si Si7 0.712370 0.592882 0.157434
Si Si8 0.682360 0.622164 0.759715
O O1 0.019994 0.267692 0.267499
O O2 0.074591 0.503821 0.372828
O O3 0.105099 0.517146 0.148634
O O4 0.938719 0.556863 0.263486
O O5 0.890116 0.018555 0.812411
O O6 0.084374 0.035194 0.766965
O O7 0.991827 0.983610 0.611003
O O8 0.592310 0.256004 0.482372
O O9 0.740204 0.082443 0.351569
O O10 0.666628 0.993627 0.554291
O O11 0.788285 0.277763 0.888859
O O12 0.722938 0.572297 0.868727
O O13 0.776078 0.493429 0.056478
O O14 0.755900 0.596855 0.270367
O O15 0.829206 0.316545 0.257957
#
# Coordination Sequence:
#
# PCOD9127923 Si02
#       8
#     4   4   4   4   4   2   4   4
#     4   9  21  44  63  89 124 169 209 243 316 378
#     4  10  25  40  62  93 126 169 204 254 312 378
#     4  11  23  38  61  95 130 163 206 259 302 373
#     4  10  23  44  66  89 121 162 211 265 305 368
#     4  11  22  39  62  90 125 166 206 250 310 377
#     4  12  24  36  60  94 138 156 206 266 310 356
#     4  11  24  43  65  91 125 161 211 259 315 367
#     4  10  24  40  65  89 122 171 210 250 312 367
#
# _framework density 21.178144
#
# number of rings (size 3 to 8) (size 9 to 14) (size 15 to 20)
#    0.000    1.600    1.333    1.600    9.333    3.200 
#    0.000    5.333    0.000    0.000    0.000    0.000 
#    0.000    0.000    0.000    0.000    0.000    0.000 
#
# Total GULP energy -83724.527233 kJ/mol
# GULP energy per Si atom -5581.635149 kJ/mol
# Density = 2.112994 g / cm^3
# Si number density = 21.178144 Si / 1000 Ang^3
#
#
#
# Elastic Constant Matrix: (Units=GPa)
#
#
# Indices 1 2 3 4 5 6 
#
# 1 123.3469 5.4310 38.1195 0.0000 -7.0462 0.0000
# 2 5.4310 14.3056 -0.6087 0.0000 2.0997 0.0000
# 3 38.1195 -0.6087 78.9632 0.0000 -5.2643 0.0000
# 4 0.0000 0.0000 0.0000 28.7627 0.0000 4.9768
# 5 -7.0462 2.0997 -5.2643 0.0000 17.4121 0.0000
# 6 0.0000 0.0000 0.0000 4.9768 0.0000 20.1455
#
#
#
# Elastic Compliance Matrix: (Units=1/GPa)
#
#
# Indices 1 2 3 4 5 6 
#
# 1 0.009905 -0.004418 -0.004606 0.000000 0.003149 0.000000
# 2 -0.004418 0.073133 0.002031 0.000000 -0.009993 0.000000
# 3 -0.004606 0.002031 0.015066 0.000000 0.002446 0.000000
# 4 0.000000 0.000000 0.000000 0.036320 0.000000 -0.008973
# 5 0.003149 -0.009993 0.002446 0.000000 0.060650 0.000000
# 6 0.000000 0.000000 0.000000 -0.008973 0.000000 0.051856
#
#
# Mechanical properties :
#
#
# Convention : Reuss Voigt Hill
#
# Bulk Modulus (GPa) = 11.88816 33.61102 22.74959
# Shear Modulus (GPa) = 17.30362 24.84230 21.07296
#
# Velocity S-wave (km/s) = 2.86151 3.42865 3.15784
# Velocity P-wave (km/s) = 4.06734 5.61954 4.90523
#
# Compressibility (1/GPa) = 0.08411729
#
# Stress axis : x y z
#
# Youngs Moduli (GPa) = 100.95891 13.67365 66.37313
#
# Poissons Ratio (x) = 0.06042 0.30570
# Poissons Ratio (y) = 0.44609 -0.13478
# Poissons Ratio (z) = 0.46500 -0.02777
#
# Static dielectric constant tensor:
#      x y z
#    x 1.818060 0.000000 -0.026220 
#    y 0.000000 1.796670 0.000000 
#    z -0.026220 0.000000 1.739300 
# 
# From -- ./inp_files/41792.got.cif
#   From: 2010.05.17/outbox.cif.g08.bks.cpg/sg5_21_cif.got.tgz:41792.got - 2010.06.03 18:56:24.
