data_PCOD9127283
_publ_section_title
;
Structure prediction by ZEFSAII (Michael W. Deem and Ramdas Pophale) SiO2 
 PCOD9127283
Probable space group: C 2
;
_chemical_formula_sum "Si O2"
_cell_formula_units_Z 20
_cell_length_a 14.903211
_cell_length_b 10.880027
_cell_length_c 5.180579
_cell_angle_alpha 90.000000
_cell_angle_beta 100.108890
_cell_angle_gamma 90.000000
_cell_volume 826.976634
_symmetry_space_group_name_H-M "C 2"
_symmetry_group_IT_number 5
_symmetry_cell_setting 'monoclinic'
loop_
_space_group_symop_operation_xyz
x,y,z
-x,y,-z
1/2+x,1/2+y,z
1/2-x,1/2+y,-z
loop_
_atom_site_type_symbol
_atom_site_label
_atom_site_fract_x
_atom_site_fract_y
_atom_site_fract_z
Si Si1 0.500000 0.577471 0.500000
Si Si2 0.000000 0.772583 0.000000
Si Si3 0.686300 0.981091 0.223170
Si Si4 0.413765 0.075625 0.341841
Si Si5 0.098312 0.218340 0.195445
Si Si6 0.873004 0.970054 0.054625
O O1 0.580370 0.668618 0.471687
O O2 0.466726 0.493868 0.255362
O O3 0.969562 0.689081 0.231326
O O4 0.904363 0.850010 0.911538
O O5 0.648318 0.844613 0.239462
O O6 0.792465 0.958950 0.218290
O O7 0.656542 0.067575 0.449818
O O8 0.639847 0.025663 0.933194
O O9 0.500000 0.998764 0.500000
O O10 0.000000 0.232970 0.000000
O O11 0.145935 0.099023 0.095680
#
# Coordination Sequence:
#
# PCOD9127283 Si02
#       6
#     2   2   4   4   4   4
#     4  10  22  44  74  96 150 192 254 286 394 436
#     4  12  26  50  78 108 162 204 256 304 390 470
#     4  12  29  46  78 115 152 189 265 316 369 451
#     4  12  27  50  76 109 153 203 247 308 391 443
#     4  10  23  46  73 103 148 197 246 307 380 447
#     4  11  27  47  72 116 144 206 249 317 377 452
#
# _framework density 24.184479
#
# number of rings (size 3 to 8) (size 9 to 14) (size 15 to 20)
#    0.000    0.800    5.000    1.200   14.000    0.000 
#    0.000    0.000    0.000    0.000    0.000    0.000 
#    0.000    0.000    0.000    0.000    0.000    0.000 
#
# Total GULP energy -55687.943700 kJ/mol
# GULP energy per Si atom -5568.794370 kJ/mol
# Density = 2.412943 g / cm^3
# Si number density = 24.184479 Si / 1000 Ang^3
#
#
#
# Elastic Constant Matrix: (Units=GPa)
#
#
# Indices 1 2 3 4 5 6 
#
# 1 116.8149 62.5603 39.7974 0.0000 -48.1831 0.0000
# 2 62.5603 97.2861 34.1379 0.0000 -25.0784 0.0000
# 3 39.7974 34.1379 139.9855 0.0000 -27.0011 0.0000
# 4 0.0000 0.0000 0.0000 20.7766 0.0000 -1.9637
# 5 -48.1831 -25.0784 -27.0011 0.0000 47.1334 0.0000
# 6 0.0000 0.0000 0.0000 -1.9637 0.0000 16.3765
#
#
#
# Elastic Compliance Matrix: (Units=1/GPa)
#
#
# Indices 1 2 3 4 5 6 
#
# 1 0.019525 -0.008454 -0.000570 0.000000 0.015135 0.000000
# 2 -0.008454 0.016036 -0.001718 0.000000 -0.001094 0.000000
# 3 -0.000570 -0.001718 0.008360 0.000000 0.003292 0.000000
# 4 0.000000 0.000000 0.000000 0.048683 0.000000 0.005838
# 5 0.015135 -0.001094 0.003292 0.000000 0.037993 0.000000
# 6 0.000000 0.000000 0.000000 0.005838 0.000000 0.061763
#
#
# Mechanical properties :
#
#
# Convention : Reuss Voigt Hill
#
# Bulk Modulus (GPa) = 44.57034 69.67529 57.12282
# Shear Modulus (GPa) = 22.59136 31.36336 26.97736
#
# Velocity S-wave (km/s) = 3.05966 3.60507 3.34351
# Velocity P-wave (km/s) = 5.56340 6.79715 6.21098
#
# Compressibility (1/GPa) = 0.02243645
#
# Stress axis : x y z
#
# Youngs Moduli (GPa) = 51.21543 62.35822 119.62220
#
# Poissons Ratio (x) = 0.52719 0.06817
# Poissons Ratio (y) = 0.43299 0.20555
# Poissons Ratio (z) = 0.02919 0.10715
#
# Static dielectric constant tensor:
#      x y z
#    x 2.012060 0.000000 -0.032690 
#    y 0.000000 2.131620 0.000000 
#    z -0.032690 0.000000 2.035660 
# 
# From -- ./inp_files/6537.got.cif
#   From: 2010.05.17/outbox.cif.g08.bks.cpg/sg5_4_cif.got.tgz:6537.got - 2010.06.03 18:56:24.
