data_PCOD9127719
_publ_section_title
;
Structure prediction by ZEFSAII (Michael W. Deem and Ramdas Pophale) SiO2 
 PCOD9127719
Probable space group: C 2
;
_chemical_formula_sum "Si O2"
_cell_formula_units_Z 22
_cell_length_a 15.396756
_cell_length_b 8.330959
_cell_length_c 7.159619
_cell_angle_alpha 90.000000
_cell_angle_beta 71.118700
_cell_angle_gamma 90.000000
_cell_volume 868.946347
_symmetry_space_group_name_H-M "C 2"
_symmetry_group_IT_number 5
_symmetry_cell_setting 'monoclinic'
loop_
_space_group_symop_operation_xyz
x,y,z
-x,y,-z
1/2+x,1/2+y,z
1/2-x,1/2+y,-z
loop_
_atom_site_type_symbol
_atom_site_label
_atom_site_fract_x
_atom_site_fract_y
_atom_site_fract_z
Si Si1 0.444118 0.801270 0.881132
Si Si2 0.500000 0.103510 0.000000
Si Si3 0.146770 0.143378 0.383559
Si Si4 0.336215 0.300913 0.158633
Si Si5 0.300109 0.664479 0.220063
Si Si6 0.605246 0.276030 0.452018
O O1 0.345597 0.800736 0.057619
O O2 0.500000 0.698440 0.000000
O O3 0.427242 0.735145 0.690249
O O4 0.501012 0.966764 0.837169
O O5 0.583220 0.213892 0.006283
O O6 0.243699 0.198419 0.228536
O O7 0.158626 0.178653 0.597071
O O8 0.123415 0.957801 0.372592
O O9 0.321863 0.487228 0.127668
O O10 0.375715 0.286287 0.340581
O O11 0.190221 0.675078 0.312271
O O12 0.500000 0.229146 0.500000
#
# Coordination Sequence:
#
# PCOD9127719 Si02
#       6
#     4   2   4   4   4   4
#     4  10  25  42  70 101 137 187 233 283 341 414
#     4  10  24  42  66 102 144 178 240 284 336 422
#     4  10  23  44  68  95 141 185 225 288 347 408
#     4  10  23  42  67  99 141 185 226 287 349 417
#     4  10  23  44  70 101 142 182 229 287 353 415
#     4  10  23  41  69  99 135 181 232 283 342 414
#
# _framework density 25.318019
#
# number of rings (size 3 to 8) (size 9 to 14) (size 15 to 20)
#    0.545    1.455    0.000    1.091    6.364    7.273 
#    0.000    0.909    0.000    0.000    0.000    0.000 
#    0.000    0.000    0.000    0.000    0.000    0.000 
#
# Total GULP energy -61441.926981 kJ/mol
# GULP energy per Si atom -5585.629726 kJ/mol
# Density = 2.526039 g / cm^3
# Si number density = 25.318019 Si / 1000 Ang^3
#
#
#
# Elastic Constant Matrix: (Units=GPa)
#
#
# Indices 1 2 3 4 5 6 
#
# 1 159.9398 51.2720 59.9837 0.0000 19.1161 0.0000
# 2 51.2720 110.7802 23.8404 0.0000 3.7900 0.0000
# 3 59.9837 23.8404 82.3328 0.0000 4.9145 0.0000
# 4 0.0000 0.0000 0.0000 16.3055 0.0000 1.3518
# 5 19.1161 3.7900 4.9145 0.0000 43.9688 0.0000
# 6 0.0000 0.0000 0.0000 1.3518 0.0000 42.8180
#
#
#
# Elastic Compliance Matrix: (Units=1/GPa)
#
#
# Indices 1 2 3 4 5 6 
#
# 1 0.009982 -0.003181 -0.006150 0.000000 -0.003378 0.000000
# 2 -0.003181 0.010652 -0.000800 0.000000 0.000554 0.000000
# 3 -0.006150 -0.000800 0.016806 0.000000 0.000864 0.000000
# 4 0.000000 0.000000 0.000000 0.061490 0.000000 -0.001941
# 5 -0.003378 0.000554 0.000864 0.000000 0.024068 0.000000
# 6 0.000000 0.000000 0.000000 -0.001941 0.000000 0.023416
#
#
# Mechanical properties :
#
#
# Convention : Reuss Voigt Hill
#
# Bulk Modulus (GPa) = 58.20999 69.24945 63.72972
# Shear Modulus (GPa) = 29.00181 35.14891 32.07536
#
# Velocity S-wave (km/s) = 3.38820 3.73003 3.56321
# Velocity P-wave (km/s) = 6.19257 6.77953 6.49269
#
# Compressibility (1/GPa) = 0.01717918
#
# Stress axis : x y z
#
# Youngs Moduli (GPa) = 100.17703 93.87593 59.50110
#
# Poissons Ratio (x) = 0.29862 0.36592
# Poissons Ratio (y) = 0.31867 0.04760
# Poissons Ratio (z) = 0.61608 0.07511
#
# Static dielectric constant tensor:
#      x y z
#    x 2.079850 0.000000 -0.053230 
#    y 0.000000 1.965440 0.000000 
#    z -0.053230 0.000000 2.195500 
# 
# From -- ./inp_files/22805.got.cif
#   From: 2010.05.17/outbox.cif.g08.bks.cpg/sg5_12_cif.got.tgz:22805.got - 2010.06.03 18:56:24.
