data_PCOD9127924
_publ_section_title
;
Structure prediction by ZEFSAII (Michael W. Deem and Ramdas Pophale) SiO2 
 PCOD9127924
Probable space group: C 2
;
_chemical_formula_sum "Si O2"
_cell_formula_units_Z 32
_cell_length_a 12.740216
_cell_length_b 15.030768
_cell_length_c 18.485108
_cell_angle_alpha 90.000000
_cell_angle_beta 29.169217
_cell_angle_gamma 90.000000
_cell_volume 1725.270127
_symmetry_space_group_name_H-M "C 2"
_symmetry_group_IT_number 5
_symmetry_cell_setting 'monoclinic'
loop_
_space_group_symop_operation_xyz
x,y,z
-x,y,-z
1/2+x,1/2+y,z
1/2-x,1/2+y,-z
loop_
_atom_site_type_symbol
_atom_site_label
_atom_site_fract_x
_atom_site_fract_y
_atom_site_fract_z
Si Si1 0.871328 0.389750 0.423466
Si Si2 0.012622 0.116120 0.822377
Si Si3 0.749826 0.298142 0.343823
Si Si4 0.715486 0.485708 0.319880
Si Si5 0.784450 0.005294 0.171849
Si Si6 0.563241 0.560903 0.626874
Si Si7 0.927200 0.610770 0.828418
Si Si8 0.310708 0.720050 0.554984
O O1 0.825541 0.340651 0.374697
O O2 0.720390 0.476434 0.521936
O O3 0.823174 0.317537 0.513856
O O4 0.114261 0.426119 0.282426
O O5 0.112428 0.214533 0.762629
O O6 0.145378 0.051245 0.795818
O O7 0.029347 0.081773 0.730671
O O8 0.769802 0.120210 0.998165
O O9 0.500000 0.270643 0.500000
O O10 0.759640 0.381677 0.283671
O O11 0.500000 0.491955 0.500000
O O12 0.656063 0.534423 0.281924
O O13 0.911015 0.533693 0.241942
O O14 0.673082 0.079352 0.187390
O O15 0.000000 0.975882 0.000000
O O16 0.653792 0.646887 0.529821
O O17 0.079501 0.696239 0.728003
O O18 0.500000 0.707958 0.500000
#
# Coordination Sequence:
#
# PCOD9127924 Si02
#       8
#     4   4   4   4   4   4   4   4
#     4  12  24  41  67  98 128 170 224 270 319 384
#     4  11  28  40  65 100 132 170 216 267 328 380
#     4  11  22  41  67  98 123 165 221 271 319 382
#     4  11  18  40  74  92 120 174 219 259 321 384
#     4  10  23  44  66  90 133 180 209 261 339 389
#     4  12  22  43  67 100 123 167 226 269 315 379
#     4  11  21  46  68  89 135 176 208 263 332 396
#     4  12  24  43  69  95 128 177 219 263 325 385
#
# _framework density 18.547819
#
# number of rings (size 3 to 8) (size 9 to 14) (size 15 to 20)
#    0.000    0.750    8.750    0.000    5.250    0.500 
#    4.500    0.000    0.000    0.000    0.000    0.000 
#    0.000    0.000    0.000    0.000    0.000    0.000 
#
# Total GULP energy -89400.395644 kJ/mol
# GULP energy per Si atom -5587.524728 kJ/mol
# Density = 1.850560 g / cm^3
# Si number density = 18.547819 Si / 1000 Ang^3
#
#
#
# Elastic Constant Matrix: (Units=GPa)
#
#
# Indices 1 2 3 4 5 6 
#
# 1 111.1889 30.7823 56.2464 -0.0043 -0.4209 0.0002
# 2 30.7823 98.6991 53.1318 -0.0053 0.0552 0.0042
# 3 56.2464 53.1318 110.2120 -0.0103 -13.9030 0.0081
# 4 -0.0043 -0.0053 -0.0103 23.8946 0.0037 -3.3205
# 5 -0.4209 0.0552 -13.9030 0.0037 27.1647 -0.0026
# 6 0.0002 0.0042 0.0081 -3.3205 -0.0026 25.8997
#
#
#
# Elastic Compliance Matrix: (Units=1/GPa)
#
#
# Indices 1 2 3 4 5 6 
#
# 1 0.012395 -0.000329 -0.006567 0.000000 -0.003168 0.000002
# 2 -0.000329 0.014036 -0.007059 0.000001 -0.003646 0.000000
# 3 -0.006567 -0.007059 0.016908 0.000003 0.008566 -0.000003
# 4 0.000000 0.000001 0.000003 0.042610 -0.000004 0.005463
# 5 -0.003168 -0.003646 0.008566 -0.000004 0.041155 0.000002
# 6 0.000002 0.000000 -0.000003 0.005463 0.000002 0.039311
#
#
# Mechanical properties :
#
#
# Convention : Reuss Voigt Hill
#
# Bulk Modulus (GPa) = 64.80703 66.71346 65.76025
# Shear Modulus (GPa) = 25.06677 27.38776 26.22727
#
# Velocity S-wave (km/s) = 3.68022 3.84683 3.76445
# Velocity P-wave (km/s) = 7.28526 7.46841 7.37741
#
# Compressibility (1/GPa) = 0.01543042
#
# Stress axis : x y z
#
# Youngs Moduli (GPa) = 80.68037 71.24344 59.14244
#
# Poissons Ratio (x) = 0.02343 0.38837
# Poissons Ratio (y) = 0.02653 0.41748
# Poissons Ratio (z) = 0.52980 0.50290
#
# Static dielectric constant tensor:
#      x y z
#    x 1.662260 0.000000 -0.002870 
#    y 0.000000 1.628680 0.000000 
#    z -0.002870 0.000000 1.628790 
# 
# From -- ./inp_files/44983.got.cif
#   From: 2010.05.17/outbox.cif.g08.bks.cpg/sg5_23_cif.got.tgz:44983.got - 2010.06.03 18:56:24.
