data_PCOD9127854
_publ_section_title
;
Structure prediction by ZEFSAII (Michael W. Deem and Ramdas Pophale) SiO2 
 PCOD9127854
Probable space group: C 2
;
_chemical_formula_sum "Si O2"
_cell_formula_units_Z 20
_cell_length_a 9.615378
_cell_length_b 12.070412
_cell_length_c 8.256645
_cell_angle_alpha 90.000000
_cell_angle_beta 92.205718
_cell_angle_gamma 90.000000
_cell_volume 957.569207
_symmetry_space_group_name_H-M "C 2"
_symmetry_group_IT_number 5
_symmetry_cell_setting 'monoclinic'
loop_
_space_group_symop_operation_xyz
x,y,z
-x,y,-z
1/2+x,1/2+y,z
1/2-x,1/2+y,-z
loop_
_atom_site_type_symbol
_atom_site_label
_atom_site_fract_x
_atom_site_fract_y
_atom_site_fract_z
Si Si1 0.026469 0.526700 0.316925
Si Si2 0.645347 0.245047 0.407321
Si Si3 0.641872 0.849120 0.077564
Si Si4 0.237713 0.151697 0.274761
Si Si5 0.374051 0.438020 0.862641
O O1 0.134478 0.628224 0.314630
O O2 0.084471 0.428480 0.214682
O O3 0.000000 0.489466 0.500000
O O4 0.880938 0.583876 0.266410
O O5 0.500000 0.257089 0.500000
O O6 0.759567 0.217137 0.551946
O O7 0.643935 0.345277 0.280152
O O8 0.733319 0.748858 0.145129
O O9 0.500000 0.800101 0.000000
O O10 0.734503 0.921297 0.961654
O O11 0.123767 0.057732 0.227184
O O12 0.500000 0.425296 0.000000
#
# Coordination Sequence:
#
# PCOD9127854 Si02
#       5
#     4   4   4   4   4
#     4   9  21  45  70  97 135 192 236 284 361 434
#     4   9  22  44  71  94 137 193 239 280 363 435
#     4  12  25  41  73 102 144 184 238 297 362 419
#     4  10  23  43  67 102 141 180 242 283 358 430
#     4  12  25  44  70 107 145 181 240 307 358 418
#
# _framework density 20.886218
#
# number of rings (size 3 to 8) (size 9 to 14) (size 15 to 20)
#    0.000    2.000    2.000    3.000    8.400    0.800 
#    0.000    1.000    0.000    0.000    0.000    0.000 
#    0.000    0.000    0.000    0.000    0.000    0.000 
#
# Total GULP energy -55698.444428 kJ/mol
# GULP energy per Si atom -5569.844443 kJ/mol
# Density = 2.083868 g / cm^3
# Si number density = 20.886218 Si / 1000 Ang^3
#
#
#
# Elastic Constant Matrix: (Units=GPa)
#
#
# Indices 1 2 3 4 5 6 
#
# 1 63.0154 2.7377 40.7057 0.0000 8.7143 0.0000
# 2 2.7377 91.0659 84.6326 0.0000 -0.2805 0.0000
# 3 40.7057 84.6326 121.1235 0.0000 15.6954 0.0000
# 4 0.0000 0.0000 0.0000 3.2453 0.0000 -34.7598
# 5 8.7143 -0.2805 15.6954 0.0000 30.2016 0.0000
# 6 0.0000 0.0000 0.0000 -34.7598 0.0000 -53.8174
#
#
#
# Elastic Compliance Matrix: (Units=1/GPa)
#
#
# Indices 1 2 3 4 5 6 
#
# 1 0.036576 0.032432 -0.036053 0.000000 0.008484 0.000000
# 2 0.032432 0.065202 -0.059319 0.000000 0.022075 0.000000
# 3 -0.036053 -0.059319 0.064915 0.000000 -0.023884 0.000000
# 4 0.000000 0.000000 0.000000 0.038916 0.000000 -0.025135
# 5 0.008484 0.022075 -0.023884 0.000000 0.043280 0.000000
# 6 0.000000 0.000000 0.000000 -0.025135 0.000000 -0.002347
#
#
# Mechanical properties :
#
#
# Convention : Reuss Voigt Hill
#
# Bulk Modulus (GPa) = 24.50104 59.03961 41.77032
# Shear Modulus (GPa) = 12.95254 5.73449 9.34352
#
# Velocity S-wave (km/s) = 2.49298 1.65878 2.11737
# Velocity P-wave (km/s) = 4.47692 5.65662 5.10099
#
# Compressibility (1/GPa) = 0.04081460
#
# Stress axis : x y z
#
# Youngs Moduli (GPa) = 27.34061 15.33693 15.40483
#
# Poissons Ratio (x) = -0.49741 0.55539
# Poissons Ratio (y) = -0.88672 0.91379
# Poissons Ratio (z) = 0.98570 0.90976
#
# Static dielectric constant tensor:
#      x y z
#    x 1.776550 0.000000 0.087230 
#    y 0.000000 1.754090 0.000000 
#    z 0.087230 0.000000 1.848630 
# 
# From -- ./inp_files/14296.got.cif
#   From: 2010.05.17/outbox.cif.g08.bks.cpg/sg5_8_cif.got.tgz:14296.got - 2010.06.03 18:56:24.
