data_PCOD9127655
_publ_section_title
;
Structure prediction by ZEFSAII (Michael W. Deem and Ramdas Pophale) SiO2 
 PCOD9127655
Probable space group: C 2
;
_chemical_formula_sum "Si O2"
_cell_formula_units_Z 24
_cell_length_a 10.139452
_cell_length_b 9.016516
_cell_length_c 20.833738
_cell_angle_alpha 90.000000
_cell_angle_beta 148.320449
_cell_angle_gamma 90.000000
_cell_volume 1000.273269
_symmetry_space_group_name_H-M "C 2"
_symmetry_group_IT_number 5
_symmetry_cell_setting 'monoclinic'
loop_
_space_group_symop_operation_xyz
x,y,z
-x,y,-z
1/2+x,1/2+y,z
1/2-x,1/2+y,-z
loop_
_atom_site_type_symbol
_atom_site_label
_atom_site_fract_x
_atom_site_fract_y
_atom_site_fract_z
Si Si1 0.558230 0.494730 0.825089
Si Si2 0.143722 0.685365 0.492419
Si Si3 0.000000 0.190441 0.000000
Si Si4 0.500000 0.175693 0.000000
Si Si5 0.711317 0.931855 0.950170
Si Si6 0.236517 0.265093 0.229422
Si Si7 0.539260 0.846476 0.586694
O O1 0.395326 0.620124 0.794726
O O2 0.336267 0.386577 0.712157
O O3 0.744146 0.431226 0.955694
O O4 0.767028 0.585986 0.871265
O O5 0.104343 0.507545 0.471809
O O6 0.000000 0.726717 0.500000
O O7 0.004053 0.758453 0.373126
O O8 0.424923 0.747086 0.597118
O O9 0.818054 0.259915 0.869384
O O10 0.818698 0.078968 0.963995
O O11 0.630497 0.288825 0.005628
O O12 0.426378 0.902822 0.813305
O O13 0.500000 0.776923 0.500000
#
# Coordination Sequence:
#
# PCOD9127655 Si02
#       7
#     4   4   2   2   4   4   4
#     4   9  19  35  56  82 115 150 191 244 301 361
#     4  10  23  42  63  87 124 169 210 256 308 364
#     4   9  18  33  52  80 116 143 176 243 302 348
#     4   9  18  33  54  80 110 145 182 231 300 362
#     4   9  18  32  53  82 110 141 182 233 299 363
#     4   9  19  35  56  83 112 149 196 243 297 359
#     4  10  23  41  61  90 124 163 213 261 303 362
#
# _framework density 23.993442000000002
#
# number of rings (size 3 to 8) (size 9 to 14) (size 15 to 20)
#    0.000    2.667    0.000    0.000    0.000   13.333 
#    0.000    3.333    0.000    0.000    0.000    0.000 
#    0.000    0.000    0.000    0.000    0.000    0.000 
#
# Total GULP energy -66868.584381 kJ/mol
# GULP energy per Si atom -5572.382032 kJ/mol
# Density = 2.393883 g / cm^3
# Si number density = 23.993442 Si / 1000 Ang^3
#
#
#
# Elastic Constant Matrix: (Units=GPa)
#
#
# Indices 1 2 3 4 5 6 
#
# 1 98.5385 27.2900 21.3334 0.0000 2.4291 0.0000
# 2 27.2900 48.2114 16.7650 0.0001 12.9248 0.0000
# 3 21.3334 16.7650 85.5133 0.0003 8.2505 0.0002
# 4 0.0000 0.0001 0.0003 30.3030 0.0002 7.3211
# 5 2.4291 12.9248 8.2505 0.0002 34.4252 0.0001
# 6 0.0000 0.0000 0.0002 7.3211 0.0001 37.6667
#
#
#
# Elastic Compliance Matrix: (Units=1/GPa)
#
#
# Indices 1 2 3 4 5 6 
#
# 1 0.012443 -0.006954 -0.001953 0.000000 0.002201 0.000000
# 2 -0.006954 0.028204 -0.002887 0.000000 -0.009407 0.000000
# 3 -0.001953 -0.002887 0.012928 0.000000 -0.001877 0.000000
# 4 0.000000 0.000000 0.000000 0.034626 0.000000 -0.006730
# 5 0.002201 -0.009407 -0.001877 0.000000 0.032875 0.000000
# 6 0.000000 0.000000 0.000000 -0.006730 0.000000 0.027857
#
#
# Mechanical properties :
#
#
# Convention : Reuss Voigt Hill
#
# Bulk Modulus (GPa) = 33.34811 40.33778 36.84295
# Shear Modulus (GPa) = 27.39473 31.60397 29.49935
#
# Velocity S-wave (km/s) = 3.38266 3.63325 3.51019
# Velocity P-wave (km/s) = 5.40236 5.86934 5.64069
#
# Compressibility (1/GPa) = 0.02998670
#
# Stress axis : x y z
#
# Youngs Moduli (GPa) = 80.36745 35.45589 77.34896
#
# Poissons Ratio (x) = 0.24657 0.15108
# Poissons Ratio (y) = 0.55889 0.22331
# Poissons Ratio (z) = 0.15697 0.10236
#
# Static dielectric constant tensor:
#      x y z
#    x 1.984610 0.000000 0.018760 
#    y 0.000000 1.948110 0.000000 
#    z 0.018760 0.000000 1.942540 
# 
# From -- ./inp_files/68319.got.cif
#   From: 2010.05.17/outbox.cif.g08.bks.cpg/sg5_35_cif.got.tgz:68319.got - 2010.06.03 18:56:24.
