data_PCOD9127452
_publ_section_title
;
Structure prediction by ZEFSAII (Michael W. Deem and Ramdas Pophale) SiO2 
 PCOD9127452
Probable space group: C 2
;
_chemical_formula_sum "Si O2"
_cell_formula_units_Z 18
_cell_length_a 8.474342
_cell_length_b 18.952374
_cell_length_c 5.275807
_cell_angle_alpha 90.000000
_cell_angle_beta 119.397844
_cell_angle_gamma 90.000000
_cell_volume 738.231316
_symmetry_space_group_name_H-M "C 2"
_symmetry_group_IT_number 5
_symmetry_cell_setting 'monoclinic'
loop_
_space_group_symop_operation_xyz
x,y,z
-x,y,-z
1/2+x,1/2+y,z
1/2-x,1/2+y,-z
loop_
_atom_site_type_symbol
_atom_site_label
_atom_site_fract_x
_atom_site_fract_y
_atom_site_fract_z
Si Si1 0.205449 0.147600 0.772191
Si Si2 0.500000 0.564019 0.000000
Si Si3 0.801111 0.887391 0.275165
Si Si4 0.216097 0.305859 0.698605
Si Si5 0.832357 0.518309 0.561906
O O1 0.274029 0.226993 0.821306
O O2 0.323906 0.092063 0.708192
O O3 0.000000 0.149096 0.500000
O O4 0.154406 0.114153 0.000181
O O5 0.365804 0.516693 0.728760
O O6 0.777166 0.825555 0.464545
O O7 0.000000 0.912446 0.500000
O O8 0.672782 0.952067 0.252486
O O9 0.774706 0.858861 0.969836
O O10 0.000000 0.308336 0.500000
O O11 0.000000 0.514078 0.500000
#
# Coordination Sequence:
#
# PCOD9127452 Si02
#       5
#     4   2   4   4   4
#     4   9  22  44  74 106 143 195 247 309 375 441
#     4  10  22  46  76 102 150 188 252 314 372 444
#     4  12  27  48  72 109 157 200 250 311 380 447
#     4  11  26  47  77 108 150 197 255 308 377 454
#     4  11  26  47  75 110 148 196 254 313 376 454
#
# _framework density 24.3826
#
# number of rings (size 3 to 8) (size 9 to 14) (size 15 to 20)
#    0.000    1.333    0.000    4.000   15.556    1.778 
#    4.000    0.000    0.000    1.333    0.000    0.000 
#    0.000    0.000    0.000    0.000    0.000    0.000 
#
# Total GULP energy -50316.876550 kJ/mol
# GULP energy per Si atom -5590.764061 kJ/mol
# Density = 2.432710 g / cm^3
# Si number density = 24.382600 Si / 1000 Ang^3
#
#
#
# Elastic Constant Matrix: (Units=GPa)
#
#
# Indices 1 2 3 4 5 6 
#
# 1 91.0467 11.6630 -4.1861 0.0000 16.6914 0.0000
# 2 11.6630 124.8015 16.8846 0.0000 2.5056 0.0000
# 3 -4.1861 16.8846 99.8393 0.0000 24.7250 0.0000
# 4 0.0000 0.0000 0.0000 16.5720 0.0000 5.5888
# 5 16.6914 2.5056 24.7250 0.0000 38.9285 0.0000
# 6 0.0000 0.0000 0.0000 5.5888 0.0000 108.5223
#
#
#
# Elastic Compliance Matrix: (Units=1/GPa)
#
#
# Indices 1 2 3 4 5 6 
#
# 1 0.012524 -0.001365 0.002449 0.000000 -0.006838 0.000000
# 2 -0.001365 0.008355 -0.001758 0.000000 0.001164 0.000000
# 3 0.002449 -0.001758 0.012636 0.000000 -0.008962 0.000000
# 4 0.000000 0.000000 0.000000 0.061409 0.000000 -0.003163
# 5 -0.006838 0.001164 -0.008962 0.000000 0.034237 0.000000
# 6 0.000000 0.000000 0.000000 -0.003163 0.000000 0.009378
#
#
# Mechanical properties :
#
#
# Convention : Reuss Voigt Hill
#
# Bulk Modulus (GPa) = 31.08735 40.49006 35.78871
# Shear Modulus (GPa) = 33.19860 52.22631 42.71245
#
# Velocity S-wave (km/s) = 3.69395 4.63314 4.18994
# Velocity P-wave (km/s) = 5.56517 6.72782 6.17392
#
# Compressibility (1/GPa) = 0.03216742
#
# Stress axis : x y z
#
# Youngs Moduli (GPa) = 79.84443 119.69209 79.14093
#
# Poissons Ratio (x) = 0.16332 -0.19384
# Poissons Ratio (y) = 0.10895 0.13917
# Poissons Ratio (z) = -0.19556 0.21047
#
# Static dielectric constant tensor:
#      x y z
#    x 1.905560 0.000000 0.166610 
#    y 0.000000 1.934800 0.000000 
#    z 0.166610 0.000000 1.871650 
# 
# From -- ./inp_files/2295.got.cif
#   From: 2010.05.17/outbox.cif.g08.bks.cpg/sg5_2_cif.got.tgz:2295.got - 2010.06.03 18:56:24.
