data_PCOD9127237
_publ_section_title
;
Structure prediction by ZEFSAII (Michael W. Deem and Ramdas Pophale) SiO2 
 PCOD9127237
Probable space group: C 2
;
_chemical_formula_sum "Si O2"
_cell_formula_units_Z 16
_cell_length_a 5.225329
_cell_length_b 22.824396
_cell_length_c 5.377420
_cell_angle_alpha 90.000000
_cell_angle_beta 90.734896
_cell_angle_gamma 90.000000
_cell_volume 641.285126
_symmetry_space_group_name_H-M "C 2"
_symmetry_group_IT_number 5
_symmetry_cell_setting 'monoclinic'
loop_
_space_group_symop_operation_xyz
x,y,z
-x,y,-z
1/2+x,1/2+y,z
1/2-x,1/2+y,-z
loop_
_atom_site_type_symbol
_atom_site_label
_atom_site_fract_x
_atom_site_fract_y
_atom_site_fract_z
Si Si1 0.254500 0.345990 0.327127
Si Si2 0.500000 0.618831 0.000000
Si Si3 0.000000 0.431474 0.000000
Si Si4 0.748200 0.210424 0.668440
Si Si5 0.373330 0.047980 0.747195
O O1 0.500000 0.360902 0.500000
O O2 0.271634 0.278069 0.248446
O O3 0.000000 0.352741 0.500000
O O4 0.219813 0.385744 0.081969
O O5 0.703588 0.664952 0.112156
O O6 0.408938 0.573567 0.215019
O O7 0.944628 0.479113 0.779653
O O8 0.500000 0.198448 0.500000
O O9 0.000000 0.206102 0.500000
O O10 0.500000 0.068839 0.500000
O O11 0.500000 0.070892 0.000000
#
# Coordination Sequence:
#
# PCOD9127237 Si02
#       5
#     4   2   2   4   4
#     4  10  22  44  71 107 146 192 251 311 379 453
#     4  12  27  44  78 102 157 200 254 310 386 450
#     4  10  23  46  74 102 151 194 250 312 382 444
#     4  10  25  43  72 108 148 197 251 310 380 454
#     4  10  27  48  71 114 151 197 261 310 378 454
#
# _framework density 24.949902999999999
#
# number of rings (size 3 to 8) (size 9 to 14) (size 15 to 20)
#    0.750    1.000    0.000    1.500    7.000    3.000 
#    0.000    7.500    0.000    0.000    0.000    0.000 
#    0.000    0.000    0.000    0.000    0.000    0.000 
#
# Total GULP energy -44599.886950 kJ/mol
# GULP energy per Si atom -5574.985869 kJ/mol
# Density = 2.489312 g / cm^3
# Si number density = 24.949903 Si / 1000 Ang^3
#
#
#
# Elastic Constant Matrix: (Units=GPa)
#
#
# Indices 1 2 3 4 5 6 
#
# 1 155.3498 53.0284 62.9782 0.0000 17.7818 0.0000
# 2 53.0284 190.9700 78.2357 0.0000 18.2141 0.0000
# 3 62.9782 78.2357 112.5609 0.0000 5.8153 0.0000
# 4 0.0000 0.0000 0.0000 -32.1238 0.0000 -124.3257
# 5 17.7818 18.2141 5.8153 0.0000 45.8228 0.0000
# 6 0.0000 0.0000 0.0000 -124.3257 0.0000 -339.4982
#
#
#
# Elastic Compliance Matrix: (Units=1/GPa)
#
#
# Indices 1 2 3 4 5 6 
#
# 1 0.008672 -0.000310 -0.004498 0.000000 -0.002671 0.000000
# 2 -0.000310 0.007577 -0.004976 0.000000 -0.002260 0.000000
# 3 -0.004498 -0.004976 0.014764 0.000000 0.001850 0.000000
# 4 0.000000 0.000000 0.000000 0.074600 0.000000 -0.027319
# 5 -0.002671 -0.002260 0.001850 0.000000 0.023523 0.000000
# 6 0.000000 0.000000 0.000000 -0.027319 0.000000 0.007059
#
#
# Mechanical properties :
#
#
# Convention : Reuss Voigt Hill
#
# Bulk Modulus (GPa) = 87.38525 94.15170 90.76848
# Shear Modulus (GPa) = 31.33254 -47.51728 -8.09237
#
# Velocity S-wave (km/s) = 3.54760 -4.36880 -1.80291
# Velocity P-wave (km/s) = 7.20284 3.51705 5.66792
#
# Compressibility (1/GPa) = 0.01144358
#
# Stress axis : x y z
#
# Youngs Moduli (GPa) = 115.30733 131.98604 67.73341
#
# Poissons Ratio (x) = 0.04098 0.30470
# Poissons Ratio (y) = 0.03580 0.33702
# Poissons Ratio (z) = 0.51871 0.65672
#
# Static dielectric constant tensor:
#      x y z
#    x 4.228640 0.000000 0.677570 
#    y 0.000000 1.992250 0.000000 
#    z 0.677570 0.000000 2.266650 
# 
# From -- ./inp_files/573.got.cif
#   From: 2010.05.17/outbox.cif.g08.bks.cpg/sg5_1_cif.got.tgz:573.got - 2010.06.03 18:56:24.
