data_PCOD9127153
_publ_section_title
;
Structure prediction by ZEFSAII (Michael W. Deem and Ramdas Pophale) SiO2 
 PCOD9127153
Probable space group: C 2
;
_chemical_formula_sum "Si O2"
_cell_formula_units_Z 26
_cell_length_a 12.452155
_cell_length_b 9.288607
_cell_length_c 11.574596
_cell_angle_alpha 90.000000
_cell_angle_beta 61.111061
_cell_angle_gamma 90.000000
_cell_volume 1172.156967
_symmetry_space_group_name_H-M "C 2"
_symmetry_group_IT_number 5
_symmetry_cell_setting 'monoclinic'
loop_
_space_group_symop_operation_xyz
x,y,z
-x,y,-z
1/2+x,1/2+y,z
1/2-x,1/2+y,-z
loop_
_atom_site_type_symbol
_atom_site_label
_atom_site_fract_x
_atom_site_fract_y
_atom_site_fract_z
Si Si1 0.801075 0.658430 0.985589
Si Si2 0.500000 0.212238 0.500000
Si Si3 0.663302 0.271556 0.612420
Si Si4 0.855318 0.424036 0.352355
Si Si5 0.389051 0.024579 0.736786
Si Si6 0.352515 0.872541 0.085011
Si Si7 0.120913 0.899298 0.881772
O O1 0.905353 0.632363 0.835286
O O2 0.692817 0.740118 0.972069
O O3 0.782373 0.508207 0.062681
O O4 0.858598 0.759917 0.051162
O O5 0.561389 0.299605 0.568216
O O6 0.402985 0.106065 0.609913
O O7 0.783964 0.338135 0.489335
O O8 0.621546 0.352554 0.748847
O O9 0.672788 0.097346 0.625491
O O10 0.826106 0.368490 0.237054
O O11 0.001441 0.412069 0.303407
O O12 0.250772 0.978039 0.825607
O O13 0.500000 0.891494 0.000000
O O14 0.000000 0.972040 0.000000
#
# Coordination Sequence:
#
# PCOD9127153 Si02
#       7
#     4   2   4   4   4   4   4
#     4  12  23  43  70 104 143 191 238 299 373 431
#     4  10  22  44  66  98 136 184 238 280 372 444
#     4  11  24  42  72  98 139 191 238 304 366 434
#     4  11  23  46  73 100 147 190 245 298 369 440
#     4  11  23  44  71 101 140 189 237 298 370 438
#     4  12  24  46  74 108 148 193 245 307 369 440
#     4  12  23  40  68 103 137 183 242 299 366 432
#
# _framework density 22.181328000000001
#
# number of rings (size 3 to 8) (size 9 to 14) (size 15 to 20)
#    0.000    0.615    4.615    5.077    0.000    0.615 
#    0.000    4.615    0.000    0.000    0.000    0.000 
#    0.000    0.000    0.000    0.000    0.000    0.000 
#
# Total GULP energy -72560.118499 kJ/mol
# GULP energy per Si atom -5581.547577 kJ/mol
# Density = 2.213084 g / cm^3
# Si number density = 22.181328 Si / 1000 Ang^3
#
#
#
# Elastic Constant Matrix: (Units=GPa)
#
#
# Indices 1 2 3 4 5 6 
#
# 1 146.4010 47.5691 72.0669 0.0000 4.5157 0.0000
# 2 47.5691 63.4162 27.7227 0.0000 -9.9643 0.0000
# 3 72.0669 27.7227 183.8519 0.0000 3.7496 0.0000
# 4 0.0000 0.0000 0.0000 38.9194 0.0000 -6.8757
# 5 4.5157 -9.9643 3.7496 0.0000 53.2544 0.0000
# 6 0.0000 0.0000 0.0000 -6.8757 0.0000 18.9659
#
#
#
# Elastic Compliance Matrix: (Units=1/GPa)
#
#
# Indices 1 2 3 4 5 6 
#
# 1 0.010681 -0.006972 -0.003095 0.000000 -0.001992 0.000000
# 2 -0.006972 0.022048 -0.000689 0.000000 0.004765 0.000000
# 3 -0.003095 -0.000689 0.006763 0.000000 -0.000343 0.000000
# 4 0.000000 0.000000 0.000000 0.027452 0.000000 0.009952
# 5 -0.001992 0.004765 -0.000343 0.000000 0.019862 0.000000
# 6 0.000000 0.000000 0.000000 0.009952 0.000000 0.056334
#
#
# Mechanical properties :
#
#
# Convention : Reuss Voigt Hill
#
# Bulk Modulus (GPa) = 55.61402 76.48739 66.05071
# Shear Modulus (GPa) = 29.30037 38.64863 33.97450
#
# Velocity S-wave (km/s) = 3.63843 4.17873 3.91790
# Velocity P-wave (km/s) = 6.54047 7.60526 7.09288
#
# Compressibility (1/GPa) = 0.01798108
#
# Stress axis : x y z
#
# Youngs Moduli (GPa) = 93.62632 45.35475 147.86039
#
# Poissons Ratio (x) = 0.31621 0.45759
# Poissons Ratio (y) = 0.65275 0.10187
# Poissons Ratio (z) = 0.28975 0.03125
#
# Static dielectric constant tensor:
#      x y z
#    x 1.869860 0.000000 -0.021640 
#    y 0.000000 1.881550 0.000000 
#    z -0.021640 0.000000 1.918820 
# 
# From -- ./inp_files/38747.got.cif
#   From: 2010.05.17/outbox.cif.g08.bks.cpg/sg5_20_cif.got.tgz:38747.got - 2010.06.03 18:56:24.
