data_PCOD9127396
_publ_section_title
;
Structure prediction by ZEFSAII (Michael W. Deem and Ramdas Pophale) SiO2 
 PCOD9127396
Probable space group: C 2
;
_chemical_formula_sum "Si O2"
_cell_formula_units_Z 24
_cell_length_a 16.098727
_cell_length_b 4.905444
_cell_length_c 11.456972
_cell_angle_alpha 90.000000
_cell_angle_beta 79.032798
_cell_angle_gamma 90.000000
_cell_volume 888.248609
_symmetry_space_group_name_H-M "C 2"
_symmetry_group_IT_number 5
_symmetry_cell_setting 'monoclinic'
loop_
_space_group_symop_operation_xyz
x,y,z
-x,y,-z
1/2+x,1/2+y,z
1/2-x,1/2+y,-z
loop_
_atom_site_type_symbol
_atom_site_label
_atom_site_fract_x
_atom_site_fract_y
_atom_site_fract_z
Si Si1 0.734914 0.956960 0.929231
Si Si2 0.500000 0.612632 0.000000
Si Si3 0.022352 0.576393 0.295653
Si Si4 0.874246 0.782277 0.204874
Si Si5 0.905953 0.081141 0.808876
Si Si6 0.500000 0.486480 0.500000
Si Si7 0.691210 0.575790 0.555521
O O1 0.807491 0.070738 0.824312
O O2 0.656185 0.058738 0.879287
O O3 0.748974 0.645031 0.960181
O O4 0.565296 0.464286 0.894040
O O5 0.437611 0.731759 0.918241
O O6 0.069763 0.765682 0.188036
O O7 0.038750 0.764767 0.399814
O O8 0.926286 0.603278 0.284421
O O9 0.052444 0.270730 0.299436
O O10 0.819451 0.975992 0.305395
O O11 0.592094 0.602345 0.531820
O O12 0.750148 0.844108 0.523909
#
# Coordination Sequence:
#
# PCOD9127396 Si02
#       7
#     4   2   4   4   4   2   4
#     4  12  26  41  63 100 136 179 228 284 351 428
#     4  10  22  46  68 100 142 184 234 292 356 446
#     4  10  25  43  70  97 133 182 233 292 358 427
#     4  10  25  46  70 105 141 185 238 296 365 433
#     4  11  24  41  66  98 132 184 224 287 354 425
#     4  10  26  50  76 110 148 196 258 312 382 440
#     4  11  28  50  79 112 151 199 254 316 374 449
#
# _framework density 27.019462999999998
#
# number of rings (size 3 to 8) (size 9 to 14) (size 15 to 20)
#    0.000    1.333    1.667    1.000    9.333   11.333 
#    0.000    0.000    0.000    0.000    0.000    0.000 
#    0.000    0.000    0.000    0.000    0.000    0.000 
#
# Total GULP energy -66875.798302 kJ/mol
# GULP energy per Si atom -5572.983192 kJ/mol
# Density = 2.695797 g / cm^3
# Si number density = 27.019463 Si / 1000 Ang^3
#
#
#
# Elastic Constant Matrix: (Units=GPa)
#
#
# Indices 1 2 3 4 5 6 
#
# 1 51.6998 13.3520 19.8031 0.0000 -10.3801 0.0000
# 2 13.3520 152.1422 30.4521 0.0000 -14.6634 0.0000
# 3 19.8031 30.4521 76.7579 0.0000 -8.2624 0.0000
# 4 0.0000 0.0000 0.0000 27.8555 0.0000 -14.0097
# 5 -10.3801 -14.6634 -8.2624 0.0000 51.9308 0.0000
# 6 0.0000 0.0000 0.0000 -14.0097 0.0000 -10.1582
#
#
#
# Elastic Compliance Matrix: (Units=1/GPa)
#
#
# Indices 1 2 3 4 5 6 
#
# 1 0.022143 -0.000589 -0.005108 0.000000 0.003447 0.000000
# 2 -0.000589 0.007287 -0.002574 0.000000 0.001530 0.000000
# 3 -0.005108 -0.002574 0.015444 0.000000 0.000709 0.000000
# 4 0.000000 0.000000 0.000000 0.021197 0.000000 -0.029234
# 5 0.003447 0.001530 0.000709 0.000000 0.020490 0.000000
# 6 0.000000 0.000000 0.000000 -0.029234 0.000000 -0.058125
#
#
# Mechanical properties :
#
#
# Convention : Reuss Voigt Hill
#
# Bulk Modulus (GPa) = 35.29658 45.31271 40.30465
# Shear Modulus (GPa) = 91.87365 28.39179 60.13272
#
# Velocity S-wave (km/s) = 5.83752 3.24511 4.72267
# Velocity P-wave (km/s) = 7.65031 5.55408 6.68487
#
# Compressibility (1/GPa) = 0.02833135
#
# Stress axis : x y z
#
# Youngs Moduli (GPa) = 45.16057 137.22595 64.75183
#
# Poissons Ratio (x) = 0.08077 0.33077
# Poissons Ratio (y) = 0.02658 0.16670
# Poissons Ratio (z) = 0.23069 0.35328
#
# Static dielectric constant tensor:
#      x y z
#    x 2.191900 0.000000 -0.075780 
#    y 0.000000 2.038490 0.000000 
#    z -0.075780 0.000000 3.507430 
# 
# From -- ./inp_files/43741.got.cif
#   From: 2010.05.17/outbox.cif.g08.bks.cpg/sg5_22_cif.got.tgz:43741.got - 2010.06.03 18:56:24.
