data_PCOD9127815
_publ_section_title
;
Structure prediction by ZEFSAII (Michael W. Deem and Ramdas Pophale) SiO2 
 PCOD9127815
Probable space group: C 2
;
_chemical_formula_sum "Si O2"
_cell_formula_units_Z 24
_cell_length_a 18.319669
_cell_length_b 5.256800
_cell_length_c 18.307896
_cell_angle_alpha 90.000000
_cell_angle_beta 146.947954
_cell_angle_gamma 90.000000
_cell_volume 961.597120
_symmetry_space_group_name_H-M "C 2"
_symmetry_group_IT_number 5
_symmetry_cell_setting 'monoclinic'
loop_
_space_group_symop_operation_xyz
x,y,z
-x,y,-z
1/2+x,1/2+y,z
1/2-x,1/2+y,-z
loop_
_atom_site_type_symbol
_atom_site_label
_atom_site_fract_x
_atom_site_fract_y
_atom_site_fract_z
Si Si1 0.000000 0.590420 0.000000
Si Si2 0.192790 0.808597 0.547175
Si Si3 0.201955 0.346127 0.070318
Si Si4 0.060112 0.832772 0.906285
Si Si5 0.936860 0.525277 0.687454
Si Si6 0.042192 0.122444 0.687154
Si Si7 0.500000 0.495041 0.500000
O O1 0.123469 0.413514 0.079772
O O2 0.023506 0.768059 0.090220
O O3 0.148267 0.583149 0.456964
O O4 0.348531 0.866433 0.672083
O O5 0.116150 0.821325 0.560381
O O6 0.112565 0.041610 0.441856
O O7 0.358593 0.386548 0.214465
O O8 0.438520 0.666780 0.383476
O O9 0.160544 0.591189 0.987505
O O10 0.972959 0.781188 0.761924
O O11 0.139859 0.091052 0.985879
O O12 0.055319 0.350616 0.754449
#
# Coordination Sequence:
#
# PCOD9127815 Si02
#       7
#     2   4   4   4   4   4   2
#     4   8  22  42  74 106 150 192 274 306 398 452
#     4  10  23  42  71 110 150 197 256 318 396 471
#     4  10  23  45  69 112 147 205 274 312 390 462
#     4  10  25  42  75 107 151 212 256 328 385 462
#     4  12  24  46  73 110 160 204 262 327 405 477
#     4  10  24  45  71 108 158 200 262 327 388 482
#     4   8  22  42  70 108 146 198 250 318 398 456
#
# _framework density 24.958476999999998
#
# number of rings (size 3 to 8) (size 9 to 14) (size 15 to 20)
#    2.000    0.000    1.667    0.500    7.000    0.667 
#    3.000    1.667    0.000    0.000    0.000    0.000 
#    0.000    0.000    0.000    0.000    0.000    0.000 
#
# Total GULP energy -66830.849083 kJ/mol
# GULP energy per Si atom -5569.237424 kJ/mol
# Density = 2.490167 g / cm^3
# Si number density = 24.958477 Si / 1000 Ang^3
#
#
#
# Elastic Constant Matrix: (Units=GPa)
#
#
# Indices 1 2 3 4 5 6 
#
# 1 200.3973 44.4860 45.2143 0.0000 1.5711 0.0000
# 2 44.4860 159.9816 44.4270 0.0006 0.3670 0.0003
# 3 45.2143 44.4270 69.8149 0.0001 -1.6529 0.0001
# 4 0.0000 0.0006 0.0001 36.3723 0.0000 -4.4195
# 5 1.5711 0.3670 -1.6529 0.0000 33.2672 -0.0001
# 6 0.0000 0.0003 0.0001 -4.4195 -0.0001 34.7043
#
#
#
# Elastic Compliance Matrix: (Units=1/GPa)
#
#
# Indices 1 2 3 4 5 6 
#
# 1 0.005915 -0.000701 -0.003395 0.000000 -0.000440 0.000000
# 2 -0.000701 0.007679 -0.004439 0.000000 -0.000272 0.000000
# 3 -0.003395 -0.004439 0.019375 0.000000 0.001172 0.000000
# 4 0.000000 0.000000 0.000000 0.027926 0.000000 0.003556
# 5 -0.000440 -0.000272 0.001172 0.000000 0.030142 0.000000
# 6 0.000000 0.000000 0.000000 0.003556 0.000000 0.029268
#
#
# Mechanical properties :
#
#
# Convention : Reuss Voigt Hill
#
# Bulk Modulus (GPa) = 62.89815 77.60536 70.25176
# Shear Modulus (GPa) = 35.04489 40.60652 37.82571
#
# Velocity S-wave (km/s) = 3.75123 4.03794 3.89722
# Velocity P-wave (km/s) = 6.63462 7.27332 6.96130
#
# Compressibility (1/GPa) = 0.01589872
#
# Stress axis : x y z
#
# Youngs Moduli (GPa) = 169.05638 130.22561 51.61302
#
# Poissons Ratio (x) = 0.09128 0.17524
# Poissons Ratio (y) = 0.11850 0.22911
# Poissons Ratio (z) = 0.57398 0.57807
#
# Static dielectric constant tensor:
#      x y z
#    x 2.014030 0.000000 -0.031420 
#    y 0.000000 2.035300 0.000000 
#    z -0.031420 0.000000 2.042870 
# 
# From -- ./inp_files/69596.got.cif
#   From: 2010.05.17/outbox.cif.g08.bks.cpg/sg5_35_cif.got.tgz:69596.got - 2010.06.03 18:56:24.
