data_PCOD9127358
_publ_section_title
;
Structure prediction by ZEFSAII (Michael W. Deem and Ramdas Pophale) SiO2 
 PCOD9127358
Probable space group: C 2
;
_chemical_formula_sum "Si O2"
_cell_formula_units_Z 24
_cell_length_a 17.570795
_cell_length_b 5.065965
_cell_length_c 22.573906
_cell_angle_alpha 90.000000
_cell_angle_beta 147.561964
_cell_angle_gamma 90.000000
_cell_volume 1077.801302
_symmetry_space_group_name_H-M "C 2"
_symmetry_group_IT_number 5
_symmetry_cell_setting 'monoclinic'
loop_
_space_group_symop_operation_xyz
x,y,z
-x,y,-z
1/2+x,1/2+y,z
1/2-x,1/2+y,-z
loop_
_atom_site_type_symbol
_atom_site_label
_atom_site_fract_x
_atom_site_fract_y
_atom_site_fract_z
Si Si1 0.948027 0.567540 0.147901
Si Si2 0.933833 0.795077 0.600239
Si Si3 0.745226 0.423895 0.775621
Si Si4 0.327192 0.735903 0.960217
Si Si5 0.406108 0.436323 0.837739
Si Si6 0.380326 0.790696 0.642135
O O1 0.813869 0.631232 0.100811
O O2 0.039468 0.819860 0.188649
O O3 0.044178 0.370679 0.248334
O O4 0.891598 0.442506 0.049637
O O5 0.789743 0.820334 0.467969
O O6 0.936484 0.501401 0.629545
O O7 0.076743 0.882686 0.661790
O O8 0.916015 0.999869 0.642791
O O9 0.790390 0.355958 0.872729
O O10 0.808601 0.708642 0.801952
O O11 0.817053 0.204158 0.781278
O O12 0.446935 0.511128 0.032477
#
# Coordination Sequence:
#
# PCOD9127358 Si02
#       6
#     4   4   4   4   4   4
#     4  12  26  44  69 104 136 178 226 285 330 395
#     4  10  22  45  72 103 124 180 222 289 323 407
#     4  12  27  45  70  98 141 179 228 265 345 409
#     4  12  27  42  71  99 140 182 225 272 335 404
#     4  12  28  44  65 101 143 182 215 278 335 405
#     4  10  23  43  74  99 134 164 238 279 336 378
#
# _framework density 22.267555000000002
#
# number of rings (size 3 to 8) (size 9 to 14) (size 15 to 20)
#    0.000    0.667    5.000    1.500    9.333    0.000 
#    0.000    0.833    3.667    0.000    0.000    0.000 
#    0.000    0.000    0.000    0.000    0.000    0.000 
#
# Total GULP energy -67188.114057 kJ/mol
# GULP energy per Si atom -5599.009505 kJ/mol
# Density = 2.221687 g / cm^3
# Si number density = 22.267555 Si / 1000 Ang^3
#
#
#
# Elastic Constant Matrix: (Units=GPa)
#
#
# Indices 1 2 3 4 5 6 
#
# 1 84.4729 12.1186 29.3518 -0.0008 38.8469 -0.0001
# 2 12.1186 71.2302 1.3526 -0.0020 2.3005 0.0013
# 3 29.3518 1.3526 62.3336 -0.0008 29.8966 -0.0006
# 4 -0.0008 -0.0020 -0.0008 24.4460 -0.0008 0.2274
# 5 38.8469 2.3005 29.8966 -0.0008 36.5006 -0.0001
# 6 -0.0001 0.0013 -0.0006 0.2274 -0.0001 33.2381
#
#
#
# Elastic Compliance Matrix: (Units=1/GPa)
#
#
# Indices 1 2 3 4 5 6 
#
# 1 0.024003 -0.003254 0.001519 0.000000 -0.026584 0.000000
# 2 -0.003254 0.014510 -0.000008 0.000001 0.002555 -0.000001
# 3 0.001519 -0.000008 0.026522 0.000000 -0.023339 0.000000
# 4 0.000000 0.000001 0.000000 0.040909 0.000001 -0.000280
# 5 -0.026584 0.002555 -0.023339 0.000001 0.074645 0.000000
# 6 0.000000 -0.000001 0.000000 -0.000280 0.000000 0.030088
#
#
# Mechanical properties :
#
#
# Convention : Reuss Voigt Hill
#
# Bulk Modulus (GPa) = 16.24760 33.74253 24.99506
# Shear Modulus (GPa) = 21.30564 30.51786 25.91175
#
# Velocity S-wave (km/s) = 3.09658 3.70605 3.41494
# Velocity P-wave (km/s) = 4.48302 5.78785 5.17671
#
# Compressibility (1/GPa) = 0.06154756
#
# Stress axis : x y z
#
# Youngs Moduli (GPa) = 41.66193 68.91698 37.70510
#
# Poissons Ratio (x) = 0.22425 -0.05726
# Poissons Ratio (y) = 0.13556 0.00031
# Poissons Ratio (z) = -0.06327 0.00057
#
# Static dielectric constant tensor:
#      x y z
#    x 1.813650 0.000000 0.021510 
#    y 0.000000 1.838650 0.000000 
#    z 0.021510 0.000000 1.811120 
# 
# From -- ./inp_files/69017.got.cif
#   From: 2010.05.17/outbox.cif.g08.bks.cpg/sg5_35_cif.got.tgz:69017.got - 2010.06.03 18:56:24.
