data_PCOD9127076
_publ_section_title
;
Structure prediction by ZEFSAII (Michael W. Deem and Ramdas Pophale) SiO2 
 PCOD9127076
Probable space group: C 2
;
_chemical_formula_sum "Si O2"
_cell_formula_units_Z 28
_cell_length_a 12.434102
_cell_length_b 8.473895
_cell_length_c 12.453301
_cell_angle_alpha 90.000000
_cell_angle_beta 67.707427
_cell_angle_gamma 90.000000
_cell_volume 1214.074282
_symmetry_space_group_name_H-M "C 2"
_symmetry_group_IT_number 5
_symmetry_cell_setting 'monoclinic'
loop_
_space_group_symop_operation_xyz
x,y,z
-x,y,-z
1/2+x,1/2+y,z
1/2-x,1/2+y,-z
loop_
_atom_site_type_symbol
_atom_site_label
_atom_site_fract_x
_atom_site_fract_y
_atom_site_fract_z
Si Si1 0.992067 0.725070 0.393101
Si Si2 0.349784 0.763574 0.732163
Si Si3 0.894949 0.365708 0.122328
Si Si4 0.226438 0.613131 0.191904
Si Si5 0.118249 0.665671 0.766478
Si Si6 0.500000 0.920735 0.500000
Si Si7 0.000000 0.855417 0.000000
Si Si8 0.806372 0.046020 0.937986
O O1 0.118069 0.690826 0.294265
O O2 0.000000 0.821919 0.500000
O O3 0.920410 0.773140 0.317665
O O4 0.932768 0.558638 0.456897
O O5 0.255856 0.654808 0.708784
O O6 0.446813 0.811608 0.611354
O O7 0.367679 0.674655 0.837716
O O8 0.285062 0.929195 0.779430
O O9 0.843862 0.200690 0.182395
O O10 0.929936 0.487405 0.203407
O O11 0.784700 0.444756 0.099310
O O12 0.000000 0.346080 0.000000
O O13 0.228027 0.623928 0.061651
O O14 0.072762 0.745683 0.892119
O O15 0.092357 0.953911 0.036387
#
# Coordination Sequence:
#
# PCOD9127076 Si02
#       8
#     4   4   4   4   4   2   2   4
#     4   9  21  42  67  91 132 192 231 283 352 426
#     4  10  22  43  70  95 141 184 230 303 349 429
#     4  11  24  38  66 103 137 186 234 291 364 437
#     4  11  21  40  63  98 137 179 230 295 347 425
#     4  11  22  42  67  99 134 190 237 291 366 415
#     4   8  20  46  66  90 132 186 234 288 348 414
#     4  12  24  42  70 104 158 188 230 304 362 438
#     4  11  24  41  66 104 143 185 238 287 374 421
#
# _framework density 23.062839
#
# number of rings (size 3 to 8) (size 9 to 14) (size 15 to 20)
#    0.429    1.143    2.143    2.571    5.000    1.143 
#    2.571    1.429   11.000    0.000    0.000    0.000 
#    0.000    0.000    0.000    0.000    0.000    0.000 
#
# Total GULP energy -78056.099844 kJ/mol
# GULP energy per Si atom -5575.435703 kJ/mol
# Density = 2.301035 g / cm^3
# Si number density = 23.062839 Si / 1000 Ang^3
#
#
#
# Elastic Constant Matrix: (Units=GPa)
#
#
# Indices 1 2 3 4 5 6 
#
# 1 56.3327 11.3459 11.3229 0.0000 6.4474 0.0000
# 2 11.3459 70.3368 25.1195 0.0000 -4.1136 0.0000
# 3 11.3229 25.1195 131.0228 0.0000 5.5811 0.0000
# 4 0.0000 0.0000 0.0000 31.6913 0.0000 -5.9947
# 5 6.4474 -4.1136 5.5811 0.0000 20.3704 0.0000
# 6 0.0000 0.0000 0.0000 -5.9947 0.0000 19.6090
#
#
#
# Elastic Compliance Matrix: (Units=1/GPa)
#
#
# Indices 1 2 3 4 5 6 
#
# 1 0.019305 -0.003222 -0.000772 0.000000 -0.006549 0.000000
# 2 -0.003222 0.016117 -0.003029 0.000000 0.005104 0.000000
# 3 -0.000772 -0.003029 0.008393 0.000000 -0.002667 0.000000
# 4 0.000000 0.000000 0.000000 0.033491 0.000000 0.010239
# 5 -0.006549 0.005104 -0.002667 0.000000 0.052925 0.000000
# 6 0.000000 0.000000 0.000000 0.010239 0.000000 0.054127
#
#
# Mechanical properties :
#
#
# Convention : Reuss Voigt Hill
#
# Bulk Modulus (GPa) = 33.58947 39.25210 36.42079
# Shear Modulus (GPa) = 24.00071 28.32775 26.16423
#
# Velocity S-wave (km/s) = 3.22943 3.50849 3.37185
# Velocity P-wave (km/s) = 5.33869 5.78526 5.56646
#
# Compressibility (1/GPa) = 0.02977123
#
# Stress axis : x y z
#
# Youngs Moduli (GPa) = 51.79944 62.04543 119.14303
#
# Poissons Ratio (x) = 0.19988 0.09195
# Poissons Ratio (y) = 0.16687 0.36088
# Poissons Ratio (z) = 0.03998 0.18794
#
# Static dielectric constant tensor:
#      x y z
#    x 1.987030 0.000000 0.050410 
#    y 0.000000 1.976420 0.000000 
#    z 0.050410 0.000000 1.882860 
# 
# From -- ./inp_files/41724.got.cif
#   From: 2010.05.17/outbox.cif.g08.bks.cpg/sg5_21_cif.got.tgz:41724.got - 2010.06.03 18:56:24.
