data_PCOD9127068
_publ_section_title
;
Structure prediction by ZEFSAII (Michael W. Deem and Ramdas Pophale) SiO2 
 PCOD9127068
Probable space group: C 2
;
_chemical_formula_sum "Si O2"
_cell_formula_units_Z 12
_cell_length_a 4.777019
_cell_length_b 15.662836
_cell_length_c 8.077350
_cell_angle_alpha 90.000000
_cell_angle_beta 117.381465
_cell_angle_gamma 90.000000
_cell_volume 536.650741
_symmetry_space_group_name_H-M "C 2"
_symmetry_group_IT_number 5
_symmetry_cell_setting 'monoclinic'
loop_
_space_group_symop_operation_xyz
x,y,z
-x,y,-z
1/2+x,1/2+y,z
1/2-x,1/2+y,-z
loop_
_atom_site_type_symbol
_atom_site_label
_atom_site_fract_x
_atom_site_fract_y
_atom_site_fract_z
Si Si1 0.800631 0.021800 0.194231
Si Si2 0.070489 0.416372 0.697668
Si Si3 0.500000 0.797619 0.000000
Si Si4 0.500000 0.183822 0.000000
O O1 0.771643 0.122846 0.154759
O O2 0.900788 0.967711 0.782490
O O3 0.500000 0.995283 0.000000
O O4 0.687225 0.990848 0.341680
O O5 0.000000 0.376753 0.500000
O O6 0.030358 0.349234 0.835407
O O7 0.183694 0.740655 0.917015
#
# Coordination Sequence:
#
# PCOD9127068 Si02
#       4
#     4   4   2   2
#     4  10  22  43  69  97 127 176 233 262 329 394
#     4  12  24  41  70 103 130 174 227 279 325 396
#     4  12  23  42  67 100 142 170 214 280 343 400
#     4  10  23  40  73  94 130 188 212 270 345 396
#
# _framework density 22.360911999999999
#
# number of rings (size 3 to 8) (size 9 to 14) (size 15 to 20)
#    1.000    0.000    1.667    6.000    0.000    0.000 
#    0.000    6.667    0.000    0.000    0.000    0.000 
#    0.000    0.000    0.000    0.000    0.000    0.000 
#
# Total GULP energy -33413.923551 kJ/mol
# GULP energy per Si atom -5568.987258 kJ/mol
# Density = 2.231002 g / cm^3
# Si number density = 22.360912 Si / 1000 Ang^3
#
#
#
# Elastic Constant Matrix: (Units=GPa)
#
#
# Indices 1 2 3 4 5 6 
#
# 1 193.5771 62.0795 50.3581 0.0000 -24.0551 0.0000
# 2 62.0795 113.2319 59.8281 0.0000 -20.5456 0.0000
# 3 50.3581 59.8281 129.5033 0.0000 -20.9132 0.0000
# 4 0.0000 0.0000 0.0000 9.2011 0.0000 -3.1608
# 5 -24.0551 -20.5456 -20.9132 0.0000 40.0945 0.0000
# 6 0.0000 0.0000 0.0000 -3.1608 0.0000 25.6352
#
#
#
# Elastic Compliance Matrix: (Units=1/GPa)
#
#
# Indices 1 2 3 4 5 6 
#
# 1 0.006537 -0.002706 -0.000964 0.000000 0.002033 0.000000
# 2 -0.002706 0.013261 -0.004629 0.000000 0.002757 0.000000
# 3 -0.000964 -0.004629 0.010656 0.000000 0.002608 0.000000
# 4 0.000000 0.000000 0.000000 0.113490 0.000000 0.013993
# 5 0.002033 0.002757 0.002608 0.000000 0.028934 0.000000
# 6 0.000000 0.000000 0.000000 0.013993 0.000000 0.040734
#
#
# Mechanical properties :
#
#
# Convention : Reuss Voigt Hill
#
# Bulk Modulus (GPa) = 72.16351 86.76038 79.46195
# Shear Modulus (GPa) = 21.29212 32.58924 26.94068
#
# Velocity S-wave (km/s) = 3.08913 3.82176 3.47480
# Velocity P-wave (km/s) = 6.71311 7.63929 7.19112
#
# Compressibility (1/GPa) = 0.01385742
#
# Stress axis : x y z
#
# Youngs Moduli (GPa) = 152.97651 75.40893 93.84269
#
# Poissons Ratio (x) = 0.20405 0.09042
# Poissons Ratio (y) = 0.41394 0.43438
# Poissons Ratio (z) = 0.14741 0.34906
#
# Static dielectric constant tensor:
#      x y z
#    x 1.885920 0.000000 0.001110 
#    y 0.000000 1.998530 0.000000 
#    z 0.001110 0.000000 1.917650 
# 
# From -- ./inp_files/11756.got.cif
#   From: 2010.05.17/outbox.cif.g08.bks.cpg/sg5_6_cif.got.tgz:11756.got - 2010.06.03 18:56:24.
