data_PCOD9127010
_publ_section_title
;
Structure prediction by ZEFSAII (Michael W. Deem and Ramdas Pophale) SiO2 
 PCOD9127010
Probable space group: C 2
;
_chemical_formula_sum "Si O2"
_cell_formula_units_Z 28
_cell_length_a 8.614330
_cell_length_b 29.383896
_cell_length_c 5.525183
_cell_angle_alpha 90.000000
_cell_angle_beta 120.627687
_cell_angle_gamma 90.000000
_cell_volume 1203.445360
_symmetry_space_group_name_H-M "C 2"
_symmetry_group_IT_number 5
_symmetry_cell_setting 'monoclinic'
loop_
_space_group_symop_operation_xyz
x,y,z
-x,y,-z
1/2+x,1/2+y,z
1/2-x,1/2+y,-z
loop_
_atom_site_type_symbol
_atom_site_label
_atom_site_fract_x
_atom_site_fract_y
_atom_site_fract_z
Si Si1 0.667460 0.263290 0.455555
Si Si2 0.500000 0.733526 0.000000
Si Si3 0.691937 0.539334 0.292415
Si Si4 0.301582 0.080181 0.883399
Si Si5 0.217808 0.944654 0.144747
Si Si6 0.500000 0.916641 0.000000
Si Si7 0.819252 0.352240 0.468437
Si Si8 0.201170 0.183661 0.771135
O O1 0.500000 0.255509 0.500000
O O2 0.663381 0.314776 0.356095
O O3 0.687016 0.222497 0.278908
O O4 0.866855 0.263764 0.736256
O O5 0.351088 0.701609 0.007059
O O6 0.691296 0.558552 0.565542
O O7 0.771519 0.488282 0.350005
O O8 0.500000 0.535226 0.000000
O O9 0.777850 0.571137 0.152765
O O10 0.285749 0.134286 0.834183
O O11 0.500000 0.062522 0.000000
O O12 0.347313 0.947988 0.010925
O O13 0.267613 0.893928 0.257411
O O14 0.000000 0.944538 0.000000
O O15 0.622154 0.880980 0.250352
O O16 0.000000 0.330626 0.500000
O O17 0.000000 0.180276 0.500000
#
# Coordination Sequence:
#
# PCOD9127010 Si02
#       8
#     4   2   4   4   4   2   4   4
#     4  11  25  41  69 103 139 187 244 300 368 444
#     4  10  23  44  70  92 142 188 240 298 369 434
#     4  11  26  49  73 107 146 199 244 306 378 456
#     4  12  28  44  76 109 150 186 249 309 379 452
#     4  10  25  44  70 101 142 185 248 300 371 449
#     4  10  23  40  72  96 144 186 234 306 373 434
#     4  10  22  43  65  99 139 183 238 293 367 436
#     4  10  24  45  68  97 141 189 241 299 369 441
#
# _framework density 23.266531000000001
#
# number of rings (size 3 to 8) (size 9 to 14) (size 15 to 20)
#    0.000    1.429    0.000    3.429   12.000    3.429 
#    0.000    0.000    0.000    0.000    0.000    0.000 
#    0.000    0.000    0.000    0.000    0.000    0.000 
#
# Total GULP energy -77938.686647 kJ/mol
# GULP energy per Si atom -5567.049046 kJ/mol
# Density = 2.321358 g / cm^3
# Si number density = 23.266531 Si / 1000 Ang^3
#
#
#
# Elastic Constant Matrix: (Units=GPa)
#
#
# Indices 1 2 3 4 5 6 
#
# 1 149.2615 54.4402 30.0499 0.0000 -11.2981 0.0000
# 2 54.4402 128.8378 15.3233 0.0000 -18.3923 0.0000
# 3 30.0499 15.3233 64.7276 0.0000 1.6204 0.0000
# 4 0.0000 0.0000 0.0000 44.8075 0.0000 -118.1255
# 5 -11.2981 -18.3923 1.6204 0.0000 32.4905 0.0000
# 6 0.0000 0.0000 0.0000 -118.1255 0.0000 320.5196
#
#
#
# Elastic Compliance Matrix: (Units=1/GPa)
#
#
# Indices 1 2 3 4 5 6 
#
# 1 0.008577 -0.003027 -0.003301 0.000000 0.001434 0.000000
# 2 -0.003027 0.009814 -0.001032 0.000000 0.004554 0.000000
# 3 -0.003301 -0.001032 0.017291 0.000000 -0.002594 0.000000
# 4 0.000000 0.000000 0.000000 0.785538 0.000000 0.289505
# 5 0.001434 0.004554 -0.002594 0.000000 0.033984 0.000000
# 6 0.000000 0.000000 0.000000 0.289505 0.000000 0.109815
#
#
# Mechanical properties :
#
#
# Convention : Reuss Voigt Hill
#
# Bulk Modulus (GPa) = 47.70629 60.27263 53.98946
# Shear Modulus (GPa) = 5.06726 95.76440 50.41583
#
# Velocity S-wave (km/s) = 1.47738 6.42254 4.66003
# Velocity P-wave (km/s) = 4.84345 8.99779 7.22562
#
# Compressibility (1/GPa) = 0.02096160
#
# Stress axis : x y z
#
# Youngs Moduli (GPa) = 116.59451 101.89985 57.83302
#
# Poissons Ratio (x) = 0.30843 0.19091
# Poissons Ratio (y) = 0.35291 0.05968
# Poissons Ratio (z) = 0.38489 0.10516
#
# Static dielectric constant tensor:
#      x y z
#    x -0.382030 0.000000 2.146730 
#    y 0.000000 1.858320 0.000000 
#    z 2.146730 0.000000 -0.271400 
# 
# From -- ./inp_files/4023.got.cif
#   From: 2010.05.17/outbox.cif.g08.bks.cpg/sg5_3_cif.got.tgz:4023.got - 2010.06.03 18:56:24.
