data_PCOD9127266
_publ_section_title
;
Structure prediction by ZEFSAII (Michael W. Deem and Ramdas Pophale) SiO2 
 PCOD9127266
Probable space group: C 2
;
_chemical_formula_sum "Si O2"
_cell_formula_units_Z 24
_cell_length_a 13.298669
_cell_length_b 5.326439
_cell_length_c 27.443918
_cell_angle_alpha 90.000000
_cell_angle_beta 146.661914
_cell_angle_gamma 90.000000
_cell_volume 1068.367843
_symmetry_space_group_name_H-M "C 2"
_symmetry_group_IT_number 5
_symmetry_cell_setting 'monoclinic'
loop_
_space_group_symop_operation_xyz
x,y,z
-x,y,-z
1/2+x,1/2+y,z
1/2-x,1/2+y,-z
loop_
_atom_site_type_symbol
_atom_site_label
_atom_site_fract_x
_atom_site_fract_y
_atom_site_fract_z
Si Si1 0.870828 0.611620 0.046608
Si Si2 0.500000 0.885194 0.000000
Si Si3 0.520256 0.228700 0.599427
Si Si4 0.097986 0.683667 0.834167
Si Si5 0.215993 0.960021 0.419557
Si Si6 0.586342 0.683088 0.276849
Si Si7 0.000000 0.096314 0.500000
O O1 0.972324 0.678353 0.138089
O O2 0.979513 0.551155 0.040999
O O3 0.761401 0.352305 0.014317
O O4 0.682611 0.716534 0.075943
O O5 0.369679 0.023138 0.522342
O O6 0.456060 0.340966 0.624009
O O7 0.731335 0.159335 0.682313
O O8 0.497328 0.433203 0.547350
O O9 0.027589 0.429293 0.781637
O O10 0.026840 0.931340 0.778394
O O11 0.154988 0.186914 0.360610
O O12 0.322358 0.771378 0.427313
#
# Coordination Sequence:
#
# PCOD9127266 Si02
#       7
#     4   2   4   4   4   4   2
#     4  10  22  44  73 105 134 176 233 284 344 425
#     4  10  24  50  78 104 136 190 238 280 356 438
#     4  12  25  42  70  98 137 193 243 286 349 420
#     4  11  26  46  74 104 143 187 230 294 360 416
#     4  12  25  42  72  99 135 197 237 287 352 419
#     4  12  26  47  68 106 152 180 231 307 349 407
#     4  12  20  44  66  98 134 180 246 292 336 410
#
# _framework density 22.464172999999999
#
# number of rings (size 3 to 8) (size 9 to 14) (size 15 to 20)
#    0.000    0.667    5.000    3.000    0.000    7.333 
#    0.000   11.667    0.000    0.000    0.000    0.000 
#    0.000    0.000    0.000    0.000    0.000    0.000 
#
# Total GULP energy -67118.544643 kJ/mol
# GULP energy per Si atom -5593.212054 kJ/mol
# Density = 2.241304 g / cm^3
# Si number density = 22.464173 Si / 1000 Ang^3
#
#
#
# Elastic Constant Matrix: (Units=GPa)
#
#
# Indices 1 2 3 4 5 6 
#
# 1 132.9007 23.4752 25.1857 0.0006 6.6927 0.0001
# 2 23.4752 108.7791 36.5518 -0.0001 6.5250 0.0011
# 3 25.1857 36.5518 87.3788 0.0008 16.8209 -0.0001
# 4 0.0006 -0.0001 0.0008 35.2660 -0.0003 -2.8844
# 5 6.6927 6.5250 16.8209 -0.0003 35.1894 -0.0003
# 6 0.0001 0.0011 -0.0001 -2.8844 -0.0003 29.7576
#
#
#
# Elastic Compliance Matrix: (Units=1/GPa)
#
#
# Indices 1 2 3 4 5 6 
#
# 1 0.008082 -0.001121 -0.001767 0.000000 -0.000484 0.000000
# 2 -0.001121 0.010853 -0.004263 0.000000 0.000238 0.000000
# 3 -0.001767 -0.004263 0.014890 0.000000 -0.005991 0.000000
# 4 0.000000 0.000000 0.000000 0.028583 0.000000 0.002770
# 5 -0.000484 0.000238 -0.005991 0.000000 0.031329 0.000000
# 6 0.000000 0.000000 0.000000 0.002770 0.000000 0.033873
#
#
# Mechanical properties :
#
#
# Convention : Reuss Voigt Hill
#
# Bulk Modulus (GPa) = 51.22206 55.49823 53.36014
# Shear Modulus (GPa) = 33.68818 36.29900 34.99359
#
# Velocity S-wave (km/s) = 3.87672 4.02414 3.95112
# Velocity P-wave (km/s) = 6.54903 6.80812 6.67983
#
# Compressibility (1/GPa) = 0.01952284
#
# Stress axis : x y z
#
# Youngs Moduli (GPa) = 123.73556 92.14088 67.15802
#
# Poissons Ratio (x) = 0.10331 0.11868
# Poissons Ratio (y) = 0.13874 0.28627
# Poissons Ratio (z) = 0.21866 0.39277
#
# Static dielectric constant tensor:
#      x y z
#    x 1.809180 0.000000 -0.011100 
#    y 0.000000 1.849950 0.000000 
#    z -0.011100 0.000000 1.888110 
# 
# From -- ./inp_files/53715.got.cif
#   From: 2010.05.17/outbox.cif.g08.bks.cpg/sg5_27_cif.got.tgz:53715.got - 2010.06.03 18:56:24.
