data_PCOD9127739
_publ_section_title
;
Structure prediction by ZEFSAII (Michael W. Deem and Ramdas Pophale) SiO2 
 PCOD9127739
Probable space group: C 2
;
_chemical_formula_sum "Si O2"
_cell_formula_units_Z 20
_cell_length_a 10.117410
_cell_length_b 9.376228
_cell_length_c 16.429769
_cell_angle_alpha 90.000000
_cell_angle_beta 148.597531
_cell_angle_gamma 90.000000
_cell_volume 812.092270
_symmetry_space_group_name_H-M "C 2"
_symmetry_group_IT_number 5
_symmetry_cell_setting 'monoclinic'
loop_
_space_group_symop_operation_xyz
x,y,z
-x,y,-z
1/2+x,1/2+y,z
1/2-x,1/2+y,-z
loop_
_atom_site_type_symbol
_atom_site_label
_atom_site_fract_x
_atom_site_fract_y
_atom_site_fract_z
Si Si1 0.755876 0.774900 0.546156
Si Si2 0.000000 0.562772 0.000000
Si Si3 0.775283 0.282854 0.726245
Si Si4 0.000000 0.149898 0.000000
Si Si5 0.566484 0.566760 0.328262
Si Si6 0.513665 0.089602 0.193098
O O1 0.548328 0.674866 0.395186
O O2 0.987004 0.768746 0.602990
O O3 0.846335 0.706233 0.678067
O O4 0.730576 0.943241 0.545903
O O5 0.711475 0.501647 0.837815
O O6 0.026588 0.632422 0.923042
O O7 0.938950 0.250440 0.892079
O O8 0.849883 0.161364 0.702842
O O9 0.838201 0.439707 0.727273
O O10 0.754448 0.064166 0.901017
#
# Coordination Sequence:
#
# PCOD9127739 Si02
#       6
#     4   2   4   2   4   4
#     4  11  27  49  72 108 153 199 249 307 377 445
#     4  12  25  47  82 112 147 203 248 310 377 443
#     4  11  23  46  73 105 153 198 245 310 375 440
#     4  10  23  41  74 114 151 197 252 310 371 447
#     4  12  26  49  77 108 150 199 247 309 374 447
#     4  11  24  46  77 110 155 199 248 313 376 444
#
# _framework density 24.627742000000001
#
# number of rings (size 3 to 8) (size 9 to 14) (size 15 to 20)
#    0.000    0.800    4.000    2.400    2.800    1.600 
#   14.400    0.000    0.000    1.200    0.000    0.000 
#    0.000    0.000    0.000    0.000    0.000    0.000 
#
# Total GULP energy -55910.891176 kJ/mol
# GULP energy per Si atom -5591.089118 kJ/mol
# Density = 2.457169 g / cm^3
# Si number density = 24.627742 Si / 1000 Ang^3
#
#
#
# Elastic Constant Matrix: (Units=GPa)
#
#
# Indices 1 2 3 4 5 6 
#
# 1 153.0116 55.0858 12.6902 0.0003 -17.3464 0.0000
# 2 55.0858 147.4653 40.8370 0.0003 -16.3026 0.0001
# 3 12.6902 40.8370 102.3740 0.0018 -23.1056 0.0007
# 4 0.0003 0.0003 0.0018 23.4379 0.0006 -3.0099
# 5 -17.3464 -16.3026 -23.1056 0.0006 45.1915 0.0000
# 6 0.0000 0.0001 0.0007 -3.0099 0.0000 42.6002
#
#
#
# Elastic Compliance Matrix: (Units=1/GPa)
#
#
# Indices 1 2 3 4 5 6 
#
# 1 0.007761 -0.002835 0.000690 0.000000 0.002309 0.000000
# 2 -0.002835 0.008733 -0.003014 0.000000 0.000521 0.000000
# 3 0.000690 -0.003014 0.012095 -0.000001 0.005361 0.000000
# 4 0.000000 0.000000 -0.000001 0.043057 -0.000001 0.003042
# 5 0.002309 0.000521 0.005361 -0.000001 0.025943 0.000000
# 6 0.000000 0.000000 0.000000 0.003042 0.000000 0.023689
#
#
# Mechanical properties :
#
#
# Convention : Reuss Voigt Hill
#
# Bulk Modulus (GPa) = 54.73575 68.89745 61.81660
# Shear Modulus (GPa) = 36.31459 41.86177 39.08818
#
# Velocity S-wave (km/s) = 3.84414 4.12731 3.98824
# Velocity P-wave (km/s) = 6.47894 7.12385 6.80904
#
# Compressibility (1/GPa) = 0.01826959
#
# Stress axis : x y z
#
# Youngs Moduli (GPa) = 128.85719 114.51411 82.67806
#
# Poissons Ratio (x) = 0.32462 -0.05704
# Poissons Ratio (y) = 0.36528 0.24923
# Poissons Ratio (z) = -0.08890 0.34520
#
# Static dielectric constant tensor:
#      x y z
#    x 1.969090 0.000000 0.008950 
#    y 0.000000 1.947330 0.000000 
#    z 0.008950 0.000000 2.003350 
# 
# From -- ./inp_files/60329.got.cif
#   From: 2010.05.17/outbox.cif.g08.bks.cpg/sg5_31_cif.got.tgz:60329.got - 2010.06.03 18:56:24.
