data_PCOD9127869
_publ_section_title
;
Structure prediction by ZEFSAII (Michael W. Deem and Ramdas Pophale) SiO2 
 PCOD9127869
Probable space group: C 2
;
_chemical_formula_sum "Si O2"
_cell_formula_units_Z 20
_cell_length_a 11.764101
_cell_length_b 10.091430
_cell_length_c 10.488349
_cell_angle_alpha 90.000000
_cell_angle_beta 47.878306
_cell_angle_gamma 90.000000
_cell_volume 923.548514
_symmetry_space_group_name_H-M "C 2"
_symmetry_group_IT_number 5
_symmetry_cell_setting 'monoclinic'
loop_
_space_group_symop_operation_xyz
x,y,z
-x,y,-z
1/2+x,1/2+y,z
1/2-x,1/2+y,-z
loop_
_atom_site_type_symbol
_atom_site_label
_atom_site_fract_x
_atom_site_fract_y
_atom_site_fract_z
Si Si1 0.037733 0.304260 0.346197
Si Si2 0.878350 0.031335 0.484985
Si Si3 0.536421 0.981000 0.834301
Si Si4 0.712295 0.203696 0.988489
Si Si5 0.443557 0.475305 0.896048
O O1 0.000000 0.387565 0.500000
O O2 0.912992 0.187902 0.445196
O O3 0.025499 0.387686 0.229488
O O4 0.202652 0.233808 0.209726
O O5 0.712316 0.000966 0.664451
O O6 0.000000 0.981935 0.500000
O O7 0.920500 0.981212 0.311137
O O8 0.439304 0.116013 0.906689
O O9 0.500000 0.920609 0.000000
O O10 0.657221 0.348731 0.072871
O O11 0.837793 0.108664 0.964181
O O12 0.500000 0.460123 0.000000
#
# Coordination Sequence:
#
# PCOD9127869 Si02
#       5
#     4   4   4   4   4
#     4  10  23  43  68  96 143 176 239 296 351 429
#     4  10  25  46  67 101 146 185 236 300 362 434
#     4  12  24  41  73  99 135 190 236 290 368 425
#     4  11  24  47  71 105 144 189 243 296 365 431
#     4  11  25  47  75 106 149 191 244 304 363 428
#
# _framework density 21.655602999999999
#
# number of rings (size 3 to 8) (size 9 to 14) (size 15 to 20)
#    0.000    1.200    2.000    4.200    5.600    3.200 
#    0.000    1.000    0.000    0.000    0.000    0.000 
#    0.000    0.000    0.000    0.000    0.000    0.000 
#
# Total GULP energy -55768.898785 kJ/mol
# GULP energy per Si atom -5576.889879 kJ/mol
# Density = 2.160631 g / cm^3
# Si number density = 21.655603 Si / 1000 Ang^3
#
#
#
# Elastic Constant Matrix: (Units=GPa)
#
#
# Indices 1 2 3 4 5 6 
#
# 1 92.8177 25.0829 88.6611 0.0000 -14.1387 0.0000
# 2 25.0829 84.8623 49.9630 0.0000 0.7935 0.0000
# 3 88.6611 49.9630 240.7550 0.0000 -5.3937 0.0000
# 4 0.0000 0.0000 0.0000 10.3672 0.0000 1.3156
# 5 -14.1387 0.7935 -5.3937 0.0000 52.9423 0.0000
# 6 0.0000 0.0000 0.0000 1.3156 0.0000 21.4120
#
#
#
# Elastic Compliance Matrix: (Units=1/GPa)
#
#
# Indices 1 2 3 4 5 6 
#
# 1 0.017640 -0.001688 -0.006053 0.000000 0.004119 0.000000
# 2 -0.001688 0.013598 -0.002220 0.000000 -0.000881 0.000000
# 3 -0.006053 -0.002220 0.006824 0.000000 -0.000888 0.000000
# 4 0.000000 0.000000 0.000000 0.097216 0.000000 -0.005973
# 5 0.004119 -0.000881 -0.000888 0.000000 0.019911 0.000000
# 6 0.000000 0.000000 0.000000 -0.005973 0.000000 0.047070
#
#
# Mechanical properties :
#
#
# Convention : Reuss Voigt Hill
#
# Bulk Modulus (GPa) = 55.13245 82.87209 69.00227
# Shear Modulus (GPa) = 21.90789 33.92617 27.91703
#
# Velocity S-wave (km/s) = 3.18410 3.96235 3.59435
# Velocity P-wave (km/s) = 6.24756 7.69967 7.01131
#
# Compressibility (1/GPa) = 0.01813814
#
# Stress axis : x y z
#
# Youngs Moduli (GPa) = 56.68944 73.53989 146.54889
#
# Poissons Ratio (x) = 0.12416 0.88713
# Poissons Ratio (y) = 0.09571 0.32533
# Poissons Ratio (z) = 0.34317 0.16325
#
# Static dielectric constant tensor:
#      x y z
#    x 1.904400 0.000000 0.039650 
#    y 0.000000 1.814060 0.000000 
#    z 0.039650 0.000000 1.841610 
# 
# From -- ./inp_files/19211.got.cif
#   From: 2010.05.17/outbox.cif.g08.bks.cpg/sg5_10_cif.got.tgz:19211.got - 2010.06.03 18:56:24.
