data_PCOD9127997
_publ_section_title
;
Structure prediction by ZEFSAII (Michael W. Deem and Ramdas Pophale) SiO2 
 PCOD9127997
Probable space group: C 2
;
_chemical_formula_sum "Si O2"
_cell_formula_units_Z 24
_cell_length_a 19.608289
_cell_length_b 10.965212
_cell_length_c 5.365787
_cell_angle_alpha 90.000000
_cell_angle_beta 57.205040
_cell_angle_gamma 90.000000
_cell_volume 969.810562
_symmetry_space_group_name_H-M "C 2"
_symmetry_group_IT_number 5
_symmetry_cell_setting 'monoclinic'
loop_
_space_group_symop_operation_xyz
x,y,z
-x,y,-z
1/2+x,1/2+y,z
1/2-x,1/2+y,-z
loop_
_atom_site_type_symbol
_atom_site_label
_atom_site_fract_x
_atom_site_fract_y
_atom_site_fract_z
Si Si1 0.422632 0.010480 0.527523
Si Si2 0.804361 0.891435 0.238640
Si Si3 0.792941 0.227948 0.946742
Si Si4 0.622660 0.254257 0.521096
Si Si5 0.153813 0.427515 0.837038
Si Si6 0.094441 0.020715 0.333608
O O1 0.500000 0.947640 0.500000
O O2 0.440176 0.149759 0.414473
O O3 0.395983 0.952258 0.316709
O O4 0.365033 0.009845 0.885823
O O5 0.741806 0.832601 0.167753
O O6 0.861221 0.782704 0.223208
O O7 0.747443 0.940311 0.569965
O O8 0.862248 0.993371 0.016152
O O9 0.846470 0.129421 0.694417
O O10 0.709014 0.196996 0.256263
O O11 0.850269 0.291993 0.039009
O O12 0.601982 0.387089 0.449138
O O13 0.000000 0.052638 0.500000
#
# Coordination Sequence:
#
# PCOD9127997 Si02
#       6
#     4   4   4   4   4   4
#     4  12  26  46  74 114 152 195 252 319 379 447
#     4  10  23  46  73 108 146 197 259 305 370 460
#     4  10  23  44  75 109 144 200 252 309 375 457
#     4  10  25  42  77 103 152 196 255 310 380 454
#     4  11  24  47  75 108 147 200 255 308 374 460
#     4  11  25  47  71 111 159 196 253 317 392 449
#
# _framework density 24.747101000000001
#
# number of rings (size 3 to 8) (size 9 to 14) (size 15 to 20)
#    0.000    1.333    1.667    2.000    9.333    4.000 
#    6.000    0.000    0.000    0.000    0.000    0.000 
#    0.000    0.000    0.000    0.000    0.000    0.000 
#
# Total GULP energy -66930.704664 kJ/mol
# GULP energy per Si atom -5577.558722 kJ/mol
# Density = 2.469078 g / cm^3
# Si number density = 24.747101 Si / 1000 Ang^3
#
#
#
# Elastic Constant Matrix: (Units=GPa)
#
#
# Indices 1 2 3 4 5 6 
#
# 1 132.5739 45.3812 27.7818 0.0000 23.9264 0.0000
# 2 45.3812 66.3025 27.4280 0.0000 4.1813 0.0000
# 3 27.7818 27.4280 87.6019 0.0000 11.7322 0.0000
# 4 0.0000 0.0000 0.0000 34.0505 0.0000 5.1383
# 5 23.9264 4.1813 11.7322 0.0000 47.0670 0.0000
# 6 0.0000 0.0000 0.0000 5.1383 0.0000 28.8023
#
#
#
# Elastic Compliance Matrix: (Units=1/GPa)
#
#
# Indices 1 2 3 4 5 6 
#
# 1 0.010898 -0.006885 -0.000663 0.000000 -0.004763 0.000000
# 2 -0.006885 0.021678 -0.004981 0.000000 0.002816 0.000000
# 3 -0.000663 -0.004981 0.013532 0.000000 -0.002594 0.000000
# 4 0.000000 0.000000 0.000000 0.030181 0.000000 -0.005384
# 5 -0.004763 0.002816 -0.002594 0.000000 0.024064 0.000000
# 6 0.000000 0.000000 0.000000 -0.005384 0.000000 0.035680
#
#
# Mechanical properties :
#
#
# Convention : Reuss Voigt Hill
#
# Bulk Modulus (GPa) = 47.50275 54.18447 50.84361
# Shear Modulus (GPa) = 29.74296 34.37645 32.05970
#
# Velocity S-wave (km/s) = 3.47057 3.73112 3.60320
# Velocity P-wave (km/s) = 5.94111 6.36431 6.15635
#
# Compressibility (1/GPa) = 0.02105141
#
# Stress axis : x y z
#
# Youngs Moduli (GPa) = 91.75808 46.13036 73.89714
#
# Poissons Ratio (x) = 0.31760 0.04897
# Poissons Ratio (y) = 0.63174 0.36808
# Poissons Ratio (z) = 0.06080 0.22977
#
# Static dielectric constant tensor:
#      x y z
#    x 2.015970 0.000000 -0.029110 
#    y 0.000000 2.058910 0.000000 
#    z -0.029110 0.000000 2.016620 
# 
# From -- ./inp_files/9407.got.cif
#   From: 2010.05.17/outbox.cif.g08.bks.cpg/sg5_5_cif.got.tgz:9407.got - 2010.06.03 18:56:24.
