data_PCOD9127453
_publ_section_title
;
Structure prediction by ZEFSAII (Michael W. Deem and Ramdas Pophale) SiO2 
 PCOD9127453
Probable space group: C 2
;
_chemical_formula_sum "Si O2"
_cell_formula_units_Z 28
_cell_length_a 12.768738
_cell_length_b 11.105023
_cell_length_c 9.058921
_cell_angle_alpha 90.000000
_cell_angle_beta 62.503365
_cell_angle_gamma 90.000000
_cell_volume 1139.425963
_symmetry_space_group_name_H-M "C 2"
_symmetry_group_IT_number 5
_symmetry_cell_setting 'monoclinic'
loop_
_space_group_symop_operation_xyz
x,y,z
-x,y,-z
1/2+x,1/2+y,z
1/2-x,1/2+y,-z
loop_
_atom_site_type_symbol
_atom_site_label
_atom_site_fract_x
_atom_site_fract_y
_atom_site_fract_z
Si Si1 0.286902 0.637470 0.684054
Si Si2 0.056762 0.363441 0.312842
Si Si3 0.838265 0.574115 0.956788
Si Si4 0.865605 0.164881 0.120361
Si Si5 0.000000 0.957458 0.500000
Si Si6 0.879145 0.922649 0.295832
Si Si7 0.201559 0.290547 0.584281
Si Si8 0.500000 0.251322 0.000000
O O1 0.348288 0.758691 0.712609
O O2 0.391044 0.544844 0.594567
O O3 0.245849 0.683719 0.551092
O O4 0.194805 0.569420 0.847901
O O5 0.111863 0.459484 0.164113
O O6 0.000000 0.419972 0.500000
O O7 0.939615 0.296934 0.331859
O O8 0.715348 0.614873 0.959575
O O9 0.939934 0.674177 0.908676
O O10 0.782502 0.263714 0.254751
O O11 0.884155 0.054742 0.223402
O O12 0.000000 0.205058 0.000000
O O13 0.974383 0.893894 0.361781
O O14 0.758307 0.902838 0.464220
O O15 0.903380 0.835403 0.142192
#
# Coordination Sequence:
#
# PCOD9127453 Si02
#       8
#     4   4   4   4   2   4   4   2
#     4  11  21  46  74 103 142 194 250 303 355 447
#     4  10  22  46  76 103 142 196 241 304 368 432
#     4  12  28  45  76 107 154 195 243 312 383 431
#     4  12  25  49  74 111 142 199 256 301 363 456
#     4  12  24  44  78 106 142 200 252 294 376 452
#     4  12  26  46  76 107 150 195 247 308 380 441
#     4  11  23  46  71 103 147 188 252 307 356 441
#     4  12  30  50  66 112 160 194 248 316 374 442
#
# _framework density 24.573777
#
# number of rings (size 3 to 8) (size 9 to 14) (size 15 to 20)
#    0.000    0.571    5.714    3.429    2.000    3.429 
#    6.429    0.000    0.000    0.000    0.000    0.000 
#    0.000    0.000    0.000    0.000    0.000    0.000 
#
# Total GULP energy -78153.984763 kJ/mol
# GULP energy per Si atom -5582.427483 kJ/mol
# Density = 2.451785 g / cm^3
# Si number density = 24.573777 Si / 1000 Ang^3
#
#
#
# Elastic Constant Matrix: (Units=GPa)
#
#
# Indices 1 2 3 4 5 6 
#
# 1 79.1251 7.4927 15.5768 0.0000 2.9397 0.0000
# 2 7.4927 86.9023 62.9322 0.0000 -4.0735 0.0000
# 3 15.5768 62.9322 156.6826 0.0000 -18.6719 0.0000
# 4 0.0000 0.0000 0.0000 53.1836 0.0000 4.7471
# 5 2.9397 -4.0735 -18.6719 0.0000 41.0629 0.0000
# 6 0.0000 0.0000 0.0000 4.7471 0.0000 22.2675
#
#
#
# Elastic Compliance Matrix: (Units=1/GPa)
#
#
# Indices 1 2 3 4 5 6 
#
# 1 0.012991 -0.000172 -0.001412 0.000000 -0.001589 0.000000
# 2 -0.000172 0.016309 -0.006703 0.000000 -0.001417 0.000000
# 3 -0.001412 -0.006703 0.009672 0.000000 0.003834 0.000000
# 4 0.000000 0.000000 0.000000 0.019168 0.000000 -0.004086
# 5 -0.001589 -0.001417 0.003834 0.000000 0.026069 0.000000
# 6 0.000000 0.000000 0.000000 -0.004086 0.000000 0.045780
#
#
# Mechanical properties :
#
#
# Convention : Reuss Voigt Hill
#
# Bulk Modulus (GPa) = 44.64394 54.96816 49.80605
# Shear Modulus (GPa) = 32.46149 39.08333 35.77241
#
# Velocity S-wave (km/s) = 3.63847 3.99237 3.81952
# Velocity P-wave (km/s) = 5.98816 6.60827 6.30584
#
# Compressibility (1/GPa) = 0.02239946
#
# Stress axis : x y z
#
# Youngs Moduli (GPa) = 76.97350 61.31452 103.39475
#
# Poissons Ratio (x) = 0.01056 0.14597
# Poissons Ratio (y) = 0.01326 0.69300
# Poissons Ratio (z) = 0.10867 0.41096
#
# Static dielectric constant tensor:
#      x y z
#    x 2.054660 0.000000 0.031280 
#    y 0.000000 2.010040 0.000000 
#    z 0.031280 0.000000 2.012990 
# 
# From -- ./inp_files/23822.got.cif
#   From: 2010.05.17/outbox.cif.g08.bks.cpg/sg5_12_cif.got.tgz:23822.got - 2010.06.03 18:56:24.
