data_PCOD9127406
_publ_section_title
;
Structure prediction by ZEFSAII (Michael W. Deem and Ramdas Pophale) SiO2 
 PCOD9127406
Probable space group: C 2
;
_chemical_formula_sum "Si O2"
_cell_formula_units_Z 24
_cell_length_a 14.618515
_cell_length_b 13.834914
_cell_length_c 6.877947
_cell_angle_alpha 90.000000
_cell_angle_beta 130.185776
_cell_angle_gamma 90.000000
_cell_volume 1062.691070
_symmetry_space_group_name_H-M "C 2"
_symmetry_group_IT_number 5
_symmetry_cell_setting 'monoclinic'
loop_
_space_group_symop_operation_xyz
x,y,z
-x,y,-z
1/2+x,1/2+y,z
1/2-x,1/2+y,-z
loop_
_atom_site_type_symbol
_atom_site_label
_atom_site_fract_x
_atom_site_fract_y
_atom_site_fract_z
Si Si1 0.761640 0.046400 0.520602
Si Si2 0.000000 0.728499 0.500000
Si Si3 0.610514 0.720042 0.767608
Si Si4 0.818919 0.435424 0.215035
Si Si5 0.854653 0.609218 0.007651
Si Si6 0.370393 0.412513 0.348135
Si Si7 0.000000 0.160425 0.000000
O O1 0.670493 0.107225 0.257552
O O2 0.885574 0.098940 0.758555
O O3 0.694340 0.997727 0.609275
O O4 0.801190 0.962771 0.425221
O O5 0.893449 0.799975 0.419366
O O6 0.954186 0.672571 0.249643
O O7 0.500000 0.675194 0.500000
O O8 0.632644 0.826725 0.709259
O O9 0.727403 0.652763 0.911806
O O10 0.562668 0.724517 0.920653
O O11 0.879158 0.503240 0.133546
O O12 0.688922 0.421031 0.942549
O O13 0.500000 0.457700 0.500000
#
# Coordination Sequence:
#
# PCOD9127406 Si02
#       7
#     4   2   4   4   4   4   2
#     4  11  23  41  72 104 139 191 242 292 366 425
#     4  10  22  46  68  96 148 188 232 302 352 418
#     4  12  25  44  71 106 145 183 243 305 361 428
#     4  11  24  44  68  99 146 182 237 301 356 428
#     4  11  24  46  69  99 143 194 235 297 357 437
#     4   9  20  39  68  99 134 179 238 295 352 417
#     4  12  24  40  78 106 142 194 244 298 366 432
#
# _framework density 22.584171999999999
#
# number of rings (size 3 to 8) (size 9 to 14) (size 15 to 20)
#    0.500    0.667    5.000    1.000    3.500    2.667 
#    3.000    2.500    0.000    0.000    0.000    0.000 
#    0.000    0.000    0.000    0.000    0.000    0.000 
#
# Total GULP energy -66943.960118 kJ/mol
# GULP energy per Si atom -5578.663343 kJ/mol
# Density = 2.253277 g / cm^3
# Si number density = 22.584172 Si / 1000 Ang^3
#
#
#
# Elastic Constant Matrix: (Units=GPa)
#
#
# Indices 1 2 3 4 5 6 
#
# 1 63.0358 9.9564 42.5429 0.0000 -12.9334 0.0000
# 2 9.9564 94.4209 38.0079 0.0000 7.7693 0.0000
# 3 42.5429 38.0079 167.4692 0.0000 -0.7084 0.0000
# 4 0.0000 0.0000 0.0000 40.4798 0.0000 -3.1688
# 5 -12.9334 7.7693 -0.7084 0.0000 28.5685 0.0000
# 6 0.0000 0.0000 0.0000 -3.1688 0.0000 22.9769
#
#
#
# Elastic Compliance Matrix: (Units=1/GPa)
#
#
# Indices 1 2 3 4 5 6 
#
# 1 0.021571 -0.000991 -0.005213 0.000000 0.009906 0.000000
# 2 -0.000991 0.012008 -0.002489 0.000000 -0.003776 0.000000
# 3 -0.005213 -0.002489 0.007854 0.000000 -0.001488 0.000000
# 4 0.000000 0.000000 0.000000 0.024973 0.000000 0.003444
# 5 0.009906 -0.003776 -0.001488 0.000000 0.040478 0.000000
# 6 0.000000 0.000000 0.000000 0.003444 0.000000 0.043997
#
#
# Mechanical properties :
#
#
# Convention : Reuss Voigt Hill
#
# Bulk Modulus (GPa) = 41.58656 56.21559 48.90108
# Shear Modulus (GPa) = 28.36312 34.03294 31.19803
#
# Velocity S-wave (km/s) = 3.54769 3.88614 3.72077
# Velocity P-wave (km/s) = 5.93595 6.71429 6.33708
#
# Compressibility (1/GPa) = 0.02404623
#
# Stress axis : x y z
#
# Youngs Moduli (GPa) = 46.35793 83.27618 127.32013
#
# Poissons Ratio (x) = 0.08255 0.66371
# Poissons Ratio (y) = 0.04596 0.31696
# Poissons Ratio (z) = 0.24166 0.20731
#
# Static dielectric constant tensor:
#      x y z
#    x 1.875820 0.000000 0.053170 
#    y 0.000000 1.870600 0.000000 
#    z 0.053170 0.000000 1.905840 
# 
# From -- ./inp_files/6930.got.cif
#   From: 2010.05.17/outbox.cif.g08.bks.cpg/sg5_4_cif.got.tgz:6930.got - 2010.06.03 18:56:24.
