data_PCOD9127269
_publ_section_title
;
Structure prediction by ZEFSAII (Michael W. Deem and Ramdas Pophale) SiO2 
 PCOD9127269
Probable space group: C 2
;
_chemical_formula_sum "Si O2"
_cell_formula_units_Z 18
_cell_length_a 5.003623
_cell_length_b 19.548063
_cell_length_c 7.834633
_cell_angle_alpha 90.000000
_cell_angle_beta 110.613188
_cell_angle_gamma 90.000000
_cell_volume 717.253791
_symmetry_space_group_name_H-M "C 2"
_symmetry_group_IT_number 5
_symmetry_cell_setting 'monoclinic'
loop_
_space_group_symop_operation_xyz
x,y,z
-x,y,-z
1/2+x,1/2+y,z
1/2-x,1/2+y,-z
loop_
_atom_site_type_symbol
_atom_site_label
_atom_site_fract_x
_atom_site_fract_y
_atom_site_fract_z
Si Si1 0.057946 0.606920 0.706236
Si Si2 0.207251 0.299071 0.682690
Si Si3 0.299461 0.872499 0.802756
Si Si4 0.500000 0.200764 0.000000
Si Si5 0.554352 0.511794 0.702898
O O1 0.280672 0.545173 0.728177
O O2 0.000000 0.634895 0.500000
O O3 0.140617 0.658109 0.875861
O O4 0.770475 0.573458 0.715630
O O5 0.520944 0.326472 0.706853
O O6 0.270289 0.247008 0.849694
O O7 0.000000 0.263279 0.500000
O O8 0.015004 0.364280 0.694265
O O9 0.193810 0.947948 0.827550
O O10 0.500000 0.848008 0.000000
O O11 0.500000 0.483081 0.500000
#
# Coordination Sequence:
#
# PCOD9127269 Si02
#       5
#     4   4   4   2   4
#     4  10  25  46  74 108 149 202 252 313 377 454
#     4  12  27  48  77 111 152 203 254 318 385 453
#     4  12  24  47  77 114 151 194 251 321 391 459
#     4  12  28  52  74 112 156 210 266 310 370 462
#     4  10  22  44  73 109 148 192 249 311 391 455
#
# _framework density 25.09572
#
# number of rings (size 3 to 8) (size 9 to 14) (size 15 to 20)
#    0.000    0.889    2.222    3.333    1.556   10.667 
#    0.000    0.000    0.000    0.000    0.000    0.000 
#    0.000    0.000    0.000    0.000    0.000    0.000 
#
# Total GULP energy -50336.504187 kJ/mol
# GULP energy per Si atom -5592.944910 kJ/mol
# Density = 2.503860 g / cm^3
# Si number density = 25.095720 Si / 1000 Ang^3
#
#
#
# Elastic Constant Matrix: (Units=GPa)
#
#
# Indices 1 2 3 4 5 6 
#
# 1 88.5219 5.2933 48.6723 0.0000 13.7521 0.0000
# 2 5.2933 64.5756 58.0083 0.0000 -5.4959 0.0000
# 3 48.6723 58.0083 195.5948 0.0000 17.8511 0.0000
# 4 0.0000 0.0000 0.0000 32.7279 0.0000 3.0957
# 5 13.7521 -5.4959 17.8511 0.0000 40.7698 0.0000
# 6 0.0000 0.0000 0.0000 3.0957 0.0000 28.3484
#
#
#
# Elastic Compliance Matrix: (Units=1/GPa)
#
#
# Indices 1 2 3 4 5 6 
#
# 1 0.013657 0.002023 -0.003753 0.000000 -0.002691 0.000000
# 2 0.002023 0.022823 -0.007802 0.000000 0.005811 0.000000
# 3 -0.003753 -0.007802 0.008688 0.000000 -0.003590 0.000000
# 4 0.000000 0.000000 0.000000 0.030874 0.000000 -0.003371
# 5 -0.002691 0.005811 -0.003590 0.000000 0.027791 0.000000
# 6 0.000000 0.000000 0.000000 -0.003371 0.000000 0.035644
#
#
# Mechanical properties :
#
#
# Convention : Reuss Voigt Hill
#
# Bulk Modulus (GPa) = 38.30915 63.62668 50.96792
# Shear Modulus (GPa) = 29.89658 36.15046 33.02352
#
# Velocity S-wave (km/s) = 3.45527 3.79951 3.63147
# Velocity P-wave (km/s) = 5.58721 6.68259 6.15930
#
# Compressibility (1/GPa) = 0.02610342
#
# Stress axis : x y z
#
# Youngs Moduli (GPa) = 73.22196 43.81466 115.09992
#
# Poissons Ratio (x) = -0.08862 0.43194
# Poissons Ratio (y) = -0.14810 0.89806
# Poissons Ratio (z) = 0.27478 0.34186
#
# Static dielectric constant tensor:
#      x y z
#    x 1.966190 0.000000 -0.023300 
#    y 0.000000 1.978790 0.000000 
#    z -0.023300 0.000000 2.021340 
# 
# From -- ./inp_files/12360.got.cif
#   From: 2010.05.17/outbox.cif.g08.bks.cpg/sg5_7_cif.got.tgz:12360.got - 2010.06.03 18:56:24.
