data_PCOD9127696
_publ_section_title
;
Structure prediction by ZEFSAII (Michael W. Deem and Ramdas Pophale) SiO2 
 PCOD9127696
Probable space group: C 2
;
_chemical_formula_sum "Si O2"
_cell_formula_units_Z 24
_cell_length_a 8.623174
_cell_length_b 15.147167
_cell_length_c 8.481795
_cell_angle_alpha 90.000000
_cell_angle_beta 83.537089
_cell_angle_gamma 90.000000
_cell_volume 1100.823150
_symmetry_space_group_name_H-M "C 2"
_symmetry_group_IT_number 5
_symmetry_cell_setting 'monoclinic'
loop_
_space_group_symop_operation_xyz
x,y,z
-x,y,-z
1/2+x,1/2+y,z
1/2-x,1/2+y,-z
loop_
_atom_site_type_symbol
_atom_site_label
_atom_site_fract_x
_atom_site_fract_y
_atom_site_fract_z
Si Si1 0.000000 0.807341 0.000000
Si Si2 0.181309 0.686226 0.506732
Si Si3 0.500000 0.583768 0.000000
Si Si4 0.950776 0.952001 0.258089
Si Si5 0.420029 0.818806 0.338573
Si Si6 0.194497 0.227030 0.156609
Si Si7 0.758328 0.984398 0.561172
O O1 0.994649 0.867513 0.844424
O O2 0.161165 0.755735 0.966856
O O3 0.286767 0.742365 0.370904
O O4 0.236393 0.710714 0.677018
O O5 0.204044 0.579615 0.504997
O O6 0.000000 0.707245 0.500000
O O7 0.595884 0.521789 0.869702
O O8 0.384947 0.642239 0.910393
O O9 0.816794 0.932127 0.398826
O O10 0.092044 0.993162 0.342669
O O11 0.500000 0.814257 0.500000
O O12 0.551129 0.795071 0.195983
O O13 0.356559 0.918421 0.334976
#
# Coordination Sequence:
#
# PCOD9127696 Si02
#       7
#     2   4   2   4   4   4   4
#     4  11  26  44  64  99 136 178 224 275 336 409
#     4  11  24  41  71 105 134 170 231 284 331 392
#     4  11  22  44  66  95 144 180 214 267 346 413
#     4  10  23  41  69  97 133 180 223 271 340 400
#     4  10  23  41  68 100 133 174 223 283 336 387
#     4  11  25  43  67  98 136 181 219 274 342 402
#     4  11  22  42  71 101 132 175 230 284 329 389
#
# _framework density 21.801869
#
# number of rings (size 3 to 8) (size 9 to 14) (size 15 to 20)
#    0.000    1.333    1.667    3.500   11.667    1.333 
#    0.000    1.667    0.000    0.000    0.000    0.000 
#    0.000    0.000    0.000    0.000    0.000    0.000 
#
# Total GULP energy -67050.162613 kJ/mol
# GULP energy per Si atom -5587.513551 kJ/mol
# Density = 2.175225 g / cm^3
# Si number density = 21.801869 Si / 1000 Ang^3
#
#
#
# Elastic Constant Matrix: (Units=GPa)
#
#
# Indices 1 2 3 4 5 6 
#
# 1 100.3138 31.1415 13.3419 0.0000 -14.2648 0.0000
# 2 31.1415 92.1559 15.2188 0.0000 -18.8290 0.0000
# 3 13.3419 15.2188 71.8786 0.0000 -7.7579 0.0000
# 4 0.0000 0.0000 0.0000 22.9238 0.0000 6.9562
# 5 -14.2648 -18.8290 -7.7579 0.0000 38.6720 0.0000
# 6 0.0000 0.0000 0.0000 6.9562 0.0000 17.8913
#
#
#
# Elastic Compliance Matrix: (Units=1/GPa)
#
#
# Indices 1 2 3 4 5 6 
#
# 1 0.011461 -0.003177 -0.001191 0.000000 0.002442 0.000000
# 2 -0.003177 0.013207 -0.001675 0.000000 0.004922 0.000000
# 3 -0.001191 -0.001675 0.014670 0.000000 0.001688 0.000000
# 4 0.000000 0.000000 0.000000 0.049458 0.000000 -0.019229
# 5 0.002442 0.004922 0.001688 0.000000 0.029494 0.000000
# 6 0.000000 0.000000 0.000000 -0.019229 0.000000 0.063369
#
#
# Mechanical properties :
#
#
# Convention : Reuss Voigt Hill
#
# Bulk Modulus (GPa) = 36.69599 42.63919 39.66759
# Shear Modulus (GPa) = 24.65110 29.54050 27.09580
#
# Velocity S-wave (km/s) = 3.36622 3.68496 3.52919
# Velocity P-wave (km/s) = 5.65479 6.14046 5.90263
#
# Compressibility (1/GPa) = 0.02725094
#
# Stress axis : x y z
#
# Youngs Moduli (GPa) = 87.25485 75.71606 68.16483
#
# Poissons Ratio (x) = 0.24057 0.08119
# Poissons Ratio (y) = 0.27723 0.11420
# Poissons Ratio (z) = 0.10393 0.12685
#
# Static dielectric constant tensor:
#      x y z
#    x 1.821290 0.000000 -0.025400 
#    y 0.000000 1.834430 0.000000 
#    z -0.025400 0.000000 1.793920 
# 
# From -- ./inp_files/14976.got.cif
#   From: 2010.05.17/outbox.cif.g08.bks.cpg/sg5_8_cif.got.tgz:14976.got - 2010.06.03 18:56:24.
