data_PCOD9127506
_publ_section_title
;
Structure prediction by ZEFSAII (Michael W. Deem and Ramdas Pophale) SiO2 
 PCOD9127506
Probable space group: C 2
;
_chemical_formula_sum "Si O2"
_cell_formula_units_Z 20
_cell_length_a 10.126680
_cell_length_b 11.418862
_cell_length_c 14.782591
_cell_angle_alpha 90.000000
_cell_angle_beta 30.289714
_cell_angle_gamma 90.000000
_cell_volume 862.168141
_symmetry_space_group_name_H-M "C 2"
_symmetry_group_IT_number 5
_symmetry_cell_setting 'monoclinic'
loop_
_space_group_symop_operation_xyz
x,y,z
-x,y,-z
1/2+x,1/2+y,z
1/2-x,1/2+y,-z
loop_
_atom_site_type_symbol
_atom_site_label
_atom_site_fract_x
_atom_site_fract_y
_atom_site_fract_z
Si Si1 0.965362 0.091020 0.256897
Si Si2 0.521275 0.334589 0.159863
Si Si3 0.230846 0.151328 0.432443
Si Si4 0.500000 0.200774 0.000000
Si Si5 0.588003 0.790013 0.845277
Si Si6 0.000000 0.929788 0.500000
O O1 0.271062 0.117812 0.097391
O O2 0.825200 0.146715 0.427902
O O3 0.888164 0.163298 0.213977
O O4 0.921769 0.954738 0.262105
O O5 0.474402 0.228425 0.258399
O O6 0.399244 0.285123 0.139294
O O7 0.828166 0.347503 0.953960
O O8 0.000000 0.196983 0.500000
O O9 0.220818 0.015014 0.410976
O O10 0.849876 0.858542 0.665134
O O11 0.500000 0.791302 0.000000
#
# Coordination Sequence:
#
# PCOD9127506 Si02
#       6
#     4   4   4   2   4   2
#     4  11  25  43  74 103 148 191 243 302 365 434
#     4  11  25  44  76 104 143 194 245 301 364 437
#     4  10  23  44  73  99 142 189 248 290 369 431
#     4  10  22  48  68 108 140 200 240 294 376 426
#     4  11  27  44  72 105 147 190 247 299 368 431
#     4  10  24  48  72  98 144 192 242 294 360 448
#
# _framework density 23.197331999999999
#
# number of rings (size 3 to 8) (size 9 to 14) (size 15 to 20)
#    0.600    0.800    2.000    1.200   16.800    0.000 
#    1.800    0.000    0.000    0.000    0.000    0.000 
#    0.000    0.000    0.000    0.000    0.000    0.000 
#
# Total GULP energy -55804.228499 kJ/mol
# GULP energy per Si atom -5580.422850 kJ/mol
# Density = 2.314453 g / cm^3
# Si number density = 23.197332 Si / 1000 Ang^3
#
#
#
# Elastic Constant Matrix: (Units=GPa)
#
#
# Indices 1 2 3 4 5 6 
#
# 1 33.5673 35.5564 28.9678 -0.0068 15.3278 0.0015
# 2 35.5564 133.0266 79.6200 -0.0080 13.9626 0.0021
# 3 28.9678 79.6200 149.3409 -0.0233 32.5803 0.0102
# 4 -0.0068 -0.0080 -0.0233 31.6741 0.0076 7.7341
# 5 15.3278 13.9626 32.5803 0.0076 45.5111 -0.0021
# 6 0.0015 0.0021 0.0102 7.7341 -0.0021 25.0169
#
#
#
# Elastic Compliance Matrix: (Units=1/GPa)
#
#
# Indices 1 2 3 4 5 6 
#
# 1 0.047639 -0.011035 -0.000706 0.000011 -0.012154 -0.000006
# 2 -0.011035 0.013633 -0.005957 -0.000005 0.003798 0.000004
# 3 -0.000706 -0.005957 0.011327 0.000010 -0.006044 -0.000008
# 4 0.000011 -0.000005 0.000010 0.034149 -0.000016 -0.010557
# 5 -0.012154 0.003798 -0.006044 -0.000016 0.029227 0.000010
# 6 -0.000006 0.000004 -0.000008 -0.010557 0.000010 0.043237
#
#
# Mechanical properties :
#
#
# Convention : Reuss Voigt Hill
#
# Bulk Modulus (GPa) = 26.87868 67.13589 47.00728
# Shear Modulus (GPa) = 22.02549 31.89313 26.95931
#
# Velocity S-wave (km/s) = 3.08471 3.71194 3.41276
# Velocity P-wave (km/s) = 4.92944 6.88297 5.98643
#
# Compressibility (1/GPa) = 0.03720421
#
# Stress axis : x y z
#
# Youngs Moduli (GPa) = 20.99129 73.34911 88.28284
#
# Poissons Ratio (x) = 0.80942 0.06231
# Poissons Ratio (y) = 0.23164 0.52587
# Poissons Ratio (z) = 0.01482 0.43691
#
# Static dielectric constant tensor:
#      x y z
#    x 1.971760 0.000000 -0.010860 
#    y 0.000000 1.848810 0.000010 
#    z -0.010860 0.000010 1.888550 
# 
# From -- ./inp_files/52844.got.cif
#   From: 2010.05.17/outbox.cif.g08.bks.cpg/sg5_27_cif.got.tgz:52844.got - 2010.06.03 18:56:24.
