data_PCOD9127503
_publ_section_title
;
Structure prediction by ZEFSAII (Michael W. Deem and Ramdas Pophale) SiO2 
 PCOD9127503
Probable space group: C 2
;
_chemical_formula_sum "Si O2"
_cell_formula_units_Z 30
_cell_length_a 11.386716
_cell_length_b 8.711351
_cell_length_c 12.641790
_cell_angle_alpha 90.000000
_cell_angle_beta 82.307637
_cell_angle_gamma 90.000000
_cell_volume 1242.701115
_symmetry_space_group_name_H-M "C 2"
_symmetry_group_IT_number 5
_symmetry_cell_setting 'monoclinic'
loop_
_space_group_symop_operation_xyz
x,y,z
-x,y,-z
1/2+x,1/2+y,z
1/2-x,1/2+y,-z
loop_
_atom_site_type_symbol
_atom_site_label
_atom_site_fract_x
_atom_site_fract_y
_atom_site_fract_z
Si Si1 0.500000 0.389520 0.000000
Si Si2 0.089299 0.316388 0.566616
Si Si3 0.316055 0.996555 0.123825
Si Si4 0.911489 0.827853 0.776624
Si Si5 0.450667 0.981859 0.765984
Si Si6 0.413333 0.331322 0.422481
Si Si7 0.246373 0.848103 0.922096
Si Si8 0.240265 0.584185 0.498037
O O1 0.549312 0.318425 0.104376
O O2 0.373786 0.451935 0.058052
O O3 0.139056 0.459386 0.491732
O O4 0.199773 0.209742 0.585654
O O5 0.000000 0.230173 0.500000
O O6 0.017713 0.383811 0.670872
O O7 0.288608 0.170554 0.089412
O O8 0.208184 0.929482 0.209566
O O9 0.444934 0.998668 0.159910
O O10 0.313114 0.884551 0.023162
O O11 0.906412 0.651446 0.739760
O O12 0.016107 0.890057 0.688076
O O13 0.335343 0.895274 0.820302
O O14 0.500000 0.260817 0.500000
O O15 0.348314 0.465873 0.494418
O O16 0.317440 0.197341 0.406779
#
# Coordination Sequence:
#
# PCOD9127503 Si02
#       8
#     2   4   4   4   4   4   4   4
#     4  10  22  48  68 100 136 184 224 276 360 414
#     4  11  25  43  67 102 137 186 235 283 351 413
#     4  11  26  46  71 102 140 185 231 288 357 414
#     4  11  25  45  73 100 146 188 227 299 354 418
#     4  12  26  45  71 105 143 184 233 297 349 418
#     4  11  24  44  69 101 138 181 234 290 347 413
#     4  11  24  47  75  98 140 182 233 288 352 425
#     4  10  24  43  67  96 142 184 227 292 345 415
#
# _framework density 24.140964
#
# number of rings (size 3 to 8) (size 9 to 14) (size 15 to 20)
#    0.000    1.067    2.667    2.800    5.600    3.200 
#   14.400    0.000    0.000    0.000    0.000    0.000 
#    0.000    0.000    0.000    0.000    0.000    0.000 
#
# Total GULP energy -83585.382718 kJ/mol
# GULP energy per Si atom -5572.358848 kJ/mol
# Density = 2.408602 g / cm^3
# Si number density = 24.140964 Si / 1000 Ang^3
#
#
#
# Elastic Constant Matrix: (Units=GPa)
#
#
# Indices 1 2 3 4 5 6 
#
# 1 115.2689 54.3946 48.0185 0.0000 -24.1165 0.0000
# 2 54.3946 84.9707 9.3979 0.0000 -6.9734 0.0000
# 3 48.0185 9.3979 75.3546 0.0000 -22.7482 0.0000
# 4 0.0000 0.0000 0.0000 24.3059 0.0000 -11.7092
# 5 -24.1165 -6.9734 -22.7482 0.0000 38.6015 0.0000
# 6 0.0000 0.0000 0.0000 -11.7092 0.0000 39.2503
#
#
#
# Elastic Compliance Matrix: (Units=1/GPa)
#
#
# Indices 1 2 3 4 5 6 
#
# 1 0.018165 -0.010287 -0.009035 0.000000 0.004166 0.000000
# 2 -0.010287 0.017837 0.004091 0.000000 -0.000794 0.000000
# 3 -0.009035 0.004091 0.020724 0.000000 0.007307 0.000000
# 4 0.000000 0.000000 0.000000 0.048047 0.000000 0.014333
# 5 0.004166 -0.000794 0.007307 0.000000 0.032671 0.000000
# 6 0.000000 0.000000 0.000000 0.014333 0.000000 0.029753
#
#
# Mechanical properties :
#
#
# Convention : Reuss Voigt Hill
#
# Bulk Modulus (GPa) = 38.07556 55.46846 46.77201
# Shear Modulus (GPa) = 24.22315 31.35042 27.78679
#
# Velocity S-wave (km/s) = 3.17109 3.60757 3.39635
# Velocity P-wave (km/s) = 5.40502 6.35449 5.89889
#
# Compressibility (1/GPa) = 0.02626357
#
# Stress axis : x y z
#
# Youngs Moduli (GPa) = 55.04992 56.06412 48.25432
#
# Poissons Ratio (x) = 0.57676 0.43597
# Poissons Ratio (y) = 0.56633 -0.19743
# Poissons Ratio (z) = 0.49737 -0.22938
#
# Static dielectric constant tensor:
#      x y z
#    x 1.936000 0.000000 -0.020800 
#    y 0.000000 1.938780 0.000000 
#    z -0.020800 0.000000 1.948820 
# 
# From -- ./inp_files/52253.got.cif
#   From: 2010.05.17/outbox.cif.g08.bks.cpg/sg5_27_cif.got.tgz:52253.got - 2010.06.03 18:56:24.
