data_PCOD9127293
_publ_section_title
;
Structure prediction by ZEFSAII (Michael W. Deem and Ramdas Pophale) SiO2 
 PCOD9127293
Probable space group: C 2
;
_chemical_formula_sum "Si O2"
_cell_formula_units_Z 30
_cell_length_a 29.993318
_cell_length_b 5.000529
_cell_length_c 9.260916
_cell_angle_alpha 90.000000
_cell_angle_beta 111.333767
_cell_angle_gamma 90.000000
_cell_volume 1293.798181
_symmetry_space_group_name_H-M "C 2"
_symmetry_group_IT_number 5
_symmetry_cell_setting 'monoclinic'
loop_
_space_group_symop_operation_xyz
x,y,z
-x,y,-z
1/2+x,1/2+y,z
1/2-x,1/2+y,-z
loop_
_atom_site_type_symbol
_atom_site_label
_atom_site_fract_x
_atom_site_fract_y
_atom_site_fract_z
Si Si1 0.369447 0.622460 0.939835
Si Si2 0.335745 0.673385 0.349339
Si Si3 0.716544 0.839668 0.966268
Si Si4 0.577210 0.989962 0.463578
Si Si5 0.089725 0.875809 0.726725
Si Si6 0.000000 0.210547 0.500000
Si Si7 0.128677 0.606615 0.247453
Si Si8 0.224108 0.324411 0.478689
O O1 0.360323 0.387335 0.814766
O O2 0.392200 0.882677 0.887859
O O3 0.320840 0.734893 0.957695
O O4 0.401787 0.472182 0.099763
O O5 0.315987 0.886893 0.212741
O O6 0.358370 0.445015 0.280519
O O7 0.381859 0.766738 0.492520
O O8 0.293995 0.632992 0.412080
O O9 0.753184 0.602818 0.966363
O O10 0.580582 0.097558 0.633206
O O11 0.594160 0.159247 0.345541
O O12 0.523737 0.881046 0.398663
O O13 0.043844 0.037534 0.612503
O O14 0.178893 0.468175 0.352073
O O15 0.249576 0.084619 0.422250
#
# Coordination Sequence:
#
# PCOD9127293 Si02
#       8
#     4   4   4   4   4   2   4   4
#     4  11  26  45  68  99 145 189 226 288 364 410
#     4   9  24  39  60  90 132 170 232 277 330 393
#     4  11  25  39  61  93 133 182 239 286 327 390
#     4  10  23  44  75  99 133 177 229 284 349 422
#     4  10  23  44  75  99 133 177 229 284 349 422
#     4  10  22  44  78 106 128 164 236 280 350 418
#     4  11  26  45  68  99 145 189 226 288 364 410
#     4  11  25  39  61  93 133 182 239 286 327 390
#
# _framework density 23.187542000000001
#
# number of rings (size 3 to 8) (size 9 to 14) (size 15 to 20)
#    0.000    1.600    0.000    2.000   24.267    0.000 
#    0.000    0.667    0.000    0.000    0.000    0.000 
#    0.000    0.000    0.000    0.000    0.000    0.000 
#
# Total GULP energy -83529.774435 kJ/mol
# GULP energy per Si atom -5568.651629 kJ/mol
# Density = 2.313477 g / cm^3
# Si number density = 23.187542 Si / 1000 Ang^3
#
#
#
# Elastic Constant Matrix: (Units=GPa)
#
#
# Indices 1 2 3 4 5 6 
#
# 1 72.9785 30.1036 20.1174 0.0000 4.4617 0.0000
# 2 30.1036 85.6468 9.2242 0.0000 4.8963 0.0000
# 3 20.1174 9.2242 61.3107 0.0000 -2.0203 0.0000
# 4 0.0000 0.0000 0.0000 28.0162 0.0000 3.5867
# 5 4.4617 4.8963 -2.0203 0.0000 21.8164 0.0000
# 6 0.0000 0.0000 0.0000 3.5867 0.0000 26.8716
#
#
#
# Elastic Compliance Matrix: (Units=1/GPa)
#
#
# Indices 1 2 3 4 5 6 
#
# 1 0.017507 -0.005452 -0.005017 0.000000 -0.002821 0.000000
# 2 -0.005452 0.013744 -0.000345 0.000000 -0.002001 0.000000
# 3 -0.005017 -0.000345 0.018100 0.000000 0.002780 0.000000
# 4 0.000000 0.000000 0.000000 0.036314 0.000000 -0.004847
# 5 -0.002821 -0.002001 0.002780 0.000000 0.047121 0.000000
# 6 0.000000 0.000000 0.000000 -0.004847 0.000000 0.037861
#
#
# Mechanical properties :
#
#
# Convention : Reuss Voigt Hill
#
# Bulk Modulus (GPa) = 36.07098 37.64738 36.85918
# Shear Modulus (GPa) = 24.81200 26.04024 25.42612
#
# Velocity S-wave (km/s) = 3.27472 3.35480 3.31500
# Velocity P-wave (km/s) = 5.46703 5.59263 5.53018
#
# Compressibility (1/GPa) = 0.02772312
#
# Stress axis : x y z
#
# Youngs Moduli (GPa) = 57.11965 72.76084 55.24834
#
# Poissons Ratio (x) = 0.39668 0.27719
# Poissons Ratio (y) = 0.31141 0.01905
# Poissons Ratio (z) = 0.28658 0.02509
#
# Static dielectric constant tensor:
#      x y z
#    x 1.940260 0.000000 -0.050300 
#    y 0.000000 1.960280 0.000000 
#    z -0.050300 0.000000 2.028970 
# 
# From -- ./inp_files/32185.got.cif
#   From: 2010.05.17/outbox.cif.g08.bks.cpg/sg5_17_cif.got.tgz:32185.got - 2010.06.03 18:56:24.
