data_PCOD9127361
_publ_section_title
;
Structure prediction by ZEFSAII (Michael W. Deem and Ramdas Pophale) SiO2 
 PCOD9127361
Probable space group: C 2
;
_chemical_formula_sum "Si O2"
_cell_formula_units_Z 28
_cell_length_a 8.125769
_cell_length_b 28.972304
_cell_length_c 8.752849
_cell_angle_alpha 90.000000
_cell_angle_beta 38.188023
_cell_angle_gamma 90.000000
_cell_volume 1273.963331
_symmetry_space_group_name_H-M "C 2"
_symmetry_group_IT_number 5
_symmetry_cell_setting 'monoclinic'
loop_
_space_group_symop_operation_xyz
x,y,z
-x,y,-z
1/2+x,1/2+y,z
1/2-x,1/2+y,-z
loop_
_atom_site_type_symbol
_atom_site_label
_atom_site_fract_x
_atom_site_fract_y
_atom_site_fract_z
Si Si1 0.027738 0.759070 0.161530
Si Si2 0.500000 0.706091 0.000000
Si Si3 0.801184 0.686185 0.515532
Si Si4 0.060487 0.954107 0.275127
Si Si5 0.000000 0.526404 0.000000
Si Si6 0.322202 0.349330 0.785575
Si Si7 0.812224 0.028081 0.284320
Si Si8 0.266015 0.596380 0.572076
O O1 0.288061 0.738462 0.061757
O O2 0.048752 0.812290 0.194078
O O3 0.787641 0.728427 0.409375
O O4 0.000000 0.753723 0.000000
O O5 0.432331 0.674412 0.196705
O O6 0.901543 0.639357 0.366434
O O7 0.000000 0.704247 0.500000
O O8 0.138027 0.901818 0.185917
O O9 0.000000 0.957196 0.500000
O O10 0.828102 0.976864 0.345872
O O11 0.294381 0.990675 0.074922
O O12 0.117628 0.559425 0.784583
O O13 0.500000 0.345037 0.500000
O O14 0.000000 0.342399 0.000000
O O15 0.500000 0.039510 0.500000
O O16 0.902962 0.066541 0.339969
O O17 0.000000 0.030460 0.000000
O O18 0.500000 0.619428 0.500000
#
# Coordination Sequence:
#
# PCOD9127361 Si02
#       8
#     4   2   4   4   2   4   4   4
#     4  11  25  45  70 105 139 185 244 311 374 447
#     4  10  22  45  72  88 146 176 239 304 374 432
#     4  10  25  44  66 100 136 188 239 303 371 441
#     4  11  23  44  71 105 137 194 244 303 363 447
#     4  12  20  43  70  98 146 180 259 298 356 442
#     4  11  24  45  78 105 146 194 246 304 384 447
#     4  12  26  43  68 100 149 190 237 305 367 428
#     4  12  26  40  68  98 136 193 251 292 368 440
#
# _framework density 21.978652
#
# number of rings (size 3 to 8) (size 9 to 14) (size 15 to 20)
#    0.000    0.857    4.286    2.571    4.000    1.714 
#    0.000    0.000    0.000    0.000    0.000    0.000 
#    0.000    0.000    0.000    0.000    0.000    0.000 
#
# Total GULP energy -77973.588561 kJ/mol
# GULP energy per Si atom -5569.542040 kJ/mol
# Density = 2.192863 g / cm^3
# Si number density = 21.978652 Si / 1000 Ang^3
#
#
#
# Elastic Constant Matrix: (Units=GPa)
#
#
# Indices 1 2 3 4 5 6 
#
# 1 84.0537 29.6513 40.1631 0.0000 21.5800 0.0000
# 2 29.6513 134.6429 58.8616 0.0000 28.8669 0.0000
# 3 40.1631 58.8616 112.8644 0.0000 27.1879 0.0000
# 4 0.0000 0.0000 0.0000 23.7209 0.0000 0.8082
# 5 21.5800 28.8669 27.1879 0.0000 35.0162 0.0000
# 6 0.0000 0.0000 0.0000 0.8082 0.0000 26.5495
#
#
#
# Elastic Compliance Matrix: (Units=1/GPa)
#
#
# Indices 1 2 3 4 5 6 
#
# 1 0.015452 -0.000411 -0.003779 0.000000 -0.006250 0.000000
# 2 -0.000411 0.010388 -0.004022 0.000000 -0.005188 0.000000
# 3 -0.003779 -0.004022 0.013460 0.000000 -0.004807 0.000000
# 4 0.000000 0.000000 0.000000 0.042201 0.000000 -0.001285
# 5 -0.006250 -0.005188 -0.004807 0.000000 0.040419 0.000000
# 6 0.000000 0.000000 0.000000 -0.001285 0.000000 0.037705
#
#
# Mechanical properties :
#
#
# Convention : Reuss Voigt Hill
#
# Bulk Modulus (GPa) = 43.71062 65.43478 54.57270
# Shear Modulus (GPa) = 27.22219 30.58299 28.90259
#
# Velocity S-wave (km/s) = 3.52316 3.73431 3.63027
# Velocity P-wave (km/s) = 6.03996 6.95917 6.51579
#
# Compressibility (1/GPa) = 0.02287774
#
# Stress axis : x y z
#
# Youngs Moduli (GPa) = 64.71457 96.26549 74.29317
#
# Poissons Ratio (x) = 0.03956 0.28074
# Poissons Ratio (y) = 0.02659 0.29878
# Poissons Ratio (z) = 0.24455 0.38714
#
# Static dielectric constant tensor:
#      x y z
#    x 1.968770 0.000000 -0.264040 
#    y 0.000000 1.781440 0.000000 
#    z -0.264040 0.000000 2.690170 
# 
# From -- ./inp_files/17639.got.cif
#   From: 2010.05.17/outbox.cif.g08.bks.cpg/sg5_9_cif.got.tgz:17639.got - 2010.06.03 18:56:24.
