data_PCOD9127766
_publ_section_title
;
Structure prediction by ZEFSAII (Michael W. Deem and Ramdas Pophale) SiO2 
 PCOD9127766
Probable space group: C 2
;
_chemical_formula_sum "Si O2"
_cell_formula_units_Z 28
_cell_length_a 12.500515
_cell_length_b 7.020716
_cell_length_c 13.976128
_cell_angle_alpha 90.000000
_cell_angle_beta 64.624063
_cell_angle_gamma 90.000000
_cell_volume 1108.234636
_symmetry_space_group_name_H-M "C 2"
_symmetry_group_IT_number 5
_symmetry_cell_setting 'monoclinic'
loop_
_space_group_symop_operation_xyz
x,y,z
-x,y,-z
1/2+x,1/2+y,z
1/2-x,1/2+y,-z
loop_
_atom_site_type_symbol
_atom_site_label
_atom_site_fract_x
_atom_site_fract_y
_atom_site_fract_z
Si Si1 0.764088 0.437400 0.925318
Si Si2 0.773749 0.060946 0.256228
Si Si3 0.921041 0.466898 0.439422
Si Si4 0.798045 0.117794 0.698857
Si Si5 0.180596 0.827032 0.462878
Si Si6 0.364800 0.077733 0.073994
Si Si7 0.984391 0.217037 0.767249
O O1 0.762130 0.593605 0.840933
O O2 0.653987 0.303524 0.939259
O O3 0.885693 0.319133 0.867732
O O4 0.772999 0.499243 0.030378
O O5 0.733459 0.842387 0.290222
O O6 0.711958 0.190593 0.360372
O O7 0.911809 0.105561 0.220051
O O8 0.911383 0.697446 0.444335
O O9 0.789380 0.379757 0.489604
O O10 0.000000 0.411457 0.500000
O O11 0.968383 0.380714 0.322847
O O12 0.836660 0.025271 0.584819
O O13 0.683625 0.034010 0.800719
O O14 0.909327 0.083841 0.725285
O O15 0.500000 0.024939 0.000000
#
# Coordination Sequence:
#
# PCOD9127766 Si02
#       7
#     4   4   4   4   4   4   4
#     4  10  23  42  66 105 141 177 238 290 336 431
#     4   9  21  44  66  97 141 182 224 291 346 409
#     4  11  25  46  69 101 136 181 235 290 351 414
#     4  10  24  46  68 105 143 181 241 287 339 431
#     4  11  26  44  73 101 135 186 231 294 354 415
#     4  10  24  40  67 103 138 183 232 285 346 419
#     4   9  21  44  74  97 143 185 230 295 351 415
#
# _framework density 25.265405999999999
#
# number of rings (size 3 to 8) (size 9 to 14) (size 15 to 20)
#    0.000    2.286    0.000    1.714   10.000    5.714 
#    2.571    0.000    0.000    0.000    0.000    0.000 
#    0.000    0.000    0.000    0.000    0.000    0.000 
#
# Total GULP energy -78199.838306 kJ/mol
# GULP energy per Si atom -5585.702736 kJ/mol
# Density = 2.520790 g / cm^3
# Si number density = 25.265406 Si / 1000 Ang^3
#
#
#
# Elastic Constant Matrix: (Units=GPa)
#
#
# Indices 1 2 3 4 5 6 
#
# 1 135.9517 28.1554 22.1104 0.0000 8.7135 0.0000
# 2 28.1554 86.5857 24.5211 0.0000 13.5074 0.0000
# 3 22.1104 24.5211 66.3929 0.0000 13.0139 0.0000
# 4 0.0000 0.0000 0.0000 39.8702 0.0000 13.4570
# 5 8.7135 13.5074 13.0139 0.0000 39.9924 0.0000
# 6 0.0000 0.0000 0.0000 13.4570 0.0000 32.0278
#
#
#
# Elastic Compliance Matrix: (Units=1/GPa)
#
#
# Indices 1 2 3 4 5 6 
#
# 1 0.008110 -0.002038 -0.001855 0.000000 -0.000475 0.000000
# 2 -0.002038 0.013756 -0.003822 0.000000 -0.002958 0.000000
# 3 -0.001855 -0.003822 0.017901 0.000000 -0.004130 0.000000
# 4 0.000000 0.000000 0.000000 0.029226 0.000000 -0.012280
# 5 -0.000475 -0.002958 -0.004130 0.000000 0.027451 0.000000
# 6 0.000000 0.000000 0.000000 -0.012280 0.000000 0.036382
#
#
# Mechanical properties :
#
#
# Convention : Reuss Voigt Hill
#
# Bulk Modulus (GPa) = 41.08991 48.72269 44.90630
# Shear Modulus (GPa) = 31.97591 36.65429 34.31510
#
# Velocity S-wave (km/s) = 3.56139 3.81303 3.68935
# Velocity P-wave (km/s) = 5.76281 6.22188 5.99674
#
# Compressibility (1/GPa) = 0.02433687
#
# Stress axis : x y z
#
# Youngs Moduli (GPa) = 123.30940 72.69699 55.86358
#
# Poissons Ratio (x) = 0.14813 0.10363
# Poissons Ratio (y) = 0.25125 0.21351
# Poissons Ratio (z) = 0.22874 0.27785
#
# Static dielectric constant tensor:
#      x y z
#    x 1.995360 0.000000 -0.041970 
#    y 0.000000 2.095340 0.000000 
#    z -0.041970 0.000000 2.085290 
# 
# From -- ./inp_files/52231.got.cif
#   From: 2010.05.17/outbox.cif.g08.bks.cpg/sg5_27_cif.got.tgz:52231.got - 2010.06.03 18:56:24.
