data_PCOD9127999
_publ_section_title
;
Structure prediction by ZEFSAII (Michael W. Deem and Ramdas Pophale) SiO2 
 PCOD9127999
Probable space group: C 2
;
_chemical_formula_sum "Si O2"
_cell_formula_units_Z 16
_cell_length_a 7.826168
_cell_length_b 18.114036
_cell_length_c 5.629379
_cell_angle_alpha 90.000000
_cell_angle_beta 113.874964
_cell_angle_gamma 90.000000
_cell_volume 729.752807
_symmetry_space_group_name_H-M "C 2"
_symmetry_group_IT_number 5
_symmetry_cell_setting 'monoclinic'
loop_
_space_group_symop_operation_xyz
x,y,z
-x,y,-z
1/2+x,1/2+y,z
1/2-x,1/2+y,-z
loop_
_atom_site_type_symbol
_atom_site_label
_atom_site_fract_x
_atom_site_fract_y
_atom_site_fract_z
Si Si1 0.500000 0.882520 0.000000
Si Si2 0.799730 0.480274 0.514503
Si Si3 0.601276 0.741688 0.812043
Si Si4 0.785214 0.596099 0.849666
Si Si5 0.500000 0.500365 0.000000
O O1 0.651068 0.929233 0.232219
O O2 0.388237 0.828266 0.117432
O O3 0.738048 0.562078 0.565986
O O4 0.000000 0.485060 0.500000
O O5 0.628233 0.454693 0.255582
O O6 0.500000 0.736940 0.500000
O O7 0.765578 0.683197 0.871737
O O8 0.500000 0.715027 0.000000
O O9 0.650507 0.552021 0.950896
O O10 0.000000 0.575285 0.000000
#
# Coordination Sequence:
#
# PCOD9127999 Si02
#       5
#     2   4   4   4   2
#     4  10  23  46  76 104 157 208 244 312 387 458
#     4  12  23  43  77 114 150 198 254 321 385 449
#     4  10  23  44  76 101 152 204 242 309 388 442
#     4  12  24  43  75 115 146 195 256 320 376 453
#     4  12  23  42  70 118 147 190 252 326 379 438
#
# _framework density 21.925234
#
# number of rings (size 3 to 8) (size 9 to 14) (size 15 to 20)
#    0.750    0.000    5.000    3.000    0.000    0.000 
#    0.000    0.000   41.250    0.000    0.000    0.000 
#    0.000    0.000    0.000    0.000    0.000    0.000 
#
# Total GULP energy -44570.729605 kJ/mol
# GULP energy per Si atom -5571.341201 kJ/mol
# Density = 2.187533 g / cm^3
# Si number density = 21.925234 Si / 1000 Ang^3
#
#
#
# Elastic Constant Matrix: (Units=GPa)
#
#
# Indices 1 2 3 4 5 6 
#
# 1 122.0640 37.8389 57.5734 0.0000 7.0117 0.0000
# 2 37.8389 104.6983 42.9976 0.0000 10.0347 0.0000
# 3 57.5734 42.9976 165.1848 0.0000 17.6146 0.0000
# 4 0.0000 0.0000 0.0000 -3.0057 0.0000 2.0556
# 5 7.0117 10.0347 17.6146 0.0000 36.4385 0.0000
# 6 0.0000 0.0000 0.0000 2.0556 0.0000 34.4123
#
#
#
# Elastic Compliance Matrix: (Units=1/GPa)
#
#
# Indices 1 2 3 4 5 6 
#
# 1 0.010373 -0.002543 -0.002968 0.000000 0.000139 0.000000
# 2 -0.002543 0.011417 -0.001900 0.000000 -0.001736 0.000000
# 3 -0.002968 -0.001900 0.007872 0.000000 -0.002711 0.000000
# 4 0.000000 0.000000 0.000000 -0.319638 0.000000 0.019093
# 5 0.000139 -0.001736 -0.002711 0.000000 0.029205 0.000000
# 6 0.000000 0.000000 0.000000 0.019093 0.000000 0.027919
#
#
# Mechanical properties :
#
#
# Convention : Reuss Voigt Hill
#
# Bulk Modulus (GPa) = 67.39160 74.30743 70.84952
# Shear Modulus (GPa) = -23.46511 30.47150 3.50319
#
# Velocity S-wave (km/s) = -3.27499 3.73203 1.26541
# Velocity P-wave (km/s) = 4.06239 7.24815 5.87531
#
# Compressibility (1/GPa) = 0.01483864
#
# Stress axis : x y z
#
# Youngs Moduli (GPa) = 96.40614 87.58698 127.03094
#
# Poissons Ratio (x) = 0.22275 0.37705
# Poissons Ratio (y) = 0.24518 0.24141
# Poissons Ratio (z) = 0.28615 0.16645
#
# Static dielectric constant tensor:
#      x y z
#    x 1.792920 0.000000 -0.058230 
#    y 0.000000 1.810080 0.000000 
#    z -0.058230 0.000000 1.961210 
# 
# From -- ./inp_files/2498.got.cif
#   From: 2010.05.17/outbox.cif.g08.bks.cpg/sg5_2_cif.got.tgz:2498.got - 2010.06.03 18:56:24.
