data_PCOD9127592
_publ_section_title
;
Structure prediction by ZEFSAII (Michael W. Deem and Ramdas Pophale) SiO2 
 PCOD9127592
Probable space group: C 2
;
_chemical_formula_sum "Si O2"
_cell_formula_units_Z 28
_cell_length_a 27.374527
_cell_length_b 5.519593
_cell_length_c 8.942218
_cell_angle_alpha 90.000000
_cell_angle_beta 56.943017
_cell_angle_gamma 90.000000
_cell_volume 1132.425224
_symmetry_space_group_name_H-M "C 2"
_symmetry_group_IT_number 5
_symmetry_cell_setting 'monoclinic'
loop_
_space_group_symop_operation_xyz
x,y,z
-x,y,-z
1/2+x,1/2+y,z
1/2-x,1/2+y,-z
loop_
_atom_site_type_symbol
_atom_site_label
_atom_site_fract_x
_atom_site_fract_y
_atom_site_fract_z
Si Si1 0.818243 0.199740 0.847193
Si Si2 0.895159 0.123921 0.280509
Si Si3 0.038442 0.779263 0.053815
Si Si4 0.507136 0.653339 0.665433
Si Si5 0.701917 0.201289 0.204523
Si Si6 0.608733 0.886724 0.002279
Si Si7 0.273141 0.381154 0.524195
O O1 0.826206 0.436582 0.730853
O O2 0.849134 0.271481 0.948691
O O3 0.838228 0.934135 0.762237
O O4 0.748701 0.172248 0.992073
O O5 0.841530 0.948845 0.403124
O O6 0.930612 0.216812 0.364842
O O7 0.940619 0.980468 0.099616
O O8 0.874633 0.322977 0.195205
O O9 0.004482 0.881043 0.253289
O O10 0.098613 0.671983 0.016431
O O11 0.000000 0.619397 0.000000
O O12 0.500000 0.674775 0.500000
O O13 0.455619 0.803379 0.832205
O O14 0.736283 0.276569 0.294886
O O15 0.243472 0.646433 0.548861
#
# Coordination Sequence:
#
# PCOD9127592 Si02
#       7
#     4   4   4   4   4   4   4
#     4  10  23  39  70  90 137 179 225 289 341 413
#     4  10  24  41  67  94 140 181 227 297 336 419
#     4   9  20  40  63  92 126 172 224 277 340 416
#     4  10  23  42  64 101 137 173 228 286 357 417
#     4  10  23  44  60 101 134 177 233 286 344 403
#     4  11  22  39  69  96 128 183 233 277 351 419
#     4  12  27  45  71 103 140 188 238 289 350 418
#
# _framework density 24.725693
#
# number of rings (size 3 to 8) (size 9 to 14) (size 15 to 20)
#    0.000    1.714    0.000    3.857   10.000    1.714 
#    0.000    0.000    0.000    0.000    0.000    0.000 
#    0.000    0.000    0.000    0.000    0.000    0.000 
#
# Total GULP energy -78079.146727 kJ/mol
# GULP energy per Si atom -5577.081909 kJ/mol
# Density = 2.466942 g / cm^3
# Si number density = 24.725693 Si / 1000 Ang^3
#
#
#
# Elastic Constant Matrix: (Units=GPa)
#
#
# Indices 1 2 3 4 5 6 
#
# 1 99.8502 20.5042 27.2958 0.0000 9.7732 0.0000
# 2 20.5042 77.9903 14.1502 0.0000 -1.0879 0.0000
# 3 27.2958 14.1502 90.7106 0.0000 7.0174 0.0000
# 4 0.0000 0.0000 0.0000 25.2506 0.0000 3.5398
# 5 9.7732 -1.0879 7.0174 0.0000 44.0433 0.0000
# 6 0.0000 0.0000 0.0000 3.5398 0.0000 38.8662
#
#
#
# Elastic Compliance Matrix: (Units=1/GPa)
#
#
# Indices 1 2 3 4 5 6 
#
# 1 0.011543 -0.002537 -0.002911 0.000000 -0.002160 0.000000
# 2 -0.002537 0.013772 -0.001473 0.000000 0.001138 0.000000
# 3 -0.002911 -0.001473 0.012233 0.000000 -0.001340 0.000000
# 4 0.000000 0.000000 0.000000 0.040115 0.000000 -0.003654
# 5 -0.002160 0.001138 -0.001340 0.000000 0.023426 0.000000
# 6 0.000000 0.000000 0.000000 -0.003654 0.000000 0.026062
#
#
# Mechanical properties :
#
#
# Convention : Reuss Voigt Hill
#
# Bulk Modulus (GPa) = 42.18036 43.60572 42.89304
# Shear Modulus (GPa) = 33.58070 35.40542 34.49306
#
# Velocity S-wave (km/s) = 3.68928 3.78819 3.73906
# Velocity P-wave (km/s) = 5.93667 6.06695 6.00216
#
# Compressibility (1/GPa) = 0.02370772
#
# Stress axis : x y z
#
# Youngs Moduli (GPa) = 86.63234 72.61014 81.74404
#
# Poissons Ratio (x) = 0.18420 0.23792
# Poissons Ratio (y) = 0.21977 0.12041
# Poissons Ratio (z) = 0.25215 0.10696
#
# Static dielectric constant tensor:
#      x y z
#    x 2.169350 0.000000 0.004900 
#    y 0.000000 2.185280 0.000000 
#    z 0.004900 0.000000 1.946120 
# 
# From -- ./inp_files/32222.got.cif
#   From: 2010.05.17/outbox.cif.g08.bks.cpg/sg5_17_cif.got.tgz:32222.got - 2010.06.03 18:56:24.
