data_PCOD9127041
_publ_section_title
;
Structure prediction by ZEFSAII (Michael W. Deem and Ramdas Pophale) SiO2 
 PCOD9127041
Probable space group: C 2
;
_chemical_formula_sum "Si O2"
_cell_formula_units_Z 32
_cell_length_a 8.630521
_cell_length_b 11.058230
_cell_length_c 14.435939
_cell_angle_alpha 90.000000
_cell_angle_beta 85.127195
_cell_angle_gamma 90.000000
_cell_volume 1372.761745
_symmetry_space_group_name_H-M "C 2"
_symmetry_group_IT_number 5
_symmetry_cell_setting 'monoclinic'
loop_
_space_group_symop_operation_xyz
x,y,z
-x,y,-z
1/2+x,1/2+y,z
1/2-x,1/2+y,-z
loop_
_atom_site_type_symbol
_atom_site_label
_atom_site_fract_x
_atom_site_fract_y
_atom_site_fract_z
Si Si1 0.652507 0.478880 0.043552
Si Si2 0.185636 0.090801 0.509564
Si Si3 0.920971 0.638978 0.093552
Si Si4 0.086281 0.242909 0.757223
Si Si5 0.635777 0.487232 0.706797
Si Si6 0.932336 0.806108 0.782818
Si Si7 0.641431 0.914424 0.133634
Si Si8 0.146810 0.359248 0.558207
O O1 0.756765 0.589141 0.072345
O O2 0.608772 0.399616 0.133755
O O3 0.500000 0.523906 0.000000
O O4 0.749625 0.402619 0.961906
O O5 0.215469 0.032486 0.609385
O O6 0.229896 0.234719 0.513673
O O7 0.000000 0.092641 0.500000
O O8 0.262293 0.987461 0.440909
O O9 0.934987 0.720975 0.182025
O O10 0.029162 0.524929 0.112467
O O11 0.000000 0.700014 0.000000
O O12 0.040972 0.104954 0.744546
O O13 0.270091 0.241092 0.772315
O O14 0.084333 0.318182 0.661890
O O15 0.974322 0.306398 0.835598
O O16 0.512655 0.379993 0.696735
O O17 0.753964 0.448001 0.782061
O O18 0.000000 0.380833 0.500000
#
# Coordination Sequence:
#
# PCOD9127041 Si02
#       8
#     4   4   4   4   4   4   4   4
#     4  11  23  44  66  93 132 176 226 274 334 394
#     4  10  22  43  67  97 135 171 219 277 334 406
#     4  10  23  41  65  87 130 170 214 279 320 387
#     4  11  24  43  67  95 136 173 214 281 330 390
#     4  11  24  42  64  97 131 168 222 273 329 400
#     4  12  23  43  65  94 131 172 221 272 329 388
#     4  11  22  44  63  95 129 171 222 265 335 388
#     4  10  22  43  68  99 137 174 220 273 335 406
#
# _framework density 23.310673999999999
#
# number of rings (size 3 to 8) (size 9 to 14) (size 15 to 20)
#    0.000    1.250    3.750    1.875    0.000    1.500 
#    4.500    1.250    0.000    0.000    0.000    0.000 
#    0.000    0.000    0.000    0.000    0.000    0.000 
#
# Total GULP energy -89445.834709 kJ/mol
# GULP energy per Si atom -5590.364669 kJ/mol
# Density = 2.325762 g / cm^3
# Si number density = 23.310674 Si / 1000 Ang^3
#
#
#
# Elastic Constant Matrix: (Units=GPa)
#
#
# Indices 1 2 3 4 5 6 
#
# 1 76.2516 22.7965 10.8620 0.0000 3.9945 0.0000
# 2 22.7965 85.1863 -6.1821 0.0000 -21.8155 0.0000
# 3 10.8620 -6.1821 42.2374 0.0000 8.5125 0.0000
# 4 0.0000 0.0000 0.0000 29.0208 0.0000 -5.2090
# 5 3.9945 -21.8155 8.5125 0.0000 25.8627 0.0000
# 6 0.0000 0.0000 0.0000 -5.2090 0.0000 33.6989
#
#
#
# Elastic Compliance Matrix: (Units=1/GPa)
#
#
# Indices 1 2 3 4 5 6 
#
# 1 0.015809 -0.006139 -0.003672 0.000000 -0.006411 0.000000
# 2 -0.006139 0.017363 0.001047 0.000000 0.015249 0.000000
# 3 -0.003672 0.001047 0.026220 0.000000 -0.007180 0.000000
# 4 0.000000 0.000000 0.000000 0.035441 0.000000 0.005478
# 5 -0.006411 0.015249 -0.007180 0.000000 0.054882 0.000000
# 6 0.000000 0.000000 0.000000 0.005478 0.000000 0.030521
#
#
# Mechanical properties :
#
#
# Convention : Reuss Voigt Hill
#
# Bulk Modulus (GPa) = 23.88695 28.73646 26.31170
# Shear Modulus (GPa) = 23.61613 29.46308 26.53961
#
# Velocity S-wave (km/s) = 3.18638 3.55904 3.37785
# Velocity P-wave (km/s) = 4.87922 5.40771 5.15025
#
# Compressibility (1/GPa) = 0.04186387
#
# Stress axis : x y z
#
# Youngs Moduli (GPa) = 63.25635 57.59372 38.13845
#
# Poissons Ratio (x) = 0.35356 0.14004
# Poissons Ratio (y) = 0.38832 -0.03992
# Poissons Ratio (z) = 0.23227 -0.06028
#
# Static dielectric constant tensor:
#      x y z
#    x 1.881980 0.000000 -0.019290 
#    y 0.000000 1.901940 0.000000 
#    z -0.019290 0.000000 1.908160 
# 
# From -- ./inp_files/50509.got.cif
#   From: 2010.05.17/outbox.cif.g08.bks.cpg/sg5_26_cif.got.tgz:50509.got - 2010.06.03 18:56:24.
