data_PCOD9127666
_publ_section_title
;
Structure prediction by ZEFSAII (Michael W. Deem and Ramdas Pophale) SiO2 
 PCOD9127666
Probable space group: C 2
;
_chemical_formula_sum "Si O2"
_cell_formula_units_Z 20
_cell_length_a 9.097104
_cell_length_b 5.153741
_cell_length_c 17.429066
_cell_angle_alpha 90.000000
_cell_angle_beta 98.618921
_cell_angle_gamma 90.000000
_cell_volume 807.918306
_symmetry_space_group_name_H-M "C 2"
_symmetry_group_IT_number 5
_symmetry_cell_setting 'monoclinic'
loop_
_space_group_symop_operation_xyz
x,y,z
-x,y,-z
1/2+x,1/2+y,z
1/2-x,1/2+y,-z
loop_
_atom_site_type_symbol
_atom_site_label
_atom_site_fract_x
_atom_site_fract_y
_atom_site_fract_z
Si Si1 0.158147 0.917670 0.970737
Si Si2 0.624830 0.806849 0.268484
Si Si3 0.712953 0.365297 0.446139
Si Si4 0.436223 0.311408 0.209462
Si Si5 0.508310 0.983189 0.591395
O O1 0.128096 0.837100 0.880938
O O2 0.250829 0.685256 0.017042
O O3 0.000000 0.950716 0.000000
O O4 0.550518 0.544350 0.233135
O O5 0.794306 0.829875 0.254861
O O6 0.595419 0.836077 0.357410
O O7 0.526093 0.045130 0.227923
O O8 0.732392 0.600742 0.506620
O O9 0.819489 0.418664 0.382190
O O10 0.453733 0.281621 0.589566
O O11 0.500000 0.918801 0.500000
#
# Coordination Sequence:
#
# PCOD9127666 Si02
#       5
#     4   4   4   4   4
#     4  12  24  44  74 105 136 176 220 270 324 398
#     4  12  26  44  68  96 139 182 220 279 338 392
#     4  10  23  41  64  92 125 163 219 291 340 386
#     4  12  26  47  68 103 139 176 220 270 338 404
#     4  10  24  42  66  94 128 175 233 280 330 390
#
# _framework density 24.754978999999999
#
# number of rings (size 3 to 8) (size 9 to 14) (size 15 to 20)
#    0.000    0.800    0.000    6.600    0.000   20.000 
#    0.000    0.000    0.000    0.000    0.000    0.000 
#    0.000    0.000    0.000    0.000    0.000    0.000 
#
# Total GULP energy -56023.557480 kJ/mol
# GULP energy per Si atom -5602.355748 kJ/mol
# Density = 2.469864 g / cm^3
# Si number density = 24.754979 Si / 1000 Ang^3
#
#
#
# Elastic Constant Matrix: (Units=GPa)
#
#
# Indices 1 2 3 4 5 6 
#
# 1 169.9513 45.3656 -7.7791 0.0000 -22.0697 0.0000
# 2 45.3656 122.3214 -14.8672 0.0000 4.3313 0.0000
# 3 -7.7791 -14.8672 89.0263 0.0000 2.3267 0.0000
# 4 0.0000 0.0000 0.0000 34.6800 0.0000 9.2810
# 5 -22.0697 4.3313 2.3267 0.0000 40.6294 0.0000
# 6 0.0000 0.0000 0.0000 9.2810 0.0000 38.3864
#
#
#
# Elastic Compliance Matrix: (Units=1/GPa)
#
#
# Indices 1 2 3 4 5 6 
#
# 1 0.007180 -0.002806 0.000049 0.000000 0.004196 0.000000
# 2 -0.002806 0.009479 0.001406 0.000000 -0.002615 0.000000
# 3 0.000049 0.001406 0.011492 0.000000 -0.000781 0.000000
# 4 0.000000 0.000000 0.000000 0.030830 0.000000 -0.007454
# 5 0.004196 -0.002615 -0.000781 0.000000 0.027216 0.000000
# 6 0.000000 0.000000 0.000000 -0.007454 0.000000 0.027853
#
#
# Mechanical properties :
#
#
# Convention : Reuss Voigt Hill
#
# Bulk Modulus (GPa) = 39.29079 47.41530 43.35304
# Shear Modulus (GPa) = 39.92516 46.64446 43.28481
#
# Velocity S-wave (km/s) = 4.02034 4.34550 4.18608
# Velocity P-wave (km/s) = 6.12023 6.66132 6.39650
#
# Compressibility (1/GPa) = 0.02545126
#
# Stress axis : x y z
#
# Youngs Moduli (GPa) = 139.27318 105.49437 87.01568
#
# Poissons Ratio (x) = 0.29597 -0.00428
# Poissons Ratio (y) = 0.39073 -0.12236
# Poissons Ratio (z) = -0.00685 -0.14835
#
# Static dielectric constant tensor:
#      x y z
#    x 2.168990 0.000000 0.085520 
#    y 0.000000 1.980430 0.000000 
#    z 0.085520 0.000000 1.998560 
# 
# From -- ./inp_files/59156.got.cif
#   From: 2010.05.17/outbox.cif.g08.bks.cpg/sg5_30_cif.got.tgz:59156.got - 2010.06.03 18:56:24.
