data_PCOD9127221
_publ_section_title
;
Structure prediction by ZEFSAII (Michael W. Deem and Ramdas Pophale) SiO2 
 PCOD9127221
Probable space group: C 2
;
_chemical_formula_sum "Si O2"
_cell_formula_units_Z 24
_cell_length_a 11.538003
_cell_length_b 8.005641
_cell_length_c 22.808376
_cell_angle_alpha 90.000000
_cell_angle_beta 153.144316
_cell_angle_gamma 90.000000
_cell_volume 951.731160
_symmetry_space_group_name_H-M "C 2"
_symmetry_group_IT_number 5
_symmetry_cell_setting 'monoclinic'
loop_
_space_group_symop_operation_xyz
x,y,z
-x,y,-z
1/2+x,1/2+y,z
1/2-x,1/2+y,-z
loop_
_atom_site_type_symbol
_atom_site_label
_atom_site_fract_x
_atom_site_fract_y
_atom_site_fract_z
Si Si1 0.157830 0.688810 0.129836
Si Si2 0.458324 0.816602 0.417222
Si Si3 0.893690 0.234996 0.740042
Si Si4 0.946585 0.078667 0.887733
Si Si5 0.481665 0.104457 0.172474
Si Si6 0.036914 0.637708 0.381110
O O1 0.460702 0.668693 0.251561
O O2 0.078239 0.579037 0.148885
O O3 0.079308 0.880807 0.111503
O O4 0.000000 0.650152 0.000000
O O5 0.500000 0.893927 0.500000
O O6 0.178249 0.739356 0.285675
O O7 0.509310 0.948661 0.389639
O O8 0.678628 0.680036 0.507972
O O9 0.986205 0.424851 0.784072
O O10 0.592519 0.233295 0.621390
O O11 0.000567 0.126637 0.843775
O O12 0.663121 0.159540 0.763124
O O13 0.182396 0.146813 0.031623
#
# Coordination Sequence:
#
# PCOD9127221 Si02
#       6
#     4   4   4   4   4   4
#     4  12  21  41  71 102 141 186 223 291 366 403
#     4  12  28  48  73 101 146 193 233 288 359 417
#     4  10  24  41  70 101 138 181 231 288 362 398
#     4  10  22  44  70 105 141 175 241 297 338 427
#     4  12  22  42  73 105 141 179 237 296 342 433
#     4  10  25  50  66 103 143 178 246 289 336 433
#
# _framework density 25.217203000000001
#
# number of rings (size 3 to 8) (size 9 to 14) (size 15 to 20)
#    1.000    0.000    5.000    1.000    2.333    2.667 
#    0.000    3.333    0.000    0.000    0.000    0.000 
#    0.000    0.000    0.000    0.000    0.000    0.000 
#
# Total GULP energy -67047.196477 kJ/mol
# GULP energy per Si atom -5587.266373 kJ/mol
# Density = 2.515981 g / cm^3
# Si number density = 25.217203 Si / 1000 Ang^3
#
#
#
# Elastic Constant Matrix: (Units=GPa)
#
#
# Indices 1 2 3 4 5 6 
#
# 1 97.5031 4.4879 21.4647 -0.0002 21.1609 -0.0001
# 2 4.4879 43.8875 25.7643 -0.0001 11.9367 0.0000
# 3 21.4647 25.7643 122.2469 0.0033 16.8566 0.0005
# 4 -0.0002 -0.0001 0.0033 24.3592 0.0004 0.7747
# 5 21.1609 11.9367 16.8566 0.0004 37.7287 0.0000
# 6 -0.0001 0.0000 0.0005 0.7747 0.0000 33.0475
#
#
#
# Elastic Compliance Matrix: (Units=1/GPa)
#
#
# Indices 1 2 3 4 5 6 
#
# 1 0.011925 0.001421 -0.001502 0.000000 -0.006467 0.000000
# 2 0.001421 0.027588 -0.005062 0.000001 -0.007263 0.000000
# 3 -0.001502 -0.005062 0.009776 -0.000001 -0.001924 0.000000
# 4 0.000000 0.000001 -0.000001 0.041083 0.000000 -0.000963
# 5 -0.006467 -0.007263 -0.001924 0.000000 0.033290 0.000000
# 6 0.000000 0.000000 0.000000 -0.000963 0.000000 0.030282
#
#
# Mechanical properties :
#
#
# Convention : Reuss Voigt Hill
#
# Bulk Modulus (GPa) = 25.63921 40.78571 33.21246
# Shear Modulus (GPa) = 28.21201 33.15512 30.68356
#
# Velocity S-wave (km/s) = 3.34842 3.62993 3.49201
# Velocity P-wave (km/s) = 5.01384 5.81183 5.42752
#
# Compressibility (1/GPa) = 0.03900276
#
# Stress axis : x y z
#
# Youngs Moduli (GPa) = 83.85919 36.24826 102.29119
#
# Poissons Ratio (x) = -0.05151 0.15360
# Poissons Ratio (y) = -0.11916 0.51782
# Poissons Ratio (z) = 0.12592 0.18350
#
# Static dielectric constant tensor:
#      x y z
#    x 2.043200 0.000000 -0.001240 
#    y 0.000000 1.937560 0.000000 
#    z -0.001240 0.000000 2.071350 
# 
# From -- ./inp_files/68308.got.cif
#   From: 2010.05.17/outbox.cif.g08.bks.cpg/sg5_35_cif.got.tgz:68308.got - 2010.06.03 18:56:24.
