data_PCOD9127590
_publ_section_title
;
Structure prediction by ZEFSAII (Michael W. Deem and Ramdas Pophale) SiO2 
 PCOD9127590
Probable space group: C 2
;
_chemical_formula_sum "Si O2"
_cell_formula_units_Z 20
_cell_length_a 5.002588
_cell_length_b 18.443795
_cell_length_c 8.965348
_cell_angle_alpha 90.000000
_cell_angle_beta 80.927949
_cell_angle_gamma 90.000000
_cell_volume 816.855525
_symmetry_space_group_name_H-M "C 2"
_symmetry_group_IT_number 5
_symmetry_cell_setting 'monoclinic'
loop_
_space_group_symop_operation_xyz
x,y,z
-x,y,-z
1/2+x,1/2+y,z
1/2-x,1/2+y,-z
loop_
_atom_site_type_symbol
_atom_site_label
_atom_site_fract_x
_atom_site_fract_y
_atom_site_fract_z
Si Si1 0.702534 0.443010 0.845216
Si Si2 0.743838 0.896957 0.691338
Si Si3 0.449795 0.048973 0.343802
Si Si4 0.420211 0.185264 0.179422
Si Si5 0.902342 0.241010 0.349759
O O1 0.531816 0.396407 0.743277
O O2 0.781559 0.519721 0.763331
O O3 0.997884 0.406471 0.832962
O O4 0.500000 0.452141 0.000000
O O5 0.712695 0.974086 0.611600
O O6 0.695080 0.822956 0.611016
O O7 0.500000 0.082709 0.500000
O O8 0.321287 0.105865 0.242328
O O9 0.171897 0.238992 0.226883
O O10 0.666269 0.204854 0.270682
O O11 0.500000 0.184848 0.000000
O O12 0.000000 0.208463 0.500000
#
# Coordination Sequence:
#
# PCOD9127590 Si02
#       5
#     4   4   4   4   4
#     4  10  23  39  68 103 139 183 226 296 349 426
#     4  10  24  42  74 101 140 177 243 287 363 415
#     4  10  25  46  71 105 139 188 239 299 352 429
#     4  12  29  47  73 106 150 192 244 296 369 432
#     4  12  26  50  75 106 144 195 243 301 359 437
#
# _framework density 24.484135999999999
#
# number of rings (size 3 to 8) (size 9 to 14) (size 15 to 20)
#    1.200    0.000    0.000    4.800    5.600    5.600 
#    0.000    0.000    0.000    0.000    0.000    0.000 
#    0.000    0.000    0.000    0.000    0.000    0.000 
#
# Total GULP energy -55840.694133 kJ/mol
# GULP energy per Si atom -5584.069413 kJ/mol
# Density = 2.442841 g / cm^3
# Si number density = 24.484136 Si / 1000 Ang^3
#
#
#
# Elastic Constant Matrix: (Units=GPa)
#
#
# Indices 1 2 3 4 5 6 
#
# 1 96.0752 30.3023 4.0924 0.0000 11.4457 0.0000
# 2 30.3023 100.9053 33.0810 0.0000 11.4886 0.0000
# 3 4.0924 33.0810 97.1526 0.0000 -2.2412 0.0000
# 4 0.0000 0.0000 0.0000 8.8006 0.0000 5.3588
# 5 11.4457 11.4886 -2.2412 0.0000 40.2939 0.0000
# 6 0.0000 0.0000 0.0000 5.3588 0.0000 29.2498
#
#
#
# Elastic Compliance Matrix: (Units=1/GPa)
#
#
# Indices 1 2 3 4 5 6 
#
# 1 0.011753 -0.003474 0.000635 0.000000 -0.002313 0.000000
# 2 -0.003474 0.012667 -0.004233 0.000000 -0.002860 0.000000
# 3 0.000635 -0.004233 0.011746 0.000000 0.001680 0.000000
# 4 0.000000 0.000000 0.000000 0.127896 0.000000 -0.023431
# 5 -0.002313 -0.002860 0.001680 0.000000 0.026383 0.000000
# 6 0.000000 0.000000 0.000000 -0.023431 0.000000 0.038481
#
#
# Mechanical properties :
#
#
# Convention : Reuss Voigt Hill
#
# Bulk Modulus (GPa) = 45.41058 47.67605 46.54332
# Shear Modulus (GPa) = 19.96713 30.77938 25.37326
#
# Velocity S-wave (km/s) = 2.85882 3.54943 3.22268
# Velocity P-wave (km/s) = 5.42995 6.02598 5.73571
#
# Compressibility (1/GPa) = 0.02202130
#
# Stress axis : x y z
#
# Youngs Moduli (GPa) = 85.08656 78.94590 85.13253
#
# Poissons Ratio (x) = 0.27427 -0.05402
# Poissons Ratio (y) = 0.29560 0.36035
# Poissons Ratio (z) = -0.05399 0.33416
#
# Static dielectric constant tensor:
#      x y z
#    x 1.929410 0.000000 0.006410 
#    y 0.000000 1.983450 0.000000 
#    z 0.006410 0.000000 1.932180 
# 
# From -- ./inp_files/12091.got.cif
#   From: 2010.05.17/outbox.cif.g08.bks.cpg/sg5_7_cif.got.tgz:12091.got - 2010.06.03 18:56:24.
