data_PCOD9127629
_publ_section_title
;
Structure prediction by ZEFSAII (Michael W. Deem and Ramdas Pophale) SiO2 
 PCOD9127629
Probable space group: C 2
;
_chemical_formula_sum "Si O2"
_cell_formula_units_Z 22
_cell_length_a 8.185885
_cell_length_b 24.518753
_cell_length_c 7.629356
_cell_angle_alpha 90.000000
_cell_angle_beta 139.328302
_cell_angle_gamma 90.000000
_cell_volume 997.965440
_symmetry_space_group_name_H-M "C 2"
_symmetry_group_IT_number 5
_symmetry_cell_setting 'monoclinic'
loop_
_space_group_symop_operation_xyz
x,y,z
-x,y,-z
1/2+x,1/2+y,z
1/2-x,1/2+y,-z
loop_
_atom_site_type_symbol
_atom_site_label
_atom_site_fract_x
_atom_site_fract_y
_atom_site_fract_z
Si Si1 0.297198 0.984610 0.687266
Si Si2 0.411289 0.095096 0.624296
Si Si3 0.780687 0.865978 0.464678
Si Si4 0.584925 0.642986 0.873157
Si Si5 0.934239 0.265773 0.242360
Si Si6 0.500000 0.339530 0.000000
O O1 0.361307 0.922380 0.688503
O O2 0.000000 0.986674 0.500000
O O3 0.348637 0.031218 0.587047
O O4 0.500000 0.998968 0.000000
O O5 0.500000 0.108942 0.500000
O O6 0.145837 0.125008 0.437799
O O7 0.643863 0.115406 0.932727
O O8 0.634720 0.808861 0.331595
O O9 0.862042 0.871788 0.734545
O O10 0.000000 0.864249 0.500000
O O11 0.599812 0.708279 0.876883
O O12 0.500000 0.626527 0.000000
O O13 0.000000 0.255529 0.500000
O O14 0.681630 0.300234 0.039980
#
# Coordination Sequence:
#
# PCOD9127629 Si02
#       6
#     4   4   4   4   4   2
#     4  11  25  45  68 101 132 175 229 276 342 404
#     4  10  23  44  64  97 130 176 225 275 335 401
#     4  10  25  43  70  99 139 179 230 280 344 407
#     4  10  23  40  67  95 131 175 225 271 339 403
#     4  10  24  41  63  99 132 175 227 276 341 404
#     4  10  24  44  62 104 132 180 228 274 346 414
#
# _framework density 22.044853
#
# number of rings (size 3 to 8) (size 9 to 14) (size 15 to 20)
#    0.000    1.818    0.000    1.091   12.727    5.091 
#    4.909    0.000    0.000    0.000    0.000    0.000 
#    0.000    0.000    0.000    0.000    0.000    0.000 
#
# Total GULP energy -61392.601584 kJ/mol
# GULP energy per Si atom -5581.145599 kJ/mol
# Density = 2.199468 g / cm^3
# Si number density = 22.044853 Si / 1000 Ang^3
#
#
#
# Elastic Constant Matrix: (Units=GPa)
#
#
# Indices 1 2 3 4 5 6 
#
# 1 69.9890 33.6532 29.0476 0.0000 18.2712 0.0000
# 2 33.6532 109.9289 23.8925 0.0000 12.6657 0.0000
# 3 29.0476 23.8925 97.0703 0.0000 30.4887 0.0000
# 4 0.0000 0.0000 0.0000 81.6312 0.0000 19.5702
# 5 18.2712 12.6657 30.4887 0.0000 16.7032 0.0000
# 6 0.0000 0.0000 0.0000 19.5702 0.0000 54.2938
#
#
#
# Elastic Compliance Matrix: (Units=1/GPa)
#
#
# Indices 1 2 3 4 5 6 
#
# 1 0.021922 -0.004344 0.002359 0.000000 -0.024991 0.000000
# 2 -0.004344 0.010830 -0.000654 0.000000 -0.002267 0.000000
# 3 0.002359 -0.000654 0.024401 0.000000 -0.046624 0.000000
# 4 0.000000 0.000000 0.000000 0.013409 0.000000 -0.004833
# 5 -0.024991 -0.002267 -0.046624 0.000000 0.174028 0.000000
# 6 0.000000 0.000000 0.000000 -0.004833 0.000000 0.020160
#
#
# Mechanical properties :
#
#
# Convention : Reuss Voigt Hill
#
# Bulk Modulus (GPa) = 19.27735 50.01941 34.64838
# Shear Modulus (GPa) = 17.40218 43.21862 30.31040
#
# Velocity S-wave (km/s) = 2.81267 4.43254 3.71204
# Velocity P-wave (km/s) = 4.39451 6.99540 5.84155
#
# Compressibility (1/GPa) = 0.05187436
#
# Stress axis : x y z
#
# Youngs Moduli (GPa) = 45.61609 92.33598 40.98206
#
# Poissons Ratio (x) = 0.40114 -0.09666
# Poissons Ratio (y) = 0.19817 0.02679
# Poissons Ratio (z) = -0.10759 0.06035
#
# Static dielectric constant tensor:
#      x y z
#    x 1.644580 0.000000 -0.026050 
#    y 0.000000 1.732120 0.000000 
#    z -0.026050 0.000000 2.004410 
# 
# From -- ./inp_files/2890.got.cif
#   From: 2010.05.17/outbox.cif.g08.bks.cpg/sg5_2_cif.got.tgz:2890.got - 2010.06.03 18:56:24.
