data_PCOD9127843
_publ_section_title
;
Structure prediction by ZEFSAII (Michael W. Deem and Ramdas Pophale) SiO2 
 PCOD9127843
Probable space group: C 2
;
_chemical_formula_sum "Si O2"
_cell_formula_units_Z 22
_cell_length_a 8.907692
_cell_length_b 22.230162
_cell_length_c 5.314605
_cell_angle_alpha 90.000000
_cell_angle_beta 72.989722
_cell_angle_gamma 90.000000
_cell_volume 1006.355214
_symmetry_space_group_name_H-M "C 2"
_symmetry_group_IT_number 5
_symmetry_cell_setting 'monoclinic'
loop_
_space_group_symop_operation_xyz
x,y,z
-x,y,-z
1/2+x,1/2+y,z
1/2-x,1/2+y,-z
loop_
_atom_site_type_symbol
_atom_site_label
_atom_site_fract_x
_atom_site_fract_y
_atom_site_fract_z
Si Si1 0.500000 0.543231 0.000000
Si Si2 0.810478 0.829160 0.567467
Si Si3 0.142797 0.148159 0.271183
Si Si4 0.172826 0.965519 0.538289
Si Si5 0.190446 0.761288 0.931975
Si Si6 0.898927 0.567010 0.300018
O O1 0.424687 0.589652 0.838497
O O2 0.633979 0.499797 0.818783
O O3 0.772030 0.896863 0.498851
O O4 0.760136 0.785593 0.366456
O O5 0.000000 0.827287 0.500000
O O6 0.762001 0.806898 0.868086
O O7 0.224774 0.198038 0.060328
O O8 0.278382 0.122179 0.382926
O O9 0.000000 0.174197 0.500000
O O10 0.000000 0.966429 0.500000
O O11 0.297386 0.006384 0.334604
O O12 0.000000 0.754866 0.000000
O O13 0.000000 0.563608 0.500000
O O14 0.000000 0.575557 0.000000
#
# Coordination Sequence:
#
# PCOD9127843 Si02
#       6
#     2   4   4   4   4   4
#     4  12  22  42  74 106 138 180 246 294 350 408
#     4   9  22  40  69  97 131 181 238 284 335 411
#     4  12  26  44  69 103 141 189 238 287 356 432
#     4  11  23  42  72 102 137 184 245 290 346 422
#     4  10  23  43  65 100 135 183 229 288 346 406
#     4  12  26  43  66 103 143 185 222 296 368 413
#
# _framework density 21.861066000000001
#
# number of rings (size 3 to 8) (size 9 to 14) (size 15 to 20)
#    0.000    1.091    3.636    1.636    8.909    2.182 
#    0.000    2.727    0.000    0.000    0.000    0.000 
#    0.000    0.000    0.000    0.000    0.000    0.000 
#
# Total GULP energy -61449.450270 kJ/mol
# GULP energy per Si atom -5586.313661 kJ/mol
# Density = 2.181131 g / cm^3
# Si number density = 21.861066 Si / 1000 Ang^3
#
#
#
# Elastic Constant Matrix: (Units=GPa)
#
#
# Indices 1 2 3 4 5 6 
#
# 1 66.0041 27.8954 37.6810 0.0000 -1.1075 0.0000
# 2 27.8954 119.8289 35.8819 0.0000 -3.4087 0.0000
# 3 37.6810 35.8819 100.4263 0.0000 8.6850 0.0000
# 4 0.0000 0.0000 0.0000 33.8781 0.0000 -9.6861
# 5 -1.1075 -3.4087 8.6850 0.0000 28.5005 0.0000
# 6 0.0000 0.0000 0.0000 -9.6861 0.0000 14.8213
#
#
#
# Elastic Compliance Matrix: (Units=1/GPa)
#
#
# Indices 1 2 3 4 5 6 
#
# 1 0.020212 -0.002569 -0.006889 0.000000 0.002577 0.000000
# 2 -0.002569 0.009807 -0.002704 0.000000 0.001897 0.000000
# 3 -0.006889 -0.002704 0.013927 0.000000 -0.004835 0.000000
# 4 0.000000 0.000000 0.000000 0.036300 0.000000 0.023723
# 5 0.002577 0.001897 -0.004835 0.000000 0.036888 0.000000
# 6 0.000000 0.000000 0.000000 0.023723 0.000000 0.082974
#
#
# Mechanical properties :
#
#
# Convention : Reuss Voigt Hill
#
# Bulk Modulus (GPa) = 50.96372 54.35286 52.65829
# Shear Modulus (GPa) = 21.64758 27.76006 24.70382
#
# Velocity S-wave (km/s) = 3.15021 3.56735 3.36525
# Velocity P-wave (km/s) = 6.04938 6.47185 6.26417
#
# Compressibility (1/GPa) = 0.01962180
#
# Stress axis : x y z
#
# Youngs Moduli (GPa) = 49.47464 101.96801 71.80511
#
# Poissons Ratio (x) = 0.26197 0.49465
# Poissons Ratio (y) = 0.12711 0.19417
# Poissons Ratio (z) = 0.34082 0.27573
#
# Static dielectric constant tensor:
#      x y z
#    x 1.773690 0.000000 -0.022560 
#    y 0.000000 1.811280 0.000000 
#    z -0.022560 0.000000 1.821820 
# 
# From -- ./inp_files/2881.got.cif
#   From: 2010.05.17/outbox.cif.g08.bks.cpg/sg5_2_cif.got.tgz:2881.got - 2010.06.03 18:56:24.
