data_PCOD9127066
_publ_section_title
;
Structure prediction by ZEFSAII (Michael W. Deem and Ramdas Pophale) SiO2 
 PCOD9127066
Probable space group: C 2
;
_chemical_formula_sum "Si O2"
_cell_formula_units_Z 26
_cell_length_a 5.478818
_cell_length_b 29.808243
_cell_length_c 8.829966
_cell_angle_alpha 90.000000
_cell_angle_beta 58.632581
_cell_angle_gamma 90.000000
_cell_volume 1231.295533
_symmetry_space_group_name_H-M "C 2"
_symmetry_group_IT_number 5
_symmetry_cell_setting 'monoclinic'
loop_
_space_group_symop_operation_xyz
x,y,z
-x,y,-z
1/2+x,1/2+y,z
1/2-x,1/2+y,-z
loop_
_atom_site_type_symbol
_atom_site_label
_atom_site_fract_x
_atom_site_fract_y
_atom_site_fract_z
Si Si1 0.667070 0.279470 0.790917
Si Si2 0.500000 0.853122 0.500000
Si Si3 0.170283 0.223534 0.792398
Si Si4 0.500000 0.149322 0.500000
Si Si5 0.500000 0.081703 0.000000
Si Si6 0.049283 0.075716 0.644509
Si Si7 0.167477 0.440448 0.595669
Si Si8 0.221599 0.511223 0.167543
O O1 0.432119 0.254805 0.762827
O O2 0.779959 0.321162 0.657696
O O3 0.940074 0.248467 0.755723
O O4 0.500000 0.291792 0.000000
O O5 0.618885 0.886979 0.591300
O O6 0.328132 0.181275 0.668577
O O7 0.000000 0.210890 0.000000
O O8 0.261670 0.114807 0.520824
O O9 0.619960 0.051237 0.094361
O O10 0.211631 0.099557 0.176824
O O11 0.187043 0.038240 0.710198
O O12 0.000000 0.051461 0.500000
O O13 0.500000 0.447302 0.500000
O O14 0.000000 0.456917 0.500000
O O15 0.010417 0.471878 0.764839
O O16 0.500000 0.490764 0.000000
#
# Coordination Sequence:
#
# PCOD9127066 Si02
#       8
#     4   2   4   2   2   4   4   4
#     4  10  22  43  69  95 129 177 221 268 333 404
#     4  10  24  39  70  96 140 166 220 275 336 398
#     4  10  24  43  68  97 132 174 223 274 330 406
#     4  12  26  39  66  98 132 174 218 277 344 396
#     4  10  24  42  68  90 132 182 234 280 332 406
#     4  11  26  42  67  98 133 181 226 288 339 407
#     4  10  26  40  65 101 134 173 217 280 333 398
#     4  10  24  45  66  94 132 186 231 278 338 402
#
# _framework density 21.115970999999998
#
# number of rings (size 3 to 8) (size 9 to 14) (size 15 to 20)
#    0.462    1.231    0.000    1.846   11.846    3.692 
#    1.385    0.000    0.000    0.000    0.000    0.000 
#    0.000    0.000    0.000    0.000    0.000    0.000 
#
# Total GULP energy -72386.735184 kJ/mol
# GULP energy per Si atom -5568.210399 kJ/mol
# Density = 2.106791 g / cm^3
# Si number density = 21.115971 Si / 1000 Ang^3
#
#
#
# Elastic Constant Matrix: (Units=GPa)
#
#
# Indices 1 2 3 4 5 6 
#
# 1 133.4078 41.4390 58.2451 0.0000 -17.0105 0.0000
# 2 41.4390 103.0375 73.1829 0.0000 -23.0063 0.0000
# 3 58.2451 73.1829 94.0756 0.0000 -16.9238 0.0000
# 4 0.0000 0.0000 0.0000 -95.8547 0.0000 -34.4111
# 5 -17.0105 -23.0063 -16.9238 0.0000 47.3597 0.0000
# 6 0.0000 0.0000 0.0000 -34.4111 0.0000 19.4695
#
#
#
# Elastic Compliance Matrix: (Units=1/GPa)
#
#
# Indices 1 2 3 4 5 6 
#
# 1 0.010445 0.001265 -0.007124 0.000000 0.001821 0.000000
# 2 0.001265 0.022921 -0.017665 0.000000 0.005277 0.000000
# 3 -0.007124 -0.017665 0.028618 0.000000 -0.000913 0.000000
# 4 0.000000 0.000000 0.000000 -0.006383 0.000000 -0.011281
# 5 0.001821 0.005277 -0.000913 0.000000 0.024006 0.000000
# 6 0.000000 0.000000 0.000000 -0.011281 0.000000 0.031424
#
#
# Mechanical properties :
#
#
# Convention : Reuss Voigt Hill
#
# Bulk Modulus (GPa) = 66.94557 75.13943 71.04250
# Shear Modulus (GPa) = 30.66426 4.70516 17.68471
#
# Velocity S-wave (km/s) = 3.81489 1.49435 2.89711
# Velocity P-wave (km/s) = 7.15381 6.21602 6.70134
#
# Compressibility (1/GPa) = 0.01493751
#
# Stress axis : x y z
#
# Youngs Moduli (GPa) = 95.73880 43.62817 34.94338
#
# Poissons Ratio (x) = -0.05521 0.24893
# Poissons Ratio (y) = -0.12116 0.61727
# Poissons Ratio (z) = 0.68202 0.77069
#
# Static dielectric constant tensor:
#      x y z
#    x 1.883370 0.000000 -0.029840 
#    y 0.000000 1.759160 0.000000 
#    z -0.029840 0.000000 1.880710 
# 
# From -- ./inp_files/13182.got.cif
#   From: 2010.05.17/outbox.cif.g08.bks.cpg/sg5_7_cif.got.tgz:13182.got - 2010.06.03 18:56:24.
