data_PCOD9127148
_publ_section_title
;
Structure prediction by ZEFSAII (Michael W. Deem and Ramdas Pophale) SiO2 
 PCOD9127148
Probable space group: C 2
;
_chemical_formula_sum "Si O2"
_cell_formula_units_Z 20
_cell_length_a 5.233245
_cell_length_b 13.602219
_cell_length_c 13.604926
_cell_angle_alpha 90.000000
_cell_angle_beta 77.561680
_cell_angle_gamma 90.000000
_cell_volume 945.718558
_symmetry_space_group_name_H-M "C 2"
_symmetry_group_IT_number 5
_symmetry_cell_setting 'monoclinic'
loop_
_space_group_symop_operation_xyz
x,y,z
-x,y,-z
1/2+x,1/2+y,z
1/2-x,1/2+y,-z
loop_
_atom_site_type_symbol
_atom_site_label
_atom_site_fract_x
_atom_site_fract_y
_atom_site_fract_z
Si Si1 0.011788 0.715920 0.383025
Si Si2 0.361650 0.595618 0.230289
Si Si3 0.895336 0.904054 0.727995
Si Si4 0.599041 0.039448 0.881259
Si Si5 0.711148 0.007198 0.566106
O O1 0.288245 0.675944 0.317557
O O2 0.960537 0.804244 0.312023
O O3 0.000000 0.743795 0.500000
O O4 0.838266 0.617426 0.389576
O O5 0.396149 0.492143 0.283453
O O6 0.643111 0.607398 0.155199
O O7 0.131778 0.579350 0.169914
O O8 0.712108 0.931931 0.836599
O O9 0.707481 0.927711 0.651962
O O10 0.500000 0.036391 0.000000
O O11 0.500000 0.989463 0.500000
O O12 0.000000 0.003425 0.500000
#
# Coordination Sequence:
#
# PCOD9127148 Si02
#       5
#     4   4   4   4   4
#     4  11  22  42  64 103 134 177 209 258 321 401
#     4  10  22  44  66  96 134 165 221 271 318 391
#     4  10  23  42  67  93 134 170 220 262 325 377
#     4  10  22  45  71  91 126 171 219 280 332 367
#     4  11  23  42  62  92 139 178 216 261 313 386
#
# _framework density 21.147939000000001
#
# number of rings (size 3 to 8) (size 9 to 14) (size 15 to 20)
#    1.200    0.400    2.000    3.600    0.000    0.000 
#   14.400    6.000    0.000    0.000    0.000    0.000 
#    0.000    0.000    0.000    0.000    0.000    0.000 
#
# Total GULP energy -55699.497925 kJ/mol
# GULP energy per Si atom -5569.949793 kJ/mol
# Density = 2.109980 g / cm^3
# Si number density = 21.147939 Si / 1000 Ang^3
#
#
#
# Elastic Constant Matrix: (Units=GPa)
#
#
# Indices 1 2 3 4 5 6 
#
# 1 108.0567 -6.3801 55.7394 0.0000 -1.3032 0.0000
# 2 -6.3801 42.9456 20.9933 0.0000 -4.5275 0.0000
# 3 55.7394 20.9933 168.0931 0.0000 -27.3051 0.0000
# 4 0.0000 0.0000 0.0000 21.6696 0.0000 -4.1867
# 5 -1.3032 -4.5275 -27.3051 0.0000 38.9293 0.0000
# 6 0.0000 0.0000 0.0000 -4.1867 0.0000 26.7919
#
#
#
# Elastic Compliance Matrix: (Units=1/GPa)
#
#
# Indices 1 2 3 4 5 6 
#
# 1 0.011965 0.003888 -0.004869 0.000000 -0.002563 0.000000
# 2 0.003888 0.026085 -0.004552 0.000000 -0.000029 0.000000
# 3 -0.004869 -0.004552 0.009051 0.000000 0.005656 0.000000
# 4 0.000000 0.000000 0.000000 0.047584 0.000000 0.007436
# 5 -0.002563 -0.000029 0.005656 0.000000 0.029566 0.000000
# 6 0.000000 0.000000 0.000000 0.007436 0.000000 0.038487
#
#
# Mechanical properties :
#
#
# Convention : Reuss Voigt Hill
#
# Bulk Modulus (GPa) = 27.75152 51.08897 39.42025
# Shear Modulus (GPa) = 26.90847 34.06099 30.48473
#
# Velocity S-wave (km/s) = 3.57093 4.01759 3.80083
# Velocity P-wave (km/s) = 5.49119 6.76252 6.15974
#
# Compressibility (1/GPa) = 0.03603406
#
# Stress axis : x y z
#
# Youngs Moduli (GPa) = 83.57847 38.33659 110.48566
#
# Poissons Ratio (x) = -0.14904 0.53799
# Poissons Ratio (y) = -0.32492 0.50288
# Poissons Ratio (z) = 0.40697 0.17449
#
# Static dielectric constant tensor:
#      x y z
#    x 1.796080 0.000000 -0.021040 
#    y 0.000000 1.810430 0.000000 
#    z -0.021040 0.000000 1.790560 
# 
# From -- ./inp_files/33206.got.cif
#   From: 2010.05.17/outbox.cif.g08.bks.cpg/sg5_17_cif.got.tgz:33206.got - 2010.06.03 18:56:24.
