data_PCOD9127352
_publ_section_title
;
Structure prediction by ZEFSAII (Michael W. Deem and Ramdas Pophale) SiO2 
 PCOD9127352
Probable space group: C 2
;
_chemical_formula_sum "Si O2"
_cell_formula_units_Z 20
_cell_length_a 11.876146
_cell_length_b 6.694740
_cell_length_c 25.946951
_cell_angle_alpha 90.000000
_cell_angle_beta 22.107999
_cell_angle_gamma 90.000000
_cell_volume 776.410969
_symmetry_space_group_name_H-M "C 2"
_symmetry_group_IT_number 5
_symmetry_cell_setting 'monoclinic'
loop_
_space_group_symop_operation_xyz
x,y,z
-x,y,-z
1/2+x,1/2+y,z
1/2-x,1/2+y,-z
loop_
_atom_site_type_symbol
_atom_site_label
_atom_site_fract_x
_atom_site_fract_y
_atom_site_fract_z
Si Si1 0.276528 0.933670 0.725918
Si Si2 0.948065 0.294215 0.755323
Si Si3 0.837753 0.454906 0.226898
Si Si4 0.101842 0.493864 0.007880
Si Si5 0.785734 0.444080 0.551831
O O1 0.394338 0.956603 0.733779
O O2 0.216185 0.694210 0.746595
O O3 0.511640 0.992329 0.583088
O O4 0.953287 0.029019 0.853977
O O5 0.058433 0.388388 0.761194
O O6 0.633244 0.176779 0.895172
O O7 0.173112 0.130836 0.634686
O O8 0.520578 0.365317 0.342818
O O9 0.053253 0.414179 0.086464
O O10 0.000000 0.368552 0.000000
O O11 0.000000 0.321500 0.500000
#
# Coordination Sequence:
#
# PCOD9127352 Si02
#       5
#     4   4   4   4   4
#     4  10  22  46  67 110 145 193 248 303 364 440
#     4  10  25  45  72 109 146 202 239 307 367 439
#     4  10  25  43  71 115 147 193 251 296 367 449
#     4  10  22  45  71 104 151 191 240 299 376 427
#     4  10  22  45  71 104 151 191 240 299 376 427
#
# _framework density 25.759551999999999
#
# number of rings (size 3 to 8) (size 9 to 14) (size 15 to 20)
#    0.000    2.400    0.000    2.400   11.200    0.000 
#   14.400    0.000    0.000    0.000    0.000    0.000 
#    0.000    0.000    0.000    0.000    0.000    0.000 
#
# Total GULP energy -55945.107968 kJ/mol
# GULP energy per Si atom -5594.510797 kJ/mol
# Density = 2.570092 g / cm^3
# Si number density = 25.759552 Si / 1000 Ang^3
#
#
#
# Elastic Constant Matrix: (Units=GPa)
#
#
# Indices 1 2 3 4 5 6 
#
# 1 277.7875 31.7928 65.4716 -0.1352 8.5879 0.0479
# 2 31.7928 91.2106 -2.8360 -0.1259 14.8626 0.0263
# 3 65.4716 -2.8360 194.0504 -0.2179 21.5888 -0.0509
# 4 -0.1352 -0.1259 -0.2179 10.0262 0.0827 7.0905
# 5 8.5879 14.8626 21.5888 0.0827 57.0405 -0.0352
# 6 0.0479 0.0263 -0.0509 7.0905 -0.0352 48.2108
#
#
#
# Elastic Compliance Matrix: (Units=1/GPa)
#
#
# Indices 1 2 3 4 5 6 
#
# 1 0.004105 -0.001529 -0.001444 0.000006 0.000327 -0.000005
# 2 -0.001529 0.012070 0.001062 0.000207 -0.003317 -0.000037
# 3 -0.001444 0.001062 0.005912 0.000153 -0.002297 -0.000017
# 4 0.000006 0.000207 0.000153 0.111326 -0.000285 -0.016373
# 5 0.000327 -0.003317 -0.002297 -0.000285 0.019216 0.000055
# 6 -0.000005 -0.000037 -0.000017 -0.016373 0.000055 0.023150
#
#
# Mechanical properties :
#
#
# Convention : Reuss Voigt Hill
#
# Bulk Modulus (GPa) = 54.75044 83.54503 69.14773
# Shear Modulus (GPa) = 26.92659 54.29686 40.61173
#
# Velocity S-wave (km/s) = 3.23663 4.59610 3.97491
# Velocity P-wave (km/s) = 5.93871 7.78900 6.92592
#
# Compressibility (1/GPa) = 0.01826469
#
# Stress axis : x y z
#
# Youngs Moduli (GPa) = 243.60318 82.84736 169.15835
#
# Poissons Ratio (x) = 0.12667 0.24422
# Poissons Ratio (y) = 0.37247 -0.17957
# Poissons Ratio (z) = 0.35169 -0.08795
#
# Static dielectric constant tensor:
#      x y z
#    x 2.052460 0.000090 -0.012620 
#    y 0.000090 2.195960 0.000020 
#    z -0.012620 0.000020 1.993050 
# 
# From -- ./inp_files/70344.got.cif
#   From: 2010.05.17/outbox.cif.g08.bks.cpg/sg5_36_cif.got.tgz:70344.got - 2010.06.03 18:56:24.
