data_PCOD9127236
_publ_section_title
;
Structure prediction by ZEFSAII (Michael W. Deem and Ramdas Pophale) SiO2 
 PCOD9127236
Probable space group: C 2
;
_chemical_formula_sum "Si O2"
_cell_formula_units_Z 22
_cell_length_a 8.164722
_cell_length_b 12.156711
_cell_length_c 14.977484
_cell_angle_alpha 90.000000
_cell_angle_beta 41.906771
_cell_angle_gamma 90.000000
_cell_volume 992.935730
_symmetry_space_group_name_H-M "C 2"
_symmetry_group_IT_number 5
_symmetry_cell_setting 'monoclinic'
loop_
_space_group_symop_operation_xyz
x,y,z
-x,y,-z
1/2+x,1/2+y,z
1/2-x,1/2+y,-z
loop_
_atom_site_type_symbol
_atom_site_label
_atom_site_fract_x
_atom_site_fract_y
_atom_site_fract_z
Si Si1 0.733723 0.117160 0.794885
Si Si2 0.860774 0.773661 0.652883
Si Si3 0.000000 0.805150 0.000000
Si Si4 0.945332 0.398530 0.919417
Si Si5 0.258928 0.298186 0.348236
Si Si6 0.250746 0.535527 0.340815
O O1 0.688083 0.218906 0.879156
O O2 0.711251 0.182365 0.711959
O O3 0.999698 0.062754 0.705108
O O4 0.523930 0.025987 0.888969
O O5 0.622955 0.845728 0.771935
O O6 0.788807 0.646356 0.698855
O O7 0.000000 0.783529 0.500000
O O8 0.047870 0.810449 0.651999
O O9 0.169721 0.873819 0.999315
O O10 0.000000 0.357956 0.000000
O O11 0.269741 0.414263 0.290476
O O12 0.000000 0.292873 0.500000
O O13 0.000000 0.530361 0.500000
#
# Coordination Sequence:
#
# PCOD9127236 Si02
#       6
#     4   4   2   4   4   4
#     4  12  25  49  71 106 149 191 256 310 365 457
#     4  11  23  46  73 108 149 190 246 311 374 448
#     4  12  28  48  76 102 148 206 254 310 380 428
#     4  12  27  52  76 108 152 200 258 312 371 454
#     4  11  24  42  73 107 146 191 241 303 384 445
#     4  10  22  44  71 106 148 187 235 308 372 450
#
# _framework density 22.156518999999999
#
# number of rings (size 3 to 8) (size 9 to 14) (size 15 to 20)
#    0.000    0.727    4.545    3.273    0.000    2.182 
#   11.455    0.000    0.000    0.000    0.000    0.000 
#    0.000    0.000    0.000    0.000    0.000    0.000 
#
# Total GULP energy -61339.073320 kJ/mol
# GULP energy per Si atom -5576.279393 kJ/mol
# Density = 2.210609 g / cm^3
# Si number density = 22.156519 Si / 1000 Ang^3
#
#
#
# Elastic Constant Matrix: (Units=GPa)
#
#
# Indices 1 2 3 4 5 6 
#
# 1 86.3655 36.9802 53.1758 -0.0004 -34.0898 0.0000
# 2 36.9802 139.2621 43.8355 -0.0004 -4.8282 0.0001
# 3 53.1758 43.8355 108.5095 -0.0015 -9.7172 0.0005
# 4 -0.0004 -0.0004 -0.0015 9.2775 0.0004 2.1596
# 5 -34.0898 -4.8282 -9.7172 0.0004 31.7003 0.0000
# 6 0.0000 0.0001 0.0005 2.1596 0.0000 39.8706
#
#
#
# Elastic Compliance Matrix: (Units=1/GPa)
#
#
# Indices 1 2 3 4 5 6 
#
# 1 0.032633 -0.003931 -0.011634 -0.000002 0.030928 0.000000
# 2 -0.003931 0.008702 -0.001901 0.000000 -0.003485 0.000000
# 3 -0.011634 -0.001901 0.014949 0.000002 -0.008218 0.000000
# 4 -0.000002 0.000000 0.000002 0.109164 -0.000003 -0.005913
# 5 0.030928 -0.003485 -0.008218 -0.000003 0.061754 0.000000
# 6 0.000000 0.000000 0.000000 -0.005913 0.000000 0.025401
#
#
# Mechanical properties :
#
#
# Convention : Reuss Voigt Hill
#
# Bulk Modulus (GPa) = 46.83544 66.90224 56.86884
# Shear Modulus (GPa) = 16.96907 29.51272 23.24090
#
# Velocity S-wave (km/s) = 2.77044 3.65363 3.24225
# Velocity P-wave (km/s) = 5.60519 6.93250 6.30387
#
# Compressibility (1/GPa) = 0.02135135
#
# Stress axis : x y z
#
# Youngs Moduli (GPa) = 30.64406 114.91380 66.89287
#
# Poissons Ratio (x) = 0.45174 0.77825
# Poissons Ratio (y) = 0.12046 0.12717
# Poissons Ratio (z) = 0.35652 0.21846
#
# Static dielectric constant tensor:
#      x y z
#    x 1.854820 0.000000 0.099950 
#    y 0.000000 1.795340 0.000000 
#    z 0.099950 0.000000 1.996950 
# 
# From -- ./inp_files/59469.got.cif
#   From: 2010.05.17/outbox.cif.g08.bks.cpg/sg5_30_cif.got.tgz:59469.got - 2010.06.03 18:56:24.
