data_PCOD9127911
_publ_section_title
;
Structure prediction by ZEFSAII (Michael W. Deem and Ramdas Pophale) SiO2 
 PCOD9127911
Probable space group: C 2
;
_chemical_formula_sum "Si O2"
_cell_formula_units_Z 24
_cell_length_a 27.552722
_cell_length_b 5.249371
_cell_length_c 15.285698
_cell_angle_alpha 90.000000
_cell_angle_beta 27.794888
_cell_angle_gamma 90.000000
_cell_volume 1030.931130
_symmetry_space_group_name_H-M "C 2"
_symmetry_group_IT_number 5
_symmetry_cell_setting 'monoclinic'
loop_
_space_group_symop_operation_xyz
x,y,z
-x,y,-z
1/2+x,1/2+y,z
1/2-x,1/2+y,-z
loop_
_atom_site_type_symbol
_atom_site_label
_atom_site_fract_x
_atom_site_fract_y
_atom_site_fract_z
Si Si1 0.778166 0.509190 0.400560
Si Si2 0.763702 0.509178 0.228033
Si Si3 0.000000 0.342429 0.500000
Si Si4 0.902803 0.005968 0.992949
Si Si5 0.000000 0.741844 0.000000
Si Si6 0.824629 0.705501 0.782128
Si Si7 0.595898 0.508470 0.195552
O O1 0.764248 0.242736 0.472995
O O2 0.724118 0.502011 0.390924
O O3 0.898981 0.576059 0.186475
O O4 0.813458 0.786194 0.133101
O O5 0.688962 0.431391 0.266751
O O6 0.852112 0.284636 0.084771
O O7 0.903457 0.504391 0.617227
O O8 0.959017 0.181067 0.646226
O O9 0.972511 0.922084 0.962372
O O10 0.958814 0.984653 0.809982
O O11 0.878511 0.759797 0.789557
O O12 0.709402 0.618098 0.989795
#
# Coordination Sequence:
#
# PCOD9127911 Si02
#       7
#     4   4   2   4   2   4   4
#     4  11  24  46  73 107 144 187 241 293 360 421
#     4  10  23  44  74 105 143 190 237 292 363 421
#     4  12  26  44  72 106 140 188 246 288 360 434
#     4  10  23  43  77 104 140 195 239 287 364 421
#     4  10  24  50  74 106 148 188 240 304 342 424
#     4  11  23  45  72  97 146 186 233 300 355 427
#     4  11  23  45  71 101 144 188 235 296 363 420
#
# _framework density 23.279926
#
# number of rings (size 3 to 8) (size 9 to 14) (size 15 to 20)
#    0.000    1.333    1.667    3.500    4.667    6.000 
#    6.000    1.667    0.000    0.000    0.000    0.000 
#    0.000    0.000    0.000    0.000    0.000    0.000 
#
# Total GULP energy -67109.968188 kJ/mol
# GULP energy per Si atom -5592.497349 kJ/mol
# Density = 2.322694 g / cm^3
# Si number density = 23.279926 Si / 1000 Ang^3
#
#
#
# Elastic Constant Matrix: (Units=GPa)
#
#
# Indices 1 2 3 4 5 6 
#
# 1 146.5809 14.2648 42.8415 0.0007 33.1071 0.0000
# 2 14.2648 61.3429 17.7683 -0.0085 3.5487 0.0033
# 3 42.8415 17.7683 109.1013 -0.0052 1.0605 0.0007
# 4 0.0007 -0.0085 -0.0052 23.2343 0.0006 -2.6449
# 5 33.1071 3.5487 1.0605 0.0006 40.3979 0.0003
# 6 0.0000 0.0033 0.0007 -2.6449 0.0003 33.0203
#
#
#
# Elastic Compliance Matrix: (Units=1/GPa)
#
#
# Indices 1 2 3 4 5 6 
#
# 1 0.009714 -0.000761 -0.003615 -0.000001 -0.007799 0.000000
# 2 -0.000761 0.017251 -0.002503 0.000006 -0.000826 -0.000001
# 3 -0.003615 -0.002503 0.010965 0.000002 0.002894 0.000000
# 4 -0.000001 0.000006 0.000002 0.043436 0.000000 0.003479
# 5 -0.007799 -0.000826 0.002894 0.000000 0.031142 0.000000
# 6 0.000000 -0.000001 0.000000 0.003479 0.000000 0.030563
#
#
# Mechanical properties :
#
#
# Convention : Reuss Voigt Hill
#
# Bulk Modulus (GPa) = 41.36735 51.86382 46.61558
# Shear Modulus (GPa) = 30.32390 35.47386 32.89888
#
# Velocity S-wave (km/s) = 3.61304 3.90782 3.76332
# Velocity P-wave (km/s) = 5.93410 6.53361 6.24106
#
# Compressibility (1/GPa) = 0.02417365
#
# Stress axis : x y z
#
# Youngs Moduli (GPa) = 102.94080 57.96613 91.20143
#
# Poissons Ratio (x) = 0.04410 0.32968
# Poissons Ratio (y) = 0.07831 0.22826
# Poissons Ratio (z) = 0.37212 0.14508
#
# Static dielectric constant tensor:
#      x y z
#    x 1.945810 0.000000 -0.030880 
#    y 0.000000 1.887700 0.000000 
#    z -0.030880 0.000000 1.883040 
# 
# From -- ./inp_files/53706.got.cif
#   From: 2010.05.17/outbox.cif.g08.bks.cpg/sg5_27_cif.got.tgz:53706.got - 2010.06.03 18:56:24.
