data_PCOD9127904
_publ_section_title
;
Structure prediction by ZEFSAII (Michael W. Deem and Ramdas Pophale) SiO2 
 PCOD9127904
Probable space group: C 2
;
_chemical_formula_sum "Si O2"
_cell_formula_units_Z 20
_cell_length_a 10.573080
_cell_length_b 8.157707
_cell_length_c 20.444918
_cell_angle_alpha 90.000000
_cell_angle_beta 152.034979
_cell_angle_gamma 90.000000
_cell_volume 826.923376
_symmetry_space_group_name_H-M "C 2"
_symmetry_group_IT_number 5
_symmetry_cell_setting 'monoclinic'
loop_
_space_group_symop_operation_xyz
x,y,z
-x,y,-z
1/2+x,1/2+y,z
1/2-x,1/2+y,-z
loop_
_atom_site_type_symbol
_atom_site_label
_atom_site_fract_x
_atom_site_fract_y
_atom_site_fract_z
Si Si1 0.371300 0.159610 0.134276
Si Si2 0.986195 0.213648 0.388689
Si Si3 0.695814 0.665028 0.350739
Si Si4 0.070970 0.509871 0.339440
Si Si5 0.766774 0.532578 0.943001
O O1 0.696162 0.179797 0.284866
O O2 0.249740 0.338799 0.074631
O O3 0.322276 0.073010 0.181816
O O4 0.314432 0.067745 0.040846
O O5 0.998116 0.401389 0.369895
O O6 0.027244 0.117425 0.338720
O O7 0.230553 0.152257 0.545141
O O8 0.703139 0.863877 0.356113
O O9 0.518732 0.608490 0.209538
O O10 0.000000 0.606541 0.500000
O O11 0.000000 0.598619 0.000000
#
# Coordination Sequence:
#
# PCOD9127904 Si02
#       5
#     4   4   4   4   4
#     4  12  26  45  71  99 141 186 234 281 346 411
#     4  10  24  43  71  99 143 175 230 287 343 407
#     4  10  23  43  74 103 137 177 233 282 346 410
#     4  10  24  42  69 106 138 175 232 286 343 405
#     4  12  27  48  70 102 144 185 229 288 345 413
#
# _framework density 24.186038
#
# number of rings (size 3 to 8) (size 9 to 14) (size 15 to 20)
#    1.200    0.000    2.000    3.000    5.600    1.600 
#    0.000    0.000    0.000    0.000    0.000    0.000 
#    0.000    0.000    0.000    0.000    0.000    0.000 
#
# Total GULP energy -55856.842262 kJ/mol
# GULP energy per Si atom -5585.684226 kJ/mol
# Density = 2.413099 g / cm^3
# Si number density = 24.186038 Si / 1000 Ang^3
#
#
#
# Elastic Constant Matrix: (Units=GPa)
#
#
# Indices 1 2 3 4 5 6 
#
# 1 65.6051 28.6860 45.0794 0.0014 -11.5968 0.0004
# 2 28.6860 96.9095 64.7774 0.0005 -24.4599 0.0002
# 3 45.0794 64.7774 178.4799 0.0066 -49.1764 0.0023
# 4 0.0014 0.0005 0.0066 48.9989 0.0023 -14.3970
# 5 -11.5968 -24.4599 -49.1764 0.0023 49.6483 0.0006
# 6 0.0004 0.0002 0.0023 -14.3970 0.0006 24.8771
#
#
#
# Elastic Compliance Matrix: (Units=1/GPa)
#
#
# Indices 1 2 3 4 5 6 
#
# 1 0.019214 -0.003321 -0.003936 0.000000 -0.001047 0.000000
# 2 -0.003321 0.014427 -0.003648 0.000000 0.002718 0.000000
# 3 -0.003936 -0.003648 0.009865 -0.000002 0.007054 -0.000002
# 4 0.000000 0.000000 -0.000002 0.024590 -0.000003 0.014231
# 5 -0.001047 0.002718 0.007054 -0.000003 0.028224 -0.000003
# 6 0.000000 0.000000 -0.000002 0.014231 -0.000003 0.048433
#
#
# Mechanical properties :
#
#
# Convention : Reuss Voigt Hill
#
# Bulk Modulus (GPa) = 46.09304 68.67557 57.38430
# Shear Modulus (GPa) = 28.76952 38.20164 33.48558
#
# Velocity S-wave (km/s) = 3.45267 3.97859 3.72492
# Velocity P-wave (km/s) = 5.91554 7.04003 6.50214
#
# Compressibility (1/GPa) = 0.02169525
#
# Stress axis : x y z
#
# Youngs Moduli (GPa) = 52.04428 69.31655 101.37011
#
# Poissons Ratio (x) = 0.23018 0.39902
# Poissons Ratio (y) = 0.17282 0.36983
# Poissons Ratio (z) = 0.20486 0.25289
#
# Static dielectric constant tensor:
#      x y z
#    x 1.988800 0.000000 -0.011630 
#    y 0.000000 1.939560 0.000000 
#    z -0.011630 0.000000 1.898900 
# 
# From -- ./inp_files/68664.got.cif
#   From: 2010.05.17/outbox.cif.g08.bks.cpg/sg5_35_cif.got.tgz:68664.got - 2010.06.03 18:56:24.
