data_PCOD9127825
_publ_section_title
;
Structure prediction by ZEFSAII (Michael W. Deem and Ramdas Pophale) SiO2 
 PCOD9127825
Probable space group: C 2
;
_chemical_formula_sum "Si O2"
_cell_formula_units_Z 16
_cell_length_a 7.714262
_cell_length_b 16.777670
_cell_length_c 9.047672
_cell_angle_alpha 90.000000
_cell_angle_beta 35.135512
_cell_angle_gamma 90.000000
_cell_volume 673.934112
_symmetry_space_group_name_H-M "C 2"
_symmetry_group_IT_number 5
_symmetry_cell_setting 'monoclinic'
loop_
_space_group_symop_operation_xyz
x,y,z
-x,y,-z
1/2+x,1/2+y,z
1/2-x,1/2+y,-z
loop_
_atom_site_type_symbol
_atom_site_label
_atom_site_fract_x
_atom_site_fract_y
_atom_site_fract_z
Si Si1 0.145477 0.007820 0.160426
Si Si2 0.644822 0.067954 0.660314
Si Si3 0.738011 0.339807 0.962495
Si Si4 0.828797 0.741563 0.465586
O O1 0.249322 0.038892 0.250306
O O2 0.786886 0.010801 0.436333
O O3 0.285990 0.063712 0.935350
O O4 0.268182 0.921139 0.033450
O O5 0.755195 0.155446 0.540328
O O6 0.044241 0.300171 0.688475
O O7 0.500000 0.358047 0.000000
O O8 0.569358 0.278253 0.185989
O O9 0.000000 0.730306 0.500000
#
# Coordination Sequence:
#
# PCOD9127825 Si02
#       4
#     4   4   4   4
#     4  10  23  42  73 102 145 194 248 296 376 435
#     4  10  23  42  73 102 145 194 248 296 376 435
#     4  12  28  46  75 112 154 195 249 308 378 445
#     4  12  28  46  75 112 154 195 249 308 378 445
#
# _framework density 23.741195000000001
#
# number of rings (size 3 to 8) (size 9 to 14) (size 15 to 20)
#    0.000    1.000    0.000    4.500   21.000    2.000 
#    0.000    0.000    0.000    0.000    0.000    0.000 
#    0.000    0.000    0.000    0.000    0.000    0.000 
#
# Total GULP energy -44701.200909 kJ/mol
# GULP energy per Si atom -5587.650114 kJ/mol
# Density = 2.368716 g / cm^3
# Si number density = 23.741195 Si / 1000 Ang^3
#
#
#
# Elastic Constant Matrix: (Units=GPa)
#
#
# Indices 1 2 3 4 5 6 
#
# 1 112.6330 15.7972 -15.6535 -0.0003 3.6810 -0.0001
# 2 15.7972 123.9993 14.4679 0.0002 1.0947 -0.0003
# 3 -15.6535 14.4679 165.1645 -0.0003 -13.7073 0.0008
# 4 -0.0003 0.0002 -0.0003 54.9226 0.0003 3.0196
# 5 3.6810 1.0947 -13.7073 0.0003 17.6093 -0.0005
# 6 -0.0001 -0.0003 0.0008 3.0196 -0.0005 16.6852
#
#
#
# Elastic Compliance Matrix: (Units=1/GPa)
#
#
# Indices 1 2 3 4 5 6 
#
# 1 0.009217 -0.001268 0.000889 0.000000 -0.001156 0.000000
# 2 -0.001268 0.008343 -0.000932 0.000000 -0.000979 0.000000
# 3 0.000889 -0.000932 0.006639 0.000000 0.005040 0.000000
# 4 0.000000 0.000000 0.000000 0.018390 0.000000 -0.003328
# 5 -0.001156 -0.000979 0.005040 0.000000 0.061014 0.000002
# 6 0.000000 0.000000 0.000000 -0.003328 0.000002 0.060535
#
#
# Mechanical properties :
#
#
# Convention : Reuss Voigt Hill
#
# Bulk Modulus (GPa) = 46.34572 47.89110 47.11841
# Shear Modulus (GPa) = 28.74312 43.65577 36.19945
#
# Velocity S-wave (km/s) = 3.48327 4.29280 3.90904
# Velocity P-wave (km/s) = 5.97839 6.69229 6.34539
#
# Compressibility (1/GPa) = 0.02157697
#
# Stress axis : x y z
#
# Youngs Moduli (GPa) = 108.48932 119.85382 150.63137
#
# Poissons Ratio (x) = 0.15195 -0.13386
# Poissons Ratio (y) = 0.13754 0.14043
# Poissons Ratio (z) = -0.09641 0.11174
#
# Static dielectric constant tensor:
#      x y z
#    x 2.220920 0.000000 -0.226660 
#    y 0.000000 1.932390 0.000000 
#    z -0.226660 0.000000 2.055860 
# 
# From -- ./inp_files/15979.got.cif
#   From: 2010.05.17/outbox.cif.g08.bks.cpg/sg5_8_cif.got.tgz:15979.got - 2010.06.03 18:56:24.
