data_PCOD9127782
_publ_section_title
;
Structure prediction by ZEFSAII (Michael W. Deem and Ramdas Pophale) SiO2 
 PCOD9127782
Probable space group: C 2
;
_chemical_formula_sum "Si O2"
_cell_formula_units_Z 32
_cell_length_a 12.779696
_cell_length_b 8.985030
_cell_length_c 11.356925
_cell_angle_alpha 90.000000
_cell_angle_beta 75.814187
_cell_angle_gamma 90.000000
_cell_volume 1264.303501
_symmetry_space_group_name_H-M "C 2"
_symmetry_group_IT_number 5
_symmetry_cell_setting 'monoclinic'
loop_
_space_group_symop_operation_xyz
x,y,z
-x,y,-z
1/2+x,1/2+y,z
1/2-x,1/2+y,-z
loop_
_atom_site_type_symbol
_atom_site_label
_atom_site_fract_x
_atom_site_fract_y
_atom_site_fract_z
Si Si1 0.390743 0.016400 0.255992
Si Si2 0.708700 0.133828 0.139276
Si Si3 0.761829 0.577198 0.608740
Si Si4 0.589661 0.529660 0.240736
Si Si5 0.306758 0.912094 0.050258
Si Si6 0.487093 0.294547 0.144544
Si Si7 0.059917 0.341910 0.366156
Si Si8 0.828129 0.902053 0.556621
O O1 0.393411 0.192677 0.225294
O O2 0.396883 0.946171 0.122844
O O3 0.485408 0.955027 0.312415
O O4 0.283975 0.960003 0.351938
O O5 0.760383 0.128512 0.252718
O O6 0.786449 0.238783 0.043264
O O7 0.593568 0.215529 0.169105
O O8 0.687312 0.982135 0.078941
O O9 0.842692 0.440313 0.609517
O O10 0.815323 0.725721 0.536658
O O11 0.666597 0.509447 0.557243
O O12 0.700635 0.486243 0.141970
O O13 0.495394 0.463814 0.184327
O O14 0.587121 0.700674 0.278468
O O15 0.587166 0.436987 0.364610
O O16 0.500000 0.284476 0.000000
O O17 0.000000 0.286520 0.500000
#
# Coordination Sequence:
#
# PCOD9127782 Si02
#       8
#     4   4   4   4   4   4   4   4
#     4  11  21  42  67  97 132 172 225 280 337 411
#     4  11  22  42  65 100 134 179 228 281 340 409
#     4  12  23  44  71  95 138 179 226 285 344 402
#     4  10  24  47  63  97 141 172 225 287 335 408
#     4  10  23  42  67  95 134 173 234 272 336 416
#     4  11  21  43  70  97 138 182 223 282 348 411
#     4  12  25  44  67  98 138 178 227 290 349 404
#     4  11  23  44  68  99 133 177 230 277 335 417
#
# _framework density 25.310378
#
# number of rings (size 3 to 8) (size 9 to 14) (size 15 to 20)
#    0.000    1.000    7.500    0.750    1.750    0.000 
#    6.750    2.500    0.000    0.000    0.000    0.000 
#    0.000    0.000    0.000    0.000    0.000    0.000 
#
# Total GULP energy -89501.892817 kJ/mol
# GULP energy per Si atom -5593.868301 kJ/mol
# Density = 2.525277 g / cm^3
# Si number density = 25.310378 Si / 1000 Ang^3
#
#
#
# Elastic Constant Matrix: (Units=GPa)
#
#
# Indices 1 2 3 4 5 6 
#
# 1 44.5523 13.5251 14.8450 0.0000 10.4287 0.0000
# 2 13.5251 138.3881 45.7082 0.0000 7.2836 0.0000
# 3 14.8450 45.7082 117.2401 0.0000 15.6048 0.0000
# 4 0.0000 0.0000 0.0000 58.1383 0.0000 10.1552
# 5 10.4287 7.2836 15.6048 0.0000 30.2767 0.0000
# 6 0.0000 0.0000 0.0000 10.1552 0.0000 30.5676
#
#
#
# Elastic Compliance Matrix: (Units=1/GPa)
#
#
# Indices 1 2 3 4 5 6 
#
# 1 0.025197 -0.001543 -0.001593 0.000000 -0.007487 0.000000
# 2 -0.001543 0.008392 -0.003090 0.000000 0.000105 0.000000
# 3 -0.001593 -0.003090 0.010483 0.000000 -0.004111 0.000000
# 4 0.000000 0.000000 0.000000 0.018260 0.000000 -0.006066
# 5 -0.007487 0.000105 -0.004111 0.000000 0.037701 0.000000
# 6 0.000000 0.000000 0.000000 -0.006066 0.000000 0.034730
#
#
# Mechanical properties :
#
#
# Convention : Reuss Voigt Hill
#
# Bulk Modulus (GPa) = 31.62441 49.81525 40.71983
# Shear Modulus (GPa) = 31.69481 38.87002 35.28242
#
# Velocity S-wave (km/s) = 3.54255 3.92310 3.73767
# Velocity P-wave (km/s) = 5.40875 6.34393 5.89491
#
# Compressibility (1/GPa) = 0.03162114
#
# Stress axis : x y z
#
# Youngs Moduli (GPa) = 39.68728 119.16075 95.39047
#
# Poissons Ratio (x) = 0.18381 0.15191
# Poissons Ratio (y) = 0.06122 0.29480
# Poissons Ratio (z) = 0.06320 0.36826
#
# Static dielectric constant tensor:
#      x y z
#    x 2.073960 0.000000 -0.011150 
#    y 0.000000 2.028070 0.000000 
#    z -0.011150 0.000000 2.015660 
# 
# From -- ./inp_files/41978.got.cif
#   From: 2010.05.17/outbox.cif.g08.bks.cpg/sg5_21_cif.got.tgz:41978.got - 2010.06.03 18:56:24.
