data_PCOD9127641
_publ_section_title
;
Structure prediction by ZEFSAII (Michael W. Deem and Ramdas Pophale) SiO2 
 PCOD9127641
Probable space group: C 2
;
_chemical_formula_sum "Si O2"
_cell_formula_units_Z 28
_cell_length_a 20.266752
_cell_length_b 13.121374
_cell_length_c 8.732537
_cell_angle_alpha 90.000000
_cell_angle_beta 143.872330
_cell_angle_gamma 90.000000
_cell_volume 1369.151252
_symmetry_space_group_name_H-M "C 2"
_symmetry_group_IT_number 5
_symmetry_cell_setting 'monoclinic'
loop_
_space_group_symop_operation_xyz
x,y,z
-x,y,-z
1/2+x,1/2+y,z
1/2-x,1/2+y,-z
loop_
_atom_site_type_symbol
_atom_site_label
_atom_site_fract_x
_atom_site_fract_y
_atom_site_fract_z
Si Si1 0.272871 0.529450 0.838636
Si Si2 0.000810 0.952908 0.835731
Si Si3 0.872134 0.195537 0.241712
Si Si4 0.276105 0.579562 0.339475
Si Si5 0.779036 0.393734 0.971139
Si Si6 0.891072 0.604050 0.703805
Si Si7 0.940046 0.770130 0.537634
O O1 0.168804 0.529968 0.529441
O O2 0.386172 0.515925 0.957388
O O3 0.299379 0.631853 0.982954
O O4 0.254516 0.445552 0.932867
O O5 0.010366 0.867745 0.724070
O O6 0.891571 0.022631 0.604739
O O7 0.000000 0.901565 0.000000
O O8 0.810086 0.168916 0.284897
O O9 0.000000 0.156594 0.500000
O O10 0.874683 0.311767 0.188452
O O11 0.208480 0.488400 0.123586
O O12 0.203617 0.622260 0.343995
O O13 0.677239 0.322909 0.723491
O O14 0.925661 0.696809 0.656298
O O15 0.000000 0.568437 0.000000
O O16 0.000000 0.723227 0.500000
#
# Coordination Sequence:
#
# PCOD9127641 Si02
#       7
#     4   4   4   4   4   4   4
#     4  11  22  42  66 101 136 177 229 285 335 403
#     4  11  20  38  70  99 135 170 222 292 340 384
#     4  11  22  41  70 101 128 180 233 281 342 406
#     4  10  24  41  64 101 141 171 225 286 342 407
#     4  10  23  40  68  97 135 173 230 281 337 404
#     4  12  27  43  65  97 147 187 218 274 359 413
#     4  11  23  40  67 104 128 170 236 286 331 399
#
# _framework density 20.450626
#
# number of rings (size 3 to 8) (size 9 to 14) (size 15 to 20)
#    0.000    1.143    5.714    0.429    2.000    2.286 
#    0.000    0.000    0.000    0.000    0.000    0.000 
#    0.000    0.000    0.000    0.000    0.000    0.000 
#
# Total GULP energy -78039.921849 kJ/mol
# GULP energy per Si atom -5574.280132 kJ/mol
# Density = 2.040408 g / cm^3
# Si number density = 20.450626 Si / 1000 Ang^3
#
#
#
# Elastic Constant Matrix: (Units=GPa)
#
#
# Indices 1 2 3 4 5 6 
#
# 1 107.3125 19.7820 18.8562 0.0000 -14.0153 0.0000
# 2 19.7820 49.0571 21.4166 0.0000 -4.1677 0.0000
# 3 18.8562 21.4166 120.8136 0.0000 -14.1839 0.0000
# 4 0.0000 0.0000 0.0000 21.7116 0.0000 -3.9482
# 5 -14.0153 -4.1677 -14.1839 0.0000 25.6962 0.0000
# 6 0.0000 0.0000 0.0000 -3.9482 0.0000 17.8546
#
#
#
# Elastic Compliance Matrix: (Units=1/GPa)
#
#
# Indices 1 2 3 4 5 6 
#
# 1 0.010734 -0.003715 -0.000428 0.000000 0.005016 0.000000
# 2 -0.003715 0.023436 -0.003600 0.000000 -0.000212 0.000000
# 3 -0.000428 -0.003600 0.009502 0.000000 0.004428 0.000000
# 4 0.000000 0.000000 0.000000 0.047988 0.000000 0.010612
# 5 0.005016 -0.000212 0.004428 0.000000 0.044062 0.000000
# 6 0.000000 0.000000 0.000000 0.010612 0.000000 0.058355
#
#
# Mechanical properties :
#
#
# Convention : Reuss Voigt Hill
#
# Bulk Modulus (GPa) = 35.47844 44.14364 39.81104
# Shear Modulus (GPa) = 22.83558 27.52772 25.18165
#
# Velocity S-wave (km/s) = 3.34521 3.67285 3.51285
# Velocity P-wave (km/s) = 5.68389 6.29434 5.99689
#
# Compressibility (1/GPa) = 0.02818613
#
# Stress axis : x y z
#
# Youngs Moduli (GPa) = 93.16442 42.66933 105.24214
#
# Poissons Ratio (x) = 0.15854 0.04502
# Poissons Ratio (y) = 0.34615 0.37882
# Poissons Ratio (z) = 0.03985 0.15359
#
# Static dielectric constant tensor:
#      x y z
#    x 1.718870 0.000000 -0.011070 
#    y 0.000000 1.755560 0.000000 
#    z -0.011070 0.000000 1.752590 
# 
# From -- ./inp_files/27732.got.cif
#   From: 2010.05.17/outbox.cif.g08.bks.cpg/sg5_14_cif.got.tgz:27732.got - 2010.06.03 18:56:24.
