data_PCOD9127728
_publ_section_title
;
Structure prediction by ZEFSAII (Michael W. Deem and Ramdas Pophale) SiO2 
 PCOD9127728
Probable space group: C 2
;
_chemical_formula_sum "Si O2"
_cell_formula_units_Z 24
_cell_length_a 12.692461
_cell_length_b 10.689647
_cell_length_c 12.425457
_cell_angle_alpha 90.000000
_cell_angle_beta 144.271626
_cell_angle_gamma 90.000000
_cell_volume 984.446800
_symmetry_space_group_name_H-M "C 2"
_symmetry_group_IT_number 5
_symmetry_cell_setting 'monoclinic'
loop_
_space_group_symop_operation_xyz
x,y,z
-x,y,-z
1/2+x,1/2+y,z
1/2-x,1/2+y,-z
loop_
_atom_site_type_symbol
_atom_site_label
_atom_site_fract_x
_atom_site_fract_y
_atom_site_fract_z
Si Si1 0.097547 0.875000 0.448851
Si Si2 0.586852 0.463145 0.212125
Si Si3 0.297883 0.755386 0.282809
Si Si4 0.811121 0.054937 0.134605
Si Si5 0.086630 0.600438 0.468290
Si Si6 0.409703 0.024016 0.774780
O O1 0.145118 0.875162 0.361588
O O2 0.018353 0.741243 0.406411
O O3 0.271015 0.909627 0.661612
O O4 0.953264 0.986571 0.331515
O O5 0.672735 0.380021 0.188058
O O6 0.387510 0.510703 0.081140
O O7 0.702744 0.588631 0.328141
O O8 0.500000 0.766501 0.500000
O O9 0.311833 0.699822 0.172293
O O10 0.187978 0.645160 0.254670
O O11 0.609478 0.006769 0.984771
O O12 0.060793 0.547013 0.328688
O O13 0.000000 0.536279 0.500000
#
# Coordination Sequence:
#
# PCOD9127728 Si02
#       6
#     4   4   4   4   4   4
#     4   9  21  42  67  92 136 178 231 290 346 414
#     4   9  22  43  63 105 139 177 242 287 351 428
#     4  12  20  41  75 106 138 188 237 298 360 431
#     4  10  23  41  71 103 140 177 238 297 354 422
#     4  11  22  43  67  95 141 186 226 293 364 419
#     4  11  22  44  67 104 135 181 245 292 351 441
#
# _framework density 24.379175
#
# number of rings (size 3 to 8) (size 9 to 14) (size 15 to 20)
#    1.000    0.667    3.333    1.000    2.333    0.000 
#    6.000    5.833    0.000    0.000    0.000    0.000 
#    0.000    0.000    0.000    0.000    0.000    0.000 
#
# Total GULP energy -66823.747173 kJ/mol
# GULP energy per Si atom -5568.645598 kJ/mol
# Density = 2.432369 g / cm^3
# Si number density = 24.379175 Si / 1000 Ang^3
#
#
#
# Elastic Constant Matrix: (Units=GPa)
#
#
# Indices 1 2 3 4 5 6 
#
# 1 118.3843 23.1219 21.6956 0.0001 1.3769 0.0000
# 2 23.1219 70.0871 6.9810 0.0001 -5.0719 0.0001
# 3 21.6956 6.9810 110.2564 0.0002 35.5864 0.0002
# 4 0.0001 0.0001 0.0002 2.3236 0.0001 -0.5311
# 5 1.3769 -5.0719 35.5864 0.0001 41.7653 0.0001
# 6 0.0000 0.0001 0.0002 -0.5311 0.0001 35.8559
#
#
#
# Elastic Compliance Matrix: (Units=1/GPa)
#
#
# Indices 1 2 3 4 5 6 
#
# 1 0.009350 -0.002809 -0.002004 0.000000 0.001058 0.000000
# 2 -0.002809 0.015577 -0.001481 -0.000001 0.003247 0.000000
# 3 -0.002004 -0.001481 0.013234 0.000000 -0.011390 0.000000
# 4 0.000000 -0.000001 0.000000 0.431830 -0.000001 0.006396
# 5 0.001058 0.003247 -0.011390 -0.000001 0.034008 0.000000
# 6 0.000000 0.000000 0.000000 0.006396 0.000000 0.027984
#
#
# Mechanical properties :
#
#
# Convention : Reuss Voigt Hill
#
# Bulk Modulus (GPa) = 39.10164 44.70274 41.90219
# Shear Modulus (GPa) = 9.04003 32.45091 20.74547
#
# Velocity S-wave (km/s) = 1.92773 3.65237 2.92027
# Velocity P-wave (km/s) = 4.58570 6.01354 5.34749
#
# Compressibility (1/GPa) = 0.02557437
#
# Stress axis : x y z
#
# Youngs Moduli (GPa) = 106.94620 64.19711 75.56261
#
# Poissons Ratio (x) = 0.18031 0.15139
# Poissons Ratio (y) = 0.30037 0.11194
# Poissons Ratio (z) = 0.21427 0.09510
#
# Static dielectric constant tensor:
#      x y z
#    x 2.128220 0.000000 -0.029550 
#    y 0.000000 1.883860 0.000000 
#    z -0.029550 0.000000 1.956030 
# 
# From -- ./inp_files/54633.got.cif
#   From: 2010.05.17/outbox.cif.g08.bks.cpg/sg5_28_cif.got.tgz:54633.got - 2010.06.03 18:56:24.
