data_PCOD9127637
_publ_section_title
;
Structure prediction by ZEFSAII (Michael W. Deem and Ramdas Pophale) SiO2 
 PCOD9127637
Probable space group: C 2
;
_chemical_formula_sum "Si O2"
_cell_formula_units_Z 20
_cell_length_a 14.972016
_cell_length_b 6.697272
_cell_length_c 23.883674
_cell_angle_alpha 90.000000
_cell_angle_beta 22.181997
_cell_angle_gamma 90.000000
_cell_volume 904.177416
_symmetry_space_group_name_H-M "C 2"
_symmetry_group_IT_number 5
_symmetry_cell_setting 'monoclinic'
loop_
_space_group_symop_operation_xyz
x,y,z
-x,y,-z
1/2+x,1/2+y,z
1/2-x,1/2+y,-z
loop_
_atom_site_type_symbol
_atom_site_label
_atom_site_fract_x
_atom_site_fract_y
_atom_site_fract_z
Si Si1 0.882608 0.995760 0.620573
Si Si2 0.265967 0.655382 0.406608
Si Si3 0.426994 0.769578 0.867222
Si Si4 0.012003 0.345447 0.363460
Si Si5 0.518764 0.523721 0.055846
O O1 0.610252 0.953393 0.766902
O O2 0.000000 0.108313 0.500000
O O3 0.028056 0.788554 0.539285
O O4 0.927638 0.129003 0.647530
O O5 0.417804 0.620629 0.262315
O O6 0.425080 0.803870 0.351597
O O7 0.188887 0.457812 0.484180
O O8 0.395514 0.688634 0.948552
O O9 0.192672 0.839062 0.970643
O O10 0.250191 0.471381 0.227253
O O11 0.500000 0.570298 0.000000
#
# Coordination Sequence:
#
# PCOD9127637 Si02
#       5
#     4   4   4   4   4
#     4  10  23  40  68 101 137 176 238 299 349 420
#     4  11  23  43  71 103 141 181 242 299 350 425
#     4  11  25  49  67 106 147 187 244 299 357 437
#     4  12  23  43  72 104 138 193 235 296 366 421
#     4  12  26  47  72 101 149 194 237 297 363 433
#
# _framework density 22.119551000000001
#
# number of rings (size 3 to 8) (size 9 to 14) (size 15 to 20)
#    0.000    0.800    6.000    1.200    2.800    0.000 
#    7.200    0.000    0.000    0.000    0.000    0.000 
#    0.000    0.000    0.000    0.000    0.000    0.000 
#
# Total GULP energy -55782.989129 kJ/mol
# GULP energy per Si atom -5578.298913 kJ/mol
# Density = 2.206921 g / cm^3
# Si number density = 22.119551 Si / 1000 Ang^3
#
#
#
# Elastic Constant Matrix: (Units=GPa)
#
#
# Indices 1 2 3 4 5 6 
#
# 1 145.4633 18.5226 46.4644 -0.0022 6.7099 0.0013
# 2 18.5226 21.4613 13.7322 -0.0032 11.1340 0.0009
# 3 46.4644 13.7322 90.1891 -0.0272 -1.4834 -0.0037
# 4 -0.0022 -0.0032 -0.0272 11.5769 0.0002 -5.1177
# 5 6.7099 11.1340 -1.4834 0.0002 43.2038 -0.0005
# 6 0.0013 0.0009 -0.0037 -5.1177 -0.0005 35.6378
#
#
#
# Elastic Compliance Matrix: (Units=1/GPa)
#
#
# Indices 1 2 3 4 5 6 
#
# 1 0.008715 -0.005044 -0.003725 -0.000009 -0.000181 -0.000002
# 2 -0.005044 0.063963 -0.007403 -0.000002 -0.015955 -0.000003
# 3 -0.003725 -0.007403 0.014183 0.000033 0.002973 0.000007
# 4 -0.000009 -0.000002 0.000033 0.092234 0.000003 0.013245
# 5 -0.000181 -0.015955 0.002973 0.000003 0.027388 0.000001
# 6 -0.000002 -0.000003 0.000007 0.013245 0.000001 0.029962
#
#
# Mechanical properties :
#
#
# Convention : Reuss Voigt Hill
#
# Bulk Modulus (GPa) = 18.34284 46.06136 32.20210
# Shear Modulus (GPa) = 17.42399 29.97666 23.70033
#
# Velocity S-wave (km/s) = 2.80968 3.68531 3.27688
# Velocity P-wave (km/s) = 4.34008 6.24322 5.37653
#
# Compressibility (1/GPa) = 0.05451719
#
# Stress axis : x y z
#
# Youngs Moduli (GPa) = 114.74383 15.63411 70.50755
#
# Poissons Ratio (x) = 0.07886 0.26263
# Poissons Ratio (y) = 0.57879 0.52195
# Poissons Ratio (z) = 0.42741 0.11573
#
# Static dielectric constant tensor:
#      x y z
#    x 1.917350 0.000000 0.030890 
#    y 0.000000 1.818900 0.000000 
#    z 0.030890 0.000000 1.812740 
# 
# From -- ./inp_files/41374.got.cif
#   From: 2010.05.17/outbox.cif.g08.bks.cpg/sg5_21_cif.got.tgz:41374.got - 2010.06.03 18:56:24.
