data_PCOD9127877
_publ_section_title
;
Structure prediction by ZEFSAII (Michael W. Deem and Ramdas Pophale) SiO2 
 PCOD9127877
Probable space group: C 2
;
_chemical_formula_sum "Si O2"
_cell_formula_units_Z 24
_cell_length_a 21.338049
_cell_length_b 8.450177
_cell_length_c 5.451110
_cell_angle_alpha 90.000000
_cell_angle_beta 100.379031
_cell_angle_gamma 90.000000
_cell_volume 966.808643
_symmetry_space_group_name_H-M "C 2"
_symmetry_group_IT_number 5
_symmetry_cell_setting 'monoclinic'
loop_
_space_group_symop_operation_xyz
x,y,z
-x,y,-z
1/2+x,1/2+y,z
1/2-x,1/2+y,-z
loop_
_atom_site_type_symbol
_atom_site_label
_atom_site_fract_x
_atom_site_fract_y
_atom_site_fract_z
Si Si1 0.933473 0.878740 0.546393
Si Si2 0.203632 0.237400 0.274829
Si Si3 0.282498 0.428833 0.938222
Si Si4 0.427533 0.846187 0.027655
Si Si5 0.399246 0.216344 0.008893
Si Si6 0.357289 0.660073 0.352656
O O1 0.938746 0.790217 0.808305
O O2 0.000000 0.948397 0.500000
O O3 0.884105 0.020339 0.540681
O O4 0.913236 0.772058 0.298251
O O5 0.238044 0.065241 0.268479
O O6 0.200827 0.257221 0.568169
O O7 0.235965 0.360613 0.113731
O O8 0.127576 0.269674 0.179182
O O9 0.328567 0.283290 0.899285
O O10 0.328908 0.554471 0.113922
O O11 0.411209 0.772262 0.281358
O O12 0.500000 0.814620 0.000000
O O13 0.412497 0.031467 0.013633
#
# Coordination Sequence:
#
# PCOD9127877 Si02
#       6
#     4   4   4   4   4   4
#     4  11  23  42  72  97 143 188 241 290 362 433
#     4  11  23  45  68  97 137 184 235 297 369 424
#     4  10  23  43  69  96 136 179 240 293 362 436
#     4  11  26  43  67 103 145 183 243 294 362 430
#     4  11  24  46  67 107 138 192 238 300 360 430
#     4  10  25  42  65 103 132 188 236 296 361 429
#
# _framework density 24.823943
#
# number of rings (size 3 to 8) (size 9 to 14) (size 15 to 20)
#    0.000    1.333    1.667    2.500    4.667    4.000 
#    3.000    0.000    0.000    0.000    0.000    0.000 
#    0.000    0.000    0.000    0.000    0.000    0.000 
#
# Total GULP energy -66920.004428 kJ/mol
# GULP energy per Si atom -5576.667036 kJ/mol
# Density = 2.476744 g / cm^3
# Si number density = 24.823943 Si / 1000 Ang^3
#
#
#
# Elastic Constant Matrix: (Units=GPa)
#
#
# Indices 1 2 3 4 5 6 
#
# 1 100.5263 10.3196 8.7316 0.0000 -34.4938 0.0000
# 2 10.3196 95.2774 29.2309 0.0000 -26.0806 0.0000
# 3 8.7316 29.2309 91.0173 0.0000 -36.7051 0.0000
# 4 0.0000 0.0000 0.0000 31.8067 0.0000 -6.8370
# 5 -34.4938 -26.0806 -36.7051 0.0000 51.2525 0.0000
# 6 0.0000 0.0000 0.0000 -6.8370 0.0000 18.9608
#
#
#
# Elastic Compliance Matrix: (Units=1/GPa)
#
#
# Indices 1 2 3 4 5 6 
#
# 1 0.013679 0.000789 0.003247 0.000000 0.011933 0.000000
# 2 0.000789 0.012501 -0.001843 0.000000 0.005572 0.000000
# 3 0.003247 -0.001843 0.016550 0.000000 0.013100 0.000000
# 4 0.000000 0.000000 0.000000 0.034082 0.000000 0.012289
# 5 0.011933 0.005572 0.013100 0.000000 0.039759 0.000000
# 6 0.000000 0.000000 0.000000 0.012289 0.000000 0.057172
#
#
# Mechanical properties :
#
#
# Convention : Reuss Voigt Hill
#
# Bulk Modulus (GPa) = 21.22498 42.59836 31.91167
# Shear Modulus (GPa) = 27.01772 36.30658 31.66215
#
# Velocity S-wave (km/s) = 3.30263 3.82850 3.57524
# Velocity P-wave (km/s) = 4.80749 6.06140 5.47049
#
# Compressibility (1/GPa) = 0.04711430
#
# Stress axis : x y z
#
# Youngs Moduli (GPa) = 73.10372 79.99341 60.42199
#
# Poissons Ratio (x) = -0.06309 -0.19617
# Poissons Ratio (y) = -0.05766 0.11138
# Poissons Ratio (z) = -0.23734 0.14746
#
# Static dielectric constant tensor:
#      x y z
#    x 2.047230 0.000000 0.124640 
#    y 0.000000 2.041050 0.000000 
#    z 0.124640 0.000000 2.709570 
# 
# From -- ./inp_files/10159.got.cif
#   From: 2010.05.17/outbox.cif.g08.bks.cpg/sg5_6_cif.got.tgz:10159.got - 2010.06.03 18:56:24.
