data_PCOD9127753
_publ_section_title
;
Structure prediction by ZEFSAII (Michael W. Deem and Ramdas Pophale) SiO2 
 PCOD9127753
Probable space group: C 2
;
_chemical_formula_sum "Si O2"
_cell_formula_units_Z 26
_cell_length_a 7.255994
_cell_length_b 25.473391
_cell_length_c 7.739769
_cell_angle_alpha 90.000000
_cell_angle_beta 106.190125
_cell_angle_gamma 90.000000
_cell_volume 1373.844211
_symmetry_space_group_name_H-M "C 2"
_symmetry_group_IT_number 5
_symmetry_cell_setting 'monoclinic'
loop_
_space_group_symop_operation_xyz
x,y,z
-x,y,-z
1/2+x,1/2+y,z
1/2-x,1/2+y,-z
loop_
_atom_site_type_symbol
_atom_site_label
_atom_site_fract_x
_atom_site_fract_y
_atom_site_fract_z
Si Si1 0.613124 0.578430 0.349556
Si Si2 0.500000 0.646053 0.000000
Si Si3 0.000000 0.644954 0.500000
Si Si4 0.707418 0.820157 0.112698
Si Si5 0.910890 0.405992 0.643396
Si Si6 0.707032 0.459759 0.304431
Si Si7 0.111999 0.712429 0.848614
Si Si8 0.500000 0.386743 0.000000
O O1 0.500000 0.574701 0.500000
O O2 0.659996 0.520551 0.290149
O O3 0.811623 0.609009 0.437288
O O4 0.499373 0.610258 0.171941
O O5 0.309289 0.681131 0.936529
O O6 0.998663 0.681116 0.670780
O O7 0.665441 0.865443 0.240278
O O8 0.833392 0.770755 0.201945
O O9 0.500000 0.800222 0.000000
O O10 0.819739 0.849513 0.989047
O O11 0.748954 0.441796 0.512114
O O12 0.000000 0.375489 0.500000
O O13 0.090371 0.443970 0.737973
O O14 0.547256 0.424192 0.172988
O O15 0.000000 0.716409 0.000000
#
# Coordination Sequence:
#
# PCOD9127753 Si02
#       8
#     4   2   2   4   4   4   4   2
#     4  11  22  41  66  92 124 164 206 259 317 367
#     4  10  23  42  64  90 126 160 207 266 312 372
#     4  10  24  44  64  94 122 160 210 264 316 368
#     4  12  22  41  62  91 128 164 205 258 314 366
#     4   8  20  40  58  85 129 164 193 254 303 360
#     4   9  21  38  59  92 122 160 206 247 302 371
#     4  11  23  42  66  93 124 162 211 259 315 372
#     4  12  23  36  64  94 122 164 215 244 308 380
#
# _framework density 18.925000000000001
#
# number of rings (size 3 to 8) (size 9 to 14) (size 15 to 20)
#    0.923    0.615    3.077    2.308    2.154    1.231 
#    2.769    0.769    3.385    0.000    0.000    0.000 
#    0.000    0.000    0.000    0.000    0.000    0.000 
#
# Total GULP energy -72466.369805 kJ/mol
# GULP energy per Si atom -5574.336139 kJ/mol
# Density = 1.888193 g / cm^3
# Si number density = 18.925000 Si / 1000 Ang^3
#
#
#
# Elastic Constant Matrix: (Units=GPa)
#
#
# Indices 1 2 3 4 5 6 
#
# 1 62.7606 27.9490 19.7558 0.0000 -11.8033 0.0000
# 2 27.9490 114.5076 21.2721 0.0000 -7.2333 0.0000
# 3 19.7558 21.2721 44.1258 0.0000 0.3008 0.0000
# 4 0.0000 0.0000 0.0000 9.7294 0.0000 -5.1195
# 5 -11.8033 -7.2333 0.3008 0.0000 35.2671 0.0000
# 6 0.0000 0.0000 0.0000 -5.1195 0.0000 11.4346
#
#
#
# Elastic Compliance Matrix: (Units=1/GPa)
#
#
# Indices 1 2 3 4 5 6 
#
# 1 0.021095 -0.003271 -0.007912 0.000000 0.006457 0.000000
# 2 -0.003271 0.010244 -0.003481 0.000000 0.001036 0.000000
# 3 -0.007912 -0.003481 0.027907 0.000000 -0.003600 0.000000
# 4 0.000000 0.000000 0.000000 0.134456 0.000000 0.060199
# 5 0.006457 0.001036 -0.003600 0.000000 0.030759 0.000000
# 6 0.000000 0.000000 0.000000 0.060199 0.000000 0.114406
#
#
# Mechanical properties :
#
#
# Convention : Reuss Voigt Hill
#
# Bulk Modulus (GPa) = 33.42394 39.92752 36.67573
# Shear Modulus (GPa) = 13.22166 21.44736 17.33451
#
# Velocity S-wave (km/s) = 2.64604 3.37008 3.02976
# Velocity P-wave (km/s) = 5.19951 6.02385 5.62680
#
# Compressibility (1/GPa) = 0.02991868
#
# Stress axis : x y z
#
# Youngs Moduli (GPa) = 47.40448 97.62260 35.83322
#
# Poissons Ratio (x) = 0.31935 0.28350
# Poissons Ratio (y) = 0.15507 0.12472
# Poissons Ratio (z) = 0.37504 0.33979
#
# Static dielectric constant tensor:
#      x y z
#    x 1.676830 0.000000 0.005780 
#    y 0.000000 1.629240 0.000000 
#    z 0.005780 0.000000 1.661480 
# 
# From -- ./inp_files/13084.got.cif
#   From: 2010.05.17/outbox.cif.g08.bks.cpg/sg5_7_cif.got.tgz:13084.got - 2010.06.03 18:56:24.
