data_PCOD9127234
_publ_section_title
;
Structure prediction by ZEFSAII (Michael W. Deem and Ramdas Pophale) SiO2 
 PCOD9127234
Probable space group: C 2
;
_chemical_formula_sum "Si O2"
_cell_formula_units_Z 24
_cell_length_a 7.724199
_cell_length_b 14.300683
_cell_length_c 11.655622
_cell_angle_alpha 90.000000
_cell_angle_beta 127.249760
_cell_angle_gamma 90.000000
_cell_volume 1024.852187
_symmetry_space_group_name_H-M "C 2"
_symmetry_group_IT_number 5
_symmetry_cell_setting 'monoclinic'
loop_
_space_group_symop_operation_xyz
x,y,z
-x,y,-z
1/2+x,1/2+y,z
1/2-x,1/2+y,-z
loop_
_atom_site_type_symbol
_atom_site_label
_atom_site_fract_x
_atom_site_fract_y
_atom_site_fract_z
Si Si1 0.943071 0.715420 0.163710
Si Si2 0.514972 0.435104 0.206293
Si Si3 0.588460 0.577001 0.410003
Si Si4 0.548126 0.043511 0.691446
Si Si5 0.094235 0.421633 0.910440
Si Si6 0.641549 0.717645 0.833906
O O1 0.981042 0.824414 0.209067
O O2 0.910055 0.651401 0.260403
O O3 0.158278 0.698931 0.173011
O O4 0.739047 0.694209 0.998198
O O5 0.467323 0.489046 0.304628
O O6 0.748428 0.478963 0.264549
O O7 0.339160 0.454971 0.037165
O O8 0.500000 0.603541 0.500000
O O9 0.837073 0.546163 0.527567
O O10 0.549631 0.659378 0.302079
O O11 0.486193 0.000467 0.790666
O O12 0.091580 0.326916 0.834319
O O13 0.000000 0.405844 0.000000
#
# Coordination Sequence:
#
# PCOD9127234 Si02
#       6
#     4   4   4   4   4   4
#     4  10  22  44  74 102 140 198 249 309 377 439
#     4  11  25  47  70 106 149 192 263 310 369 455
#     4  12  25  43  68 106 151 197 244 305 385 455
#     4  12  24  42  72 106 147 201 245 307 385 453
#     4  11  24  44  77 111 144 197 259 318 375 441
#     4  10  22  44  71 104 145 190 252 308 376 446
#
# _framework density 23.418009999999999
#
# number of rings (size 3 to 8) (size 9 to 14) (size 15 to 20)
#    0.000    1.000    3.333    3.000    2.333    4.000 
#    3.000    1.667    0.000    0.000    0.000    0.000 
#    0.000    0.000    0.000    0.000    0.000    0.000 
#
# Total GULP energy -67002.839883 kJ/mol
# GULP energy per Si atom -5583.569990 kJ/mol
# Density = 2.336471 g / cm^3
# Si number density = 23.418010 Si / 1000 Ang^3
#
#
#
# Elastic Constant Matrix: (Units=GPa)
#
#
# Indices 1 2 3 4 5 6 
#
# 1 132.6632 44.4000 52.8141 0.0000 4.3337 0.0000
# 2 44.4000 145.1405 97.4401 0.0000 8.8418 0.0000
# 3 52.8141 97.4401 166.3031 0.0000 21.6306 0.0000
# 4 0.0000 0.0000 0.0000 22.1973 0.0000 -88.5034
# 5 4.3337 8.8418 21.6306 0.0000 38.6218 0.0000
# 6 0.0000 0.0000 0.0000 -88.5034 0.0000 152.8785
#
#
#
# Elastic Compliance Matrix: (Units=1/GPa)
#
#
# Indices 1 2 3 4 5 6 
#
# 1 0.008793 -0.001323 -0.002080 0.000000 0.000481 0.000000
# 2 -0.001323 0.011610 -0.006532 0.000000 0.001149 0.000000
# 3 -0.002080 -0.006532 0.011083 0.000000 -0.004479 0.000000
# 4 0.000000 0.000000 0.000000 -0.034437 0.000000 -0.019936
# 5 0.000481 0.001149 -0.004479 0.000000 0.028083 0.000000
# 6 0.000000 0.000000 0.000000 -0.019936 0.000000 -0.005000
#
#
# Mechanical properties :
#
#
# Convention : Reuss Voigt Hill
#
# Bulk Modulus (GPa) = 86.08083 92.60167 89.34125
# Shear Modulus (GPa) = 113.96606 59.36971 86.66789
#
# Velocity S-wave (km/s) = 6.98367 5.04056 6.09011
# Velocity P-wave (km/s) = 10.09292 8.57351 9.36408
#
# Compressibility (1/GPa) = 0.01161699
#
# Stress axis : x y z
#
# Youngs Moduli (GPa) = 113.72781 86.13635 90.22714
#
# Poissons Ratio (x) = 0.11394 0.18767
# Poissons Ratio (y) = 0.15043 0.58932
# Poissons Ratio (z) = 0.23655 0.56260
#
# Static dielectric constant tensor:
#      x y z
#    x 1.983680 0.000000 -0.039350 
#    y 0.000000 1.914450 0.000000 
#    z -0.039350 0.000000 1.824310 
# 
# From -- ./inp_files/35965.got.cif
#   From: 2010.05.17/outbox.cif.g08.bks.cpg/sg5_18_cif.got.tgz:35965.got - 2010.06.03 18:56:24.
