data_PCOD9127442
_publ_section_title
;
Structure prediction by ZEFSAII (Michael W. Deem and Ramdas Pophale) SiO2 
 PCOD9127442
Probable space group: C 2
;
_chemical_formula_sum "Si O2"
_cell_formula_units_Z 30
_cell_length_a 11.524081
_cell_length_b 9.321498
_cell_length_c 13.058414
_cell_angle_alpha 90.000000
_cell_angle_beta 105.609623
_cell_angle_gamma 90.000000
_cell_volume 1351.019662
_symmetry_space_group_name_H-M "C 2"
_symmetry_group_IT_number 5
_symmetry_cell_setting 'monoclinic'
loop_
_space_group_symop_operation_xyz
x,y,z
-x,y,-z
1/2+x,1/2+y,z
1/2-x,1/2+y,-z
loop_
_atom_site_type_symbol
_atom_site_label
_atom_site_fract_x
_atom_site_fract_y
_atom_site_fract_z
Si Si1 0.936693 0.539520 0.214262
Si Si2 0.635163 0.733482 0.835724
Si Si3 0.000000 0.284079 0.000000
Si Si4 0.360113 0.330408 0.301078
Si Si5 0.837583 0.512786 0.866535
Si Si6 0.762947 0.243821 0.526029
Si Si7 0.509756 0.585771 0.377607
Si Si8 0.403904 0.015861 0.559537
O O1 0.851214 0.406046 0.166690
O O2 0.876742 0.683799 0.242430
O O3 0.037328 0.570116 0.152055
O O4 0.020807 0.476124 0.324262
O O5 0.755359 0.642644 0.887182
O O6 0.581524 0.678885 0.713822
O O7 0.537479 0.705004 0.903813
O O8 0.113924 0.387257 0.048814
O O9 0.251519 0.426662 0.231170
O O10 0.326817 0.303276 0.410551
O O11 0.481288 0.425211 0.333935
O O12 0.690128 0.139879 0.434889
O O13 0.834991 0.378010 0.499178
O O14 0.856951 0.143647 0.609192
O O15 0.500000 0.597627 0.500000
O O16 0.500000 0.067660 0.500000
#
# Coordination Sequence:
#
# PCOD9127442 Si02
#       8
#     4   4   2   4   4   4   4   4
#     4  11  23  41  62  93 134 169 233 278 327 409
#     4  10  23  45  72 100 135 180 222 283 345 407
#     4  10  22  46  74 102 134 166 230 292 344 412
#     4  11  24  41  62  95 137 180 229 272 333 402
#     4  10  23  45  71  97 132 173 215 289 355 394
#     4  12  24  38  58  86 131 184 224 276 324 380
#     4  11  24  41  64  98 142 184 225 269 331 406
#     4  12  25  37  58  90 127 182 238 271 325 391
#
# _framework density 22.205449000000002
#
# number of rings (size 3 to 8) (size 9 to 14) (size 15 to 20)
#    0.000    1.067    4.000    2.000    5.600    3.200 
#    0.000    2.667    0.000    1.600    0.000    0.000 
#    0.000    0.000    0.000    0.000    0.000    0.000 
#
# Total GULP energy -83712.731086 kJ/mol
# GULP energy per Si atom -5580.848739 kJ/mol
# Density = 2.215491 g / cm^3
# Si number density = 22.205449 Si / 1000 Ang^3
#
#
#
# Elastic Constant Matrix: (Units=GPa)
#
#
# Indices 1 2 3 4 5 6 
#
# 1 68.5875 46.5757 5.1021 0.0000 3.8541 0.0000
# 2 46.5757 108.5723 3.4316 0.0000 3.8101 0.0000
# 3 5.1021 3.4316 58.3648 0.0000 -8.0213 0.0000
# 4 0.0000 0.0000 0.0000 13.1253 0.0000 2.2572
# 5 3.8541 3.8101 -8.0213 0.0000 25.9680 0.0000
# 6 0.0000 0.0000 0.0000 2.2572 0.0000 42.9023
#
#
#
# Elastic Compliance Matrix: (Units=1/GPa)
#
#
# Indices 1 2 3 4 5 6 
#
# 1 0.020799 -0.008791 -0.001617 0.000000 -0.002297 0.000000
# 2 -0.008791 0.013006 -0.000083 0.000000 -0.000629 0.000000
# 3 -0.001617 -0.000083 0.018082 0.000000 0.005838 0.000000
# 4 0.000000 0.000000 0.000000 0.076885 0.000000 -0.004045
# 5 -0.002297 -0.000629 0.005838 0.000000 0.040745 0.000000
# 6 0.000000 0.000000 0.000000 -0.004045 0.000000 0.023522
#
#
# Mechanical properties :
#
#
# Convention : Reuss Voigt Hill
#
# Bulk Modulus (GPa) = 32.35575 38.41594 35.38584
# Shear Modulus (GPa) = 22.28948 28.42679 25.35814
#
# Velocity S-wave (km/s) = 3.17169 3.58183 3.38298
# Velocity P-wave (km/s) = 5.29297 5.86888 5.58835
#
# Compressibility (1/GPa) = 0.03090641
#
# Stress axis : x y z
#
# Youngs Moduli (GPa) = 48.07999 76.88667 55.30336
#
# Poissons Ratio (x) = 0.67588 0.08942
# Poissons Ratio (y) = 0.42265 0.00457
# Poissons Ratio (z) = 0.07774 0.00636
#
# Static dielectric constant tensor:
#      x y z
#    x 1.820530 0.000000 -0.022290 
#    y 0.000000 1.834270 0.000000 
#    z -0.022290 0.000000 1.903700 
# 
# From -- ./inp_files/52435.got.cif
#   From: 2010.05.17/outbox.cif.g08.bks.cpg/sg5_27_cif.got.tgz:52435.got - 2010.06.03 18:56:24.
