data_PCOD9127824
_publ_section_title
;
Structure prediction by ZEFSAII (Michael W. Deem and Ramdas Pophale) SiO2 
 PCOD9127824
Probable space group: C 2
;
_chemical_formula_sum "Si O2"
_cell_formula_units_Z 16
_cell_length_a 24.896982
_cell_length_b 6.857258
_cell_length_c 5.153465
_cell_angle_alpha 90.000000
_cell_angle_beta 123.071229
_cell_angle_gamma 90.000000
_cell_volume 737.287433
_symmetry_space_group_name_H-M "C 2"
_symmetry_group_IT_number 5
_symmetry_cell_setting 'monoclinic'
loop_
_space_group_symop_operation_xyz
x,y,z
-x,y,-z
1/2+x,1/2+y,z
1/2-x,1/2+y,-z
loop_
_atom_site_type_symbol
_atom_site_label
_atom_site_fract_x
_atom_site_fract_y
_atom_site_fract_z
Si Si1 0.843670 0.423400 0.835185
Si Si2 0.791648 0.071961 0.411237
Si Si3 0.459470 0.208152 0.153093
Si Si4 0.365186 0.519719 0.100613
O O1 0.814406 0.295157 0.520148
O O2 0.783501 0.530998 0.810536
O O3 0.872474 0.252813 0.092988
O O4 0.900168 0.569817 0.919580
O O5 0.814912 0.973759 0.739422
O O6 0.832352 0.979823 0.287110
O O7 0.500000 0.119795 0.500000
O O8 0.500000 0.246470 0.000000
O O9 0.428215 0.401666 0.196926
#
# Coordination Sequence:
#
# PCOD9127824 Si02
#       4
#     4   4   4   4
#     4  10  26  42  73 101 141 173 222 292 343 407
#     4  10  23  42  73 102 137 165 224 286 365 384
#     4  12  28  45  69  97 140 191 233 267 331 413
#     4  10  25  43  67 102 138 173 225 285 335 408
#
# _framework density 21.701172
#
# number of rings (size 3 to 8) (size 9 to 14) (size 15 to 20)
#    1.500    0.000    0.000    3.000   10.500    2.000 
#    0.000    0.000    0.000    0.000    0.000    0.000 
#    0.000    0.000    0.000    0.000    0.000    0.000 
#
# Total GULP energy -44595.668111 kJ/mol
# GULP energy per Si atom -5574.458514 kJ/mol
# Density = 2.165178 g / cm^3
# Si number density = 21.701172 Si / 1000 Ang^3
#
#
#
# Elastic Constant Matrix: (Units=GPa)
#
#
# Indices 1 2 3 4 5 6 
#
# 1 164.5123 59.0470 51.9658 0.0000 3.1198 0.0000
# 2 59.0470 100.0859 29.1294 0.0000 15.9392 0.0000
# 3 51.9658 29.1294 68.5525 0.0000 -1.2660 0.0000
# 4 0.0000 0.0000 0.0000 14.0973 0.0000 5.8011
# 5 3.1198 15.9392 -1.2660 0.0000 44.7741 0.0000
# 6 0.0000 0.0000 0.0000 5.8011 0.0000 23.8748
#
#
#
# Elastic Compliance Matrix: (Units=1/GPa)
#
#
# Indices 1 2 3 4 5 6 
#
# 1 0.009146 -0.003973 -0.005233 0.000000 0.000629 0.000000
# 2 -0.003973 0.013974 -0.003015 0.000000 -0.004783 0.000000
# 3 -0.005233 -0.003015 0.019872 0.000000 0.002000 0.000000
# 4 0.000000 0.000000 0.000000 0.078816 0.000000 -0.019151
# 5 0.000629 -0.004783 0.002000 0.000000 0.024050 0.000000
# 6 0.000000 0.000000 0.000000 -0.019151 0.000000 0.046538
#
#
# Mechanical properties :
#
#
# Convention : Reuss Voigt Hill
#
# Bulk Modulus (GPa) = 53.90550 68.15945 61.03248
# Shear Modulus (GPa) = 22.41939 29.41648 25.91793
#
# Velocity S-wave (km/s) = 3.21767 3.68574 3.45963
# Velocity P-wave (km/s) = 6.22080 7.04197 6.64408
#
# Compressibility (1/GPa) = 0.01855098
#
# Stress axis : x y z
#
# Youngs Moduli (GPa) = 109.34331 71.55971 50.32144
#
# Poissons Ratio (x) = 0.28428 0.26333
# Poissons Ratio (y) = 0.43438 0.15171
# Poissons Ratio (z) = 0.57220 0.21575
#
# Static dielectric constant tensor:
#      x y z
#    x 1.734580 0.000000 -0.002010 
#    y 0.000000 1.845270 0.000000 
#    z -0.002010 0.000000 1.820470 
# 
# From -- ./inp_files/7833.got.cif
#   From: 2010.05.17/outbox.cif.g08.bks.cpg/sg5_4_cif.got.tgz:7833.got - 2010.06.03 18:56:24.
