data_PCOD9127747
_publ_section_title
;
Structure prediction by ZEFSAII (Michael W. Deem and Ramdas Pophale) SiO2 
 PCOD9127747
Probable space group: C 2
;
_chemical_formula_sum "Si O2"
_cell_formula_units_Z 28
_cell_length_a 5.328028
_cell_length_b 18.189521
_cell_length_c 13.748880
_cell_angle_alpha 90.000000
_cell_angle_beta 120.724623
_cell_angle_gamma 90.000000
_cell_volume 1145.428680
_symmetry_space_group_name_H-M "C 2"
_symmetry_group_IT_number 5
_symmetry_cell_setting 'monoclinic'
loop_
_space_group_symop_operation_xyz
x,y,z
-x,y,-z
1/2+x,1/2+y,z
1/2-x,1/2+y,-z
loop_
_atom_site_type_symbol
_atom_site_label
_atom_site_fract_x
_atom_site_fract_y
_atom_site_fract_z
Si Si1 0.500000 0.087371 0.000000
Si Si2 0.854925 0.567205 0.576755
Si Si3 0.490156 0.943861 0.108145
Si Si4 0.256188 0.327735 0.265314
Si Si5 0.000000 0.838131 0.000000
Si Si6 0.292576 0.718412 0.152884
Si Si7 0.746061 0.715066 0.631948
Si Si8 0.352379 0.908135 0.575834
O O1 0.251923 0.143887 0.915924
O O2 0.546145 0.030181 0.919150
O O3 0.500000 0.566303 0.500000
O O4 0.934772 0.641647 0.646739
O O5 0.946703 0.488002 0.636688
O O6 0.000000 0.570986 0.500000
O O7 0.764011 0.908080 0.217223
O O8 0.500000 0.912773 0.000000
O O9 0.214932 0.898809 0.092137
O O10 0.556794 0.286869 0.339012
O O11 0.101499 0.343835 0.338299
O O12 0.051942 0.270620 0.167272
O O13 0.986886 0.774190 0.912835
O O14 0.352316 0.701890 0.277174
O O15 0.500000 0.718879 0.500000
O O16 0.500000 0.900911 0.500000
O O17 0.000000 0.910403 0.500000
#
# Coordination Sequence:
#
# PCOD9127747 Si02
#       8
#     2   4   4   4   2   4   4   4
#     4   9  22  46  72  97 136 176 232 311 360 434
#     4   9  21  42  63  90 130 187 235 288 338 407
#     4   9  20  41  70  98 130 171 232 294 367 421
#     4  11  25  40  68 103 137 189 239 297 359 438
#     4   9  18  42  68  93 136 170 222 301 354 424
#     4  10  23  42  63 100 137 179 233 290 362 429
#     4  11  26  41  68  98 149 190 238 291 358 433
#     4  10  24  44  68  98 142 191 243 294 350 423
#
# _framework density 24.444994999999999
#
# number of rings (size 3 to 8) (size 9 to 14) (size 15 to 20)
#    0.429    1.714    0.000    0.857   10.000    0.000 
#    2.571    0.000    0.000    0.000    0.000    0.000 
#    0.000    0.000    0.000    0.000    0.000    0.000 
#
# Total GULP energy -77959.267584 kJ/mol
# GULP energy per Si atom -5568.519113 kJ/mol
# Density = 2.438936 g / cm^3
# Si number density = 24.444995 Si / 1000 Ang^3
#
#
#
# Elastic Constant Matrix: (Units=GPa)
#
#
# Indices 1 2 3 4 5 6 
#
# 1 82.8442 26.9479 14.2290 0.0000 -6.6065 0.0000
# 2 26.9479 196.4955 47.9907 0.0000 12.1882 0.0000
# 3 14.2290 47.9907 82.9853 0.0000 5.9794 0.0000
# 4 0.0000 0.0000 0.0000 72.0730 0.0000 -2.1985
# 5 -6.6065 12.1882 5.9794 0.0000 24.1173 0.0000
# 6 0.0000 0.0000 0.0000 -2.1985 0.0000 27.2749
#
#
#
# Elastic Compliance Matrix: (Units=1/GPa)
#
#
# Indices 1 2 3 4 5 6 
#
# 1 0.013308 -0.001731 -0.001636 0.000000 0.004926 0.000000
# 2 -0.001731 0.006267 -0.003121 0.000000 -0.002867 0.000000
# 3 -0.001636 -0.003121 0.014310 0.000000 -0.002419 0.000000
# 4 0.000000 0.000000 0.000000 0.013909 0.000000 0.001121
# 5 0.004926 -0.002867 -0.002419 0.000000 0.044862 0.000000
# 6 0.000000 0.000000 0.000000 0.001121 0.000000 0.036754
#
#
# Mechanical properties :
#
#
# Convention : Reuss Voigt Hill
#
# Bulk Modulus (GPa) = 47.82534 60.07334 53.94934
# Shear Modulus (GPa) = 33.47759 42.90353 38.19056
#
# Velocity S-wave (km/s) = 3.70470 4.19394 3.95689
# Velocity P-wave (km/s) = 6.15684 6.93401 6.55695
#
# Compressibility (1/GPa) = 0.02090942
#
# Stress axis : x y z
#
# Youngs Moduli (GPa) = 75.14453 159.57639 69.88276
#
# Poissons Ratio (x) = 0.27625 0.11430
# Poissons Ratio (y) = 0.13008 0.21807
# Poissons Ratio (z) = 0.12291 0.49797
#
# Static dielectric constant tensor:
#      x y z
#    x 1.590480 0.000000 -0.155800 
#    y 0.000000 1.966250 0.000000 
#    z -0.155800 0.000000 1.945040 
# 
# From -- ./inp_files/49395.got.cif
#   From: 2010.05.17/outbox.cif.g08.bks.cpg/sg5_25_cif.got.tgz:49395.got - 2010.06.03 18:56:24.
