data_PCOD9127408
_publ_section_title
;
Structure prediction by ZEFSAII (Michael W. Deem and Ramdas Pophale) SiO2 
 PCOD9127408
Probable space group: C 2
;
_chemical_formula_sum "Si O2"
_cell_formula_units_Z 28
_cell_length_a 16.122527
_cell_length_b 9.988142
_cell_length_c 8.209889
_cell_angle_alpha 90.000000
_cell_angle_beta 83.727189
_cell_angle_gamma 90.000000
_cell_volume 1314.156641
_symmetry_space_group_name_H-M "C 2"
_symmetry_group_IT_number 5
_symmetry_cell_setting 'monoclinic'
loop_
_space_group_symop_operation_xyz
x,y,z
-x,y,-z
1/2+x,1/2+y,z
1/2-x,1/2+y,-z
loop_
_atom_site_type_symbol
_atom_site_label
_atom_site_fract_x
_atom_site_fract_y
_atom_site_fract_z
Si Si1 0.672083 0.581730 0.469079
Si Si2 0.444410 0.384205 0.349122
Si Si3 0.000000 0.986995 0.000000
Si Si4 0.686400 0.873690 0.595405
Si Si5 0.554276 0.098220 0.649635
Si Si6 0.500000 0.004970 0.000000
Si Si7 0.313759 0.880382 0.031592
Si Si8 0.829357 0.093799 0.910238
O O1 0.605474 0.519663 0.606308
O O2 0.683884 0.737655 0.497727
O O3 0.750465 0.485578 0.482154
O O4 0.651114 0.562063 0.283054
O O5 0.500000 0.375184 0.500000
O O6 0.396521 0.240503 0.354038
O O7 0.489769 0.401594 0.167202
O O8 0.914541 0.070132 0.992261
O O9 0.706247 0.838396 0.778166
O O10 0.602294 0.959053 0.622975
O O11 0.500000 0.104944 0.500000
O O12 0.506694 0.088036 0.831394
O O13 0.588896 0.926524 0.995916
O O14 0.247008 0.999082 0.013504
O O15 0.302784 0.748467 0.926996
#
# Coordination Sequence:
#
# PCOD9127408 Si02
#       8
#     4   4   2   4   4   2   4   4
#     4  11  23  42  67  97 134 176 228 279 340 411
#     4  11  23  43  66  98 132 173 226 276 336 406
#     4  12  24  44  72 100 138 188 220 288 344 394
#     4  10  23  42  64  94 134 174 220 283 340 395
#     4  10  23  41  66  97 129 171 222 273 336 404
#     4  10  22  46  68  98 134 178 226 286 338 402
#     4  10  24  44  66 100 135 177 231 283 338 414
#     4  11  25  43  68 101 138 181 231 281 343 408
#
# _framework density 21.306439000000001
#
# number of rings (size 3 to 8) (size 9 to 14) (size 15 to 20)
#    0.000    1.429    1.429    2.571    2.000    8.571 
#    2.571    0.000    0.000    0.000    0.000    0.000 
#    0.000    0.000    0.000    0.000    0.000    0.000 
#
# Total GULP energy -78052.454296 kJ/mol
# GULP energy per Si atom -5575.175307 kJ/mol
# Density = 2.125795 g / cm^3
# Si number density = 21.306439 Si / 1000 Ang^3
#
#
#
# Elastic Constant Matrix: (Units=GPa)
#
#
# Indices 1 2 3 4 5 6 
#
# 1 83.9894 49.4580 34.3897 0.0000 -4.8292 0.0000
# 2 49.4580 158.2678 49.6305 0.0000 -5.3097 0.0000
# 3 34.3897 49.6305 121.1619 0.0000 -1.0245 0.0000
# 4 0.0000 0.0000 0.0000 59.6983 0.0000 15.6345
# 5 -4.8292 -5.3097 -1.0245 0.0000 17.2081 0.0000
# 6 0.0000 0.0000 0.0000 15.6345 0.0000 35.5788
#
#
#
# Elastic Compliance Matrix: (Units=1/GPa)
#
#
# Indices 1 2 3 4 5 6 
#
# 1 0.015498 -0.003868 -0.002789 0.000000 0.002990 0.000000
# 2 -0.003868 0.008289 -0.002286 0.000000 0.001336 0.000000
# 3 -0.002789 -0.002286 0.009974 0.000000 -0.000894 0.000000
# 4 0.000000 0.000000 0.000000 0.018929 0.000000 -0.008318
# 5 0.002990 0.001336 -0.000894 0.000000 0.059310 0.000000
# 6 0.000000 0.000000 0.000000 -0.008318 0.000000 0.031762
#
#
# Mechanical properties :
#
#
# Convention : Reuss Voigt Hill
#
# Bulk Modulus (GPa) = 62.99554 70.04173 66.51864
# Shear Modulus (GPa) = 29.95085 37.82644 33.88864
#
# Velocity S-wave (km/s) = 3.75336 4.21806 3.99248
# Velocity P-wave (km/s) = 6.95803 7.52779 7.24851
#
# Compressibility (1/GPa) = 0.01587414
#
# Stress axis : x y z
#
# Youngs Moduli (GPa) = 64.52463 120.64335 100.26145
#
# Poissons Ratio (x) = 0.46666 0.27964
# Poissons Ratio (y) = 0.24959 0.22921
# Poissons Ratio (z) = 0.17996 0.27580
#
# Static dielectric constant tensor:
#      x y z
#    x 1.844500 0.000000 -0.025150 
#    y 0.000000 1.816090 0.000000 
#    z -0.025150 0.000000 1.773230 
# 
# From -- ./inp_files/26710.got.cif
#   From: 2010.05.17/outbox.cif.g08.bks.cpg/sg5_14_cif.got.tgz:26710.got - 2010.06.03 18:56:24.
