data_PCOD9127079
_publ_section_title
;
Structure prediction by ZEFSAII (Michael W. Deem and Ramdas Pophale) SiO2 
 PCOD9127079
Probable space group: C 2
;
_chemical_formula_sum "Si O2"
_cell_formula_units_Z 18
_cell_length_a 12.224399
_cell_length_b 8.371605
_cell_length_c 8.984618
_cell_angle_alpha 90.000000
_cell_angle_beta 50.778184
_cell_angle_gamma 90.000000
_cell_volume 712.314094
_symmetry_space_group_name_H-M "C 2"
_symmetry_group_IT_number 5
_symmetry_cell_setting 'monoclinic'
loop_
_space_group_symop_operation_xyz
x,y,z
-x,y,-z
1/2+x,1/2+y,z
1/2-x,1/2+y,-z
loop_
_atom_site_type_symbol
_atom_site_label
_atom_site_fract_x
_atom_site_fract_y
_atom_site_fract_z
Si Si1 0.390366 0.285070 0.826813
Si Si2 0.500000 0.103642 0.000000
Si Si3 0.651072 0.082987 0.578281
Si Si4 0.616621 0.625129 0.026506
Si Si5 0.567837 0.752933 0.587834
O O1 0.543104 0.227639 0.635954
O O2 0.370560 0.470481 0.878078
O O3 0.395304 0.209281 0.989304
O O4 0.266716 0.193836 0.845579
O O5 0.400099 0.026557 0.210960
O O6 0.808226 0.145072 0.454051
O O7 0.630663 0.926783 0.497338
O O8 0.555109 0.763306 0.185285
O O9 0.500000 0.593300 0.000000
O O10 0.500000 0.680479 0.500000
#
# Coordination Sequence:
#
# PCOD9127079 Si02
#       5
#     4   2   4   4   4
#     4  10  22  43  71 100 141 180 230 287 337 416
#     4   8  20  44  72  94 140 178 224 280 340 404
#     4  10  23  44  72  96 142 180 226 281 350 401
#     4  12  25  43  72 105 137 186 234 279 350 415
#     4  12  27  44  70 103 142 180 228 295 342 402
#
# _framework density 25.269753999999999
#
# number of rings (size 3 to 8) (size 9 to 14) (size 15 to 20)
#    1.333    0.000    1.111    4.000    1.556    7.111 
#    0.000    2.222    0.000    0.000    0.000    0.000 
#    0.000    0.000    0.000    0.000    0.000    0.000 
#
# Total GULP energy -50289.526202 kJ/mol
# GULP energy per Si atom -5587.725134 kJ/mol
# Density = 2.521224 g / cm^3
# Si number density = 25.269754 Si / 1000 Ang^3
#
#
#
# Elastic Constant Matrix: (Units=GPa)
#
#
# Indices 1 2 3 4 5 6 
#
# 1 149.1684 40.7041 12.8685 0.0000 -21.2889 0.0000
# 2 40.7041 92.6336 -18.8516 0.0000 -2.0966 0.0000
# 3 12.8685 -18.8516 56.2294 0.0000 -9.4174 0.0000
# 4 0.0000 0.0000 0.0000 21.7400 0.0000 -11.8946
# 5 -21.2889 -2.0966 -9.4174 0.0000 34.6530 0.0000
# 6 0.0000 0.0000 0.0000 -11.8946 0.0000 29.2533
#
#
#
# Elastic Compliance Matrix: (Units=1/GPa)
#
#
# Indices 1 2 3 4 5 6 
#
# 1 0.008731 -0.004288 -0.002704 0.000000 0.004369 0.000000
# 2 -0.004288 0.013805 0.005561 0.000000 -0.000288 0.000000
# 3 -0.002704 0.005561 0.021002 0.000000 0.004383 0.000000
# 4 0.000000 0.000000 0.000000 0.059159 0.000000 0.024055
# 5 0.004369 -0.000288 0.004383 0.000000 0.032716 0.000000
# 6 0.000000 0.000000 0.000000 0.024055 0.000000 0.043965
#
#
# Mechanical properties :
#
#
# Convention : Reuss Voigt Hill
#
# Bulk Modulus (GPa) = 24.58434 40.83038 32.70736
# Shear Modulus (GPa) = 25.53683 34.68329 30.11006
#
# Velocity S-wave (km/s) = 3.18239 3.70878 3.45562
# Velocity P-wave (km/s) = 4.82218 5.87647 5.37523
#
# Compressibility (1/GPa) = 0.04067631
#
# Stress axis : x y z
#
# Youngs Moduli (GPa) = 114.53864 72.44006 47.61548
#
# Poissons Ratio (x) = 0.31060 0.12874
# Poissons Ratio (y) = 0.49111 -0.26480
# Poissons Ratio (z) = 0.30969 -0.40286
#
# Static dielectric constant tensor:
#      x y z
#    x 1.979860 0.000000 0.019100 
#    y 0.000000 1.945050 0.000000 
#    z 0.019100 0.000000 1.944800 
# 
# From -- ./inp_files/18218.got.cif
#   From: 2010.05.17/outbox.cif.g08.bks.cpg/sg5_10_cif.got.tgz:18218.got - 2010.06.03 18:56:24.
