data_PCOD9127524
_publ_section_title
;
Structure prediction by ZEFSAII (Michael W. Deem and Ramdas Pophale) SiO2 
 PCOD9127524
Probable space group: C 2
;
_chemical_formula_sum "Si O2"
_cell_formula_units_Z 22
_cell_length_a 18.634163
_cell_length_b 6.830048
_cell_length_c 11.853508
_cell_angle_alpha 90.000000
_cell_angle_beta 147.640494
_cell_angle_gamma 90.000000
_cell_volume 807.459844
_symmetry_space_group_name_H-M "C 2"
_symmetry_group_IT_number 5
_symmetry_cell_setting 'monoclinic'
loop_
_space_group_symop_operation_xyz
x,y,z
-x,y,-z
1/2+x,1/2+y,z
1/2-x,1/2+y,-z
loop_
_atom_site_type_symbol
_atom_site_label
_atom_site_fract_x
_atom_site_fract_y
_atom_site_fract_z
Si Si1 0.385428 0.404690 0.431496
Si Si2 0.914405 0.487542 0.563476
Si Si3 0.000000 0.918685 0.000000
Si Si4 0.693655 0.970589 0.997372
Si Si5 0.860997 0.542083 0.750189
Si Si6 0.197076 0.910776 0.089273
O O1 0.444085 0.213686 0.568928
O O2 0.285370 0.503501 0.389894
O O3 0.325801 0.915210 0.342000
O O4 0.273173 0.341752 0.191538
O O5 0.857519 0.482881 0.614889
O O6 0.000000 0.995371 0.500000
O O7 0.056977 0.386462 0.766907
O O8 0.107466 0.772225 0.198818
O O9 0.079323 0.014173 0.004108
O O10 0.784252 0.997289 0.008634
O O11 0.667857 0.178304 0.026766
O O12 0.000000 0.461633 0.000000
#
# Coordination Sequence:
#
# PCOD9127524 Si02
#       6
#     4   4   2   4   4   4
#     4  12  26  45  82 110 144 207 248 310 382 443
#     4  12  26  47  79 109 152 201 254 306 385 447
#     4  10  22  50  70 106 152 200 238 314 370 434
#     4  12  25  51  71 113 160 181 253 325 365 441
#     4  10  22  48  76 102 153 198 236 318 365 434
#     4  12  25  45  82 106 148 208 242 310 387 440
#
# _framework density 27.245937999999999
#
# number of rings (size 3 to 8) (size 9 to 14) (size 15 to 20)
#    0.545    0.000    5.455    3.818    2.545    1.455 
#    1.636    1.818    0.000    0.000    0.000    0.000 
#    0.000    0.000    0.000    0.000    0.000    0.000 
#
# Total GULP energy -61479.986691 kJ/mol
# GULP energy per Si atom -5589.089699 kJ/mol
# Density = 2.718392 g / cm^3
# Si number density = 27.245938 Si / 1000 Ang^3
#
#
#
# Elastic Constant Matrix: (Units=GPa)
#
#
# Indices 1 2 3 4 5 6 
#
# 1 250.8655 20.9401 49.7736 0.0000 1.5434 0.0000
# 2 20.9401 41.0545 27.2794 0.0000 1.7796 0.0000
# 3 49.7736 27.2794 170.6046 0.0000 -18.1515 0.0000
# 4 0.0000 0.0000 0.0000 40.8662 0.0000 -6.8327
# 5 1.5434 1.7796 -18.1515 0.0000 59.5345 0.0000
# 6 0.0000 0.0000 0.0000 -6.8327 0.0000 8.8409
#
#
#
# Elastic Compliance Matrix: (Units=1/GPa)
#
#
# Indices 1 2 3 4 5 6 
#
# 1 0.004324 -0.001480 -0.001067 0.000000 -0.000393 0.000000
# 2 -0.001480 0.028045 -0.004277 0.000000 -0.002104 0.000000
# 3 -0.001067 -0.004277 0.007104 0.000000 0.002321 0.000000
# 4 0.000000 0.000000 0.000000 0.028101 0.000000 0.021718
# 5 -0.000393 -0.002104 0.002321 0.000000 0.017578 0.000000
# 6 0.000000 0.000000 0.000000 0.021718 0.000000 0.129895
#
#
# Mechanical properties :
#
#
# Convention : Reuss Voigt Hill
#
# Bulk Modulus (GPa) = 38.71921 73.16786 55.94353
# Shear Modulus (GPa) = 21.07029 46.15043 33.61036
#
# Velocity S-wave (km/s) = 2.78391 4.12010 3.51606
# Velocity P-wave (km/s) = 4.95736 7.03893 6.08777
#
# Compressibility (1/GPa) = 0.02582698
#
# Stress axis : x y z
#
# Youngs Moduli (GPa) = 231.28038 35.65651 140.77544
#
# Poissons Ratio (x) = 0.05275 0.15016
# Poissons Ratio (y) = 0.34219 0.60204
# Poissons Ratio (z) = 0.24671 0.15249
#
# Static dielectric constant tensor:
#      x y z
#    x 2.155040 0.000000 0.077210 
#    y 0.000000 2.195460 0.000000 
#    z 0.077210 0.000000 2.071680 
# 
# From -- ./inp_files/44245.got.cif
#   From: 2010.05.17/outbox.cif.g08.bks.cpg/sg5_23_cif.got.tgz:44245.got - 2010.06.03 18:56:24.
