data_PCOD9127644
_publ_section_title
;
Structure prediction by ZEFSAII (Michael W. Deem and Ramdas Pophale) SiO2 
 PCOD9127644
Probable space group: C 2
;
_chemical_formula_sum "Si O2"
_cell_formula_units_Z 32
_cell_length_a 15.189797
_cell_length_b 11.599899
_cell_length_c 19.915639
_cell_angle_alpha 90.000000
_cell_angle_beta 21.989415
_cell_angle_gamma 90.000000
_cell_volume 1313.945053
_symmetry_space_group_name_H-M "C 2"
_symmetry_group_IT_number 5
_symmetry_cell_setting 'monoclinic'
loop_
_space_group_symop_operation_xyz
x,y,z
-x,y,-z
1/2+x,1/2+y,z
1/2-x,1/2+y,-z
loop_
_atom_site_type_symbol
_atom_site_label
_atom_site_fract_x
_atom_site_fract_y
_atom_site_fract_z
Si Si1 0.803718 0.726890 0.363512
Si Si2 0.365283 0.113435 0.764999
Si Si3 0.307801 0.609460 0.831914
Si Si4 0.500668 0.855413 0.322402
Si Si5 0.726532 0.065786 0.742577
Si Si6 0.118038 0.367417 0.730841
Si Si7 0.084366 0.943309 0.128124
Si Si8 0.892409 0.140138 0.180297
O O1 0.606024 0.811040 0.532770
O O2 0.741049 0.648483 0.344437
O O3 0.911491 0.656841 0.350605
O O4 0.001510 0.814776 0.198476
O O5 0.325059 0.151712 0.716835
O O6 0.366200 0.974719 0.762314
O O7 0.135730 0.157666 0.967206
O O8 0.352679 0.745597 0.808065
O O9 0.366094 0.582459 0.712956
O O10 0.439922 0.521923 0.787927
O O11 0.038406 0.587141 0.043259
O O12 0.309675 0.874378 0.397986
O O13 0.749507 0.939691 0.694845
O O14 0.113820 0.236782 0.758585
O O15 0.859121 0.430181 0.914184
O O16 0.928776 0.012619 0.184547
#
# Coordination Sequence:
#
# PCOD9127644 Si02
#       8
#     4   4   4   4   4   4   4   4
#     4  12  26  43  64  94 141 180 215 272 336 411
#     4  11  25  43  66 106 134 176 225 281 344 400
#     4  10  23  40  70  99 124 171 227 277 335 398
#     4  12  25  42  65  91 141 184 220 263 339 412
#     4  10  23  42  69  99 132 166 231 284 329 394
#     4  11  21  43  69  97 131 174 224 281 338 396
#     4  11  22  40  66  98 131 170 222 275 340 394
#     4  11  23  41  74 102 132 167 231 294 336 391
#
# _framework density 24.354137999999999
#
# number of rings (size 3 to 8) (size 9 to 14) (size 15 to 20)
#    0.000    1.000    5.000    1.500    5.250    2.500 
#    0.000    1.875    0.000    0.000    0.000    0.000 
#    0.000    0.000    0.000    0.000    0.000    0.000 
#
# Total GULP energy -89475.493925 kJ/mol
# GULP energy per Si atom -5592.218370 kJ/mol
# Density = 2.429871 g / cm^3
# Si number density = 24.354138 Si / 1000 Ang^3
#
#
#
# Elastic Constant Matrix: (Units=GPa)
#
#
# Indices 1 2 3 4 5 6 
#
# 1 131.2605 23.7552 17.0137 0.0064 22.3935 0.0070
# 2 23.7552 96.1733 -0.0543 -0.0141 1.4329 0.0210
# 3 17.0137 -0.0543 60.4680 -0.0257 13.9752 0.0240
# 4 0.0064 -0.0141 -0.0257 19.2780 0.0194 18.6058
# 5 22.3935 1.4329 13.9752 0.0194 37.7957 -0.0085
# 6 0.0070 0.0210 0.0240 18.6058 -0.0085 27.9360
#
#
#
# Elastic Compliance Matrix: (Units=1/GPa)
#
#
# Indices 1 2 3 4 5 6 
#
# 1 0.009000 -0.002154 -0.001444 -0.000003 -0.004717 0.000001
# 2 -0.002154 0.010920 0.000456 0.000045 0.000694 -0.000038
# 3 -0.001444 0.000456 0.018316 0.000135 -0.005934 -0.000107
# 4 -0.000003 0.000045 0.000135 0.145219 -0.000146 -0.096718
# 5 -0.004717 0.000694 -0.005934 -0.000146 0.031421 0.000113
# 6 0.000001 -0.000038 -0.000107 -0.096718 0.000113 0.100212
#
#
# Mechanical properties :
#
#
# Convention : Reuss Voigt Hill
#
# Bulk Modulus (GPa) = 31.29750 41.03677 36.16714
# Shear Modulus (GPa) = 15.05922 33.48109 24.27016
#
# Velocity S-wave (km/s) = 2.48935 3.71180 3.16025
# Velocity P-wave (km/s) = 4.59798 5.93772 5.31027
#
# Compressibility (1/GPa) = 0.03195143
#
# Stress axis : x y z
#
# Youngs Moduli (GPa) = 111.11014 91.57690 54.59711
#
# Poissons Ratio (x) = 0.19722 0.07884
# Poissons Ratio (y) = 0.23929 -0.02487
# Poissons Ratio (z) = 0.16046 -0.04171
#
# Static dielectric constant tensor:
#      x y z
#    x 1.960150 -0.000010 -0.023270 
#    y -0.000010 1.887550 0.000000 
#    z -0.023270 0.000000 1.968860 
# 
# From -- ./inp_files/61691.got.cif
#   From: 2010.05.17/outbox.cif.g08.bks.cpg/sg5_31_cif.got.tgz:61691.got - 2010.06.03 18:56:24.
