data_PCOD9127347
_publ_section_title
;
Structure prediction by ZEFSAII (Michael W. Deem and Ramdas Pophale) SiO2 
 PCOD9127347
Probable space group: C 2
;
_chemical_formula_sum "Si O2"
_cell_formula_units_Z 28
_cell_length_a 13.857714
_cell_length_b 9.495059
_cell_length_c 11.465020
_cell_angle_alpha 90.000000
_cell_angle_beta 61.796788
_cell_angle_gamma 90.000000
_cell_volume 1329.463732
_symmetry_space_group_name_H-M "C 2"
_symmetry_group_IT_number 5
_symmetry_cell_setting 'monoclinic'
loop_
_space_group_symop_operation_xyz
x,y,z
-x,y,-z
1/2+x,1/2+y,z
1/2-x,1/2+y,-z
loop_
_atom_site_type_symbol
_atom_site_label
_atom_site_fract_x
_atom_site_fract_y
_atom_site_fract_z
Si Si1 0.831186 0.652780 0.877509
Si Si2 0.377846 0.630793 0.590314
Si Si3 0.887452 0.267127 0.123635
Si Si4 0.682347 0.072411 0.849997
Si Si5 0.889847 0.462422 0.629981
Si Si6 0.532781 0.330980 0.850177
Si Si7 0.668170 0.569620 0.644341
O O1 0.720200 0.717259 0.886496
O O2 0.876903 0.532370 0.764518
O O3 0.926432 0.766198 0.848338
O O4 0.805319 0.592309 0.019479
O O5 0.500000 0.575902 0.500000
O O6 0.300691 0.552855 0.725018
O O7 0.385115 0.792475 0.630208
O O8 0.326401 0.612107 0.492586
O O9 0.888040 0.434532 0.131831
O O10 0.873221 0.202980 0.259214
O O11 0.000000 0.219368 0.000000
O O12 0.620236 0.206516 0.829275
O O13 0.787049 0.521304 0.617832
O O14 0.000000 0.504524 0.500000
O O15 0.588072 0.445049 0.734503
O O16 0.500000 0.384129 0.000000
#
# Coordination Sequence:
#
# PCOD9127347 Si02
#       7
#     4   4   4   4   4   4   4
#     4  10  25  43  74  99 135 182 225 286 337 411
#     4  11  27  43  68  99 137 181 226 281 337 401
#     4  11  26  42  69 103 133 178 229 287 341 397
#     4  11  25  44  69 100 138 180 230 272 347 405
#     4  10  24  46  69  99 134 183 225 277 342 401
#     4  10  22  45  71 101 134 180 224 280 344 409
#     4  11  25  45  69 100 138 180 224 288 337 402
#
# _framework density 21.061124
#
# number of rings (size 3 to 8) (size 9 to 14) (size 15 to 20)
#    0.000    1.429    1.429    1.714   10.000    3.429 
#    2.571    0.000    0.000    0.000    0.000    0.000 
#    0.000    0.000    0.000    0.000    0.000    0.000 
#
# Total GULP energy -78283.885556 kJ/mol
# GULP energy per Si atom -5591.706111 kJ/mol
# Density = 2.101319 g / cm^3
# Si number density = 21.061124 Si / 1000 Ang^3
#
#
#
# Elastic Constant Matrix: (Units=GPa)
#
#
# Indices 1 2 3 4 5 6 
#
# 1 79.4257 11.1839 66.5032 0.0000 -10.8151 0.0000
# 2 11.1839 76.1651 42.0898 0.0000 6.5430 0.0000
# 3 66.5032 42.0898 156.2030 0.0000 -9.4834 0.0000
# 4 0.0000 0.0000 0.0000 58.0436 0.0000 -34.8928
# 5 -10.8151 6.5430 -9.4834 0.0000 44.3485 0.0000
# 6 0.0000 0.0000 0.0000 -34.8928 0.0000 40.1970
#
#
#
# Elastic Compliance Matrix: (Units=1/GPa)
#
#
# Indices 1 2 3 4 5 6 
#
# 1 0.020157 0.001706 -0.008873 0.000000 0.002766 0.000000
# 2 0.001706 0.016034 -0.005233 0.000000 -0.003069 0.000000
# 3 -0.008873 -0.005233 0.011657 0.000000 0.001101 0.000000
# 4 0.000000 0.000000 0.000000 0.036029 0.000000 0.031275
# 5 0.002766 -0.003069 0.001101 0.000000 0.023911 0.000000
# 6 0.000000 0.000000 0.000000 0.031275 0.000000 0.052026
#
#
# Mechanical properties :
#
#
# Convention : Reuss Voigt Hill
#
# Bulk Modulus (GPa) = 43.39018 61.26083 52.32551
# Shear Modulus (GPa) = 26.00138 41.31895 33.66017
#
# Velocity S-wave (km/s) = 3.51745 4.43409 4.00210
# Velocity P-wave (km/s) = 6.09454 7.44078 6.80105
#
# Compressibility (1/GPa) = 0.02304669
#
# Stress axis : x y z
#
# Youngs Moduli (GPa) = 49.61177 62.36578 85.78733
#
# Poissons Ratio (x) = -0.10641 0.76122
# Poissons Ratio (y) = -0.08465 0.44895
# Poissons Ratio (z) = 0.44022 0.32638
#
# Static dielectric constant tensor:
#      x y z
#    x 1.115000 0.000000 -0.656660 
#    y 0.000000 1.760460 0.000000 
#    z -0.656660 0.000000 1.077930 
# 
# From -- ./inp_files/41876.got.cif
#   From: 2010.05.17/outbox.cif.g08.bks.cpg/sg5_21_cif.got.tgz:41876.got - 2010.06.03 18:56:24.
