data_PCOD9127648
_publ_section_title
;
Structure prediction by ZEFSAII (Michael W. Deem and Ramdas Pophale) SiO2 
 PCOD9127648
Probable space group: C 2
;
_chemical_formula_sum "Si O2"
_cell_formula_units_Z 22
_cell_length_a 17.089332
_cell_length_b 9.076663
_cell_length_c 13.920237
_cell_angle_alpha 90.000000
_cell_angle_beta 156.934317
_cell_angle_gamma 90.000000
_cell_volume 845.954448
_symmetry_space_group_name_H-M "C 2"
_symmetry_group_IT_number 5
_symmetry_cell_setting 'monoclinic'
loop_
_space_group_symop_operation_xyz
x,y,z
-x,y,-z
1/2+x,1/2+y,z
1/2-x,1/2+y,-z
loop_
_atom_site_type_symbol
_atom_site_label
_atom_site_fract_x
_atom_site_fract_y
_atom_site_fract_z
Si Si1 0.474649 0.045230 0.177358
Si Si2 0.841943 0.053065 0.720630
Si Si3 0.727370 0.309485 0.974522
Si Si4 0.638914 0.351004 0.562617
Si Si5 0.277724 0.963686 0.227659
Si Si6 0.000000 0.573399 0.000000
O O1 0.697995 0.037493 0.468068
O O2 0.331131 0.137465 0.087040
O O3 0.385776 0.880375 0.079492
O O4 0.469580 0.134230 0.072181
O O5 0.764347 0.203529 0.682220
O O6 0.787412 0.923544 0.736215
O O7 0.077788 0.053187 0.972212
O O8 0.514943 0.374618 0.699016
O O9 0.801299 0.354392 0.164294
O O10 0.500000 0.342359 0.500000
O O11 0.800810 0.476813 0.759594
O O12 0.500000 0.024499 0.500000
#
# Coordination Sequence:
#
# PCOD9127648 Si02
#       6
#     4   4   4   4   4   2
#     4  11  25  47  73 109 153 194 250 303 376 443
#     4  10  23  40  73 106 146 195 251 302 358 455
#     4  11  25  46  72 106 149 197 243 309 371 441
#     4  11  23  43  70 105 146 196 250 298 368 445
#     4  11  21  41  71 106 143 186 252 305 366 421
#     4  12  24  44  72 108 144 196 242 312 374 432
#
# _framework density 26.006126999999999
#
# number of rings (size 3 to 8) (size 9 to 14) (size 15 to 20)
#    0.000    1.091    3.636    2.727    2.545    2.909 
#    3.273    1.818    0.000    0.000    0.000    0.000 
#    0.000    0.000    0.000    0.000    0.000    0.000 
#
# Total GULP energy -61386.120633 kJ/mol
# GULP energy per Si atom -5580.556421 kJ/mol
# Density = 2.594694 g / cm^3
# Si number density = 26.006127 Si / 1000 Ang^3
#
#
#
# Elastic Constant Matrix: (Units=GPa)
#
#
# Indices 1 2 3 4 5 6 
#
# 1 120.9592 12.4002 38.4636 0.0001 2.3310 0.0000
# 2 12.4002 23.4307 28.6114 0.0001 13.2729 0.0000
# 3 38.4636 28.6114 206.0060 0.0003 3.6276 0.0002
# 4 0.0001 0.0001 0.0003 24.6354 0.0002 8.4421
# 5 2.3310 13.2729 3.6276 0.0002 67.2263 0.0000
# 6 0.0000 0.0000 0.0002 8.4421 0.0000 31.8069
#
#
#
# Elastic Compliance Matrix: (Units=1/GPa)
#
#
# Indices 1 2 3 4 5 6 
#
# 1 0.009004 -0.003565 -0.001194 0.000000 0.000456 0.000000
# 2 -0.003565 0.060134 -0.007486 0.000000 -0.011345 0.000000
# 3 -0.001194 -0.007486 0.006096 0.000000 0.001191 0.000000
# 4 0.000000 0.000000 0.000000 0.044653 0.000000 -0.011852
# 5 0.000456 -0.011345 0.001191 0.000000 0.017035 0.000000
# 6 0.000000 0.000000 0.000000 -0.011852 0.000000 0.034585
#
#
# Mechanical properties :
#
#
# Convention : Reuss Voigt Hill
#
# Bulk Modulus (GPa) = 19.70741 56.59403 38.15072
# Shear Modulus (GPa) = 23.48377 42.79510 33.13944
#
# Velocity S-wave (km/s) = 3.00827 4.06097 3.57360
# Velocity P-wave (km/s) = 4.43404 6.61798 5.63287
#
# Compressibility (1/GPa) = 0.05074234
#
# Stress axis : x y z
#
# Youngs Moduli (GPa) = 111.06635 16.62946 164.04389
#
# Poissons Ratio (x) = 0.05929 0.19585
# Poissons Ratio (y) = 0.39600 1.22809
# Poissons Ratio (z) = 0.13260 0.12449
#
# Static dielectric constant tensor:
#      x y z
#    x 2.197490 0.000000 -0.027870 
#    y 0.000000 2.118470 0.000000 
#    z -0.027870 0.000000 1.941110 
# 
# From -- ./inp_files/55997.got.cif
#   From: 2010.05.17/outbox.cif.g08.bks.cpg/sg5_28_cif.got.tgz:55997.got - 2010.06.03 18:56:24.
