data_PCOD9127929
_publ_section_title
;
Structure prediction by ZEFSAII (Michael W. Deem and Ramdas Pophale) SiO2 
 PCOD9127929
Probable space group: C 2
;
_chemical_formula_sum "Si O2"
_cell_formula_units_Z 30
_cell_length_a 13.769835
_cell_length_b 5.130716
_cell_length_c 19.128124
_cell_angle_alpha 90.000000
_cell_angle_beta 125.164459
_cell_angle_gamma 90.000000
_cell_volume 1104.760345
_symmetry_space_group_name_H-M "C 2"
_symmetry_group_IT_number 5
_symmetry_cell_setting 'monoclinic'
loop_
_space_group_symop_operation_xyz
x,y,z
-x,y,-z
1/2+x,1/2+y,z
1/2-x,1/2+y,-z
loop_
_atom_site_type_symbol
_atom_site_label
_atom_site_fract_x
_atom_site_fract_y
_atom_site_fract_z
Si Si1 0.208689 0.130350 0.022112
Si Si2 0.359670 0.746050 0.366472
Si Si3 0.695817 0.653368 0.315523
Si Si4 0.015671 0.986521 0.699622
Si Si5 0.378003 0.042516 0.814163
Si Si6 0.500000 0.918891 0.000000
Si Si7 0.258544 0.509911 0.455923
Si Si8 0.406851 0.005244 0.200535
O O1 0.275161 0.051454 0.119817
O O2 0.280494 0.375496 0.020451
O O3 0.079147 0.237957 0.983048
O O4 0.329305 0.047780 0.369029
O O5 0.467792 0.630370 0.367248
O O6 0.242619 0.677548 0.267252
O O7 0.355037 0.618711 0.441080
O O8 0.614102 0.449200 0.321668
O O9 0.651614 0.744668 0.222135
O O10 0.672580 0.890550 0.360317
O O11 0.074197 0.202114 0.775256
O O12 0.073612 0.704603 0.727953
O O13 0.412099 0.069264 0.909741
O O14 0.499373 0.092447 0.820851
O O15 0.218024 0.748401 0.488469
#
# Coordination Sequence:
#
# PCOD9127929 Si02
#       8
#     4   4   4   4   4   2   4   4
#     4  12  27  46  65  96 138 183 239 307 366 420
#     4  11  23  43  76 103 137 183 240 277 354 430
#     4  10  23  44  70 101 139 184 227 291 345 420
#     4  11  25  41  73 100 137 179 232 287 345 418
#     4  10  23  44  67 100 138 187 238 292 360 417
#     4  12  26  46  70 102 144 196 248 300 368 426
#     4  11  23  43  75 103 142 181 217 280 349 413
#     4  11  23  46  64  96 138 180 233 304 351 409
#
# _framework density 27.155208999999999
#
# number of rings (size 3 to 8) (size 9 to 14) (size 15 to 20)
#    0.000    1.067    4.000    1.600    7.467    0.533 
#    0.000    0.667    5.867    0.000    0.000    0.000 
#    0.000    0.000    0.000    0.000    0.000    0.000 
#
# Total GULP energy -83773.373142 kJ/mol
# GULP energy per Si atom -5584.891543 kJ/mol
# Density = 2.709340 g / cm^3
# Si number density = 27.155209 Si / 1000 Ang^3
#
#
#
# Elastic Constant Matrix: (Units=GPa)
#
#
# Indices 1 2 3 4 5 6 
#
# 1 74.7882 9.1471 6.6437 0.0000 -25.1965 0.0000
# 2 9.1471 130.4205 32.2489 0.0000 -10.6933 0.0000
# 3 6.6437 32.2489 138.3188 0.0000 -10.3602 0.0000
# 4 0.0000 0.0000 0.0000 33.3269 0.0000 8.4256
# 5 -25.1965 -10.6933 -10.3602 0.0000 43.7533 0.0000
# 6 0.0000 0.0000 0.0000 8.4256 0.0000 22.6009
#
#
#
# Elastic Compliance Matrix: (Units=1/GPa)
#
#
# Indices 1 2 3 4 5 6 
#
# 1 0.016609 -0.000389 0.000002 0.000000 0.009470 0.000000
# 2 -0.000389 0.008253 -0.001803 0.000000 0.001366 0.000000
# 3 0.000002 -0.001803 0.007755 0.000000 0.001397 0.000000
# 4 0.000000 0.000000 0.000000 0.033128 0.000000 -0.012350
# 5 0.009470 0.001366 0.001397 0.000000 0.028974 0.000000
# 6 0.000000 0.000000 0.000000 -0.012350 0.000000 0.048850
#
#
# Mechanical properties :
#
#
# Convention : Reuss Voigt Hill
#
# Bulk Modulus (GPa) = 35.41499 48.84520 42.13009
# Shear Modulus (GPa) = 31.77426 39.63542 35.70484
#
# Velocity S-wave (km/s) = 3.42438 3.82460 3.63001
# Velocity P-wave (km/s) = 5.35772 6.12616 5.75478
#
# Compressibility (1/GPa) = 0.02823663
#
# Stress axis : x y z
#
# Youngs Moduli (GPa) = 60.20823 121.17343 128.95612
#
# Poissons Ratio (x) = 0.04713 -0.00029
# Poissons Ratio (y) = 0.02342 0.23252
# Poissons Ratio (z) = -0.00014 0.21849
#
# Static dielectric constant tensor:
#      x y z
#    x 2.153680 0.000000 0.046270 
#    y 0.000000 2.242680 0.000000 
#    z 0.046270 0.000000 2.176090 
# 
# From -- ./inp_files/61121.got.cif
#   From: 2010.05.17/outbox.cif.g08.bks.cpg/sg5_31_cif.got.tgz:61121.got - 2010.06.03 18:56:24.
