data_PCOD9127607
_publ_section_title
;
Structure prediction by ZEFSAII (Michael W. Deem and Ramdas Pophale) SiO2 
 PCOD9127607
Probable space group: C 2
;
_chemical_formula_sum "Si O2"
_cell_formula_units_Z 28
_cell_length_a 7.776161
_cell_length_b 7.183439
_cell_length_c 22.873229
_cell_angle_alpha 90.000000
_cell_angle_beta 127.406789
_cell_angle_gamma 90.000000
_cell_volume 1014.922802
_symmetry_space_group_name_H-M "C 2"
_symmetry_group_IT_number 5
_symmetry_cell_setting 'monoclinic'
loop_
_space_group_symop_operation_xyz
x,y,z
-x,y,-z
1/2+x,1/2+y,z
1/2-x,1/2+y,-z
loop_
_atom_site_type_symbol
_atom_site_label
_atom_site_fract_x
_atom_site_fract_y
_atom_site_fract_z
Si Si1 0.244447 0.036520 0.797401
Si Si2 0.511476 0.712988 0.582033
Si Si3 0.878135 0.316550 0.084789
Si Si4 0.555246 0.194772 0.277808
Si Si5 0.008158 0.958260 0.938713
Si Si6 0.133989 0.258556 0.314465
Si Si7 0.056817 0.787702 0.449050
O O1 0.363894 0.169385 0.773671
O O2 0.014679 0.136422 0.758183
O O3 0.434999 0.970111 0.879851
O O4 0.152020 0.829155 0.759920
O O5 0.427067 0.712618 0.631203
O O6 0.316729 0.792034 0.502011
O O7 0.524463 0.499001 0.566037
O O8 0.754821 0.783861 0.642049
O O9 0.720097 0.355818 0.107116
O O10 0.962646 0.108128 0.103998
O O11 0.713141 0.330917 0.995479
O O12 0.561657 0.973734 0.292873
O O13 0.000000 0.064912 0.000000
O O14 0.391621 0.208658 0.366800
O O15 0.000000 0.698054 0.500000
#
# Coordination Sequence:
#
# PCOD9127607 Si02
#       7
#     4   4   4   4   4   4   4
#     4  11  22  41  66  93 131 171 223 262 344 387
#     4   9  19  37  58  80 119 155 212 268 327 388
#     4   9  19  42  63  98 128 174 216 279 324 411
#     4  10  23  40  62  93 126 173 215 279 324 405
#     4   8  20  39  65  92 138 166 221 270 330 395
#     4   9  21  41  57  88 125 163 214 274 325 401
#     4   9  18  36  56  85 113 159 210 261 331 384
#
# _framework density 27.588308000000001
#
# number of rings (size 3 to 8) (size 9 to 14) (size 15 to 20)
#    0.857    1.714    0.000    0.857    2.000    2.286 
#   30.857    0.000    0.000    0.000    0.000    0.000 
#    0.000    0.000    0.000    0.000    0.000    0.000 
#
# Total GULP energy -78076.624117 kJ/mol
# GULP energy per Si atom -5576.901723 kJ/mol
# Density = 2.752552 g / cm^3
# Si number density = 27.588308 Si / 1000 Ang^3
#
#
#
# Elastic Constant Matrix: (Units=GPa)
#
#
# Indices 1 2 3 4 5 6 
#
# 1 79.5178 17.4148 19.6889 0.0000 16.7870 0.0000
# 2 17.4148 91.4257 25.0262 0.0000 11.2551 0.0000
# 3 19.6889 25.0262 150.8668 0.0000 30.0859 0.0000
# 4 0.0000 0.0000 0.0000 34.6732 0.0000 14.1793
# 5 16.7870 11.2551 30.0859 0.0000 40.3564 0.0000
# 6 0.0000 0.0000 0.0000 14.1793 0.0000 42.3113
#
#
#
# Elastic Compliance Matrix: (Units=1/GPa)
#
#
# Indices 1 2 3 4 5 6 
#
# 1 0.014181 -0.001943 -0.000540 0.000000 -0.004954 0.000000
# 2 -0.001943 0.011876 -0.001430 0.000000 -0.001438 0.000000
# 3 -0.000540 -0.001430 0.008001 0.000000 -0.005341 0.000000
# 4 0.000000 0.000000 0.000000 0.033421 0.000000 -0.011200
# 5 -0.004954 -0.001438 -0.005341 0.000000 0.031223 0.000000
# 6 0.000000 0.000000 0.000000 -0.011200 0.000000 0.027388
#
#
# Mechanical properties :
#
#
# Convention : Reuss Voigt Hill
#
# Bulk Modulus (GPa) = 38.12186 49.56335 43.84260
# Shear Modulus (GPa) = 35.04808 40.78020 37.91414
#
# Velocity S-wave (km/s) = 3.56813 3.84887 3.71115
# Velocity P-wave (km/s) = 5.55189 6.14460 5.85575
#
# Compressibility (1/GPa) = 0.02623167
#
# Stress axis : x y z
#
# Youngs Moduli (GPa) = 70.51664 84.20054 124.98060
#
# Poissons Ratio (x) = 0.16364 0.06754
# Poissons Ratio (y) = 0.13704 0.17868
# Poissons Ratio (z) = 0.03811 0.12038
#
# Static dielectric constant tensor:
#      x y z
#    x 2.298300 0.000000 0.022560 
#    y 0.000000 2.137960 0.000000 
#    z 0.022560 0.000000 2.209000 
# 
# From -- ./inp_files/71543.got.cif
#   From: 2010.05.17/outbox.cif.g08.bks.cpg/sg5_36_cif.got.tgz:71543.got - 2010.06.03 18:56:24.
