data_PCOD9127893
_publ_section_title
;
Structure prediction by ZEFSAII (Michael W. Deem and Ramdas Pophale) SiO2 
 PCOD9127893
Probable space group: C 2
;
_chemical_formula_sum "Si O2"
_cell_formula_units_Z 32
_cell_length_a 29.219171
_cell_length_b 5.117209
_cell_length_c 8.891848
_cell_angle_alpha 90.000000
_cell_angle_beta 93.278775
_cell_angle_gamma 90.000000
_cell_volume 1327.338172
_symmetry_space_group_name_H-M "C 2"
_symmetry_group_IT_number 5
_symmetry_cell_setting 'monoclinic'
loop_
_space_group_symop_operation_xyz
x,y,z
-x,y,-z
1/2+x,1/2+y,z
1/2-x,1/2+y,-z
loop_
_atom_site_type_symbol
_atom_site_label
_atom_site_fract_x
_atom_site_fract_y
_atom_site_fract_z
Si Si1 0.414924 0.689760 0.224812
Si Si2 0.263892 0.655843 0.414354
Si Si3 0.916665 0.472755 0.659346
Si Si4 0.949717 0.964380 0.514953
Si Si5 0.448542 0.047183 0.002720
Si Si6 0.142894 0.810920 0.891663
Si Si7 0.351388 0.016990 0.404116
Si Si8 0.270663 0.117334 0.929086
O O1 0.429238 0.464500 0.343309
O O2 0.368476 0.616463 0.126403
O O3 0.397991 0.904089 0.339598
O O4 0.451571 0.796815 0.115117
O O5 0.264418 0.377056 0.498222
O O6 0.241392 0.618074 0.247897
O O7 0.313156 0.794456 0.408819
O O8 0.922799 0.171162 0.612843
O O9 0.927474 0.483350 0.836820
O O10 0.868626 0.578803 0.576740
O O11 0.951402 0.682742 0.591701
O O12 0.000000 0.075789 0.500000
O O13 0.500000 0.159064 0.000000
O O14 0.407889 0.213376 0.071356
O O15 0.161750 0.719507 0.730886
O O16 0.178816 0.717951 0.020442
O O17 0.238340 0.331533 0.004735
#
# Coordination Sequence:
#
# PCOD9127893 Si02
#       8
#     4   4   4   4   4   4   4   4
#     4  10  23  43  71  96 135 197 234 296 350 436
#     4  12  28  45  73 109 149 185 230 307 370 430
#     4  11  25  42  68 100 133 184 226 300 350 413
#     4  11  23  41  69  94 132 177 239 276 347 424
#     4  11  27  44  66 106 151 187 244 308 368 417
#     4  11  24  44  74  99 141 195 244 293 364 441
#     4  10  23  47  68 100 141 184 241 288 359 435
#     4  12  26  48  78 108 146 194 250 298 364 453
#
# _framework density 24.108402999999999
#
# number of rings (size 3 to 8) (size 9 to 14) (size 15 to 20)
#    0.000    1.000    2.500    2.625    8.750    1.500 
#    0.000    0.000    0.000    0.000    0.000    0.000 
#    0.000    0.000    0.000    0.000    0.000    0.000 
#
# Total GULP energy -89331.505109 kJ/mol
# GULP energy per Si atom -5583.219069 kJ/mol
# Density = 2.405353 g / cm^3
# Si number density = 24.108403 Si / 1000 Ang^3
#
#
#
# Elastic Constant Matrix: (Units=GPa)
#
#
# Indices 1 2 3 4 5 6 
#
# 1 78.8477 -4.7502 32.2565 0.0000 -0.2066 0.0000
# 2 -4.7502 67.7943 22.0189 0.0000 -5.2231 0.0000
# 3 32.2565 22.0189 168.1266 0.0000 13.6061 0.0000
# 4 0.0000 0.0000 0.0000 18.0150 0.0000 0.7531
# 5 -0.2066 -5.2231 13.6061 0.0000 31.8852 0.0000
# 6 0.0000 0.0000 0.0000 0.7531 0.0000 31.8395
#
#
#
# Elastic Compliance Matrix: (Units=1/GPa)
#
#
# Indices 1 2 3 4 5 6 
#
# 1 0.014096 0.002141 -0.003129 0.000000 0.001777 0.000000
# 2 0.002141 0.016119 -0.002834 0.000000 0.003864 0.000000
# 3 -0.003129 -0.002834 0.007207 0.000000 -0.003560 0.000000
# 4 0.000000 0.000000 0.000000 0.055564 0.000000 -0.001314
# 5 0.001777 0.003864 -0.003560 0.000000 0.033526 0.000000
# 6 0.000000 0.000000 0.000000 -0.001314 0.000000 0.031439
#
#
# Mechanical properties :
#
#
# Convention : Reuss Voigt Hill
#
# Bulk Modulus (GPa) = 33.58201 45.97990 39.78095
# Shear Modulus (GPa) = 28.48644 34.03084 31.25864
#
# Velocity S-wave (km/s) = 3.44117 3.76117 3.60472
# Velocity P-wave (km/s) = 5.45423 6.16242 5.81911
#
# Compressibility (1/GPa) = 0.02977785
#
# Stress axis : x y z
#
# Youngs Moduli (GPa) = 70.94095 62.03944 138.74462
#
# Poissons Ratio (x) = -0.13281 0.43408
# Poissons Ratio (y) = -0.15187 0.39326
# Poissons Ratio (z) = 0.22195 0.17585
#
# Static dielectric constant tensor:
#      x y z
#    x 1.987090 0.000000 0.035510 
#    y 0.000000 2.039580 0.000000 
#    z 0.035510 0.000000 1.976170 
# 
# From -- ./inp_files/32284.got.cif
#   From: 2010.05.17/outbox.cif.g08.bks.cpg/sg5_17_cif.got.tgz:32284.got - 2010.06.03 18:56:24.
