data_PCOD9127519
_publ_section_title
;
Structure prediction by ZEFSAII (Michael W. Deem and Ramdas Pophale) SiO2 
 PCOD9127519
Probable space group: C 2
;
_chemical_formula_sum "Si O2"
_cell_formula_units_Z 22
_cell_length_a 9.740800
_cell_length_b 16.205673
_cell_length_c 10.261062
_cell_angle_alpha 90.000000
_cell_angle_beta 42.077227
_cell_angle_gamma 90.000000
_cell_volume 1085.460801
_symmetry_space_group_name_H-M "C 2"
_symmetry_group_IT_number 5
_symmetry_cell_setting 'monoclinic'
loop_
_space_group_symop_operation_xyz
x,y,z
-x,y,-z
1/2+x,1/2+y,z
1/2-x,1/2+y,-z
loop_
_atom_site_type_symbol
_atom_site_label
_atom_site_fract_x
_atom_site_fract_y
_atom_site_fract_z
Si Si1 0.000000 0.674780 0.500000
Si Si2 0.500000 0.454264 0.000000
Si Si3 0.135861 0.540292 0.609791
Si Si4 0.567582 0.757169 0.815188
Si Si5 0.934050 0.083017 0.812025
Si Si6 0.936443 0.372686 0.674880
Si Si7 0.000000 0.557649 0.000000
O O1 0.018211 0.614015 0.613623
O O2 0.194598 0.733993 0.355752
O O3 0.445227 0.511574 0.914084
O O4 0.700563 0.399268 0.836651
O O5 0.374069 0.563258 0.418758
O O6 0.069017 0.525018 0.806634
O O7 0.073615 0.455556 0.583566
O O8 0.466766 0.668165 0.864133
O O9 0.493529 0.817829 0.756534
O O10 0.500000 0.793208 0.000000
O O11 0.720168 0.093349 0.888395
O O12 0.000000 0.325181 0.500000
#
# Coordination Sequence:
#
# PCOD9127519 Si02
#       7
#     2   2   4   4   4   4   2
#     4  10  22  48  74  90 130 190 226 262 334 416
#     4  12  22  45  75  92 126 192 226 268 328 415
#     4  11  22  43  70  98 130 177 230 271 326 405
#     4  11  25  42  67 100 136 177 219 279 338 400
#     4  11  23  44  73  97 132 179 234 268 330 404
#     4  12  25  42  65  99 135 173 226 277 339 388
#     4  12  24  37  69 108 128 162 228 298 310 381
#
# _framework density 20.267889
#
# number of rings (size 3 to 8) (size 9 to 14) (size 15 to 20)
#    0.000    0.727    5.455    2.727    1.273    5.091 
#    3.273    0.000    0.000    0.000    0.000    0.000 
#    0.000    0.000    0.000    0.000    0.000    0.000 
#
# Total GULP energy -61345.087192 kJ/mol
# GULP energy per Si atom -5576.826108 kJ/mol
# Density = 2.022176 g / cm^3
# Si number density = 20.267889 Si / 1000 Ang^3
#
#
#
# Elastic Constant Matrix: (Units=GPa)
#
#
# Indices 1 2 3 4 5 6 
#
# 1 152.8261 41.2171 59.2850 -0.0038 -11.5289 0.0022
# 2 41.2171 53.3548 39.1511 -0.0049 -1.8677 -0.0026
# 3 59.2850 39.1511 118.4880 -0.0056 23.4364 -0.0021
# 4 -0.0038 -0.0049 -0.0056 3.0571 0.0036 -14.3508
# 5 -11.5289 -1.8677 23.4364 0.0036 54.4073 -0.0002
# 6 0.0022 -0.0026 -0.0021 -14.3508 -0.0002 -122.6571
#
#
#
# Elastic Compliance Matrix: (Units=1/GPa)
#
#
# Indices 1 2 3 4 5 6 
#
# 1 0.009553 -0.004245 -0.004098 -0.000003 0.003644 0.000001
# 2 -0.004245 0.027819 -0.007738 0.000012 0.003389 -0.000002
# 3 -0.004098 -0.007738 0.014507 0.000011 -0.007383 -0.000001
# 4 -0.000003 0.000012 0.000011 0.211145 -0.000019 -0.024704
# 5 0.003644 0.003389 -0.007383 -0.000019 0.022449 0.000002
# 6 0.000001 -0.000002 -0.000001 -0.024704 0.000002 -0.005262
#
#
# Mechanical properties :
#
#
# Convention : Reuss Voigt Hill
#
# Bulk Modulus (GPa) = 50.71883 67.10840 58.91362
# Shear Modulus (GPa) = 15.67674 -0.70417 7.48628
#
# Velocity S-wave (km/s) = 2.78416 -0.59007 1.92398
# Velocity P-wave (km/s) = 5.95096 5.71999 5.83662
#
# Compressibility (1/GPa) = 0.01971654
#
# Stress axis : x y z
#
# Youngs Moduli (GPa) = 104.68163 35.94708 68.93191
#
# Poissons Ratio (x) = 0.15260 0.28246
# Poissons Ratio (y) = 0.44440 0.53340
# Poissons Ratio (z) = 0.42895 0.27816
#
# Static dielectric constant tensor:
#      x y z
#    x 1.802170 0.000000 0.036340 
#    y 0.000000 1.680480 0.000000 
#    z 0.036340 0.000000 1.778170 
# 
# From -- ./inp_files/16045.got.cif
#   From: 2010.05.17/outbox.cif.g08.bks.cpg/sg5_9_cif.got.tgz:16045.got - 2010.06.03 18:56:24.
