data_PCOD9127230
_publ_section_title
;
Structure prediction by ZEFSAII (Michael W. Deem and Ramdas Pophale) SiO2 
 PCOD9127230
Probable space group: C 2
;
_chemical_formula_sum "Si O2"
_cell_formula_units_Z 24
_cell_length_a 10.517281
_cell_length_b 8.392451
_cell_length_c 11.262689
_cell_angle_alpha 90.000000
_cell_angle_beta 62.449169
_cell_angle_gamma 90.000000
_cell_volume 881.378637
_symmetry_space_group_name_H-M "C 2"
_symmetry_group_IT_number 5
_symmetry_cell_setting 'monoclinic'
loop_
_space_group_symop_operation_xyz
x,y,z
-x,y,-z
1/2+x,1/2+y,z
1/2-x,1/2+y,-z
loop_
_atom_site_type_symbol
_atom_site_label
_atom_site_fract_x
_atom_site_fract_y
_atom_site_fract_z
Si Si1 0.677738 0.234000 0.202424
Si Si2 0.649826 0.239400 0.705590
Si Si3 0.728622 0.781574 0.593230
Si Si4 0.921343 0.268586 0.724066
Si Si5 0.000000 0.777020 0.000000
Si Si6 0.500000 0.507664 0.500000
Si Si7 0.705101 0.522813 0.047350
O O1 0.508127 0.275713 0.281890
O O2 0.751461 0.183476 0.293810
O O3 0.755343 0.397687 0.126234
O O4 0.693493 0.095009 0.097539
O O5 0.731716 0.195467 0.547294
O O6 0.786765 0.333568 0.707161
O O7 0.589879 0.180515 0.862298
O O8 0.570681 0.863630 0.666382
O O9 0.857030 0.905304 0.552767
O O10 0.871011 0.179736 0.865094
O O11 0.977543 0.119072 0.622905
O O12 0.900523 0.902022 0.974113
#
# Coordination Sequence:
#
# PCOD9127230 Si02
#       7
#     4   4   4   4   2   2   4
#     4  11  24  45  77 101 149 194 253 307 366 450
#     4  11  22  45  70 105 143 194 241 302 374 440
#     4  12  23  44  76 104 140 194 246 305 371 444
#     4  12  24  44  74 104 150 192 242 310 374 443
#     4  10  22  44  70  98 150 188 240 306 362 448
#     4  12  22  46  72 104 150 186 244 316 368 440
#     4  11  23  46  69 107 142 197 246 304 372 442
#
# _framework density 27.230066999999998
#
# number of rings (size 3 to 8) (size 9 to 14) (size 15 to 20)
#    0.000    0.667    5.000    4.000    0.000    0.000 
#    6.000    3.333   11.000    0.000    0.000    0.000 
#    0.000    0.000    0.000    0.000    0.000    0.000 
#
# Total GULP energy -66801.218293 kJ/mol
# GULP energy per Si atom -5566.768191 kJ/mol
# Density = 2.716809 g / cm^3
# Si number density = 27.230067 Si / 1000 Ang^3
#
#
#
# Elastic Constant Matrix: (Units=GPa)
#
#
# Indices 1 2 3 4 5 6 
#
# 1 173.9588 28.1728 57.0460 0.0000 -16.7116 0.0000
# 2 28.1728 85.0559 22.1176 0.0000 -4.8614 0.0000
# 3 57.0460 22.1176 209.2161 0.0000 20.4719 0.0000
# 4 0.0000 0.0000 0.0000 34.7759 0.0000 -3.7739
# 5 -16.7116 -4.8614 20.4719 0.0000 47.3504 0.0000
# 6 0.0000 0.0000 0.0000 -3.7739 0.0000 25.7994
#
#
#
# Elastic Compliance Matrix: (Units=1/GPa)
#
#
# Indices 1 2 3 4 5 6 
#
# 1 0.006985 -0.001599 -0.002047 0.000000 0.003186 0.000000
# 2 -0.001599 0.012617 -0.001012 0.000000 0.001169 0.000000
# 3 -0.002047 -0.001012 0.005770 0.000000 -0.003321 0.000000
# 4 0.000000 0.000000 0.000000 0.029219 0.000000 0.004274
# 5 0.003186 0.001169 -0.003321 0.000000 0.023800 0.000000
# 6 0.000000 0.000000 0.000000 0.004274 0.000000 0.039386
#
#
# Mechanical properties :
#
#
# Convention : Reuss Voigt Hill
#
# Bulk Modulus (GPa) = 62.28786 75.87818 69.08302
# Shear Modulus (GPa) = 37.75163 45.64475 41.69819
#
# Velocity S-wave (km/s) = 3.72747 4.09866 3.91747
# Velocity P-wave (km/s) = 6.43815 7.09400 6.77401
#
# Compressibility (1/GPa) = 0.01605449
#
# Stress axis : x y z
#
# Youngs Moduli (GPa) = 143.16585 79.26054 173.31236
#
# Poissons Ratio (x) = 0.12675 0.35482
# Poissons Ratio (y) = 0.22894 0.17541
# Poissons Ratio (z) = 0.29310 0.08022
#
# Static dielectric constant tensor:
#      x y z
#    x 2.250550 0.000000 0.066900 
#    y 0.000000 2.138180 0.000000 
#    z 0.066900 0.000000 2.196820 
# 
# From -- ./inp_files/38724.got.cif
#   From: 2010.05.17/outbox.cif.g08.bks.cpg/sg5_20_cif.got.tgz:38724.got - 2010.06.03 18:56:24.
