data_PCOD9127621
_publ_section_title
;
Structure prediction by ZEFSAII (Michael W. Deem and Ramdas Pophale) SiO2 
 PCOD9127621
Probable space group: C 2
;
_chemical_formula_sum "Si O2"
_cell_formula_units_Z 24
_cell_length_a 24.501004
_cell_length_b 7.727648
_cell_length_c 5.277148
_cell_angle_alpha 90.000000
_cell_angle_beta 89.683646
_cell_angle_gamma 90.000000
_cell_volume 999.134297
_symmetry_space_group_name_H-M "C 2"
_symmetry_group_IT_number 5
_symmetry_cell_setting 'monoclinic'
loop_
_space_group_symop_operation_xyz
x,y,z
-x,y,-z
1/2+x,1/2+y,z
1/2-x,1/2+y,-z
loop_
_atom_site_type_symbol
_atom_site_label
_atom_site_fract_x
_atom_site_fract_y
_atom_site_fract_z
Si Si1 0.964172 0.394340 0.247374
Si Si2 0.375662 0.685771 0.514726
Si Si3 0.333860 0.000333 0.744105
Si Si4 0.234257 0.174926 0.781228
Si Si5 0.170513 0.947878 0.118996
Si Si6 0.126348 0.669804 0.763299
O O1 0.921225 0.239034 0.311676
O O2 0.932280 0.577250 0.211362
O O3 0.000000 0.408406 0.500000
O O4 0.000000 0.357560 0.000000
O O5 0.315548 0.711834 0.399635
O O6 0.372533 0.507064 0.666738
O O7 0.375476 0.843266 0.713864
O O8 0.268861 0.004592 0.699318
O O9 0.355379 0.132051 0.523863
O O10 0.338371 0.057403 0.036217
O O11 0.279918 0.321138 0.805009
O O12 0.202831 0.120508 0.035788
O O13 0.138574 0.859066 0.882177
#
# Coordination Sequence:
#
# PCOD9127621 Si02
#       6
#     4   4   4   4   4   4
#     4  11  25  48  80 103 133 192 261 321 373 422
#     4  11  25  41  71 105 147 189 246 302 361 432
#     4  10  23  40  66 101 150 194 232 284 354 444
#     4  11  25  38  66 105 156 198 234 273 366 448
#     4  11  26  40  69 109 157 199 230 290 361 460
#     4  10  24  45  70 104 143 184 245 304 361 425
#
# _framework density 24.020793000000001
#
# number of rings (size 3 to 8) (size 9 to 14) (size 15 to 20)
#    0.000    1.333    0.000    4.000   28.000    0.000 
#    0.000    0.000    3.667    0.000    0.000    0.000 
#    0.000    0.000    0.000    0.000    0.000    0.000 
#
# Total GULP energy -66936.180346 kJ/mol
# GULP energy per Si atom -5578.015029 kJ/mol
# Density = 2.396612 g / cm^3
# Si number density = 24.020793 Si / 1000 Ang^3
#
#
#
# Elastic Constant Matrix: (Units=GPa)
#
#
# Indices 1 2 3 4 5 6 
#
# 1 122.8218 36.3174 49.8845 0.0000 -15.9471 0.0000
# 2 36.3174 77.5083 53.4600 0.0000 -14.4832 0.0000
# 3 49.8845 53.4600 110.4272 0.0000 -16.2027 0.0000
# 4 0.0000 0.0000 0.0000 42.5964 0.0000 -11.7701
# 5 -15.9471 -14.4832 -16.2027 0.0000 56.8847 0.0000
# 6 0.0000 0.0000 0.0000 -11.7701 0.0000 31.4952
#
#
#
# Elastic Compliance Matrix: (Units=1/GPa)
#
#
# Indices 1 2 3 4 5 6 
#
# 1 0.010364 -0.002267 -0.003384 0.000000 0.001364 0.000000
# 2 -0.002267 0.020174 -0.008434 0.000000 0.002098 0.000000
# 3 -0.003384 -0.008434 0.014833 0.000000 0.001129 0.000000
# 4 0.000000 0.000000 0.000000 0.026180 0.000000 0.009784
# 5 0.001364 0.002098 0.001129 0.000000 0.018818 0.000000
# 6 0.000000 0.000000 0.000000 0.009784 0.000000 0.035407
#
#
# Mechanical properties :
#
#
# Convention : Reuss Voigt Hill
#
# Bulk Modulus (GPa) = 58.14038 65.56458 61.85248
# Shear Modulus (GPa) = 31.31268 37.60163 34.45715
#
# Velocity S-wave (km/s) = 3.61441 3.96078 3.79155
# Velocity P-wave (km/s) = 6.45564 6.94775 6.70621
#
# Compressibility (1/GPa) = 0.01719975
#
# Stress axis : x y z
#
# Youngs Moduli (GPa) = 96.48964 49.56940 67.41542
#
# Poissons Ratio (x) = 0.11238 0.22814
# Poissons Ratio (y) = 0.21875 0.56862
# Poissons Ratio (z) = 0.32653 0.41809
#
# Static dielectric constant tensor:
#      x y z
#    x 1.878950 0.000000 -0.002110 
#    y 0.000000 2.278760 0.000000 
#    z -0.002110 0.000000 1.997370 
# 
# From -- ./inp_files/10161.got.cif
#   From: 2010.05.17/outbox.cif.g08.bks.cpg/sg5_6_cif.got.tgz:10161.got - 2010.06.03 18:56:24.
