data_PCOD9127105
_publ_section_title
;
Structure prediction by ZEFSAII (Michael W. Deem and Ramdas Pophale) SiO2 
 PCOD9127105
Probable space group: C 2
;
_chemical_formula_sum "Si O2"
_cell_formula_units_Z 28
_cell_length_a 9.074841
_cell_length_b 25.808428
_cell_length_c 9.102153
_cell_angle_alpha 90.000000
_cell_angle_beta 144.035730
_cell_angle_gamma 90.000000
_cell_volume 1251.959803
_symmetry_space_group_name_H-M "C 2"
_symmetry_group_IT_number 5
_symmetry_cell_setting 'monoclinic'
loop_
_space_group_symop_operation_xyz
x,y,z
-x,y,-z
1/2+x,1/2+y,z
1/2-x,1/2+y,-z
loop_
_atom_site_type_symbol
_atom_site_label
_atom_site_fract_x
_atom_site_fract_y
_atom_site_fract_z
Si Si1 0.773760 0.917750 0.929183
Si Si2 0.000000 0.716305 0.500000
Si Si3 0.735775 0.399646 0.761121
Si Si4 0.203609 0.221475 0.798049
Si Si5 0.229503 0.142444 0.068803
Si Si6 0.500000 0.841960 0.500000
Si Si7 0.139685 0.300175 0.345822
Si Si8 0.800092 0.530400 0.202403
O O1 0.587349 0.879237 0.699342
O O2 0.663409 0.975695 0.850410
O O3 0.851600 0.891556 0.143395
O O4 0.000000 0.921609 0.000000
O O5 0.071447 0.679625 0.692035
O O6 0.215592 0.754107 0.616969
O O7 0.500000 0.427713 0.500000
O O8 0.804044 0.348891 0.718073
O O9 0.000000 0.427265 0.000000
O O10 0.000000 0.218597 0.500000
O O11 0.130472 0.272991 0.836229
O O12 0.500000 0.222215 0.000000
O O13 0.157652 0.170673 0.861177
O O14 0.331222 0.083953 0.139506
O O15 0.000000 0.141619 0.000000
O O16 0.710398 0.811755 0.574638
O O17 0.000000 0.531086 0.500000
O O18 0.500000 0.530429 0.000000
#
# Coordination Sequence:
#
# PCOD9127105 Si02
#       8
#     4   2   4   4   4   2   4   4
#     4  11  25  44  74 101 142 186 242 301 368 423
#     4  12  24  43  72 104 148 187 244 302 356 428
#     4  12  27  46  67 100 147 184 239 295 353 432
#     4  12  28  47  68 102 153 191 237 294 358 427
#     4  11  24  43  75 104 139 187 245 297 356 429
#     4  12  24  43  68 102 142 195 242 298 354 436
#     4  12  26  44  68 110 144 197 242 296 359 434
#     4  10  22  43  73 109 137 178 241 299 357 430
#
# _framework density 22.364936
#
# number of rings (size 3 to 8) (size 9 to 14) (size 15 to 20)
#    0.000    0.571    5.714    1.714    2.000    1.714 
#    0.000    1.429    0.000    0.000    0.000    0.000 
#    0.000    0.000    0.000    0.000    0.000    0.000 
#
# Total GULP energy -77997.081111 kJ/mol
# GULP energy per Si atom -5571.220079 kJ/mol
# Density = 2.231403 g / cm^3
# Si number density = 22.364936 Si / 1000 Ang^3
#
#
#
# Elastic Constant Matrix: (Units=GPa)
#
#
# Indices 1 2 3 4 5 6 
#
# 1 130.5899 54.1421 43.6005 0.0000 -11.3063 0.0000
# 2 54.1421 118.7391 29.7730 0.0000 -21.0549 0.0000
# 3 43.6005 29.7730 137.3633 0.0000 -7.9808 0.0000
# 4 0.0000 0.0000 0.0000 26.9650 0.0000 -22.1842
# 5 -11.3063 -21.0549 -7.9808 0.0000 46.7419 0.0000
# 6 0.0000 0.0000 0.0000 -22.1842 0.0000 3.3590
#
#
#
# Elastic Compliance Matrix: (Units=1/GPa)
#
#
# Indices 1 2 3 4 5 6 
#
# 1 0.010108 -0.003979 -0.002331 0.000000 0.000254 0.000000
# 2 -0.003979 0.011162 -0.000929 0.000000 0.003907 0.000000
# 3 -0.002331 -0.000929 0.008246 0.000000 0.000425 0.000000
# 4 0.000000 0.000000 0.000000 -0.008365 0.000000 -0.055245
# 5 0.000254 0.003907 0.000425 0.000000 0.023288 0.000000
# 6 0.000000 0.000000 0.000000 -0.055245 0.000000 -0.067150
#
#
# Mechanical properties :
#
#
# Convention : Reuss Voigt Hill
#
# Bulk Modulus (GPa) = 66.50446 71.30261 68.90353
# Shear Modulus (GPa) = -1552.67339 32.69164 -759.99088
#
# Velocity S-wave (km/s) = -26.37710 3.82741 -18.45403
# Velocity P-wave (km/s) = 29.96445 7.17515 20.57165
#
# Compressibility (1/GPa) = 0.01503659
#
# Stress axis : x y z
#
# Youngs Moduli (GPa) = 98.93528 89.58959 121.27110
#
# Poissons Ratio (x) = 0.35650 0.28268
# Poissons Ratio (y) = 0.39369 0.11270
# Poissons Ratio (z) = 0.23062 0.08326
#
# Static dielectric constant tensor:
#      x y z
#    x 1.877220 0.000000 -0.100950 
#    y 0.000000 1.892910 0.000000 
#    z -0.100950 0.000000 1.747440 
# 
# From -- ./inp_files/17567.got.cif
#   From: 2010.05.17/outbox.cif.g08.bks.cpg/sg5_9_cif.got.tgz:17567.got - 2010.06.03 18:56:24.
