data_PCOD9127304
_publ_section_title
;
Structure prediction by ZEFSAII (Michael W. Deem and Ramdas Pophale) SiO2 
 PCOD9127304
Probable space group: C 2
;
_chemical_formula_sum "Si O2"
_cell_formula_units_Z 32
_cell_length_a 8.949852
_cell_length_b 22.452688
_cell_length_c 14.315649
_cell_angle_alpha 90.000000
_cell_angle_beta 30.762149
_cell_angle_gamma 90.000000
_cell_volume 1471.363252
_symmetry_space_group_name_H-M "C 2"
_symmetry_group_IT_number 5
_symmetry_cell_setting 'monoclinic'
loop_
_space_group_symop_operation_xyz
x,y,z
-x,y,-z
1/2+x,1/2+y,z
1/2-x,1/2+y,-z
loop_
_atom_site_type_symbol
_atom_site_label
_atom_site_fract_x
_atom_site_fract_y
_atom_site_fract_z
Si Si1 0.138532 0.052620 0.824211
Si Si2 0.304535 0.752307 0.701025
Si Si3 0.044006 0.672810 0.373769
Si Si4 0.894586 0.450217 0.452841
Si Si5 0.807764 0.007003 0.823399
Si Si6 0.841974 0.786034 0.819242
Si Si7 0.759939 0.835385 0.547062
Si Si8 0.573732 0.621026 0.353691
O O1 0.220635 0.120162 0.753600
O O2 0.925437 0.026403 0.860945
O O3 0.419067 0.009034 0.670788
O O4 0.000000 0.052062 0.000000
O O5 0.500000 0.753615 0.500000
O O6 0.509796 0.784418 0.667389
O O7 0.250461 0.682772 0.748707
O O8 0.997419 0.781547 0.836707
O O9 0.112508 0.722690 0.259998
O O10 0.000000 0.700123 0.500000
O O11 0.741479 0.639060 0.517018
O O12 0.559647 0.469321 0.640264
O O13 0.912634 0.397565 0.368441
O O14 0.000000 0.430198 0.500000
O O15 0.777183 0.066975 0.778963
O O16 0.500000 0.975493 0.000000
O O17 0.038030 0.830887 0.653973
O O18 0.500000 0.799550 0.000000
O O19 0.000000 0.832358 0.500000
O O20 0.500000 0.605382 0.500000
#
# Coordination Sequence:
#
# PCOD9127304 Si02
#       8
#     4   4   4   4   4   4   4   4
#     4  11  24  41  63  93 128 169 212 264 325 385
#     4   9  19  39  60  87 120 162 202 245 310 375
#     4  12  20  39  65  93 129 169 213 256 315 392
#     4  10  22  45  65  86 122 169 212 265 324 381
#     4  11  25  39  61  95 127 166 214 262 317 380
#     4  11  23  39  63  97 128 164 210 263 320 380
#     4  11  23  41  68  90 115 165 215 258 323 390
#     4  11  20  37  64  90 128 171 209 254 321 379
#
# _framework density 21.748539000000001
#
# number of rings (size 3 to 8) (size 9 to 14) (size 15 to 20)
#    0.000    1.250    6.250    2.250    1.750    3.000 
#    0.000    3.125    0.000    0.000    0.000    0.000 
#    0.000    0.000    0.000    0.000    0.000    0.000 
#
# Total GULP energy -89382.686306 kJ/mol
# GULP energy per Si atom -5586.417894 kJ/mol
# Density = 2.169904 g / cm^3
# Si number density = 21.748539 Si / 1000 Ang^3
#
#
#
# Elastic Constant Matrix: (Units=GPa)
#
#
# Indices 1 2 3 4 5 6 
#
# 1 88.0791 23.5726 12.5792 -0.0041 -4.8069 0.0021
# 2 23.5726 84.8153 3.9701 -0.0003 1.6842 0.0004
# 3 12.5792 3.9701 69.5800 -0.0055 -17.1622 0.0012
# 4 -0.0041 -0.0003 -0.0055 -49.7346 0.0041 30.1522
# 5 -4.8069 1.6842 -17.1622 0.0041 36.6540 -0.0020
# 6 0.0021 0.0004 0.0012 30.1522 -0.0020 7.0294
#
#
#
# Elastic Compliance Matrix: (Units=1/GPa)
#
#
# Indices 1 2 3 4 5 6 
#
# 1 0.012587 -0.003431 -0.001847 -0.000001 0.000943 0.000000
# 2 -0.003431 0.012788 -0.000413 0.000000 -0.001231 0.000000
# 3 -0.001847 -0.000413 0.016590 0.000000 0.007545 0.000001
# 4 -0.000001 0.000000 0.000000 -0.005584 0.000002 0.023954
# 5 0.000943 -0.001231 0.007545 0.000002 0.030995 0.000000
# 6 0.000000 0.000000 0.000001 0.023954 0.000000 0.039511
#
#
# Mechanical properties :
#
#
# Convention : Reuss Voigt Hill
#
# Bulk Modulus (GPa) = 32.69737 35.85755 34.27746
# Shear Modulus (GPa) = 38.92203 12.27993 25.60098
#
# Velocity S-wave (km/s) = 4.23500 2.37878 3.43466
# Velocity P-wave (km/s) = 6.24344 4.90591 5.61465
#
# Compressibility (1/GPa) = 0.03058350
#
# Stress axis : x y z
#
# Youngs Moduli (GPa) = 79.44815 78.20113 60.27583
#
# Poissons Ratio (x) = 0.26827 0.11134
# Poissons Ratio (y) = 0.27255 0.02490
# Poissons Ratio (z) = 0.14675 0.03230
#
# Static dielectric constant tensor:
#      x y z
#    x 1.872240 0.000000 -0.055830 
#    y 0.000000 1.828400 0.000000 
#    z -0.055830 0.000000 1.847280 
# 
# From -- ./inp_files/51664.got.cif
#   From: 2010.05.17/outbox.cif.g08.bks.cpg/sg5_26_cif.got.tgz:51664.got - 2010.06.03 18:56:24.
