data_PCOD9127257
_publ_section_title
;
Structure prediction by ZEFSAII (Michael W. Deem and Ramdas Pophale) SiO2 
 PCOD9127257
Probable space group: C 2
;
_chemical_formula_sum "Si O2"
_cell_formula_units_Z 24
_cell_length_a 12.232896
_cell_length_b 10.151827
_cell_length_c 17.382203
_cell_angle_alpha 90.000000
_cell_angle_beta 28.194239
_cell_angle_gamma 90.000000
_cell_volume 1019.871205
_symmetry_space_group_name_H-M "C 2"
_symmetry_group_IT_number 5
_symmetry_cell_setting 'monoclinic'
loop_
_space_group_symop_operation_xyz
x,y,z
-x,y,-z
1/2+x,1/2+y,z
1/2-x,1/2+y,-z
loop_
_atom_site_type_symbol
_atom_site_label
_atom_site_fract_x
_atom_site_fract_y
_atom_site_fract_z
Si Si1 0.024912 0.221510 0.202403
Si Si2 0.241765 0.819803 0.804203
Si Si3 0.741923 0.330669 0.188162
Si Si4 0.732344 0.982843 0.682374
Si Si5 0.488089 0.244819 0.816238
Si Si6 0.317980 0.076224 0.678892
O O1 0.092123 0.224375 0.250371
O O2 0.850519 0.344198 0.301565
O O3 0.917463 0.097131 0.224586
O O4 0.255468 0.252487 0.011113
O O5 0.194291 0.785624 0.745084
O O6 0.319559 0.970123 0.745747
O O7 0.000000 0.817877 0.000000
O O8 0.782828 0.458668 0.215652
O O9 0.569647 0.330230 0.222909
O O10 0.644346 0.216430 0.303670
O O11 0.000000 0.290014 0.000000
O O12 0.000000 0.010609 0.500000
O O13 0.559046 0.093502 0.758151
O O14 0.500000 0.046922 0.500000
#
# Coordination Sequence:
#
# PCOD9127257 Si02
#       6
#     4   4   4   4   4   4
#     4  10  22  44  72  96 135 179 236 281 337 424
#     4  10  24  43  66 100 134 174 236 289 336 418
#     4  11  21  43  74  97 133 186 240 283 345 424
#     4  11  25  46  69 102 143 181 231 297 356 405
#     4  11  24  43  71 101 134 182 235 285 346 421
#     4  11  23  42  68  98 136 182 225 283 355 404
#
# _framework density 23.532382999999999
#
# number of rings (size 3 to 8) (size 9 to 14) (size 15 to 20)
#    0.000    1.333    3.333    3.500    4.667    4.000 
#   18.000    0.000    0.000    0.000    0.000    0.000 
#    0.000    0.000    0.000    0.000    0.000    0.000 
#
# Total GULP energy -66980.355393 kJ/mol
# GULP energy per Si atom -5581.696283 kJ/mol
# Density = 2.347882 g / cm^3
# Si number density = 23.532383 Si / 1000 Ang^3
#
#
#
# Elastic Constant Matrix: (Units=GPa)
#
#
# Indices 1 2 3 4 5 6 
#
# 1 169.7906 9.5071 26.8170 0.0050 0.7202 -0.0033
# 2 9.5071 23.8874 -2.5066 -0.0049 1.4089 0.0043
# 3 26.8170 -2.5066 33.9937 0.0282 -5.2346 -0.0040
# 4 0.0050 -0.0049 0.0282 33.8509 -0.0213 -3.3781
# 5 0.7202 1.4089 -5.2346 -0.0213 12.8890 0.0090
# 6 -0.0033 0.0043 -0.0040 -3.3781 0.0090 38.7343
#
#
#
# Elastic Compliance Matrix: (Units=1/GPa)
#
#
# Indices 1 2 3 4 5 6 
#
# 1 0.007067 -0.003314 -0.006213 0.000002 -0.002556 0.000001
# 2 -0.003314 0.043898 0.005484 0.000000 -0.002386 -0.000004
# 3 -0.006213 0.005484 0.036998 -0.000020 0.014774 -0.000002
# 4 0.000002 0.000000 -0.000020 0.029801 0.000039 0.002599
# 5 -0.002556 -0.002386 0.014774 0.000039 0.083989 -0.000014
# 6 0.000001 -0.000004 -0.000002 0.002599 -0.000014 0.026044
#
#
# Mechanical properties :
#
#
# Convention : Reuss Voigt Hill
#
# Bulk Modulus (GPa) = 12.51931 32.81187 22.66559
# Shear Modulus (GPa) = 19.04692 30.01846 24.53269
#
# Velocity S-wave (km/s) = 2.84807 3.57546 3.23229
# Velocity P-wave (km/s) = 4.01832 5.56945 4.85622
#
# Compressibility (1/GPa) = 0.07987659
#
# Stress axis : x y z
#
# Youngs Moduli (GPa) = 141.49592 22.78000 27.02845
#
# Poissons Ratio (x) = 0.07549 0.16793
# Poissons Ratio (y) = 0.46892 -0.14822
# Poissons Ratio (z) = 0.87915 -0.12492
#
# Static dielectric constant tensor:
#      x y z
#    x 1.973090 0.000000 -0.023730 
#    y 0.000000 2.038030 -0.000020 
#    z -0.023730 -0.000020 1.831850 
# 
# From -- ./inp_files/60443.got.cif
#   From: 2010.05.17/outbox.cif.g08.bks.cpg/sg5_31_cif.got.tgz:60443.got - 2010.06.03 18:56:24.
