data_PCOD9127226
_publ_section_title
;
Structure prediction by ZEFSAII (Michael W. Deem and Ramdas Pophale) SiO2 
 PCOD9127226
Probable space group: C 2
;
_chemical_formula_sum "Si O2"
_cell_formula_units_Z 30
_cell_length_a 12.151117
_cell_length_b 8.539100
_cell_length_c 14.251819
_cell_angle_alpha 90.000000
_cell_angle_beta 114.682923
_cell_angle_gamma 90.000000
_cell_volume 1343.652468
_symmetry_space_group_name_H-M "C 2"
_symmetry_group_IT_number 5
_symmetry_cell_setting 'monoclinic'
loop_
_space_group_symop_operation_xyz
x,y,z
-x,y,-z
1/2+x,1/2+y,z
1/2-x,1/2+y,-z
loop_
_atom_site_type_symbol
_atom_site_label
_atom_site_fract_x
_atom_site_fract_y
_atom_site_fract_z
Si Si1 0.400249 0.519110 0.827770
Si Si2 0.522432 0.877154 0.173747
Si Si3 0.223896 0.306645 0.676217
Si Si4 0.773270 0.555824 0.846095
Si Si5 0.098243 0.593336 0.368936
Si Si6 0.907212 0.811026 0.209573
Si Si7 0.267308 0.035351 0.063112
Si Si8 0.500000 0.923304 0.500000
O O1 0.447223 0.695549 0.829727
O O2 0.287229 0.473954 0.719151
O O3 0.501233 0.396497 0.829246
O O4 0.350114 0.499478 0.915723
O O5 0.594460 0.982687 0.123249
O O6 0.578330 0.949316 0.289397
O O7 0.379960 0.916009 0.117274
O O8 0.254094 0.213520 0.782429
O O9 0.288610 0.200636 0.620036
O O10 0.084815 0.326656 0.600600
O O11 0.674919 0.436944 0.768032
O O12 0.745495 0.558217 0.945855
O O13 0.090295 0.527487 0.469816
O O14 0.984159 0.705349 0.306878
O O15 0.818016 0.698610 0.121222
#
# Coordination Sequence:
#
# PCOD9127226 Si02
#       8
#     4   4   4   4   4   4   4   2
#     4  11  24  42  71 100 140 182 233 270 338 402
#     4  10  22  44  70  97 140 185 220 280 337 403
#     4  10  25  46  67 104 136 176 225 294 341 407
#     4  11  24  44  68  98 148 179 228 283 336 398
#     4   9  23  47  67  99 134 169 223 288 347 405
#     4  10  23  44  67  99 137 184 225 274 340 403
#     4  11  24  44  63 101 144 188 230 271 324 406
#     4  12  24  46  80  92 128 178 228 288 358 406
#
# _framework density 22.327200000000001
#
# number of rings (size 3 to 8) (size 9 to 14) (size 15 to 20)
#    0.000    1.600    1.333    2.800    5.600    1.600 
#   12.000    0.000    0.000    0.000    0.000    0.000 
#    0.000    0.000    0.000    0.000    0.000    0.000 
#
# Total GULP energy -83890.142328 kJ/mol
# GULP energy per Si atom -5592.676155 kJ/mol
# Density = 2.227638 g / cm^3
# Si number density = 22.327200 Si / 1000 Ang^3
#
#
#
# Elastic Constant Matrix: (Units=GPa)
#
#
# Indices 1 2 3 4 5 6 
#
# 1 99.3048 25.8529 14.4663 0.0000 -5.0020 0.0000
# 2 25.8529 104.9154 21.9320 0.0000 -0.1932 0.0000
# 3 14.4663 21.9320 37.5491 0.0000 -4.3533 0.0000
# 4 0.0000 0.0000 0.0000 1.7740 0.0000 -1.7415
# 5 -5.0020 -0.1932 -4.3533 0.0000 33.3335 0.0000
# 6 0.0000 0.0000 0.0000 -1.7415 0.0000 39.5381
#
#
#
# Elastic Compliance Matrix: (Units=1/GPa)
#
#
# Indices 1 2 3 4 5 6 
#
# 1 0.011110 -0.002132 -0.002887 0.000000 0.001278 0.000000
# 2 -0.002132 0.011286 -0.005889 0.000000 -0.001024 0.000000
# 3 -0.002887 -0.005889 0.031608 0.000000 0.003661 0.000000
# 4 0.000000 0.000000 0.000000 0.589187 0.000000 0.025952
# 5 0.001278 -0.001024 0.003661 0.000000 0.030664 0.000000
# 6 0.000000 0.000000 0.000000 0.025952 0.000000 0.026435
#
#
# Mechanical properties :
#
#
# Convention : Reuss Voigt Hill
#
# Bulk Modulus (GPa) = 31.06747 40.69685 35.88216
# Shear Modulus (GPa) = 6.82281 26.89699 16.85990
#
# Velocity S-wave (km/s) = 1.74999 3.47461 2.75094
# Velocity P-wave (km/s) = 4.24595 5.86210 5.11822
#
# Compressibility (1/GPa) = 0.03218801
#
# Stress axis : x y z
#
# Youngs Moduli (GPa) = 90.00966 88.60480 31.63717
#
# Poissons Ratio (x) = 0.18889 0.09133
# Poissons Ratio (y) = 0.19188 0.18632
# Poissons Ratio (z) = 0.25985 0.52183
#
# Static dielectric constant tensor:
#      x y z
#    x 1.860940 0.000000 -0.003900 
#    y 0.000000 1.848850 0.000000 
#    z -0.003900 0.000000 1.849350 
# 
# From -- ./inp_files/52492.got.cif
#   From: 2010.05.17/outbox.cif.g08.bks.cpg/sg5_27_cif.got.tgz:52492.got - 2010.06.03 18:56:24.
