data_PCOD9127624
_publ_section_title
;
Structure prediction by ZEFSAII (Michael W. Deem and Ramdas Pophale) SiO2 
 PCOD9127624
Probable space group: C 2
;
_chemical_formula_sum "Si O2"
_cell_formula_units_Z 22
_cell_length_a 5.395099
_cell_length_b 25.719139
_cell_length_c 8.176905
_cell_angle_alpha 90.000000
_cell_angle_beta 119.853521
_cell_angle_gamma 90.000000
_cell_volume 984.044106
_symmetry_space_group_name_H-M "C 2"
_symmetry_group_IT_number 5
_symmetry_cell_setting 'monoclinic'
loop_
_space_group_symop_operation_xyz
x,y,z
-x,y,-z
1/2+x,1/2+y,z
1/2-x,1/2+y,-z
loop_
_atom_site_type_symbol
_atom_site_label
_atom_site_fract_x
_atom_site_fract_y
_atom_site_fract_z
Si Si1 0.217610 0.322700 0.834878
Si Si2 0.210461 0.169980 0.343142
Si Si3 0.000000 0.234312 0.000000
Si Si4 0.178844 0.087009 0.893865
Si Si5 0.500000 0.985364 0.000000
Si Si6 0.151946 0.418039 0.369241
Si Si7 0.000000 0.260707 0.500000
O O1 0.160312 0.273709 0.932741
O O2 0.236023 0.297094 0.662373
O O3 0.951238 0.361355 0.729179
O O4 0.500000 0.349504 0.000000
O O5 0.500000 0.146206 0.500000
O O6 0.146980 0.221196 0.425737
O O7 0.981478 0.124350 0.283546
O O8 0.210994 0.195309 0.163398
O O9 0.231705 0.025319 0.893625
O O10 0.500000 0.107814 0.000000
O O11 0.000000 0.092249 0.000000
O O12 0.475835 0.953850 0.821100
O O13 0.500000 0.422116 0.500000
O O14 0.000000 0.426259 0.500000
#
# Coordination Sequence:
#
# PCOD9127624 Si02
#       7
#     4   4   2   4   2   4   2
#     4  11  24  43  73 102 151 194 243 303 377 445
#     4  11  23  41  70 102 151 192 247 301 362 441
#     4  10  23  40  66 106 148 200 243 288 382 436
#     4  10  25  48  74 103 143 196 249 299 376 442
#     4  10  29  54  82 102 164 192 257 322 392 436
#     4  12  30  50  81 116 149 198 258 316 388 458
#     4  10  24  40  64 114 148 188 250 288 368 454
#
# _framework density 22.356721
#
# number of rings (size 3 to 8) (size 9 to 14) (size 15 to 20)
#    0.545    0.727    1.818    1.636   10.182    5.818 
#    4.909    0.000    0.000    0.000    0.000    0.000 
#    0.000    0.000    0.000    0.000    0.000    0.000 
#
# Total GULP energy -61264.313585 kJ/mol
# GULP energy per Si atom -5569.483053 kJ/mol
# Density = 2.230584 g / cm^3
# Si number density = 22.356721 Si / 1000 Ang^3
#
#
#
# Elastic Constant Matrix: (Units=GPa)
#
#
# Indices 1 2 3 4 5 6 
#
# 1 99.2778 30.2632 57.2297 0.0000 10.3309 0.0000
# 2 30.2632 122.6147 64.7876 0.0000 2.7257 0.0000
# 3 57.2297 64.7876 161.3994 0.0000 19.5055 0.0000
# 4 0.0000 0.0000 0.0000 89.3138 0.0000 -14.5200
# 5 10.3309 2.7257 19.5055 0.0000 41.9236 0.0000
# 6 0.0000 0.0000 0.0000 -14.5200 0.0000 59.0318
#
#
#
# Elastic Compliance Matrix: (Units=1/GPa)
#
#
# Indices 1 2 3 4 5 6 
#
# 1 0.012809 -0.001032 -0.003978 0.000000 -0.001239 0.000000
# 2 -0.001032 0.010505 -0.004026 0.000000 0.001444 0.000000
# 3 -0.003978 -0.004026 0.009613 0.000000 -0.003230 0.000000
# 4 0.000000 0.000000 0.000000 0.011663 0.000000 0.002869
# 5 -0.001239 0.001444 -0.003230 0.000000 0.025567 0.000000
# 6 0.000000 0.000000 0.000000 0.002869 0.000000 0.017646
#
#
# Mechanical properties :
#
#
# Convention : Reuss Voigt Hill
#
# Bulk Modulus (GPa) = 67.31265 76.42812 71.87039
# Shear Modulus (GPa) = 45.11559 53.45459 49.28509
#
# Velocity S-wave (km/s) = 4.49708 4.89507 4.70029
# Velocity P-wave (km/s) = 7.55902 8.13689 7.85327
#
# Compressibility (1/GPa) = 0.01485605
#
# Stress axis : x y z
#
# Youngs Moduli (GPa) = 78.06743 95.19017 104.02954
#
# Poissons Ratio (x) = 0.09825 0.41383
# Poissons Ratio (y) = 0.08057 0.41877
# Poissons Ratio (z) = 0.31056 0.38319
#
# Static dielectric constant tensor:
#      x y z
#    x 1.853740 0.000000 -0.035140 
#    y 0.000000 1.820100 0.000000 
#    z -0.035140 0.000000 1.953950 
# 
# From -- ./inp_files/13110.got.cif
#   From: 2010.05.17/outbox.cif.g08.bks.cpg/sg5_7_cif.got.tgz:13110.got - 2010.06.03 18:56:24.
