data_PCOD9127466
_publ_section_title
;
Structure prediction by ZEFSAII (Michael W. Deem and Ramdas Pophale) SiO2 
 PCOD9127466
Probable space group: C 2
;
_chemical_formula_sum "Si O2"
_cell_formula_units_Z 28
_cell_length_a 8.939372
_cell_length_b 13.209340
_cell_length_c 20.415678
_cell_angle_alpha 90.000000
_cell_angle_beta 29.581347
_cell_angle_gamma 90.000000
_cell_volume 1190.087227
_symmetry_space_group_name_H-M "C 2"
_symmetry_group_IT_number 5
_symmetry_cell_setting 'monoclinic'
loop_
_space_group_symop_operation_xyz
x,y,z
-x,y,-z
1/2+x,1/2+y,z
1/2-x,1/2+y,-z
loop_
_atom_site_type_symbol
_atom_site_label
_atom_site_fract_x
_atom_site_fract_y
_atom_site_fract_z
Si Si1 0.241745 0.060070 0.774764
Si Si2 0.736029 0.446525 0.460822
Si Si3 0.260132 0.450464 0.032422
Si Si4 0.200522 0.284190 0.801518
Si Si5 0.695600 0.797361 0.361464
Si Si6 0.808592 0.089934 0.712829
Si Si7 0.738697 0.679039 0.652528
O O1 0.177833 0.167731 0.832389
O O2 0.288913 0.083393 0.680573
O O3 0.565386 0.013304 0.666327
O O4 0.959744 0.990610 0.896797
O O5 0.500000 0.397582 0.500000
O O6 0.556928 0.514880 0.583075
O O7 0.981895 0.369426 0.398481
O O8 0.102210 0.345997 0.074362
O O9 0.989399 0.525869 0.156058
O O10 0.500000 0.440415 0.000000
O O11 0.481153 0.334733 0.732813
O O12 0.242321 0.268272 0.706265
O O13 0.500000 0.777231 0.500000
O O14 0.747255 0.688618 0.309715
O O15 0.939959 0.146560 0.727588
O O16 0.000000 0.686498 0.500000
#
# Coordination Sequence:
#
# PCOD9127466 Si02
#       7
#     4   4   4   4   4   4   4
#     4  10  25  48  77 103 153 196 255 310 385 447
#     4  12  26  47  76 111 150 201 258 317 385 450
#     4  12  27  47  73 109 156 202 250 311 388 461
#     4  10  25  46  74 110 152 193 259 315 380 466
#     4  12  26  44  72 111 150 195 256 320 379 457
#     4  12  26  46  78 104 153 194 255 317 387 455
#     4  10  22  46  81 110 145 196 254 315 387 444
#
# _framework density 23.527688000000001
#
# number of rings (size 3 to 8) (size 9 to 14) (size 15 to 20)
#    0.857    0.000    1.429    5.571    4.000    6.857 
#    0.000    2.143    0.000    0.000    0.000    0.000 
#    0.000    0.000    0.000    0.000    0.000    0.000 
#
# Total GULP energy -78186.438033 kJ/mol
# GULP energy per Si atom -5584.745574 kJ/mol
# Density = 2.347414 g / cm^3
# Si number density = 23.527688 Si / 1000 Ang^3
#
#
#
# Elastic Constant Matrix: (Units=GPa)
#
#
# Indices 1 2 3 4 5 6 
#
# 1 127.7157 62.5095 36.5350 -0.0081 -39.2220 0.0095
# 2 62.5095 102.3506 44.6967 0.0000 -13.6343 0.0007
# 3 36.5350 44.6967 122.1717 -0.0242 -19.7056 0.0360
# 4 -0.0081 0.0000 -0.0242 41.3583 0.0117 1.1563
# 5 -39.2220 -13.6343 -19.7056 0.0117 40.5918 -0.0155
# 6 0.0095 0.0007 0.0360 1.1563 -0.0155 17.4848
#
#
#
# Elastic Compliance Matrix: (Units=1/GPa)
#
#
# Indices 1 2 3 4 5 6 
#
# 1 0.015410 -0.007882 0.000271 0.000000 0.012374 0.000002
# 2 -0.007882 0.015810 -0.004122 -0.000003 -0.004306 0.000008
# 3 0.000271 -0.004122 0.010232 0.000005 0.003845 -0.000018
# 4 0.000000 -0.000003 0.000005 0.024224 -0.000006 -0.001602
# 5 0.012374 -0.004306 0.003845 -0.000006 0.037013 0.000019
# 6 0.000002 0.000008 -0.000018 -0.001602 0.000019 0.057299
#
#
# Mechanical properties :
#
#
# Convention : Reuss Voigt Hill
#
# Bulk Modulus (GPa) = 55.59230 71.08005 63.33618
# Shear Modulus (GPa) = 26.39244 33.78675 30.08959
#
# Velocity S-wave (km/s) = 3.35290 3.79363 3.58005
# Velocity P-wave (km/s) = 6.21844 7.03318 6.63832
#
# Compressibility (1/GPa) = 0.01798810
#
# Stress axis : x y z
#
# Youngs Moduli (GPa) = 64.89237 63.25001 97.73002
#
# Poissons Ratio (x) = 0.49851 -0.02649
# Poissons Ratio (y) = 0.51145 0.40283
# Poissons Ratio (z) = -0.01759 0.26071
#
# Static dielectric constant tensor:
#      x y z
#    x 2.055190 -0.000010 -0.018910 
#    y -0.000010 1.941900 0.000000 
#    z -0.018910 0.000000 1.864190 
# 
# From -- ./inp_files/64687.got.cif
#   From: 2010.05.17/outbox.cif.g08.bks.cpg/sg5_33_cif.got.tgz:64687.got - 2010.06.03 18:56:24.
