data_PCOD9127331
_publ_section_title
;
Structure prediction by ZEFSAII (Michael W. Deem and Ramdas Pophale) SiO2 
 PCOD9127331
Probable space group: C 2
;
_chemical_formula_sum "Si O2"
_cell_formula_units_Z 20
_cell_length_a 10.659955
_cell_length_b 9.616664
_cell_length_c 10.908907
_cell_angle_alpha 90.000000
_cell_angle_beta 48.298236
_cell_angle_gamma 90.000000
_cell_volume 834.947820
_symmetry_space_group_name_H-M "C 2"
_symmetry_group_IT_number 5
_symmetry_cell_setting 'monoclinic'
loop_
_space_group_symop_operation_xyz
x,y,z
-x,y,-z
1/2+x,1/2+y,z
1/2-x,1/2+y,-z
loop_
_atom_site_type_symbol
_atom_site_label
_atom_site_fract_x
_atom_site_fract_y
_atom_site_fract_z
Si Si1 0.299929 0.970950 0.614416
Si Si2 0.317577 0.730460 0.442568
Si Si3 0.809788 0.149041 0.829258
Si Si4 0.240505 0.956379 0.924090
Si Si5 0.590865 0.934725 0.821025
O O1 0.500000 0.967515 0.500000
O O2 0.242892 0.822064 0.599654
O O3 0.218950 0.001871 0.798332
O O4 0.262928 0.085001 0.536340
O O5 0.514577 0.702429 0.338449
O O6 0.308727 0.824398 0.324899
O O7 0.718180 0.288753 0.937943
O O8 0.701719 0.058805 0.804460
O O9 0.854783 0.045682 0.912495
O O10 0.434787 0.981732 0.838531
O O11 0.500000 0.868702 0.000000
#
# Coordination Sequence:
#
# PCOD9127331 Si02
#       5
#     4   4   4   4   4
#     4  12  26  47  67  98 142 180 232 278 344 409
#     4  11  27  44  70  96 139 187 223 284 346 401
#     4  10  22  45  69 102 139 175 230 285 338 402
#     4  10  23  43  72 102 136 178 229 284 335 406
#     4   9  20  42  71  97 135 174 221 282 335 397
#
# _framework density 23.953593000000001
#
# number of rings (size 3 to 8) (size 9 to 14) (size 15 to 20)
#    0.000    1.600    4.000    0.000   11.200    1.600 
#   10.800    0.000    0.000    0.000    0.000    0.000 
#    0.000    0.000    0.000    0.000    0.000    0.000 
#
# Total GULP energy -55951.476474 kJ/mol
# GULP energy per Si atom -5595.147647 kJ/mol
# Density = 2.389907 g / cm^3
# Si number density = 23.953593 Si / 1000 Ang^3
#
#
#
# Elastic Constant Matrix: (Units=GPa)
#
#
# Indices 1 2 3 4 5 6 
#
# 1 92.7951 46.1434 22.3231 0.0000 21.6496 0.0000
# 2 46.1434 121.5502 19.1122 0.0000 7.1866 0.0000
# 3 22.3231 19.1122 60.2460 0.0000 26.2089 0.0000
# 4 0.0000 0.0000 0.0000 45.3144 0.0000 10.9497
# 5 21.6496 7.1866 26.2089 0.0000 25.6472 0.0000
# 6 0.0000 0.0000 0.0000 10.9497 0.0000 53.6754
#
#
#
# Elastic Compliance Matrix: (Units=1/GPa)
#
#
# Indices 1 2 3 4 5 6 
#
# 1 0.016488 -0.005716 0.001912 0.000000 -0.014271 0.000000
# 2 -0.005716 0.010647 -0.003710 0.000000 0.005633 0.000000
# 3 0.001912 -0.003710 0.031177 0.000000 -0.032434 0.000000
# 4 0.000000 0.000000 0.000000 0.023212 0.000000 -0.004735
# 5 -0.014271 0.005633 -0.032434 0.000000 0.082603 0.000000
# 6 0.000000 0.000000 0.000000 -0.004735 0.000000 0.019597
#
#
# Mechanical properties :
#
#
# Convention : Reuss Voigt Hill
#
# Bulk Modulus (GPa) = 23.10335 49.97209 36.53772
# Shear Modulus (GPa) = 23.45415 37.39491 30.42453
#
# Velocity S-wave (km/s) = 3.13253 3.95541 3.56778
# Velocity P-wave (km/s) = 4.76966 6.46280 5.67967
#
# Compressibility (1/GPa) = 0.04328377
#
# Stress axis : x y z
#
# Youngs Moduli (GPa) = 60.64895 93.91941 32.07470
#
# Poissons Ratio (x) = 0.53687 -0.06133
# Poissons Ratio (y) = 0.34669 0.11901
# Poissons Ratio (z) = -0.11597 0.34848
#
# Static dielectric constant tensor:
#      x y z
#    x 1.891520 0.000000 0.013220 
#    y 0.000000 1.900190 0.000000 
#    z 0.013220 0.000000 1.964480 
# 
# From -- ./inp_files/38162.got.cif
#   From: 2010.05.17/outbox.cif.g08.bks.cpg/sg5_20_cif.got.tgz:38162.got - 2010.06.03 18:56:24.
