data_PCOD9127775
_publ_section_title
;
Structure prediction by ZEFSAII (Michael W. Deem and Ramdas Pophale) SiO2 
 PCOD9127775
Probable space group: C 2
;
_chemical_formula_sum "Si O2"
_cell_formula_units_Z 30
_cell_length_a 9.299864
_cell_length_b 10.933207
_cell_length_c 17.518459
_cell_angle_alpha 90.000000
_cell_angle_beta 123.740166
_cell_angle_gamma 90.000000
_cell_volume 1481.208679
_symmetry_space_group_name_H-M "C 2"
_symmetry_group_IT_number 5
_symmetry_cell_setting 'monoclinic'
loop_
_space_group_symop_operation_xyz
x,y,z
-x,y,-z
1/2+x,1/2+y,z
1/2-x,1/2+y,-z
loop_
_atom_site_type_symbol
_atom_site_label
_atom_site_fract_x
_atom_site_fract_y
_atom_site_fract_z
Si Si1 0.939516 0.793950 0.068233
Si Si2 0.679248 0.888207 0.343865
Si Si3 0.059754 0.625373 0.223988
Si Si4 0.037950 0.165743 0.667906
Si Si5 0.589520 0.500641 0.827628
Si Si6 0.000000 0.028509 0.500000
Si Si7 0.084299 0.188651 0.946513
Si Si8 0.270625 0.284344 0.221691
O O1 0.994999 0.663113 0.120492
O O2 0.007032 0.901365 0.145307
O O3 0.730044 0.788252 0.008162
O O4 0.000000 0.811883 0.000000
O O5 0.549460 0.796356 0.346115
O O6 0.788760 0.809262 0.315677
O O7 0.576691 0.989342 0.262969
O O8 0.822647 0.952993 0.437637
O O9 0.921401 0.697279 0.235298
O O10 0.255396 0.674984 0.281318
O O11 0.004803 0.080584 0.733810
O O12 0.977840 0.104429 0.571512
O O13 0.667704 0.591739 0.913211
O O14 0.714976 0.412960 0.817751
O O15 0.918298 0.234586 0.851689
O O16 0.000000 0.138863 0.000000
#
# Coordination Sequence:
#
# PCOD9127775 Si02
#       8
#     4   4   4   4   4   2   4   4
#     4  11  25  42  64 101 142 185 237 286 322 389
#     4  11  24  46  75  97 135 175 218 280 352 409
#     4  10  23  42  67 100 133 181 225 267 344 393
#     4  11  23  47  70  99 136 175 221 280 349 418
#     4  11  22  42  65  93 140 175 222 282 334 386
#     4  10  24  44  72 106 130 166 226 284 340 426
#     4  12  23  42  62 100 134 184 239 271 321 392
#     4  11  23  44  66  98 132 183 222 276 336 395
#
# _framework density 20.253727999999999
#
# number of rings (size 3 to 8) (size 9 to 14) (size 15 to 20)
#    0.000    1.067    6.667    1.200    0.000    5.333 
#    2.400    0.000    0.000    0.000    0.000    0.000 
#    0.000    0.000    0.000    0.000    0.000    0.000 
#
# Total GULP energy -83589.645971 kJ/mol
# GULP energy per Si atom -5572.643065 kJ/mol
# Density = 2.020763 g / cm^3
# Si number density = 20.253728 Si / 1000 Ang^3
#
#
#
# Elastic Constant Matrix: (Units=GPa)
#
#
# Indices 1 2 3 4 5 6 
#
# 1 104.0273 50.2189 52.5340 0.0000 -3.2822 0.0000
# 2 50.2189 108.8793 54.5393 0.0000 0.9743 0.0000
# 3 52.5340 54.5393 129.8691 0.0000 -18.3710 0.0000
# 4 0.0000 0.0000 0.0000 33.0121 0.0000 -8.6541
# 5 -3.2822 0.9743 -18.3710 0.0000 22.1066 0.0000
# 6 0.0000 0.0000 0.0000 -8.6541 0.0000 31.3406
#
#
#
# Elastic Compliance Matrix: (Units=1/GPa)
#
#
# Indices 1 2 3 4 5 6 
#
# 1 0.013612 -0.004362 -0.003809 0.000000 -0.000952 0.000000
# 2 -0.004362 0.013577 -0.004662 0.000000 -0.005120 0.000000
# 3 -0.003809 -0.004662 0.012633 0.000000 0.010138 0.000000
# 4 0.000000 0.000000 0.000000 0.032656 0.000000 0.009017
# 5 -0.000952 -0.005120 0.010138 0.000000 0.053744 0.000000
# 6 0.000000 0.000000 0.000000 0.009017 0.000000 0.034397
#
#
# Mechanical properties :
#
#
# Convention : Reuss Voigt Hill
#
# Bulk Modulus (GPa) = 70.63809 73.04000 71.83905
# Shear Modulus (GPa) = 26.17746 29.65743 27.91744
#
# Velocity S-wave (km/s) = 3.59900 3.83076 3.71669
# Velocity P-wave (km/s) = 7.22653 7.46372 7.34608
#
# Compressibility (1/GPa) = 0.01415667
#
# Stress axis : x y z
#
# Youngs Moduli (GPa) = 73.46387 73.65294 79.15913
#
# Poissons Ratio (x) = 0.32125 0.30154
# Poissons Ratio (y) = 0.32043 0.36901
# Poissons Ratio (z) = 0.27985 0.34335
#
# Static dielectric constant tensor:
#      x y z
#    x 1.720560 0.000000 -0.019990 
#    y 0.000000 1.797900 0.000000 
#    z -0.019990 0.000000 1.715690 
# 
# From -- ./inp_files/59590.got.cif
#   From: 2010.05.17/outbox.cif.g08.bks.cpg/sg5_30_cif.got.tgz:59590.got - 2010.06.03 18:56:24.
