data_PCOD9127941
_publ_section_title
;
Structure prediction by ZEFSAII (Michael W. Deem and Ramdas Pophale) SiO2 
 PCOD9127941
Probable space group: C 2
;
_chemical_formula_sum "Si O2"
_cell_formula_units_Z 30
_cell_length_a 12.325565
_cell_length_b 8.715051
_cell_length_c 12.671194
_cell_angle_alpha 90.000000
_cell_angle_beta 67.311473
_cell_angle_gamma 90.000000
_cell_volume 1255.784109
_symmetry_space_group_name_H-M "C 2"
_symmetry_group_IT_number 5
_symmetry_cell_setting 'monoclinic'
loop_
_space_group_symop_operation_xyz
x,y,z
-x,y,-z
1/2+x,1/2+y,z
1/2-x,1/2+y,-z
loop_
_atom_site_type_symbol
_atom_site_label
_atom_site_fract_x
_atom_site_fract_y
_atom_site_fract_z
Si Si1 0.041170 0.567350 0.781022
Si Si2 0.197486 0.015029 0.621222
Si Si3 0.577840 0.794674 0.072651
Si Si4 0.322276 0.186349 0.757651
Si Si5 0.704726 0.512730 0.995295
Si Si6 0.000000 0.783556 0.000000
Si Si7 0.711990 0.681223 0.392267
Si Si8 0.045253 0.964653 0.365462
O O1 0.013531 0.673919 0.893464
O O2 0.173210 0.607626 0.703480
O O3 0.008409 0.392221 0.820373
O O4 0.952986 0.614528 0.719849
O O5 0.272810 0.860923 0.600174
O O6 0.061890 0.964676 0.675374
O O7 0.242820 0.123548 0.694724
O O8 0.206030 0.101649 0.507891
O O9 0.683850 0.915105 0.006522
O O10 0.500000 0.754884 0.000000
O O11 0.635786 0.636807 0.092780
O O12 0.351911 0.361430 0.722042
O O13 0.258358 0.125661 0.886102
O O14 0.612341 0.392776 0.979853
O O15 0.597847 0.630906 0.370383
O O16 0.000000 0.906180 0.500000
#
# Coordination Sequence:
#
# PCOD9127941 Si02
#       8
#     4   4   4   4   4   2   4   4
#     4  11  25  45  72 102 138 190 231 290 356 410
#     4  11  23  48  68 102 144 175 230 289 339 418
#     4  11  24  47  67 101 139 177 235 287 350 411
#     4  11  24  44  72 102 138 183 228 277 354 413
#     4  11  25  44  71 105 136 186 235 288 355 418
#     4  12  24  48  76  96 146 186 238 302 344 416
#     4  11  24  46  74 101 138 187 228 282 353 408
#     4  10  23  44  68 100 141 184 225 282 342 409
#
# _framework density 23.889457
#
# number of rings (size 3 to 8) (size 9 to 14) (size 15 to 20)
#    0.000    1.067    2.667    4.000    1.867    0.000 
#    9.600    1.333    0.000    0.000    0.000    0.000 
#    0.000    0.000    0.000    0.000    0.000    0.000 
#
# Total GULP energy -83965.041720 kJ/mol
# GULP energy per Si atom -5597.669448 kJ/mol
# Density = 2.383508 g / cm^3
# Si number density = 23.889457 Si / 1000 Ang^3
#
#
#
# Elastic Constant Matrix: (Units=GPa)
#
#
# Indices 1 2 3 4 5 6 
#
# 1 65.9733 31.0603 23.4275 0.0000 13.0158 0.0000
# 2 31.0603 114.3203 16.8037 0.0000 8.7084 0.0000
# 3 23.4275 16.8037 48.0826 0.0000 -4.7664 0.0000
# 4 0.0000 0.0000 0.0000 200.5948 0.0000 -0.8367
# 5 13.0158 8.7084 -4.7664 0.0000 29.0541 0.0000
# 6 0.0000 0.0000 0.0000 -0.8367 0.0000 45.7903
#
#
#
# Elastic Compliance Matrix: (Units=1/GPa)
#
#
# Indices 1 2 3 4 5 6 
#
# 1 0.023006 -0.003803 -0.010967 0.000000 -0.010966 0.000000
# 2 -0.003803 0.010181 -0.001869 0.000000 -0.001654 0.000000
# 3 -0.010967 -0.001869 0.027789 0.000000 0.010032 0.000000
# 4 0.000000 0.000000 0.000000 0.004986 0.000000 0.000091
# 5 -0.010966 -0.001654 0.010032 0.000000 0.041473 0.000000
# 6 0.000000 0.000000 0.000000 0.000091 0.000000 0.021840
#
#
# Mechanical properties :
#
#
# Convention : Reuss Voigt Hill
#
# Bulk Modulus (GPa) = 36.10471 41.21769 38.66120
# Shear Modulus (GPa) = 29.10588 65.56015 47.33302
#
# Velocity S-wave (km/s) = 3.49428 5.24430 4.45605
# Velocity P-wave (km/s) = 5.60590 7.34583 6.53404
#
# Compressibility (1/GPa) = 0.02769721
#
# Stress axis : x y z
#
# Youngs Moduli (GPa) = 43.46664 98.21775 35.98573
#
# Poissons Ratio (x) = 0.37355 0.39466
# Poissons Ratio (y) = 0.16532 0.06726
# Poissons Ratio (z) = 0.47671 0.18358
#
# Static dielectric constant tensor:
#      x y z
#    x 1.912980 0.000000 -0.071560 
#    y 0.000000 1.894130 0.000000 
#    z -0.071560 0.000000 1.869730 
# 
# From -- ./inp_files/41717.got.cif
#   From: 2010.05.17/outbox.cif.g08.bks.cpg/sg5_21_cif.got.tgz:41717.got - 2010.06.03 18:56:24.
