data_PCOD9127578
_publ_section_title
;
Structure prediction by ZEFSAII (Michael W. Deem and Ramdas Pophale) SiO2 
 PCOD9127578
Probable space group: C 2
;
_chemical_formula_sum "Si O2"
_cell_formula_units_Z 28
_cell_length_a 8.809562
_cell_length_b 18.856339
_cell_length_c 14.863476
_cell_angle_alpha 90.000000
_cell_angle_beta 34.352413
_cell_angle_gamma 90.000000
_cell_volume 1393.246306
_symmetry_space_group_name_H-M "C 2"
_symmetry_group_IT_number 5
_symmetry_cell_setting 'monoclinic'
loop_
_space_group_symop_operation_xyz
x,y,z
-x,y,-z
1/2+x,1/2+y,z
1/2-x,1/2+y,-z
loop_
_atom_site_type_symbol
_atom_site_label
_atom_site_fract_x
_atom_site_fract_y
_atom_site_fract_z
Si Si1 0.590342 0.145440 0.594135
Si Si2 0.507664 0.688425 0.097979
Si Si3 0.012448 0.244824 0.696947
Si Si4 0.317713 0.976165 0.175429
Si Si5 0.818905 0.393609 0.351282
Si Si6 0.713844 0.992595 0.469598
Si Si7 0.110054 0.637226 0.794567
O O1 0.702957 0.077038 0.488094
O O2 0.674849 0.146580 0.657244
O O3 0.717399 0.211957 0.479674
O O4 0.266042 0.143350 0.755969
O O5 0.497482 0.737520 0.190192
O O6 0.500000 0.719875 0.000000
O O7 0.790374 0.647703 0.964666
O O8 0.775847 0.196697 0.769211
O O9 0.020443 0.329115 0.682269
O O10 0.326794 0.057128 0.207291
O O11 0.007769 0.965177 0.301088
O O12 0.399428 0.921387 0.213566
O O13 0.500000 0.969520 0.000000
O O14 0.500000 0.374788 0.500000
O O15 0.846718 0.460129 0.403652
O O16 0.500000 0.971514 0.500000
#
# Coordination Sequence:
#
# PCOD9127578 Si02
#       7
#     4   4   4   4   4   4   4
#     4  11  22  39  66  97 126 171 223 281 333 388
#     4  10  23  39  60  93 134 168 216 278 336 390
#     4  12  22  40  69  98 126 174 226 275 331 398
#     4  11  23  43  67  95 133 184 224 272 340 400
#     4  10  24  44  65  94 142 180 221 275 341 401
#     4  11  23  41  65  96 131 173 228 279 325 401
#     4  11  23  40  66  97 132 168 227 280 334 396
#
# _framework density 20.09695
#
# number of rings (size 3 to 8) (size 9 to 14) (size 15 to 20)
#    0.000    1.143    2.857    3.857    2.000    1.714 
#    0.000    6.429    0.000    0.000    0.000    0.000 
#    0.000    0.000    0.000    0.000    0.000    0.000 
#
# Total GULP energy -78159.024108 kJ/mol
# GULP energy per Si atom -5582.787436 kJ/mol
# Density = 2.005121 g / cm^3
# Si number density = 20.096950 Si / 1000 Ang^3
#
#
#
# Elastic Constant Matrix: (Units=GPa)
#
#
# Indices 1 2 3 4 5 6 
#
# 1 107.2292 23.8132 48.1879 0.0021 4.3211 0.0008
# 2 23.8132 82.5693 11.7205 0.0098 0.0446 -0.0006
# 3 48.1879 11.7205 104.3623 0.0191 7.0362 0.0026
# 4 0.0021 0.0098 0.0191 4.8555 -0.0003 5.7210
# 5 4.3211 0.0446 7.0362 -0.0003 39.3151 -0.0018
# 6 0.0008 -0.0006 0.0026 5.7210 -0.0018 26.6453
#
#
#
# Elastic Compliance Matrix: (Units=1/GPa)
#
#
# Indices 1 2 3 4 5 6 
#
# 1 0.012381 -0.002807 -0.005375 0.000029 -0.000396 -0.000006
# 2 -0.002807 0.012946 -0.000180 -0.000033 0.000326 0.000008
# 3 -0.005375 -0.000180 0.012191 -0.000059 -0.001591 0.000012
# 4 0.000029 -0.000033 -0.000059 0.275698 0.000007 -0.059195
# 5 -0.000396 0.000326 -0.001591 0.000007 0.025763 0.000000
# 6 -0.000006 0.000008 0.000012 -0.059195 0.000000 0.050240
#
#
# Mechanical properties :
#
#
# Convention : Reuss Voigt Hill
#
# Bulk Modulus (GPa) = 48.08985 51.28935 49.68960
# Shear Modulus (GPa) = 12.11023 28.19247 20.15135
#
# Velocity S-wave (km/s) = 2.45743 3.74949 3.16999
# Velocity P-wave (km/s) = 5.65976 6.65742 6.17876
#
# Compressibility (1/GPa) = 0.02079441
#
# Stress axis : x y z
#
# Youngs Moduli (GPa) = 80.77198 77.24368 82.02709
#
# Poissons Ratio (x) = 0.21686 0.44086
# Poissons Ratio (y) = 0.22676 0.01473
# Poissons Ratio (z) = 0.43412 0.01387
#
# Static dielectric constant tensor:
#      x y z
#    x 1.733150 0.000000 -0.013770 
#    y 0.000000 1.686650 0.000000 
#    z -0.013770 0.000000 1.709520 
# 
# From -- ./inp_files/51615.got.cif
#   From: 2010.05.17/outbox.cif.g08.bks.cpg/sg5_26_cif.got.tgz:51615.got - 2010.06.03 18:56:24.
