data_PCOD9127748
_publ_section_title
;
Structure prediction by ZEFSAII (Michael W. Deem and Ramdas Pophale) SiO2 
 PCOD9127748
Probable space group: C 2
;
_chemical_formula_sum "Si O2"
_cell_formula_units_Z 18
_cell_length_a 5.180849
_cell_length_b 12.955178
_cell_length_c 12.560506
_cell_angle_alpha 90.000000
_cell_angle_beta 100.067852
_cell_angle_gamma 90.000000
_cell_volume 830.064638
_symmetry_space_group_name_H-M "C 2"
_symmetry_group_IT_number 5
_symmetry_cell_setting 'monoclinic'
loop_
_space_group_symop_operation_xyz
x,y,z
-x,y,-z
1/2+x,1/2+y,z
1/2-x,1/2+y,-z
loop_
_atom_site_type_symbol
_atom_site_label
_atom_site_fract_x
_atom_site_fract_y
_atom_site_fract_z
Si Si1 0.500000 0.271791 0.000000
Si Si2 0.230398 0.470592 0.931070
Si Si3 0.000000 0.023492 0.500000
Si Si4 0.622104 0.701651 0.676162
Si Si5 0.818746 0.659701 0.193314
Si Si6 0.500000 0.878854 0.500000
O O1 0.694620 0.350814 0.075404
O O2 0.352622 0.205931 0.077573
O O3 0.168187 0.536046 0.822562
O O4 0.500000 0.515513 0.000000
O O5 0.000000 0.478742 0.000000
O O6 0.750017 0.951202 0.500044
O O7 0.951926 0.100621 0.398048
O O8 0.446272 0.693099 0.769002
O O9 0.548614 0.802491 0.603195
O O10 0.930299 0.697168 0.722545
#
# Coordination Sequence:
#
# PCOD9127748 Si02
#       6
#     2   4   2   4   4   2
#     4  10  28  40  68  90 142 182 222 272 320 378
#     4  10  23  42  63  90 131 182 224 261 326 374
#     4  11  24  49  72  96 140 169 208 293 338 396
#     4  11  27  43  70 104 130 172 227 272 339 398
#     4  12  24  44  68  98 139 177 224 278 320 393
#     4  11  24  49  72 100 132 171 218 277 344 410
#
# _framework density 21.685058000000001
#
# number of rings (size 3 to 8) (size 9 to 14) (size 15 to 20)
#    0.667    0.444    1.111    4.000    3.111    8.889 
#    0.000    0.000    0.000    0.000    0.000    0.000 
#    0.000    0.000    0.000    0.000    0.000    0.000 
#
# Total GULP energy -50335.354251 kJ/mol
# GULP energy per Si atom -5592.817139 kJ/mol
# Density = 2.163570 g / cm^3
# Si number density = 21.685058 Si / 1000 Ang^3
#
#
#
# Elastic Constant Matrix: (Units=GPa)
#
#
# Indices 1 2 3 4 5 6 
#
# 1 121.2586 43.4381 -0.2941 0.0000 -13.2993 0.0000
# 2 43.4381 138.1250 39.3915 0.0000 -5.6146 0.0000
# 3 -0.2941 39.3915 53.8882 0.0000 -15.9908 0.0000
# 4 0.0000 0.0000 0.0000 14.9196 0.0000 13.6992
# 5 -13.2993 -5.6146 -15.9908 0.0000 39.2252 0.0000
# 6 0.0000 0.0000 0.0000 13.6992 0.0000 147.8981
#
#
#
# Elastic Compliance Matrix: (Units=1/GPa)
#
#
# Indices 1 2 3 4 5 6 
#
# 1 0.010362 -0.004404 0.004700 0.000000 0.004799 0.000000
# 2 -0.004404 0.011109 -0.009232 0.000000 -0.003667 0.000000
# 3 0.004700 -0.009232 0.028909 0.000000 0.012057 0.000000
# 4 0.000000 0.000000 0.000000 0.073256 0.000000 -0.006785
# 5 0.004799 -0.003667 0.012057 0.000000 0.031511 0.000000
# 6 0.000000 0.000000 0.000000 -0.006785 0.000000 0.007390
#
#
# Mechanical properties :
#
#
# Convention : Reuss Voigt Hill
#
# Bulk Modulus (GPa) = 30.76266 53.14921 41.95594
# Shear Modulus (GPa) = 26.14422 55.79101 40.96762
#
# Velocity S-wave (km/s) = 3.47599 5.07777 4.35122
# Velocity P-wave (km/s) = 5.50699 7.67731 6.68087
#
# Compressibility (1/GPa) = 0.03250694
#
# Stress axis : x y z
#
# Youngs Moduli (GPa) = 96.50464 90.01925 34.59098
#
# Poissons Ratio (x) = 0.39645 -0.16257
# Poissons Ratio (y) = 0.42501 0.31936
# Poissons Ratio (z) = -0.45356 0.83110
#
# Static dielectric constant tensor:
#      x y z
#    x 1.740980 0.000000 0.128010 
#    y 0.000000 1.784020 0.000000 
#    z 0.128010 0.000000 1.573520 
# 
# From -- ./inp_files/48553.got.cif
#   From: 2010.05.17/outbox.cif.g08.bks.cpg/sg5_25_cif.got.tgz:48553.got - 2010.06.03 18:56:24.
