data_PCOD9127376
_publ_section_title
;
Structure prediction by ZEFSAII (Michael W. Deem and Ramdas Pophale) SiO2 
 PCOD9127376
Probable space group: C 2
;
_chemical_formula_sum "Si O2"
_cell_formula_units_Z 16
_cell_length_a 8.850738
_cell_length_b 14.930756
_cell_length_c 6.434895
_cell_angle_alpha 90.000000
_cell_angle_beta 124.374714
_cell_angle_gamma 90.000000
_cell_volume 701.855348
_symmetry_space_group_name_H-M "C 2"
_symmetry_group_IT_number 5
_symmetry_cell_setting 'monoclinic'
loop_
_space_group_symop_operation_xyz
x,y,z
-x,y,-z
1/2+x,1/2+y,z
1/2-x,1/2+y,-z
loop_
_atom_site_type_symbol
_atom_site_label
_atom_site_fract_x
_atom_site_fract_y
_atom_site_fract_z
Si Si1 0.500000 0.751271 0.000000
Si Si2 0.000000 0.680122 0.000000
Si Si3 0.071375 0.012438 0.334915
Si Si4 0.334732 0.307046 0.533552
Si Si5 0.747145 0.593695 0.113182
O O1 0.359790 0.798485 0.735116
O O2 0.876672 0.012481 0.063750
O O3 0.132993 0.746659 0.236334
O O4 0.922246 0.613110 0.115958
O O5 0.140628 0.911866 0.402400
O O6 0.223265 0.074961 0.340216
O O7 0.000000 0.047589 0.500000
O O8 0.869623 0.183202 0.022956
O O9 0.500000 0.281531 0.500000
#
# Coordination Sequence:
#
# PCOD9127376 Si02
#       5
#     2   2   4   4   4
#     4  10  22  45  75 106 144 180 258 288 366 418
#     4  12  24  39  81 108 148 184 252 290 362 430
#     4   9  21  43  72  93 148 186 232 291 367 412
#     4  11  23  45  75 109 142 192 240 306 357 429
#     4  10  23  41  72 106 142 194 233 295 359 430
#
# _framework density 22.796721000000002
#
# number of rings (size 3 to 8) (size 9 to 14) (size 15 to 20)
#    0.000    2.000    2.500    1.500    7.000    0.000 
#    0.000    5.000   22.000    0.000    0.000    0.000 
#    0.000    0.000    0.000    0.000    0.000    0.000 
#
# Total GULP energy -44534.998812 kJ/mol
# GULP energy per Si atom -5566.874851 kJ/mol
# Density = 2.274483 g / cm^3
# Si number density = 22.796721 Si / 1000 Ang^3
#
#
#
# Elastic Constant Matrix: (Units=GPa)
#
#
# Indices 1 2 3 4 5 6 
#
# 1 128.0379 53.3195 67.6233 0.0000 -32.8902 0.0000
# 2 53.3195 106.4278 65.9296 0.0000 3.0481 0.0000
# 3 67.6233 65.9296 150.3873 0.0000 13.3711 0.0000
# 4 0.0000 0.0000 0.0000 43.6507 0.0000 -0.5468
# 5 -32.8902 3.0481 13.3711 0.0000 58.2149 0.0000
# 6 0.0000 0.0000 0.0000 -0.5468 0.0000 21.2133
#
#
#
# Elastic Compliance Matrix: (Units=1/GPa)
#
#
# Indices 1 2 3 4 5 6 
#
# 1 0.015390 -0.004326 -0.005938 0.000000 0.010286 0.000000
# 2 -0.004326 0.014139 -0.004053 0.000000 -0.002254 0.000000
# 3 -0.005938 -0.004053 0.011613 0.000000 -0.005810 0.000000
# 4 0.000000 0.000000 0.000000 0.022917 0.000000 0.000591
# 5 0.010286 -0.002254 -0.005810 0.000000 0.024441 0.000000
# 6 0.000000 0.000000 0.000000 0.000591 0.000000 0.047155
#
#
# Mechanical properties :
#
#
# Convention : Reuss Voigt Hill
#
# Bulk Modulus (GPa) = 79.95255 84.28865 82.12060
# Shear Modulus (GPa) = 29.68091 37.81449 33.74770
#
# Velocity S-wave (km/s) = 3.61221 4.07722 3.85174
# Velocity P-wave (km/s) = 7.24883 7.69540 7.47545
#
# Compressibility (1/GPa) = 0.01250742
#
# Stress axis : x y z
#
# Youngs Moduli (GPa) = 64.97599 70.72882 86.11117
#
# Poissons Ratio (x) = 0.30600 0.51135
# Poissons Ratio (y) = 0.28111 0.34897
# Poissons Ratio (z) = 0.38584 0.28663
#
# Static dielectric constant tensor:
#      x y z
#    x 1.956150 0.000000 -0.026410 
#    y 0.000000 1.826900 0.000000 
#    z -0.026410 0.000000 2.143500 
# 
# From -- ./inp_files/1921.got.cif
#   From: 2010.05.17/outbox.cif.g08.bks.cpg/sg5_1_cif.got.tgz:1921.got - 2010.06.03 18:56:24.
