data_PCOD9127679
_publ_section_title
;
Structure prediction by ZEFSAII (Michael W. Deem and Ramdas Pophale) SiO2 
 PCOD9127679
Probable space group: C 2
;
_chemical_formula_sum "Si O2"
_cell_formula_units_Z 20
_cell_length_a 5.264387
_cell_length_b 28.514448
_cell_length_c 4.988697
_cell_angle_alpha 90.000000
_cell_angle_beta 93.111805
_cell_angle_gamma 90.000000
_cell_volume 747.754554
_symmetry_space_group_name_H-M "C 2"
_symmetry_group_IT_number 5
_symmetry_cell_setting 'monoclinic'
loop_
_space_group_symop_operation_xyz
x,y,z
-x,y,-z
1/2+x,1/2+y,z
1/2-x,1/2+y,-z
loop_
_atom_site_type_symbol
_atom_site_label
_atom_site_fract_x
_atom_site_fract_y
_atom_site_fract_z
Si Si1 0.500000 0.559850 0.500000
Si Si2 0.240902 0.651257 0.347264
Si Si3 0.828974 0.491817 0.222305
Si Si4 0.758572 0.787754 0.687085
Si Si5 0.760025 0.890734 0.683935
Si Si6 0.000000 0.207337 0.000000
O O1 0.283850 0.596210 0.392650
O O2 0.598959 0.525342 0.279833
O O3 0.500000 0.674825 0.500000
O O4 0.000000 0.667525 0.500000
O O5 0.283907 0.665877 0.045901
O O6 0.752065 0.438389 0.148328
O O7 0.000000 0.489443 0.500000
O O8 0.000000 0.511803 0.000000
O O9 0.500000 0.787543 0.500000
O O10 0.776872 0.839571 0.817661
O O11 0.699302 0.746925 0.892937
O O12 0.000000 0.781109 0.500000
O O13 0.500000 0.889553 0.500000
O O14 0.000000 0.895069 0.500000
#
# Coordination Sequence:
#
# PCOD9127679 Si02
#       6
#     2   4   4   4   4   2
#     4  10  24  46  68 100 138 186 240 296 364 422
#     4  10  25  44  65  96 136 174 233 287 349 417
#     4  11  24  43  73 104 148 190 241 295 363 431
#     4  10  23  41  65  99 140 178 231 283 345 423
#     4   9  19  41  65  99 141 185 229 286 350 426
#     4  12  24  42  74  96 138 180 234 284 364 406
#
# _framework density 26.746745000000001
#
# number of rings (size 3 to 8) (size 9 to 14) (size 15 to 20)
#    0.600    1.200    1.000    1.800    1.400    7.200 
#    0.000    0.000    0.000    0.000    0.000    0.000 
#    0.000    0.000    0.000    0.000    0.000    0.000 
#
# Total GULP energy -55772.595814 kJ/mol
# GULP energy per Si atom -5577.259581 kJ/mol
# Density = 2.668587 g / cm^3
# Si number density = 26.746745 Si / 1000 Ang^3
#
#
#
# Elastic Constant Matrix: (Units=GPa)
#
#
# Indices 1 2 3 4 5 6 
#
# 1 208.3146 25.9744 65.1095 0.0000 -47.5454 0.0000
# 2 25.9744 201.0297 26.0077 0.0000 -41.2449 0.0000
# 3 65.1095 26.0077 95.1507 0.0000 -33.4281 0.0000
# 4 0.0000 0.0000 0.0000 38.9814 0.0000 -47.9536
# 5 -47.5454 -41.2449 -33.4281 0.0000 81.3426 0.0000
# 6 0.0000 0.0000 0.0000 -47.9536 0.0000 36.8960
#
#
#
# Elastic Compliance Matrix: (Units=1/GPa)
#
#
# Indices 1 2 3 4 5 6 
#
# 1 0.006453 0.000115 -0.003625 0.000000 0.002341 0.000000
# 2 0.000115 0.005585 -0.000686 0.000000 0.002618 0.000000
# 3 -0.003625 -0.000686 0.014388 0.000000 0.003446 0.000000
# 4 0.000000 0.000000 0.000000 -0.042838 0.000000 -0.055677
# 5 0.002341 0.002618 0.003446 0.000000 0.016405 0.000000
# 6 0.000000 0.000000 0.000000 -0.055677 0.000000 -0.045260
#
#
# Mechanical properties :
#
#
# Convention : Reuss Voigt Hill
#
# Bulk Modulus (GPa) = 55.44543 82.07536 68.76040
# Shear Modulus (GPa) = -162.00988 57.27089 -52.36949
#
# Velocity S-wave (km/s) = -7.79123 4.63236 -4.42970
# Velocity P-wave (km/s) = 7.75648 7.70483 0.63188
#
# Compressibility (1/GPa) = 0.01803575
#
# Stress axis : x y z
#
# Youngs Moduli (GPa) = 154.95878 179.04242 69.50024
#
# Poissons Ratio (x) = -0.02067 0.25194
# Poissons Ratio (y) = -0.01789 0.04768
# Poissons Ratio (z) = 0.56173 0.12283
#
# Static dielectric constant tensor:
#      x y z
#    x 2.114800 0.000000 0.020840 
#    y 0.000000 2.051760 0.000000 
#    z 0.020840 0.000000 1.628550 
# 
# From -- ./inp_files/1112.got.cif
#   From: 2010.05.17/outbox.cif.g08.bks.cpg/sg5_1_cif.got.tgz:1112.got - 2010.06.03 18:56:24.
