data_PCOD9127435
_publ_section_title
;
Structure prediction by ZEFSAII (Michael W. Deem and Ramdas Pophale) SiO2 
 PCOD9127435
Probable space group: C 2
;
_chemical_formula_sum "Si O2"
_cell_formula_units_Z 22
_cell_length_a 14.968726
_cell_length_b 12.089928
_cell_length_c 5.108756
_cell_angle_alpha 90.000000
_cell_angle_beta 70.448852
_cell_angle_gamma 90.000000
_cell_volume 871.229918
_symmetry_space_group_name_H-M "C 2"
_symmetry_group_IT_number 5
_symmetry_cell_setting 'monoclinic'
loop_
_space_group_symop_operation_xyz
x,y,z
-x,y,-z
1/2+x,1/2+y,z
1/2-x,1/2+y,-z
loop_
_atom_site_type_symbol
_atom_site_label
_atom_site_fract_x
_atom_site_fract_y
_atom_site_fract_z
Si Si1 0.127485 0.066680 0.053972
Si Si2 0.062426 0.295843 0.178035
Si Si3 0.000000 0.944022 0.500000
Si Si4 0.113387 0.509087 0.373682
Si Si5 0.389822 0.347109 0.219094
Si Si6 0.300871 0.115291 0.203917
O O1 0.114702 0.193171 0.984629
O O2 0.193446 0.082300 0.244546
O O3 0.024739 0.026081 0.245565
O O4 0.155176 0.960153 0.854979
O O5 0.130919 0.388313 0.231652
O O6 0.000000 0.263810 0.500000
O O7 0.000000 0.345072 0.000000
O O8 0.912491 0.869586 0.501617
O O9 0.156992 0.538750 0.609736
O O10 0.000000 0.517038 0.500000
O O11 0.150129 0.594358 0.123233
O O12 0.324588 0.241350 0.250511
O O13 0.500000 0.326098 0.000000
#
# Coordination Sequence:
#
# PCOD9127435 Si02
#       6
#     4   4   2   4   4   4
#     4  11  26  43  71 105 145 186 245 297 355 424
#     4  11  23  44  72 101 137 187 235 289 355 431
#     4  10  22  46  72  98 142 196 244 278 364 428
#     4  11  25  48  70 103 142 187 232 289 370 434
#     4  10  24  46  71 102 140 196 241 294 359 436
#     4  12  28  43  74 106 145 185 240 302 351 427
#
# _framework density 25.251657000000002
#
# number of rings (size 3 to 8) (size 9 to 14) (size 15 to 20)
#    0.000    1.091    0.909    5.455   11.455    0.000 
#    0.000    0.000    0.000    0.000    0.000    0.000 
#    0.000    0.000    0.000    0.000    0.000    0.000 
#
# Total GULP energy -61413.960569 kJ/mol
# GULP energy per Si atom -5583.087324 kJ/mol
# Density = 2.519418 g / cm^3
# Si number density = 25.251657 Si / 1000 Ang^3
#
#
#
# Elastic Constant Matrix: (Units=GPa)
#
#
# Indices 1 2 3 4 5 6 
#
# 1 90.7924 40.3784 18.9373 0.0000 32.2462 0.0000
# 2 40.3784 131.5138 -0.1562 0.0000 26.1408 0.0000
# 3 18.9373 -0.1562 78.3219 0.0000 25.2946 0.0000
# 4 0.0000 0.0000 0.0000 33.4092 0.0000 13.4001
# 5 32.2462 26.1408 25.2946 0.0000 51.1889 0.0000
# 6 0.0000 0.0000 0.0000 13.4001 0.0000 39.1445
#
#
#
# Elastic Compliance Matrix: (Units=1/GPa)
#
#
# Indices 1 2 3 4 5 6 
#
# 1 0.015350 -0.003255 -0.001347 0.000000 -0.007342 0.000000
# 2 -0.003255 0.009343 0.002004 0.000000 -0.003711 0.000000
# 3 -0.001347 0.002004 0.015652 0.000000 -0.007909 0.000000
# 4 0.000000 0.000000 0.000000 0.034696 0.000000 -0.011877
# 5 -0.007342 -0.003711 -0.007909 0.000000 0.029964 0.000000
# 6 0.000000 0.000000 0.000000 -0.011877 0.000000 0.029612
#
#
# Mechanical properties :
#
#
# Convention : Reuss Voigt Hill
#
# Bulk Modulus (GPa) = 28.44978 46.54970 37.49974
# Shear Modulus (GPa) = 32.99683 40.84642 36.92163
#
# Velocity S-wave (km/s) = 3.61878 4.02627 3.82795
# Velocity P-wave (km/s) = 5.36206 6.33157 5.86688
#
# Compressibility (1/GPa) = 0.03514966
#
# Stress axis : x y z
#
# Youngs Moduli (GPa) = 65.14490 107.02919 63.89033
#
# Poissons Ratio (x) = 0.34841 0.08605
# Poissons Ratio (y) = 0.21206 -0.12805
# Poissons Ratio (z) = 0.08774 -0.21451
#
# Static dielectric constant tensor:
#      x y z
#    x 2.284330 0.000000 0.043520 
#    y 0.000000 2.013000 0.000000 
#    z 0.043520 0.000000 2.059600 
# 
# From -- ./inp_files/6629.got.cif
#   From: 2010.05.17/outbox.cif.g08.bks.cpg/sg5_4_cif.got.tgz:6629.got - 2010.06.03 18:56:24.
