data_PCOD9127381
_publ_section_title
;
Structure prediction by ZEFSAII (Michael W. Deem and Ramdas Pophale) SiO2 
 PCOD9127381
Probable space group: C 2
;
_chemical_formula_sum "Si O2"
_cell_formula_units_Z 18
_cell_length_a 16.988520
_cell_length_b 7.956925
_cell_length_c 4.948505
_cell_angle_alpha 90.000000
_cell_angle_beta 73.076992
_cell_angle_gamma 90.000000
_cell_volume 639.954551
_symmetry_space_group_name_H-M "C 2"
_symmetry_group_IT_number 5
_symmetry_cell_setting 'monoclinic'
loop_
_space_group_symop_operation_xyz
x,y,z
-x,y,-z
1/2+x,1/2+y,z
1/2-x,1/2+y,-z
loop_
_atom_site_type_symbol
_atom_site_label
_atom_site_fract_x
_atom_site_fract_y
_atom_site_fract_z
Si Si1 0.663906 0.832410 0.090484
Si Si2 0.902492 0.892063 0.078214
Si Si3 0.581422 0.081644 0.559518
Si Si4 0.500000 0.800863 0.000000
Si Si5 0.196490 0.000055 0.331598
O O1 0.708518 0.689920 0.219233
O O2 0.643699 0.001338 0.281842
O O3 0.578274 0.740565 0.093446
O O4 0.720513 0.894040 0.788211
O O5 0.893481 0.710225 0.232433
O O6 0.845101 0.001025 0.335706
O O7 0.866198 0.906832 0.814951
O O8 0.000000 0.935418 0.000000
O O9 0.500000 0.158785 0.500000
O O10 0.546363 0.917718 0.740682
#
# Coordination Sequence:
#
# PCOD9127381 Si02
#       5
#     4   4   4   2   4
#     4  11  28  49  76 118 155 213 258 332 394 476
#     4  12  27  48  78 117 157 207 262 328 395 473
#     4  10  22  45  77 109 150 207 260 311 391 475
#     4  10  24  44  80 104 158 196 260 306 410 458
#     4  12  30  47  80 112 165 202 269 327 397 465
#
# _framework density 28.126995000000001
#
# number of rings (size 3 to 8) (size 9 to 14) (size 15 to 20)
#    0.000    0.889    1.111    3.333   14.000    3.556 
#    0.000    0.000    0.000    0.000    0.000    0.000 
#    0.000    0.000    0.000    0.000    0.000    0.000 
#
# Total GULP energy -50476.157807 kJ/mol
# GULP energy per Si atom -5608.461979 kJ/mol
# Density = 2.806298 g / cm^3
# Si number density = 28.126995 Si / 1000 Ang^3
#
#
#
# Elastic Constant Matrix: (Units=GPa)
#
#
# Indices 1 2 3 4 5 6 
#
# 1 167.4529 22.8616 18.3777 0.0000 -15.4568 0.0000
# 2 22.8616 82.5827 7.8853 0.0000 -21.1865 0.0000
# 3 18.3777 7.8853 142.4280 0.0000 -26.0358 0.0000
# 4 0.0000 0.0000 0.0000 53.4770 0.0000 -0.8357
# 5 -15.4568 -21.1865 -26.0358 0.0000 53.7985 0.0000
# 6 0.0000 0.0000 0.0000 -0.8357 0.0000 48.9780
#
#
#
# Elastic Compliance Matrix: (Units=1/GPa)
#
#
# Indices 1 2 3 4 5 6 
#
# 1 0.006321 -0.001446 -0.000557 0.000000 0.000977 0.000000
# 2 -0.001446 0.013809 0.000373 0.000000 0.005203 0.000000
# 3 -0.000557 0.000373 0.007756 0.000000 0.003741 0.000000
# 4 0.000000 0.000000 0.000000 0.018705 0.000000 0.000319
# 5 0.000977 0.005203 0.003741 0.000000 0.022728 0.000000
# 6 0.000000 0.000000 0.000000 0.000319 0.000000 0.020423
#
#
# Mechanical properties :
#
#
# Convention : Reuss Voigt Hill
#
# Bulk Modulus (GPa) = 40.60748 54.52367 47.56557
# Shear Modulus (GPa) = 49.40308 54.13999 51.77153
#
# Velocity S-wave (km/s) = 4.19552 4.39206 4.29492
# Velocity P-wave (km/s) = 6.15942 6.71916 6.44537
#
# Compressibility (1/GPa) = 0.02462601
#
# Stress axis : x y z
#
# Youngs Moduli (GPa) = 158.21450 72.41874 128.93161
#
# Poissons Ratio (x) = 0.10471 0.07180
# Poissons Ratio (y) = 0.22876 -0.04812
# Poissons Ratio (z) = 0.08811 -0.02703
#
# Static dielectric constant tensor:
#      x y z
#    x 2.355400 0.000000 0.093890 
#    y 0.000000 2.300650 0.000000 
#    z 0.093890 0.000000 2.124420 
# 
# From -- ./inp_files/7977.got.cif
#   From: 2010.05.17/outbox.cif.g08.bks.cpg/sg5_4_cif.got.tgz:7977.got - 2010.06.03 18:56:24.
