data_PCOD9127710
_publ_section_title
;
Structure prediction by ZEFSAII (Michael W. Deem and Ramdas Pophale) SiO2 
 PCOD9127710
Probable space group: C 2
;
_chemical_formula_sum "Si O2"
_cell_formula_units_Z 32
_cell_length_a 8.661266
_cell_length_b 11.151506
_cell_length_c 21.189092
_cell_angle_alpha 90.000000
_cell_angle_beta 43.131081
_cell_angle_gamma 90.000000
_cell_volume 1399.180091
_symmetry_space_group_name_H-M "C 2"
_symmetry_group_IT_number 5
_symmetry_cell_setting 'monoclinic'
loop_
_space_group_symop_operation_xyz
x,y,z
-x,y,-z
1/2+x,1/2+y,z
1/2-x,1/2+y,-z
loop_
_atom_site_type_symbol
_atom_site_label
_atom_site_fract_x
_atom_site_fract_y
_atom_site_fract_z
Si Si1 0.240964 0.395660 0.056324
Si Si2 0.381982 0.968830 0.372906
Si Si3 0.399642 0.695514 0.593055
Si Si4 0.856203 0.142303 0.980078
Si Si5 0.907491 0.044400 0.213669
Si Si6 0.759796 0.537282 0.545692
Si Si7 0.619661 0.800456 0.741208
Si Si8 0.513488 0.366033 0.717953
O O1 0.188099 0.528693 0.043642
O O2 0.082679 0.370855 0.163841
O O3 0.500000 0.403624 0.000000
O O4 0.224150 0.273890 0.019216
O O5 0.235564 0.079263 0.390544
O O6 0.647148 0.002510 0.291521
O O7 0.306742 0.959715 0.468054
O O8 0.331692 0.861674 0.339855
O O9 0.500000 0.755835 0.500000
O O10 0.604072 0.648823 0.573378
O O11 0.209886 0.776132 0.680765
O O12 0.000000 0.162925 0.000000
O O13 0.013134 0.087958 0.877994
O O14 0.934474 0.161298 0.249313
O O15 0.058599 0.939006 0.198751
O O16 0.632002 0.459162 0.635323
O O17 0.000000 0.577682 0.500000
O O18 0.822167 0.806507 0.732312
#
# Coordination Sequence:
#
# PCOD9127710 Si02
#       8
#     4   4   4   4   4   4   4   4
#     4  10  23  45  71 105 141 176 231 281 348 433
#     4  11  21  44  67  96 138 180 228 282 345 393
#     4  10  23  41  69  93 134 182 230 289 332 399
#     4  10  23  45  72 100 139 180 226 285 354 420
#     4  11  25  44  66 104 136 174 232 284 343 422
#     4  11  23  44  67  98 138 186 240 281 345 408
#     4  11  25  45  69 100 143 177 225 291 347 410
#     4  12  24  45  66  99 139 177 235 285 340 412
#
# _framework density 22.870536999999999
#
# number of rings (size 3 to 8) (size 9 to 14) (size 15 to 20)
#    0.000    1.250    3.750    1.875    0.000    5.500 
#    4.500    1.250    0.000    0.000    0.000    0.000 
#    0.000    0.000    0.000    0.000    0.000    0.000 
#
# Total GULP energy -89476.438269 kJ/mol
# GULP energy per Si atom -5592.277392 kJ/mol
# Density = 2.281848 g / cm^3
# Si number density = 22.870537 Si / 1000 Ang^3
#
#
#
# Elastic Constant Matrix: (Units=GPa)
#
#
# Indices 1 2 3 4 5 6 
#
# 1 80.7801 27.5640 23.1411 0.0000 11.5147 0.0002
# 2 27.5640 96.9064 11.4429 -0.0005 22.6646 0.0006
# 3 23.1411 11.4429 49.1483 -0.0012 14.1630 0.0013
# 4 0.0000 -0.0005 -0.0012 28.6951 0.0005 13.9598
# 5 11.5147 22.6646 14.1630 0.0005 37.5982 -0.0006
# 6 0.0002 0.0006 0.0013 13.9598 -0.0006 25.9788
#
#
#
# Elastic Compliance Matrix: (Units=1/GPa)
#
#
# Indices 1 2 3 4 5 6 
#
# 1 0.015465 -0.003608 -0.006398 -0.000001 -0.000151 0.000001
# 2 -0.003608 0.012882 0.000694 0.000001 -0.006922 -0.000001
# 3 -0.006398 0.000694 0.025524 0.000003 -0.008074 -0.000003
# 4 -0.000001 0.000001 0.000003 0.047184 -0.000002 -0.025354
# 5 -0.000151 -0.006922 -0.008074 -0.000002 0.033857 0.000003
# 6 0.000001 -0.000001 -0.000003 -0.025354 0.000003 0.052117
#
#
# Mechanical properties :
#
#
# Convention : Reuss Voigt Hill
#
# Bulk Modulus (GPa) = 28.37042 39.01452 33.69247
# Shear Modulus (GPa) = 22.99885 29.43353 26.21619
#
# Velocity S-wave (km/s) = 3.17458 3.59132 3.38936
# Velocity P-wave (km/s) = 5.08615 5.85599 5.48460
#
# Compressibility (1/GPa) = 0.03524798
#
# Stress axis : x y z
#
# Youngs Moduli (GPa) = 64.66316 77.62473 39.17889
#
# Poissons Ratio (x) = 0.28007 0.25066
# Poissons Ratio (y) = 0.23330 -0.02720
# Poissons Ratio (z) = 0.41371 -0.05389
#
# Static dielectric constant tensor:
#      x y z
#    x 1.847700 0.000000 0.012660 
#    y 0.000000 1.882450 0.000000 
#    z 0.012660 0.000000 1.862180 
# 
# From -- ./inp_files/64543.got.cif
#   From: 2010.05.17/outbox.cif.g08.bks.cpg/sg5_33_cif.got.tgz:64543.got - 2010.06.03 18:56:24.
