data_PCOD9127529
_publ_section_title
;
Structure prediction by ZEFSAII (Michael W. Deem and Ramdas Pophale) SiO2 
 PCOD9127529
Probable space group: C 2
;
_chemical_formula_sum "Si O2"
_cell_formula_units_Z 28
_cell_length_a 9.247361
_cell_length_b 7.618699
_cell_length_c 22.950926
_cell_angle_alpha 90.000000
_cell_angle_beta 46.602501
_cell_angle_gamma 90.000000
_cell_volume 1174.889495
_symmetry_space_group_name_H-M "C 2"
_symmetry_group_IT_number 5
_symmetry_cell_setting 'monoclinic'
loop_
_space_group_symop_operation_xyz
x,y,z
-x,y,-z
1/2+x,1/2+y,z
1/2-x,1/2+y,-z
loop_
_atom_site_type_symbol
_atom_site_label
_atom_site_fract_x
_atom_site_fract_y
_atom_site_fract_z
Si Si1 0.387733 0.969480 0.975999
Si Si2 0.494681 0.128418 0.569937
Si Si3 0.069131 0.014600 0.546821
Si Si4 0.093575 0.996154 0.735822
Si Si5 0.026122 0.871822 0.927166
Si Si6 0.027880 0.342094 0.176616
Si Si7 0.286858 0.629754 0.719376
O O1 0.434762 0.878251 0.901922
O O2 0.463468 0.167355 0.946719
O O3 0.500000 0.889403 0.000000
O O4 0.154782 0.962898 0.055715
O O5 0.500000 0.157174 0.500000
O O6 0.515135 0.324715 0.588573
O O7 0.293122 0.039772 0.644974
O O8 0.694887 0.023204 0.525210
O O9 0.955899 0.143840 0.622492
O O10 0.000000 0.043770 0.500000
O O11 0.062046 0.150099 0.791016
O O12 0.908860 0.047552 0.742203
O O13 0.149761 0.809191 0.751416
O O14 0.259452 0.872554 0.850601
O O15 0.000000 0.943990 0.000000
O O16 0.875741 0.479476 0.246424
#
# Coordination Sequence:
#
# PCOD9127529 Si02
#       7
#     4   4   4   4   4   4   4
#     4  10  22  48  79 112 145 197 253 316 393 491
#     4  11  23  44  73 105 155 203 271 332 396 483
#     4  11  25  42  76 112 147 212 273 334 403 484
#     4  12  28  50  75 116 163 210 276 341 414 493
#     4   9  21  46  73 108 146 188 248 308 385 480
#     4  11  25  52  75 114 159 204 257 334 408 489
#     4  12  28  51  77 114 162 216 271 339 420 483
#
# _framework density 23.832028000000001
#
# number of rings (size 3 to 8) (size 9 to 14) (size 15 to 20)
#    0.000    1.143    2.857    1.714    4.000    4.000 
#   33.429    0.000    0.000    0.000    0.000    0.000 
#    0.000    0.000    0.000    0.000    0.000    0.000 
#
# Total GULP energy -78140.139552 kJ/mol
# GULP energy per Si atom -5581.438539 kJ/mol
# Density = 2.377779 g / cm^3
# Si number density = 23.832028 Si / 1000 Ang^3
#
#
#
# Elastic Constant Matrix: (Units=GPa)
#
#
# Indices 1 2 3 4 5 6 
#
# 1 115.8630 41.1486 34.5532 0.0000 -31.9510 0.0000
# 2 41.1486 121.3109 37.6548 0.0000 -16.1616 0.0000
# 3 34.5532 37.6548 119.1757 0.0000 -34.2911 0.0000
# 4 0.0000 0.0000 0.0000 51.2072 0.0000 -6.3575
# 5 -31.9510 -16.1616 -34.2911 0.0000 54.5154 0.0000
# 6 0.0000 0.0000 0.0000 -6.3575 0.0000 19.1468
#
#
#
# Elastic Compliance Matrix: (Units=1/GPa)
#
#
# Indices 1 2 3 4 5 6 
#
# 1 0.011365 -0.002884 -0.000871 0.000000 0.005258 0.000000
# 2 -0.002884 0.009925 -0.002368 0.000000 -0.000238 0.000000
# 3 -0.000871 -0.002368 0.011041 0.000000 0.005733 0.000000
# 4 0.000000 0.000000 0.000000 0.020368 0.000000 0.006763
# 5 0.005258 -0.000238 0.005733 0.000000 0.024961 0.000000
# 6 0.000000 0.000000 0.000000 0.006763 0.000000 0.054474
#
#
# Mechanical properties :
#
#
# Convention : Reuss Voigt Hill
#
# Bulk Modulus (GPa) = 49.78868 64.78476 57.28672
# Shear Modulus (GPa) = 33.09623 41.17342 37.13482
#
# Velocity S-wave (km/s) = 3.73061 4.16101 3.95167
# Velocity P-wave (km/s) = 6.28438 7.09424 6.70156
#
# Compressibility (1/GPa) = 0.02008489
#
# Stress axis : x y z
#
# Youngs Moduli (GPa) = 87.99032 100.75597 90.57024
#
# Poissons Ratio (x) = 0.29059 0.07888
# Poissons Ratio (y) = 0.25378 0.21447
# Poissons Ratio (z) = 0.07663 0.23859
#
# Static dielectric constant tensor:
#      x y z
#    x 1.965670 0.000000 0.044840 
#    y 0.000000 1.969700 0.000000 
#    z 0.044840 0.000000 1.913680 
# 
# From -- ./inp_files/70149.got.cif
#   From: 2010.05.17/outbox.cif.g08.bks.cpg/sg5_36_cif.got.tgz:70149.got - 2010.06.03 18:56:24.
