data_PCOD9127823
_publ_section_title
;
Structure prediction by ZEFSAII (Michael W. Deem and Ramdas Pophale) SiO2 
 PCOD9127823
Probable space group: C 2
;
_chemical_formula_sum "Si O2"
_cell_formula_units_Z 18
_cell_length_a 7.051074
_cell_length_b 18.018929
_cell_length_c 5.688038
_cell_angle_alpha 90.000000
_cell_angle_beta 103.954388
_cell_angle_gamma 90.000000
_cell_volume 701.353404
_symmetry_space_group_name_H-M "C 2"
_symmetry_group_IT_number 5
_symmetry_cell_setting 'monoclinic'
loop_
_space_group_symop_operation_xyz
x,y,z
-x,y,-z
1/2+x,1/2+y,z
1/2-x,1/2+y,-z
loop_
_atom_site_type_symbol
_atom_site_label
_atom_site_fract_x
_atom_site_fract_y
_atom_site_fract_z
Si Si1 0.740395 0.339740 0.810781
Si Si2 0.701038 0.285020 0.303303
Si Si3 0.692001 0.013911 0.203551
Si Si4 0.780612 0.139773 0.531019
Si Si5 0.500000 0.600840 0.000000
O O1 0.804614 0.304112 0.581846
O O2 0.505369 0.327744 0.751116
O O3 0.791907 0.425768 0.796615
O O4 0.799791 0.306708 0.084734
O O5 0.658796 0.197902 0.339689
O O6 0.701071 0.057572 0.453147
O O7 0.884308 0.046861 0.138245
O O8 0.500000 0.034447 0.000000
O O9 0.000000 0.150962 0.500000
O O10 0.829053 0.147121 0.820310
#
# Coordination Sequence:
#
# PCOD9127823 Si02
#       5
#     4   4   4   4   2
#     4  10  24  42  69 103 144 193 241 301 372 439
#     4  10  23  42  72  97 147 192 244 297 377 431
#     4  11  26  44  73 108 146 194 251 299 374 448
#     4  10  25  43  72 105 145 195 248 305 370 445
#     4  10  24  46  72 100 154 186 252 306 372 428
#
# _framework density 25.664663000000001
#
# number of rings (size 3 to 8) (size 9 to 14) (size 15 to 20)
#    0.000    1.778    0.000    1.333   21.778    4.444 
#    0.000    0.000    0.000    0.000    0.000    0.000 
#    0.000    0.000    0.000    0.000    0.000    0.000 
#
# Total GULP energy -50245.358019 kJ/mol
# GULP energy per Si atom -5582.817558 kJ/mol
# Density = 2.560625 g / cm^3
# Si number density = 25.664663 Si / 1000 Ang^3
#
#
#
# Elastic Constant Matrix: (Units=GPa)
#
#
# Indices 1 2 3 4 5 6 
#
# 1 80.6118 2.5143 29.3139 0.0000 3.0915 0.0000
# 2 2.5143 151.5891 76.9042 0.0000 -3.4293 0.0000
# 3 29.3139 76.9042 213.2089 0.0000 -11.9618 0.0000
# 4 0.0000 0.0000 0.0000 37.6514 0.0000 12.9094
# 5 3.0915 -3.4293 -11.9618 0.0000 59.3116 0.0000
# 6 0.0000 0.0000 0.0000 12.9094 0.0000 43.3395
#
#
#
# Elastic Compliance Matrix: (Units=1/GPa)
#
#
# Indices 1 2 3 4 5 6 
#
# 1 0.013216 0.000868 -0.002191 0.000000 -0.001081 0.000000
# 2 0.000868 0.008132 -0.003063 0.000000 -0.000193 0.000000
# 3 -0.002191 -0.003063 0.006163 0.000000 0.001180 0.000000
# 4 0.000000 0.000000 0.000000 0.029580 0.000000 -0.008811
# 5 -0.001081 -0.000193 0.001180 0.000000 0.017143 0.000000
# 6 0.000000 0.000000 0.000000 -0.008811 0.000000 0.025698
#
#
# Mechanical properties :
#
#
# Convention : Reuss Voigt Hill
#
# Bulk Modulus (GPa) = 53.36692 73.65272 63.50982
# Shear Modulus (GPa) = 43.49663 50.50567 47.00115
#
# Velocity S-wave (km/s) = 4.12127 4.44092 4.28408
# Velocity P-wave (km/s) = 6.59436 7.41998 7.01932
#
# Compressibility (1/GPa) = 0.01873820
#
# Stress axis : x y z
#
# Youngs Moduli (GPa) = 75.66508 122.96891 162.26957
#
# Poissons Ratio (x) = -0.10670 0.35548
# Poissons Ratio (y) = -0.06566 0.49709
# Poissons Ratio (z) = 0.16576 0.37670
#
# Static dielectric constant tensor:
#      x y z
#    x 2.014960 0.000000 -0.043340 
#    y 0.000000 2.062670 0.000000 
#    z -0.043340 0.000000 2.233500 
# 
# From -- ./inp_files/2291.got.cif
#   From: 2010.05.17/outbox.cif.g08.bks.cpg/sg5_2_cif.got.tgz:2291.got - 2010.06.03 18:56:24.
