data_PCOD9127612
_publ_section_title
;
Structure prediction by ZEFSAII (Michael W. Deem and Ramdas Pophale) SiO2 
 PCOD9127612
Probable space group: C 2
;
_chemical_formula_sum "Si O2"
_cell_formula_units_Z 32
_cell_length_a 8.673225
_cell_length_b 24.026267
_cell_length_c 14.992783
_cell_angle_alpha 90.000000
_cell_angle_beta 151.457566
_cell_angle_gamma 90.000000
_cell_volume 1492.807956
_symmetry_space_group_name_H-M "C 2"
_symmetry_group_IT_number 5
_symmetry_cell_setting 'monoclinic'
loop_
_space_group_symop_operation_xyz
x,y,z
-x,y,-z
1/2+x,1/2+y,z
1/2-x,1/2+y,-z
loop_
_atom_site_type_symbol
_atom_site_label
_atom_site_fract_x
_atom_site_fract_y
_atom_site_fract_z
Si Si1 0.475080 0.651200 0.265460
Si Si2 0.106344 0.356843 0.650078
Si Si3 0.408872 0.977061 0.303235
Si Si4 0.670142 0.977574 0.949227
Si Si5 0.816051 0.593699 0.594822
Si Si6 0.118819 0.277623 0.308793
Si Si7 0.616041 0.101780 0.929620
Si Si8 0.376563 0.857102 0.030885
O O1 0.754814 0.633713 0.478602
O O2 0.486422 0.715373 0.244852
O O3 0.160115 0.638915 0.165891
O O4 0.428627 0.616738 0.148962
O O5 0.960830 0.418450 0.594499
O O6 0.492547 0.360905 0.848288
O O7 0.000000 0.337764 0.500000
O O8 0.991662 0.312372 0.662254
O O9 0.052006 0.983729 0.163703
O O10 0.616452 0.032993 0.413623
O O11 0.357958 0.970049 0.171436
O O12 0.513275 0.921606 0.906352
O O13 0.524527 0.037045 0.899881
O O14 0.500000 0.591973 0.500000
O O15 0.096599 0.607439 0.811460
O O16 0.500000 0.273125 0.500000
O O17 0.005190 0.315600 0.169865
O O18 0.500000 0.835286 0.000000
#
# Coordination Sequence:
#
# PCOD9127612 Si02
#       8
#     4   4   4   4   4   4   4   4
#     4  10  23  40  64  92 132 178 233 281 342 415
#     4  11  24  43  68 103 139 187 234 286 354 421
#     4   9  18  36  62  96 136 178 212 283 355 416
#     4   9  18  37  65  96 138 170 226 282 347 427
#     4   9  19  38  61  96 135 174 225 282 348 415
#     4  12  27  48  68  99 140 188 244 292 347 419
#     4   9  20  38  62 100 124 182 224 276 355 411
#     4  11  24  44  71 102 137 185 234 295 356 417
#
# _framework density 21.436112999999999
#
# number of rings (size 3 to 8) (size 9 to 14) (size 15 to 20)
#    0.000    2.000    1.250    1.125    5.250    5.000 
#    9.000    0.000    0.000    0.000    0.000    0.000 
#    0.000    0.000    0.000    0.000    0.000    0.000 
#
# Total GULP energy -89280.906793 kJ/mol
# GULP energy per Si atom -5580.056675 kJ/mol
# Density = 2.138732 g / cm^3
# Si number density = 21.436113 Si / 1000 Ang^3
#
#
#
# Elastic Constant Matrix: (Units=GPa)
#
#
# Indices 1 2 3 4 5 6 
#
# 1 79.2000 63.6074 34.9527 -0.0010 -25.5621 0.0024
# 2 63.6074 158.1742 51.5701 -0.0002 -28.6965 0.0004
# 3 34.9527 51.5701 70.0752 -0.0001 -28.5617 0.0007
# 4 -0.0010 -0.0002 -0.0001 73.4608 -0.0006 -108.3440
# 5 -25.5621 -28.6965 -28.5617 -0.0006 43.6188 0.0016
# 6 0.0024 0.0004 0.0007 -108.3440 0.0016 307.9833
#
#
#
# Elastic Compliance Matrix: (Units=1/GPa)
#
#
# Indices 1 2 3 4 5 6 
#
# 1 0.021135 -0.006279 -0.003487 0.000000 0.005972 0.000000
# 2 -0.006279 0.010313 -0.004354 0.000000 0.000254 0.000000
# 3 -0.003487 -0.004354 0.023480 0.000000 0.010467 0.000000
# 4 0.000000 0.000000 0.000000 0.028291 0.000000 0.009952
# 5 0.005972 0.000254 0.010467 0.000000 0.033446 0.000000
# 6 0.000000 0.000000 0.000000 0.009952 0.000000 0.006748
#
#
# Mechanical properties :
#
#
# Convention : Reuss Voigt Hill
#
# Bulk Modulus (GPa) = 37.47029 67.52331 52.49680
# Shear Modulus (GPa) = 31.14295 95.50053 63.32174
#
# Velocity S-wave (km/s) = 3.81573 6.68191 5.44094
# Velocity P-wave (km/s) = 6.07709 9.54457 8.00093
#
# Compressibility (1/GPa) = 0.02668781
#
# Stress axis : x y z
#
# Youngs Moduli (GPa) = 47.31394 96.96721 42.58924
#
# Poissons Ratio (x) = 0.60885 0.14852
# Poissons Ratio (y) = 0.29708 0.18544
# Poissons Ratio (z) = 0.16500 0.42220
#
# Static dielectric constant tensor:
#      x y z
#    x 1.754450 0.000000 0.012290 
#    y 0.000000 1.761070 0.000000 
#    z 0.012290 0.000000 1.834380 
# 
# From -- ./inp_files/51729.got.cif
#   From: 2010.05.17/outbox.cif.g08.bks.cpg/sg5_26_cif.got.tgz:51729.got - 2010.06.03 18:56:24.
