data_PCOD9127338
_publ_section_title
;
Structure prediction by ZEFSAII (Michael W. Deem and Ramdas Pophale) SiO2 
 PCOD9127338
Probable space group: C 2
;
_chemical_formula_sum "Si O2"
_cell_formula_units_Z 24
_cell_length_a 23.403395
_cell_length_b 5.248404
_cell_length_c 17.385286
_cell_angle_alpha 90.000000
_cell_angle_beta 29.574776
_cell_angle_gamma 90.000000
_cell_volume 1053.967120
_symmetry_space_group_name_H-M "C 2"
_symmetry_group_IT_number 5
_symmetry_cell_setting 'monoclinic'
loop_
_space_group_symop_operation_xyz
x,y,z
-x,y,-z
1/2+x,1/2+y,z
1/2-x,1/2+y,-z
loop_
_atom_site_type_symbol
_atom_site_label
_atom_site_fract_x
_atom_site_fract_y
_atom_site_fract_z
Si Si1 0.286679 0.189310 0.134641
Si Si2 0.708330 0.459017 0.717236
Si Si3 0.935354 0.768909 0.414903
Si Si4 0.040941 0.277139 0.365171
Si Si5 0.537696 0.418325 0.792406
Si Si6 0.557093 0.808452 0.999105
O O1 0.250528 0.273281 0.263242
O O2 0.179363 0.238371 0.205886
O O3 0.325264 0.899400 0.098050
O O4 0.411151 0.307963 0.964139
O O5 0.806763 0.661505 0.581118
O O6 0.647782 0.330004 0.714503
O O7 0.606959 0.606954 0.879775
O O8 0.943508 0.858814 0.317527
O O9 0.010541 0.517503 0.347203
O O10 0.979801 0.012913 0.411158
O O11 0.000000 0.339608 0.500000
O O12 0.523058 0.712514 0.837526
O O13 0.500000 0.993923 0.000000
#
# Coordination Sequence:
#
# PCOD9127338 Si02
#       6
#     4   4   4   4   4   4
#     4  11  22  43  76 102 146 198 256 304 368 454
#     4  10  22  45  70 105 144 194 243 309 370 453
#     4  12  28  47  71 111 149 193 246 310 383 439
#     4  12  27  47  76 102 149 201 255 301 367 464
#     4  10  25  43  71 109 147 189 250 317 386 440
#     4   9  19  40  72 105 139 185 247 301 368 446
#
# _framework density 22.771108000000002
#
# number of rings (size 3 to 8) (size 9 to 14) (size 15 to 20)
#    0.000    1.333    1.667    4.000    7.000    2.667 
#    3.000    0.000    0.000    0.000    0.000    0.000 
#    0.000    0.000    0.000    0.000    0.000    0.000 
#
# Total GULP energy -66882.508628 kJ/mol
# GULP energy per Si atom -5573.542386 kJ/mol
# Density = 2.271928 g / cm^3
# Si number density = 22.771108 Si / 1000 Ang^3
#
#
#
# Elastic Constant Matrix: (Units=GPa)
#
#
# Indices 1 2 3 4 5 6 
#
# 1 132.7558 48.5901 61.6896 -0.0423 -11.7877 0.0837
# 2 48.5901 80.3202 24.0896 -0.2791 -1.3485 0.0267
# 3 61.6896 24.0896 99.7274 -0.2022 -12.1340 0.1431
# 4 -0.0423 -0.2791 -0.2022 28.9062 -0.0250 -9.9187
# 5 -11.7877 -1.3485 -12.1340 -0.0250 45.2583 -0.0517
# 6 0.0837 0.0267 0.1431 -9.9187 -0.0517 34.0909
#
#
#
# Elastic Compliance Matrix: (Units=1/GPa)
#
#
# Indices 1 2 3 4 5 6 
#
# 1 0.012692 -0.005770 -0.006281 -0.000088 0.001450 -0.000024
# 2 -0.005770 0.016057 -0.000448 0.000159 -0.001145 0.000048
# 3 -0.006281 -0.000448 0.014286 0.000083 0.002181 -0.000017
# 4 -0.000088 0.000159 0.000083 0.038434 0.000038 0.011182
# 5 0.001450 -0.001145 0.002181 0.000038 0.023024 0.000034
# 6 -0.000024 0.000048 -0.000017 0.011182 0.000034 0.032587
#
#
# Mechanical properties :
#
#
# Convention : Reuss Voigt Hill
#
# Bulk Modulus (GPa) = 55.44377 64.61578 60.02978
# Shear Modulus (GPa) = 29.74597 33.54669 31.64633
#
# Velocity S-wave (km/s) = 3.61820 3.84241 3.73199
# Velocity P-wave (km/s) = 6.46965 6.93710 6.70745
#
# Compressibility (1/GPa) = 0.01803629
#
# Stress axis : x y z
#
# Youngs Moduli (GPa) = 78.78988 62.27948 69.99647
#
# Poissons Ratio (x) = 0.35937 0.43964
# Poissons Ratio (y) = 0.45464 0.03137
# Poissons Ratio (z) = 0.49488 0.02791
#
# Static dielectric constant tensor:
#      x y z
#    x 1.983470 0.000010 -0.101340 
#    y 0.000010 2.173420 0.000240 
#    z -0.101340 0.000240 1.859020 
# 
# From -- ./inp_files/46911.got.cif
#   From: 2010.05.17/outbox.cif.g08.bks.cpg/sg5_24_cif.got.tgz:46911.got - 2010.06.03 18:56:24.
