data_PCOD9127031
_publ_section_title
;
Structure prediction by ZEFSAII (Michael W. Deem and Ramdas Pophale) SiO2 
 PCOD9127031
Probable space group: C 2
;
_chemical_formula_sum "Si O2"
_cell_formula_units_Z 22
_cell_length_a 22.408686
_cell_length_b 7.237022
_cell_length_c 8.432216
_cell_angle_alpha 90.000000
_cell_angle_beta 140.985540
_cell_angle_gamma 90.000000
_cell_volume 860.845328
_symmetry_space_group_name_H-M "C 2"
_symmetry_group_IT_number 5
_symmetry_cell_setting 'monoclinic'
loop_
_space_group_symop_operation_xyz
x,y,z
-x,y,-z
1/2+x,1/2+y,z
1/2-x,1/2+y,-z
loop_
_atom_site_type_symbol
_atom_site_label
_atom_site_fract_x
_atom_site_fract_y
_atom_site_fract_z
Si Si1 0.268697 0.309440 0.335665
Si Si2 0.057240 0.373619 0.461372
Si Si3 0.922846 0.815530 0.462656
Si Si4 0.000000 0.420231 0.000000
Si Si5 0.670808 0.155457 0.230454
Si Si6 0.276512 0.419972 0.905627
O O1 0.380710 0.363763 0.548086
O O2 0.256405 0.234539 0.490361
O O3 0.208444 0.492920 0.195388
O O4 0.236929 0.132110 0.169059
O O5 0.053586 0.598482 0.467898
O O6 0.170052 0.334818 0.689600
O O7 0.000000 0.307294 0.500000
O O8 0.014902 0.320187 0.201240
O O9 0.000000 0.892022 0.500000
O O10 0.827090 0.874408 0.172735
O O11 0.911400 0.555375 0.844261
O O12 0.654320 0.325325 0.080573
#
# Coordination Sequence:
#
# PCOD9127031 Si02
#       6
#     4   4   4   2   4   4
#     4  11  24  43  68 102 134 183 232 280 360 414
#     4  10  22  43  69 107 140 189 238 289 359 420
#     4  10  22  43  67 104 138 180 238 285 356 421
#     4  12  22  42  74 104 140 186 242 292 350 432
#     4  12  23  44  69  97 141 180 232 290 349 425
#     4  11  24  44  71 101 142 184 233 293 353 421
#
# _framework density 25.556277000000001
#
# number of rings (size 3 to 8) (size 9 to 14) (size 15 to 20)
#    0.000    1.091    5.455    2.182    7.636    0.000 
#    0.000    5.455    0.000    0.000    0.000    0.000 
#    0.000    0.000    0.000    0.000    0.000    0.000 
#
# Total GULP energy -61354.587873 kJ/mol
# GULP energy per Si atom -5577.689807 kJ/mol
# Density = 2.549811 g / cm^3
# Si number density = 25.556277 Si / 1000 Ang^3
#
#
#
# Elastic Constant Matrix: (Units=GPa)
#
#
# Indices 1 2 3 4 5 6 
#
# 1 141.9320 20.8935 1.7996 0.0000 1.4772 0.0000
# 2 20.8935 99.7340 -4.5416 0.0000 -2.1263 0.0000
# 3 1.7996 -4.5416 72.0984 0.0000 -19.2226 0.0000
# 4 0.0000 0.0000 0.0000 18.2478 0.0000 -5.1429
# 5 1.4772 -2.1263 -19.2226 0.0000 41.3640 0.0000
# 6 0.0000 0.0000 0.0000 -5.1429 0.0000 -2.8964
#
#
#
# Elastic Compliance Matrix: (Units=1/GPa)
#
#
# Indices 1 2 3 4 5 6 
#
# 1 0.007286 -0.001557 -0.000423 0.000000 -0.000537 0.000000
# 2 -0.001557 0.010419 0.000973 0.000000 0.001044 0.000000
# 3 -0.000423 0.000973 0.015933 0.000000 0.007470 0.000000
# 4 0.000000 0.000000 0.000000 0.036524 0.000000 -0.064852
# 5 -0.000537 0.001044 0.007470 0.000000 0.027720 0.000000
# 6 0.000000 0.000000 0.000000 -0.064852 0.000000 -0.230104
#
#
# Mechanical properties :
#
#
# Convention : Reuss Voigt Hill
#
# Bulk Modulus (GPa) = 31.62027 38.89638 35.25833
# Shear Modulus (GPa) = -41.78256 31.05061 -5.36598
#
# Velocity S-wave (km/s) = -4.04781 3.48945 -1.45060
# Velocity P-wave (km/s) = 3.07354 5.61141 3.31974
#
# Compressibility (1/GPa) = 0.03162528
#
# Stress axis : x y z
#
# Youngs Moduli (GPa) = 137.25354 95.97449 62.76140
#
# Poissons Ratio (x) = 0.14944 0.02655
# Poissons Ratio (y) = 0.21371 -0.06110
# Poissons Ratio (z) = 0.05807 -0.09343
#
# Static dielectric constant tensor:
#      x y z
#    x 2.145570 0.000000 0.019960 
#    y 0.000000 1.947600 0.000000 
#    z 0.019960 0.000000 2.072730 
# 
# From -- ./inp_files/22857.got.cif
#   From: 2010.05.17/outbox.cif.g08.bks.cpg/sg5_12_cif.got.tgz:22857.got - 2010.06.03 18:56:24.
