data_PCOD9127131
_publ_section_title
;
Structure prediction by ZEFSAII (Michael W. Deem and Ramdas Pophale) SiO2 
 PCOD9127131
Probable space group: C 2
;
_chemical_formula_sum "Si O2"
_cell_formula_units_Z 28
_cell_length_a 23.736649
_cell_length_b 5.999709
_cell_length_c 9.447427
_cell_angle_alpha 90.000000
_cell_angle_beta 112.548129
_cell_angle_gamma 90.000000
_cell_volume 1242.588116
_symmetry_space_group_name_H-M "C 2"
_symmetry_group_IT_number 5
_symmetry_cell_setting 'monoclinic'
loop_
_space_group_symop_operation_xyz
x,y,z
-x,y,-z
1/2+x,1/2+y,z
1/2-x,1/2+y,-z
loop_
_atom_site_type_symbol
_atom_site_label
_atom_site_fract_x
_atom_site_fract_y
_atom_site_fract_z
Si Si1 0.611139 0.040900 0.946819
Si Si2 0.498330 0.267603 0.234418
Si Si3 0.342516 0.197170 0.299067
Si Si4 0.769445 0.494175 0.750721
Si Si5 0.500000 0.938139 0.500000
Si Si6 0.083287 0.065373 0.482743
Si Si7 0.195427 0.334813 0.522960
Si Si8 0.500000 0.978262 0.000000
O O1 0.667799 0.018833 0.105321
O O2 0.555443 0.882885 0.956247
O O3 0.570342 0.269706 0.893662
O O4 0.640617 0.041474 0.817855
O O5 0.531873 0.482046 0.324626
O O6 0.497221 0.092875 0.361586
O O7 0.534565 0.138403 0.145829
O O8 0.281963 0.348300 0.217730
O O9 0.396428 0.369176 0.392481
O O10 0.331853 0.053092 0.429944
O O11 0.742879 0.734948 0.681847
O O12 0.779031 0.381398 0.606568
O O13 0.556612 0.772198 0.542044
O O14 0.142973 0.148817 0.460433
#
# Coordination Sequence:
#
# PCOD9127131 Si02
#       8
#     4   4   4   4   2   4   4   2
#     4  10  23  43  69  96 144 185 229 288 360 417
#     4  10  22  44  65 101 139 181 228 292 347 424
#     4  11  24  45  68 103 143 183 240 290 347 434
#     4  11  25  44  70 103 138 185 236 294 358 423
#     4  12  22  40  72  98 138 180 232 286 344 418
#     4  11  24  39  74 102 132 185 237 287 347 420
#     4  11  24  44  71 102 132 185 240 296 357 410
#     4   8  24  42  68  92 142 190 218 294 354 410
#
# _framework density 22.533614
#
# number of rings (size 3 to 8) (size 9 to 14) (size 15 to 20)
#    0.857    0.571    1.429    3.857    6.000    0.000 
#    0.000    3.571    0.000    0.000    0.000    0.000 
#    0.000    0.000    0.000    0.000    0.000    0.000 
#
# Total GULP energy -78010.423866 kJ/mol
# GULP energy per Si atom -5572.173133 kJ/mol
# Density = 2.248233 g / cm^3
# Si number density = 22.533614 Si / 1000 Ang^3
#
#
#
# Elastic Constant Matrix: (Units=GPa)
#
#
# Indices 1 2 3 4 5 6 
#
# 1 115.9630 20.7122 52.8895 0.0000 7.0401 0.0000
# 2 20.7122 54.7147 25.3942 0.0000 5.1123 0.0000
# 3 52.8895 25.3942 97.1277 0.0000 7.2211 0.0000
# 4 0.0000 0.0000 0.0000 11.4655 0.0000 7.9264
# 5 7.0401 5.1123 7.2211 0.0000 57.0634 0.0000
# 6 0.0000 0.0000 0.0000 7.9264 0.0000 42.5343
#
#
#
# Elastic Compliance Matrix: (Units=1/GPa)
#
#
# Indices 1 2 3 4 5 6 
#
# 1 0.011621 -0.001627 -0.005862 0.000000 -0.000546 0.000000
# 2 -0.001627 0.021108 -0.004550 0.000000 -0.001115 0.000000
# 3 -0.005862 -0.004550 0.014732 0.000000 -0.000733 0.000000
# 4 0.000000 0.000000 0.000000 0.100116 0.000000 -0.018657
# 5 -0.000546 -0.001115 -0.000733 0.000000 0.017784 0.000000
# 6 0.000000 0.000000 0.000000 -0.018657 0.000000 0.026987
#
#
# Mechanical properties :
#
#
# Convention : Reuss Voigt Hill
#
# Bulk Modulus (GPa) = 42.76623 51.75525 47.26074
# Shear Modulus (GPa) = 22.29936 33.46659 27.88298
#
# Velocity S-wave (km/s) = 3.14921 3.85799 3.52148
# Velocity P-wave (km/s) = 5.67833 6.54701 6.12808
#
# Compressibility (1/GPa) = 0.02338293
#
# Stress axis : x y z
#
# Youngs Moduli (GPa) = 86.05260 47.37434 67.88036
#
# Poissons Ratio (x) = 0.07710 0.39790
# Poissons Ratio (y) = 0.14004 0.30884
# Poissons Ratio (z) = 0.50443 0.21554
#
# Static dielectric constant tensor:
#      x y z
#    x 1.944910 0.000000 -0.006190 
#    y 0.000000 1.869270 0.000000 
#    z -0.006190 0.000000 1.847330 
# 
# From -- ./inp_files/32208.got.cif
#   From: 2010.05.17/outbox.cif.g08.bks.cpg/sg5_17_cif.got.tgz:32208.got - 2010.06.03 18:56:24.
