data_PCOD9127169
_publ_section_title
;
Structure prediction by ZEFSAII (Michael W. Deem and Ramdas Pophale) SiO2 
 PCOD9127169
Probable space group: C 2
;
_chemical_formula_sum "Si O2"
_cell_formula_units_Z 28
_cell_length_a 11.444947
_cell_length_b 8.239617
_cell_length_c 20.169193
_cell_angle_alpha 90.000000
_cell_angle_beta 41.457239
_cell_angle_gamma 90.000000
_cell_volume 1259.236416
_symmetry_space_group_name_H-M "C 2"
_symmetry_group_IT_number 5
_symmetry_cell_setting 'monoclinic'
loop_
_space_group_symop_operation_xyz
x,y,z
-x,y,-z
1/2+x,1/2+y,z
1/2-x,1/2+y,-z
loop_
_atom_site_type_symbol
_atom_site_label
_atom_site_fract_x
_atom_site_fract_y
_atom_site_fract_z
Si Si1 0.313950 0.301370 0.766329
Si Si2 0.699037 0.918944 0.582989
Si Si3 0.980073 0.667781 0.435528
Si Si4 0.420131 0.129408 0.245438
Si Si5 0.810170 0.703316 0.059237
Si Si6 0.923339 0.401723 0.935636
Si Si7 0.875541 0.181254 0.724187
O O1 0.351020 0.198809 0.683183
O O2 0.439582 0.227606 0.769899
O O3 0.375769 0.485729 0.725692
O O4 0.106337 0.307321 0.872304
O O5 0.885145 0.839112 0.489026
O O6 0.556183 0.774793 0.637086
O O7 0.647668 0.054657 0.552288
O O8 0.676695 0.004153 0.663633
O O9 0.000000 0.594197 0.500000
O O10 0.269835 0.228597 0.269653
O O11 0.519029 0.028039 0.146552
O O12 0.722720 0.786541 0.033484
O O13 0.689965 0.726259 0.174397
O O14 0.842564 0.514824 0.027086
O O15 0.000000 0.771096 0.000000
#
# Coordination Sequence:
#
# PCOD9127169 Si02
#       7
#     4   4   4   4   4   4   4
#     4  10  23  44  67  97 133 176 213 275 337 389
#     4  11  24  43  66 100 133 174 225 267 334 394
#     4  11  24  42  69  99 133 174 221 271 331 397
#     4  10  22  44  67  96 136 171 218 274 331 389
#     4  12  25  43  67  96 130 175 224 271 331 389
#     4  11  25  44  65  97 131 174 222 274 327 396
#     4  11  23  42  66  95 137 173 219 273 327 386
#
# _framework density 22.235700000000001
#
# number of rings (size 3 to 8) (size 9 to 14) (size 15 to 20)
#    0.000    1.143    4.286    2.571    2.000    4.571 
#    2.571    0.714    0.000    0.000    0.000    0.000 
#    0.000    0.000    0.000    0.000    0.000    0.000 
#
# Total GULP energy -78275.456829 kJ/mol
# GULP energy per Si atom -5591.104059 kJ/mol
# Density = 2.218509 g / cm^3
# Si number density = 22.235700 Si / 1000 Ang^3
#
#
#
# Elastic Constant Matrix: (Units=GPa)
#
#
# Indices 1 2 3 4 5 6 
#
# 1 89.3570 7.6251 -3.3176 0.0000 -5.2869 0.0000
# 2 7.6251 28.7236 -7.2662 0.0000 -13.2330 0.0000
# 3 -3.3176 -7.2662 46.0971 0.0000 -9.3912 0.0000
# 4 0.0000 0.0000 0.0000 33.2427 0.0000 -1.7845
# 5 -5.2869 -13.2330 -9.3912 0.0000 33.9473 0.0000
# 6 0.0000 0.0000 0.0000 -1.7845 0.0000 42.9274
#
#
#
# Elastic Compliance Matrix: (Units=1/GPa)
#
#
# Indices 1 2 3 4 5 6 
#
# 1 0.011482 -0.002406 0.000657 0.000000 0.001032 0.000000
# 2 -0.002406 0.048534 0.011927 0.000000 0.021844 0.000000
# 3 0.000657 0.011927 0.026057 0.000000 0.011960 0.000000
# 4 0.000000 0.000000 0.000000 0.030149 0.000000 0.001253
# 5 0.001032 0.021844 0.011960 0.000000 0.041442 0.000000
# 6 0.000000 0.000000 0.000000 0.001253 0.000000 0.023347
#
#
# Mechanical properties :
#
#
# Convention : Reuss Voigt Hill
#
# Bulk Modulus (GPa) = 9.39583 17.58448 13.49016
# Shear Modulus (GPa) = 25.49305 33.16589 29.32947
#
# Velocity S-wave (km/s) = 3.38966 3.86626 3.63578
# Velocity P-wave (km/s) = 4.42204 5.27788 4.86880
#
# Compressibility (1/GPa) = 0.10643015
#
# Stress axis : x y z
#
# Youngs Moduli (GPa) = 87.09385 20.60399 38.37687
#
# Poissons Ratio (x) = 0.04958 -0.02522
# Poissons Ratio (y) = 0.20958 -0.45774
# Poissons Ratio (z) = -0.05725 -0.24575
#
# Static dielectric constant tensor:
#      x y z
#    x 1.847140 0.000000 0.013810 
#    y 0.000000 1.804480 0.000000 
#    z 0.013810 0.000000 1.835230 
# 
# From -- ./inp_files/65102.got.cif
#   From: 2010.05.17/outbox.cif.g08.bks.cpg/sg5_33_cif.got.tgz:65102.got - 2010.06.03 18:56:24.
