data_PCOD9127945
_publ_section_title
;
Structure prediction by ZEFSAII (Michael W. Deem and Ramdas Pophale) SiO2 
 PCOD9127945
Probable space group: C 2
;
_chemical_formula_sum "Si O2"
_cell_formula_units_Z 32
_cell_length_a 9.622014
_cell_length_b 14.075132
_cell_length_c 24.874354
_cell_angle_alpha 90.000000
_cell_angle_beta 153.625334
_cell_angle_gamma 90.000000
_cell_volume 1496.535553
_symmetry_space_group_name_H-M "C 2"
_symmetry_group_IT_number 5
_symmetry_cell_setting 'monoclinic'
loop_
_space_group_symop_operation_xyz
x,y,z
-x,y,-z
1/2+x,1/2+y,z
1/2-x,1/2+y,-z
loop_
_atom_site_type_symbol
_atom_site_label
_atom_site_fract_x
_atom_site_fract_y
_atom_site_fract_z
Si Si1 0.230444 0.226880 0.776498
Si Si2 0.283099 0.794350 0.713148
Si Si3 0.401568 0.373517 0.754134
Si Si4 0.113168 0.543164 0.097444
Si Si5 0.185028 0.930985 0.507796
Si Si6 0.166105 0.085640 0.665476
Si Si7 0.645721 0.220102 0.355904
Si Si8 0.147636 0.449614 0.896447
O O1 0.458725 0.303783 0.826164
O O2 0.352975 0.139744 0.855960
O O3 0.076175 0.172925 0.672342
O O4 0.978018 0.274412 0.727405
O O5 0.519142 0.846644 0.835779
O O6 0.994505 0.859470 0.594252
O O7 0.109724 0.712417 0.685865
O O8 0.598738 0.469650 0.812928
O O9 0.431096 0.308343 0.710693
O O10 0.041423 0.402905 0.636998
O O11 0.878926 0.477536 0.050744
O O12 0.000000 0.571987 0.000000
O O13 0.000000 0.932003 0.500000
O O14 0.132155 0.031406 0.460412
O O15 0.352934 0.126883 0.679932
O O16 0.402021 0.017588 0.779637
O O17 0.000000 0.232459 0.500000
O O18 0.500000 0.462501 0.000000
#
# Coordination Sequence:
#
# PCOD9127945 Si02
#       8
#     4   4   4   4   4   4   4   4
#     4  10  24  45  65 100 142 170 234 286 341 419
#     4  11  22  40  66  98 132 172 224 276 341 411
#     4  11  23  45  68  98 142 183 223 286 347 413
#     4  11  26  47  70 101 134 180 240 288 349 420
#     4  11  21  39  66  98 133 178 223 269 342 415
#     4   9  23  42  63  97 135 174 220 278 341 411
#     4  11  21  38  66  99 136 174 219 270 341 415
#     4  10  23  44  68  93 131 175 225 283 342 405
#
# _framework density 21.382719000000002
#
# number of rings (size 3 to 8) (size 9 to 14) (size 15 to 20)
#    0.000    1.500    3.750    0.375    1.750    3.500 
#    2.250    6.875    0.000    0.000    0.000    0.000 
#    0.000    0.000    0.000    0.000    0.000    0.000 
#
# Total GULP energy -89265.527152 kJ/mol
# GULP energy per Si atom -5579.095447 kJ/mol
# Density = 2.133405 g / cm^3
# Si number density = 21.382719 Si / 1000 Ang^3
#
#
#
# Elastic Constant Matrix: (Units=GPa)
#
#
# Indices 1 2 3 4 5 6 
#
# 1 114.2716 -1.7886 17.7397 0.0009 2.4952 -0.0006
# 2 -1.7886 37.8915 7.7819 0.0021 -6.4238 -0.0002
# 3 17.7397 7.7819 41.1956 0.0036 -2.3695 -0.0043
# 4 0.0009 0.0021 0.0036 13.9809 0.0004 -7.2178
# 5 2.4952 -6.4238 -2.3695 0.0004 34.4266 -0.0008
# 6 -0.0006 -0.0002 -0.0043 -7.2178 -0.0008 31.2113
#
#
#
# Elastic Compliance Matrix: (Units=1/GPa)
#
#
# Indices 1 2 3 4 5 6 
#
# 1 0.009461 0.001211 -0.004347 0.000000 -0.000759 0.000000
# 2 0.001211 0.028420 -0.005612 -0.000004 0.004829 -0.000001
# 3 -0.004347 -0.005612 0.027272 -0.000005 0.001145 0.000003
# 4 0.000000 -0.000004 -0.000005 0.081223 -0.000001 0.018783
# 5 -0.000759 0.004829 0.001145 -0.000001 0.030082 0.000001
# 6 0.000000 -0.000001 0.000003 0.018783 0.000001 0.036384
#
#
# Mechanical properties :
#
#
# Convention : Reuss Voigt Hill
#
# Bulk Modulus (GPa) = 20.98329 26.75828 23.87079
# Shear Modulus (GPa) = 20.30675 27.23214 23.76945
#
# Velocity S-wave (km/s) = 3.08503 3.57257 3.33771
# Velocity P-wave (km/s) = 4.74599 5.43680 5.10310
#
# Compressibility (1/GPa) = 0.04765697
#
# Stress axis : x y z
#
# Youngs Moduli (GPa) = 105.69284 35.18710 36.66749
#
# Poissons Ratio (x) = -0.04260 0.15938
# Poissons Ratio (y) = -0.12795 0.20578
# Poissons Ratio (z) = 0.45940 0.19747
#
# Static dielectric constant tensor:
#      x y z
#    x 1.784020 0.000000 -0.037580 
#    y 0.000000 1.858920 0.000000 
#    z -0.037580 0.000000 1.745220 
# 
# From -- ./inp_files/68054.got.cif
#   From: 2010.05.17/outbox.cif.g08.bks.cpg/sg5_35_cif.got.tgz:68054.got - 2010.06.03 18:56:24.
