data_PCOD9127409
_publ_section_title
;
Structure prediction by ZEFSAII (Michael W. Deem and Ramdas Pophale) SiO2 
 PCOD9127409
Probable space group: C 2
;
_chemical_formula_sum "Si O2"
_cell_formula_units_Z 18
_cell_length_a 16.139757
_cell_length_b 8.628498
_cell_length_c 9.843016
_cell_angle_alpha 90.000000
_cell_angle_beta 33.063420
_cell_angle_gamma 90.000000
_cell_volume 747.839656
_symmetry_space_group_name_H-M "C 2"
_symmetry_group_IT_number 5
_symmetry_cell_setting 'monoclinic'
loop_
_space_group_symop_operation_xyz
x,y,z
-x,y,-z
1/2+x,1/2+y,z
1/2-x,1/2+y,-z
loop_
_atom_site_type_symbol
_atom_site_label
_atom_site_fract_x
_atom_site_fract_y
_atom_site_fract_z
Si Si1 0.079151 0.924120 0.181774
Si Si2 0.685869 0.885196 0.500548
Si Si3 0.278521 0.240728 0.642159
Si Si4 0.500000 0.381808 0.000000
Si Si5 0.132286 0.254845 0.142556
O O1 0.018359 0.971965 0.115714
O O2 0.949180 0.810187 0.413266
O O3 0.107392 0.079801 0.224881
O O4 0.241504 0.842840 0.944626
O O5 0.685701 0.844111 0.660599
O O6 0.530489 0.834294 0.645045
O O7 0.839751 0.795989 0.239287
O O8 0.206688 0.249212 0.889569
O O9 0.287295 0.065030 0.573927
#
# Coordination Sequence:
#
# PCOD9127409 Si02
#       5
#     4   4   4   2   4
#     4  11  25  47  73 101 146 183 232 285 360 400
#     4  11  23  44  76  98 143 187 231 284 361 395
#     4  11  24  46  69 104 143 185 230 294 341 424
#     4  10  22  46  68  98 134 188 222 282 342 424
#     4  12  25  47  70 105 143 185 229 299 338 419
#
# _framework density 24.069333
#
# number of rings (size 3 to 8) (size 9 to 14) (size 15 to 20)
#    0.000    0.889    2.222    5.333    0.000    0.889 
#   40.000    0.000    0.000    0.000    0.000    0.000 
#    0.000    0.000    0.000    0.000    0.000    0.000 
#
# Total GULP energy -50331.253353 kJ/mol
# GULP energy per Si atom -5592.361484 kJ/mol
# Density = 2.401455 g / cm^3
# Si number density = 24.069333 Si / 1000 Ang^3
#
#
#
# Elastic Constant Matrix: (Units=GPa)
#
#
# Indices 1 2 3 4 5 6 
#
# 1 85.3891 33.4862 34.7580 0.0000 -22.8076 0.0000
# 2 33.4862 115.9006 49.6593 0.0000 -16.3551 0.0000
# 3 34.7580 49.6593 186.4686 0.0000 -38.7032 0.0000
# 4 0.0000 0.0000 0.0000 35.8162 0.0000 -11.6393
# 5 -22.8076 -16.3551 -38.7032 0.0000 56.2183 0.0000
# 6 0.0000 0.0000 0.0000 -11.6393 0.0000 21.4402
#
#
#
# Elastic Compliance Matrix: (Units=1/GPa)
#
#
# Indices 1 2 3 4 5 6 
#
# 1 0.014493 -0.003167 -0.000967 0.000000 0.004293 0.000000
# 2 -0.003167 0.010504 -0.002146 0.000000 0.000293 0.000000
# 3 -0.000967 -0.002146 0.006888 0.000000 0.003725 0.000000
# 4 0.000000 0.000000 0.000000 0.033901 0.000000 0.018404
# 5 0.004293 0.000293 0.003725 0.000000 0.022179 0.000000
# 6 0.000000 0.000000 0.000000 0.018404 0.000000 0.056632
#
#
# Mechanical properties :
#
#
# Convention : Reuss Voigt Hill
#
# Bulk Modulus (GPa) = 51.74828 69.28504 60.51666
# Shear Modulus (GPa) = 30.56220 40.68527 35.62373
#
# Velocity S-wave (km/s) = 3.56723 4.11583 3.85131
# Velocity P-wave (km/s) = 6.20590 7.17181 6.70627
#
# Compressibility (1/GPa) = 0.01932432
#
# Stress axis : x y z
#
# Youngs Moduli (GPa) = 68.99663 95.20059 145.18344
#
# Poissons Ratio (x) = 0.30153 0.14041
# Poissons Ratio (y) = 0.21854 0.31158
# Poissons Ratio (z) = 0.06673 0.20431
#
# Static dielectric constant tensor:
#      x y z
#    x 1.958280 0.000000 0.039150 
#    y 0.000000 1.887300 0.000000 
#    z 0.039150 0.000000 1.958220 
# 
# From -- ./inp_files/18020.got.cif
#   From: 2010.05.17/outbox.cif.g08.bks.cpg/sg5_10_cif.got.tgz:18020.got - 2010.06.03 18:56:24.
