data_PCOD9127122
_publ_section_title
;
Structure prediction by ZEFSAII (Michael W. Deem and Ramdas Pophale) SiO2 
 PCOD9127122
Probable space group: C 2
;
_chemical_formula_sum "Si O2"
_cell_formula_units_Z 24
_cell_length_a 9.556280
_cell_length_b 10.111950
_cell_length_c 13.442969
_cell_angle_alpha 90.000000
_cell_angle_beta 80.851852
_cell_angle_gamma 90.000000
_cell_volume 1282.506452
_symmetry_space_group_name_H-M "C 2"
_symmetry_group_IT_number 5
_symmetry_cell_setting 'monoclinic'
loop_
_space_group_symop_operation_xyz
x,y,z
-x,y,-z
1/2+x,1/2+y,z
1/2-x,1/2+y,-z
loop_
_atom_site_type_symbol
_atom_site_label
_atom_site_fract_x
_atom_site_fract_y
_atom_site_fract_z
Si Si1 0.285397 0.633150 0.097134
Si Si2 0.898695 0.128868 0.862359
Si Si3 0.084084 0.424195 0.216485
Si Si4 0.656310 0.977275 0.435677
Si Si5 0.748761 0.892407 0.770196
Si Si6 0.665363 0.278444 0.453616
O O1 0.436410 0.600348 0.131854
O O2 0.166964 0.525291 0.136087
O O3 0.245334 0.775300 0.148415
O O4 0.316104 0.635634 0.976520
O O5 0.885960 0.272589 0.814587
O O6 0.837220 0.015833 0.799459
O O7 0.137983 0.455236 0.320780
O O8 0.914282 0.436847 0.226924
O O9 0.500000 0.968719 0.500000
O O10 0.712945 0.125296 0.449071
O O11 0.751556 0.867470 0.477034
O O12 0.806159 0.835828 0.659514
O O13 0.500000 0.281081 0.500000
#
# Coordination Sequence:
#
# PCOD9127122 Si02
#       6
#     4   4   4   4   4   4
#     4  10  22  44  61  90 129 163 206 261 302 363
#     4  10  24  39  65  93 123 164 211 251 311 366
#     4  11  23  40  67  91 126 166 201 257 310 365
#     4  11  24  44  63  93 127 160 206 255 310 367
#     4  11  23  42  64  94 125 162 210 253 308 368
#     4  11  26  40  64  93 126 162 206 258 303 372
#
# _framework density 18.713355
#
# number of rings (size 3 to 8) (size 9 to 14) (size 15 to 20)
#    0.000    1.333    3.333    1.000    4.667    4.000 
#    0.000    0.000    0.000    0.000    0.000    0.000 
#    0.000    0.000    0.000    0.000    0.000    0.000 
#
# Total GULP energy -67079.569921 kJ/mol
# GULP energy per Si atom -5589.964160 kJ/mol
# Density = 1.867076 g / cm^3
# Si number density = 18.713355 Si / 1000 Ang^3
#
#
#
# Elastic Constant Matrix: (Units=GPa)
#
#
# Indices 1 2 3 4 5 6 
#
# 1 54.9351 63.9723 19.1642 0.0000 -5.9913 0.0000
# 2 63.9723 118.2875 16.0671 0.0000 10.1870 0.0000
# 3 19.1642 16.0671 39.9168 0.0000 -12.6304 0.0000
# 4 0.0000 0.0000 0.0000 36.5395 0.0000 -2.0221
# 5 -5.9913 10.1870 -12.6304 0.0000 29.2115 0.0000
# 6 0.0000 0.0000 0.0000 -2.0221 0.0000 19.3148
#
#
#
# Elastic Compliance Matrix: (Units=1/GPa)
#
#
# Indices 1 2 3 4 5 6 
#
# 1 0.066998 -0.036718 -0.010411 0.000000 0.022045 0.000000
# 2 -0.036718 0.029873 -0.000087 0.000000 -0.017986 0.000000
# 3 -0.010411 -0.000087 0.034082 0.000000 0.012631 0.000000
# 4 0.000000 0.000000 0.000000 0.027527 0.000000 0.002882
# 5 0.022045 -0.017986 0.012631 0.000000 0.050488 0.000000
# 6 0.000000 0.000000 0.000000 0.002882 0.000000 0.052075
#
#
# Mechanical properties :
#
#
# Convention : Reuss Voigt Hill
#
# Bulk Modulus (GPa) = 27.38167 45.72740 36.55454
# Shear Modulus (GPa) = 13.59990 24.60890 19.10440
#
# Velocity S-wave (km/s) = 2.69875 3.63029 3.19861
# Velocity P-wave (km/s) = 4.93710 6.48543 5.76349
#
# Compressibility (1/GPa) = 0.03652079
#
# Stress axis : x y z
#
# Youngs Moduli (GPa) = 14.92576 33.47536 29.34091
#
# Poissons Ratio (x) = 1.22916 0.30547
# Poissons Ratio (y) = 0.54805 0.00254
# Poissons Ratio (z) = 0.15540 0.00290
#
# Static dielectric constant tensor:
#      x y z
#    x 1.621860 0.000000 -0.015430 
#    y 0.000000 1.617930 0.000000 
#    z -0.015430 0.000000 1.610400 
# 
# From -- ./inp_files/49863.got.cif
#   From: 2010.05.17/outbox.cif.g08.bks.cpg/sg5_25_cif.got.tgz:49863.got - 2010.06.03 18:56:24.
