data_PCOD9127024
_publ_section_title
;
Structure prediction by ZEFSAII (Michael W. Deem and Ramdas Pophale) SiO2 
 PCOD9127024
Probable space group: C 2
;
_chemical_formula_sum "Si O2"
_cell_formula_units_Z 26
_cell_length_a 14.008465
_cell_length_b 5.057815
_cell_length_c 18.925698
_cell_angle_alpha 90.000000
_cell_angle_beta 127.135045
_cell_angle_gamma 90.000000
_cell_volume 1069.007526
_symmetry_space_group_name_H-M "C 2"
_symmetry_group_IT_number 5
_symmetry_cell_setting 'monoclinic'
loop_
_space_group_symop_operation_xyz
x,y,z
-x,y,-z
1/2+x,1/2+y,z
1/2-x,1/2+y,-z
loop_
_atom_site_type_symbol
_atom_site_label
_atom_site_fract_x
_atom_site_fract_y
_atom_site_fract_z
Si Si1 0.697429 0.192780 0.802874
Si Si2 0.930313 0.203805 0.824623
Si Si3 0.848235 0.676951 0.707767
Si Si4 0.189160 0.413193 0.950015
Si Si5 0.500000 0.182874 0.500000
Si Si6 0.386331 0.809161 0.348889
Si Si7 0.456791 0.437915 0.629412
O O1 0.829258 0.284638 0.837153
O O2 0.689470 0.086002 0.878246
O O3 0.583641 0.370403 0.727488
O O4 0.678144 0.941241 0.744765
O O5 0.915228 0.403191 0.751423
O O6 0.062497 0.274021 0.910436
O O7 0.906517 0.905937 0.785094
O O8 0.710658 0.604720 0.664899
O O9 0.860510 0.808658 0.636598
O O10 0.273584 0.151952 0.980308
O O11 0.453648 0.333470 0.547973
O O12 0.399194 0.002798 0.420178
O O13 0.517799 0.741412 0.378439
#
# Coordination Sequence:
#
# PCOD9127024 Si02
#       7
#     4   4   4   4   2   4   4
#     4  10  23  42  72  94 133 183 226 280 342 409
#     4  11  23  45  69 103 131 175 236 277 341 419
#     4  11  23  40  74 101 128 183 236 275 333 420
#     4  12  27  44  70 105 143 178 230 289 353 419
#     4  10  24  42  58 102 136 174 226 282 348 404
#     4  10  22  43  66  98 136 180 233 279 346 412
#     4  11  21  42  70  93 136 182 223 284 342 402
#
# _framework density 24.321626999999999
#
# number of rings (size 3 to 8) (size 9 to 14) (size 15 to 20)
#    0.000    1.231    3.077    2.308    4.308    0.615 
#    5.538    1.538    0.000    0.000    0.000    0.000 
#    0.000    0.000    0.000    0.000    0.000    0.000 
#
# Total GULP energy -72432.022921 kJ/mol
# GULP energy per Si atom -5571.694071 kJ/mol
# Density = 2.426627 g / cm^3
# Si number density = 24.321627 Si / 1000 Ang^3
#
#
#
# Elastic Constant Matrix: (Units=GPa)
#
#
# Indices 1 2 3 4 5 6 
#
# 1 90.9154 -3.4882 11.2970 0.0000 11.8866 0.0000
# 2 -3.4882 77.6689 -8.6787 0.0000 -17.2553 0.0000
# 3 11.2970 -8.6787 -74.7684 0.0000 -161.8239 0.0000
# 4 0.0000 0.0000 0.0000 61.3559 0.0000 -6.9316
# 5 11.8866 -17.2553 -161.8239 0.0000 -199.5874 0.0000
# 6 0.0000 0.0000 0.0000 -6.9316 0.0000 31.1026
#
#
#
# Elastic Compliance Matrix: (Units=1/GPa)
#
#
# Indices 1 2 3 4 5 6 
#
# 1 0.010953 0.000651 -0.000383 0.000000 0.000907 0.000000
# 2 0.000651 0.012751 -0.001219 0.000000 -0.000075 0.000000
# 3 -0.000383 -0.001219 0.017845 0.000000 -0.014386 0.000000
# 4 0.000000 0.000000 0.000000 0.016719 0.000000 0.003726
# 5 0.000907 -0.000075 -0.014386 0.000000 0.006714 0.000000
# 6 0.000000 0.000000 0.000000 0.003726 0.000000 0.032982
#
#
# Mechanical properties :
#
#
# Convention : Reuss Voigt Hill
#
# Bulk Modulus (GPa) = 25.22353 10.23069 17.72711
# Shear Modulus (GPa) = 44.21484 -15.11338 14.55073
#
# Velocity S-wave (km/s) = 4.26834 -2.49549 2.44860
# Velocity P-wave (km/s) = 5.88939 2.02181 3.91134
#
# Compressibility (1/GPa) = 0.03964552
#
# Stress axis : x y z
#
# Youngs Moduli (GPa) = 91.29702 78.42245 56.03863
#
# Poissons Ratio (x) = -0.05102 0.02148
# Poissons Ratio (y) = -0.05940 0.06833
# Poissons Ratio (z) = 0.03499 0.09562
#
# Static dielectric constant tensor:
#      x y z
#    x 1.928960 0.000000 0.063870 
#    y 0.000000 2.065160 0.000000 
#    z 0.063870 0.000000 1.945520 
# 
# From -- ./inp_files/61046.got.cif
#   From: 2010.05.17/outbox.cif.g08.bks.cpg/sg5_31_cif.got.tgz:61046.got - 2010.06.03 18:56:24.
