data_PCOD9127482
_publ_section_title
;
Structure prediction by ZEFSAII (Michael W. Deem and Ramdas Pophale) SiO2 
 PCOD9127482
Probable space group: C 2
;
_chemical_formula_sum "Si O2"
_cell_formula_units_Z 14
_cell_length_a 7.666947
_cell_length_b 17.458275
_cell_length_c 6.872890
_cell_angle_alpha 90.000000
_cell_angle_beta 138.127093
_cell_angle_gamma 90.000000
_cell_volume 614.047239
_symmetry_space_group_name_H-M "C 2"
_symmetry_group_IT_number 5
_symmetry_cell_setting 'monoclinic'
loop_
_space_group_symop_operation_xyz
x,y,z
-x,y,-z
1/2+x,1/2+y,z
1/2-x,1/2+y,-z
loop_
_atom_site_type_symbol
_atom_site_label
_atom_site_fract_x
_atom_site_fract_y
_atom_site_fract_z
Si Si1 0.210095 0.300210 0.335224
Si Si2 0.000000 0.202772 0.500000
Si Si3 0.577370 0.972230 0.338988
Si Si4 0.079289 0.069954 0.840594
O O1 0.500000 0.288098 0.500000
O O2 0.155526 0.390178 0.321466
O O3 0.175708 0.256289 0.510125
O O4 0.000000 0.273586 0.000000
O O5 0.861174 0.146231 0.230711
O O6 0.500000 0.959936 0.500000
O O7 0.823059 0.029145 0.539976
O O8 0.322435 0.012108 0.037110
O O9 0.000000 0.085878 0.000000
#
# Coordination Sequence:
#
# PCOD9127482 Si02
#       4
#     4   2   4   4
#     4  12  28  47  76 108 150 193 247 298 364 441
#     4  12  28  50  74 112 150 196 232 318 368 424
#     4  10  22  47  72 108 141 190 243 298 354 438
#     4  10  24  43  75 106 145 186 245 297 360 435
#
# _framework density 22.799547
#
# number of rings (size 3 to 8) (size 9 to 14) (size 15 to 20)
#    0.000    1.143    1.429    2.571    6.000    9.143 
#    0.000    0.000    0.000    0.000    0.000    0.000 
#    0.000    0.000    0.000    0.000    0.000    0.000 
#
# Total GULP energy -39222.504359 kJ/mol
# GULP energy per Si atom -5603.214908 kJ/mol
# Density = 2.274765 g / cm^3
# Si number density = 22.799547 Si / 1000 Ang^3
#
#
#
# Elastic Constant Matrix: (Units=GPa)
#
#
# Indices 1 2 3 4 5 6 
#
# 1 205.0600 84.4699 74.0980 0.0000 13.3929 0.0000
# 2 84.4699 142.9045 48.5915 0.0000 1.7888 0.0000
# 3 74.0980 48.5915 142.0581 0.0000 23.2046 0.0000
# 4 0.0000 0.0000 0.0000 -0.4682 0.0000 -32.1360
# 5 13.3929 1.7888 23.2046 0.0000 42.3326 0.0000
# 6 0.0000 0.0000 0.0000 -32.1360 0.0000 42.7437
#
#
#
# Elastic Compliance Matrix: (Units=1/GPa)
#
#
# Indices 1 2 3 4 5 6 
#
# 1 0.007232 -0.003424 -0.002472 0.000000 -0.000788 0.000000
# 2 -0.003424 0.009602 -0.001767 0.000000 0.001646 0.000000
# 3 -0.002472 -0.001767 0.009658 0.000000 -0.004437 0.000000
# 4 0.000000 0.000000 0.000000 -0.040602 0.000000 -0.030526
# 5 -0.000788 0.001646 -0.004437 0.000000 0.026235 0.000000
# 6 0.000000 0.000000 0.000000 -0.030526 0.000000 0.000445
#
#
# Mechanical properties :
#
#
# Convention : Reuss Voigt Hill
#
# Bulk Modulus (GPa) = 89.56706 100.48236 95.02471
# Shear Modulus (GPa) = 158.13742 35.77916 96.95829
#
# Velocity S-wave (km/s) = 8.33729 3.96573 6.52830
# Velocity P-wave (km/s) = 11.49132 8.07075 9.92944
#
# Compressibility (1/GPa) = 0.01116482
#
# Stress axis : x y z
#
# Youngs Moduli (GPa) = 138.27468 104.14439 103.53930
#
# Poissons Ratio (x) = 0.35662 0.25597
# Poissons Ratio (y) = 0.47349 0.18298
# Poissons Ratio (z) = 0.34184 0.18404
#
# Static dielectric constant tensor:
#      x y z
#    x 1.858240 0.000000 -0.063420 
#    y 0.000000 1.813960 0.000000 
#    z -0.063420 0.000000 1.817020 
# 
# From -- ./inp_files/1785.got.cif
#   From: 2010.05.17/outbox.cif.g08.bks.cpg/sg5_1_cif.got.tgz:1785.got - 2010.06.03 18:56:24.
