data_PCOD9127147
_publ_section_title
;
Structure prediction by ZEFSAII (Michael W. Deem and Ramdas Pophale) SiO2 
 PCOD9127147
Probable space group: C 2
;
_chemical_formula_sum "Si O2"
_cell_formula_units_Z 20
_cell_length_a 6.153552
_cell_length_b 14.241655
_cell_length_c 10.452611
_cell_angle_alpha 90.000000
_cell_angle_beta 88.642927
_cell_angle_gamma 90.000000
_cell_volume 915.776076
_symmetry_space_group_name_H-M "C 2"
_symmetry_group_IT_number 5
_symmetry_cell_setting 'monoclinic'
loop_
_space_group_symop_operation_xyz
x,y,z
-x,y,-z
1/2+x,1/2+y,z
1/2-x,1/2+y,-z
loop_
_atom_site_type_symbol
_atom_site_label
_atom_site_fract_x
_atom_site_fract_y
_atom_site_fract_z
Si Si1 0.000000 0.003011 0.500000
Si Si2 0.173893 0.354307 0.382509
Si Si3 0.115903 0.372885 0.865761
Si Si4 0.844958 0.642022 0.381423
Si Si5 0.666180 0.070395 0.879575
Si Si6 0.000000 0.202615 0.000000
O O1 0.856871 0.073165 0.587959
O O2 0.847915 0.934000 0.417616
O O3 0.280851 0.251249 0.371894
O O4 0.000000 0.352506 0.500000
O O5 0.043807 0.371986 0.252841
O O6 0.261884 0.465170 0.851556
O O7 0.162622 0.266236 0.908052
O O8 0.000000 0.398651 0.000000
O O9 0.947430 0.605160 0.248596
O O10 0.000000 0.631343 0.500000
O O11 0.860891 0.140190 0.907549
O O12 0.500000 0.078458 0.000000
#
# Coordination Sequence:
#
# PCOD9127147 Si02
#       6
#     2   4   4   4   4   2
#     4  12  26  44  74 102 138 186 226 292 344 404
#     4  12  24  46  71 101 141 182 232 284 344 409
#     4   9  21  44  64  95 135 168 226 276 326 407
#     4  12  25  46  71 105 139 183 232 284 346 410
#     4  11  24  45  71  98 138 182 223 280 341 407
#     4  10  22  44  66  94 138 174 226 274 340 388
#
# _framework density 21.839399
#
# number of rings (size 3 to 8) (size 9 to 14) (size 15 to 20)
#    0.600    0.400    4.000    3.000    0.000    6.400 
#    5.400    0.000    0.000    0.000    0.000    0.000 
#    0.000    0.000    0.000    0.000    0.000    0.000 
#
# Total GULP energy -55710.787788 kJ/mol
# GULP energy per Si atom -5571.078779 kJ/mol
# Density = 2.178969 g / cm^3
# Si number density = 21.839399 Si / 1000 Ang^3
#
#
#
# Elastic Constant Matrix: (Units=GPa)
#
#
# Indices 1 2 3 4 5 6 
#
# 1 13.9419 27.3266 18.1626 0.0000 -4.1595 0.0000
# 2 27.3266 165.5785 22.2279 0.0000 10.3182 0.0000
# 3 18.1626 22.2279 160.8112 0.0000 14.2231 0.0000
# 4 0.0000 0.0000 0.0000 -8.6044 0.0000 35.9279
# 5 -4.1595 10.3182 14.2231 0.0000 31.6839 0.0000
# 6 0.0000 0.0000 0.0000 35.9279 0.0000 -13.7310
#
#
#
# Elastic Compliance Matrix: (Units=1/GPa)
#
#
# Indices 1 2 3 4 5 6 
#
# 1 0.155086 -0.025554 -0.017204 0.000000 0.036405 0.000000
# 2 -0.025554 0.010452 0.002124 0.000000 -0.007712 0.000000
# 3 -0.017204 0.002124 0.008465 0.000000 -0.006750 0.000000
# 4 0.000000 0.000000 0.000000 0.011709 0.000000 0.030638
# 5 0.036405 -0.007712 -0.006750 0.000000 0.041883 0.000000
# 6 0.000000 0.000000 0.000000 0.030638 0.000000 0.007337
#
#
# Mechanical properties :
#
#
# Convention : Reuss Voigt Hill
#
# Bulk Modulus (GPa) = 10.78342 52.86284 31.82313
# Shear Modulus (GPa) = 14.40453 20.04400 17.22427
#
# Velocity S-wave (km/s) = 2.57099 3.03279 2.81139
# Velocity P-wave (km/s) = 3.70967 6.04331 5.01414
#
# Compressibility (1/GPa) = 0.09273498
#
# Stress axis : x y z
#
# Youngs Moduli (GPa) = 6.44803 95.67264 118.13327
#
# Poissons Ratio (x) = 2.44482 2.03233
# Poissons Ratio (y) = 0.16477 -0.25086
# Poissons Ratio (z) = 0.11093 -0.20316
#
# Static dielectric constant tensor:
#      x y z
#    x 1.899730 0.000000 -0.082760 
#    y 0.000000 1.976790 0.000000 
#    z -0.082760 0.000000 1.871620 
# 
# From -- ./inp_files/33103.got.cif
#   From: 2010.05.17/outbox.cif.g08.bks.cpg/sg5_17_cif.got.tgz:33103.got - 2010.06.03 18:56:24.
