data_PCOD9127668
_publ_section_title
;
Structure prediction by ZEFSAII (Michael W. Deem and Ramdas Pophale) SiO2 
 PCOD9127668
Probable space group: C 2
;
_chemical_formula_sum "Si O2"
_cell_formula_units_Z 26
_cell_length_a 7.875822
_cell_length_b 8.147747
_cell_length_c 20.097948
_cell_angle_alpha 90.000000
_cell_angle_beta 51.282074
_cell_angle_gamma 90.000000
_cell_volume 1006.260523
_symmetry_space_group_name_H-M "C 2"
_symmetry_group_IT_number 5
_symmetry_cell_setting 'monoclinic'
loop_
_space_group_symop_operation_xyz
x,y,z
-x,y,-z
1/2+x,1/2+y,z
1/2-x,1/2+y,-z
loop_
_atom_site_type_symbol
_atom_site_label
_atom_site_fract_x
_atom_site_fract_y
_atom_site_fract_z
Si Si1 0.661919 0.896820 0.521188
Si Si2 0.009498 0.703005 0.369090
Si Si3 0.853814 0.551302 0.160138
Si Si4 0.344444 0.038096 0.787978
Si Si5 0.970810 0.878332 0.933080
Si Si6 0.027842 0.206348 0.676276
Si Si7 0.500000 0.844709 0.000000
O O1 0.500000 0.925188 0.500000
O O2 0.570577 0.747513 0.588854
O O3 0.892963 0.856730 0.431495
O O4 0.651013 0.054118 0.571440
O O5 0.065545 0.689289 0.277521
O O6 0.239905 0.674323 0.347689
O O7 0.639831 0.568109 0.258240
O O8 0.882869 0.419540 0.095504
O O9 0.048090 0.541384 0.166067
O O10 0.877613 0.720328 0.113272
O O11 0.083248 0.016125 0.858562
O O12 0.430593 0.876591 0.729098
O O13 0.731638 0.806889 0.978980
O O14 0.000000 0.945690 0.000000
#
# Coordination Sequence:
#
# PCOD9127668 Si02
#       7
#     4   4   4   4   4   4   2
#     4  11  23  40  65  96 132 175 224 278 341 409
#     4  11  24  43  67  99 135 177 224 283 341 410
#     4  11  23  42  65  94 131 176 225 282 343 405
#     4  10  23  42  66  95 136 178 221 283 341 402
#     4  11  23  42  63  98 137 172 234 281 332 410
#     4  10  23  41  64  93 132 171 224 282 335 413
#     4  12  24  38  68  94 128 184 222 280 350 394
#
# _framework density 25.838236999999999
#
# number of rings (size 3 to 8) (size 9 to 14) (size 15 to 20)
#    0.000    1.231    2.308    3.231    0.000    7.385 
#    0.000    0.000    0.000    0.000    0.000    0.000 
#    0.000    0.000    0.000    0.000    0.000    0.000 
#
# Total GULP energy -72626.125718 kJ/mol
# GULP energy per Si atom -5586.625055 kJ/mol
# Density = 2.577943 g / cm^3
# Si number density = 25.838237 Si / 1000 Ang^3
#
#
#
# Elastic Constant Matrix: (Units=GPa)
#
#
# Indices 1 2 3 4 5 6 
#
# 1 66.8787 -9.2337 26.3839 0.0000 -11.4259 0.0000
# 2 -9.2337 44.5711 27.4795 0.0000 -10.8382 0.0000
# 3 26.3839 27.4795 167.6082 0.0000 -8.2422 0.0000
# 4 0.0000 0.0000 0.0000 35.6550 0.0000 -0.8225
# 5 -11.4259 -10.8382 -8.2422 0.0000 61.6513 0.0000
# 6 0.0000 0.0000 0.0000 -0.8225 0.0000 20.8948
#
#
#
# Elastic Compliance Matrix: (Units=1/GPa)
#
#
# Indices 1 2 3 4 5 6 
#
# 1 0.018142 0.007111 -0.003820 0.000000 0.004102 0.000000
# 2 0.007111 0.028696 -0.005548 0.000000 0.005621 0.000000
# 3 -0.003820 -0.005548 0.007443 0.000000 -0.000688 0.000000
# 4 0.000000 0.000000 0.000000 0.028072 0.000000 0.001105
# 5 0.004102 0.005621 -0.000688 0.000000 0.017877 0.000000
# 6 0.000000 0.000000 0.000000 0.001105 0.000000 0.047902
#
#
# Mechanical properties :
#
#
# Convention : Reuss Voigt Hill
#
# Bulk Modulus (GPa) = 20.09316 40.92415 30.50865
# Shear Modulus (GPa) = 29.54463 39.26877 34.40670
#
# Velocity S-wave (km/s) = 3.38516 3.90268 3.65310
# Velocity P-wave (km/s) = 4.80338 6.01505 5.44304
#
# Compressibility (1/GPa) = 0.04976818
#
# Stress axis : x y z
#
# Youngs Moduli (GPa) = 55.12087 34.84753 134.34852
#
# Poissons Ratio (x) = -0.24780 0.51320
# Poissons Ratio (y) = -0.39196 0.74533
# Poissons Ratio (z) = 0.21056 0.19333
#
# Static dielectric constant tensor:
#      x y z
#    x 2.009480 0.000000 -0.024110 
#    y 0.000000 2.140170 0.000000 
#    z -0.024110 0.000000 2.052180 
# 
# From -- ./inp_files/64317.got.cif
#   From: 2010.05.17/outbox.cif.g08.bks.cpg/sg5_33_cif.got.tgz:64317.got - 2010.06.03 18:56:24.
