data_PCOD9127703
_publ_section_title
;
Structure prediction by ZEFSAII (Michael W. Deem and Ramdas Pophale) SiO2 
 PCOD9127703
Probable space group: C 2
;
_chemical_formula_sum "Si O2"
_cell_formula_units_Z 32
_cell_length_a 16.493120
_cell_length_b 22.683026
_cell_length_c 9.605402
_cell_angle_alpha 90.000000
_cell_angle_beta 152.431218
_cell_angle_gamma 90.000000
_cell_volume 1663.125451
_symmetry_space_group_name_H-M "C 2"
_symmetry_group_IT_number 5
_symmetry_cell_setting 'monoclinic'
loop_
_space_group_symop_operation_xyz
x,y,z
-x,y,-z
1/2+x,1/2+y,z
1/2-x,1/2+y,-z
loop_
_atom_site_type_symbol
_atom_site_label
_atom_site_fract_x
_atom_site_fract_y
_atom_site_fract_z
Si Si1 0.705039 0.762530 0.847032
Si Si2 0.293443 0.758812 0.659364
Si Si3 0.506261 0.921950 0.177296
Si Si4 0.001029 0.541742 0.338388
Si Si5 0.197118 0.831246 0.266618
Si Si6 0.689581 0.337885 0.738589
Si Si7 0.323390 0.630376 0.818289
Si Si8 0.682120 0.631238 0.857417
O O1 0.500000 0.762657 0.500000
O O2 0.787817 0.809630 0.868196
O O3 0.759822 0.694256 0.925026
O O4 0.741403 0.786352 0.055601
O O5 0.247724 0.772492 0.431458
O O6 0.188382 0.807354 0.586679
O O7 0.259617 0.693247 0.660789
O O8 0.500000 0.770098 0.000000
O O9 0.665286 0.881085 0.476007
O O10 0.511886 0.985719 0.255461
O O11 0.500000 0.924494 0.000000
O O12 0.328422 0.889762 0.952602
O O13 0.000000 0.523472 0.500000
O O14 0.170427 0.582679 0.570778
O O15 0.825921 0.580792 0.051739
O O16 0.000000 0.849708 0.000000
O O17 0.500000 0.356833 0.500000
O O18 0.500000 0.615895 0.000000
O O19 0.355949 0.636379 0.034204
O O20 0.500000 0.620376 0.500000
#
# Coordination Sequence:
#
# PCOD9127703 Si02
#       8
#     4   4   4   4   4   4   4   4
#     4  11  22  38  64 100 137 164 205 269 329 383
#     4  11  20  42  64  94 139 168 204 264 335 385
#     4  12  26  49  64  90 135 175 220 266 319 384
#     4  10  26  48  69  91 127 179 223 263 314 386
#     4  12  25  40  63  99 132 171 212 270 324 385
#     4  12  23  38  67  97 126 171 213 261 327 387
#     4  10  23  41  68  97 130 172 212 265 326 383
#     4  10  23  42  65 100 132 166 215 270 318 381
#
# _framework density 19.240881000000002
#
# number of rings (size 3 to 8) (size 9 to 14) (size 15 to 20)
#    0.000    1.000    5.000    0.750   10.500    2.000 
#    0.000    2.500    0.000    0.000    0.000    0.000 
#    0.000    0.000    0.000    0.000    0.000    0.000 
#
# Total GULP energy -89409.008810 kJ/mol
# GULP energy per Si atom -5588.063051 kJ/mol
# Density = 1.919709 g / cm^3
# Si number density = 19.240881 Si / 1000 Ang^3
#
#
#
# Elastic Constant Matrix: (Units=GPa)
#
#
# Indices 1 2 3 4 5 6 
#
# 1 76.1548 50.5296 32.9399 0.0000 17.8234 0.0000
# 2 50.5296 121.8851 59.0934 0.0000 6.2004 0.0000
# 3 32.9399 59.0934 100.4156 0.0000 13.3860 0.0000
# 4 0.0000 0.0000 0.0000 5.3041 0.0000 -12.4515
# 5 17.8234 6.2004 13.3860 0.0000 35.0447 0.0000
# 6 0.0000 0.0000 0.0000 -12.4515 0.0000 61.4518
#
#
#
# Elastic Compliance Matrix: (Units=1/GPa)
#
#
# Indices 1 2 3 4 5 6 
#
# 1 0.020709 -0.007573 -0.001171 0.000000 -0.008745 0.000000
# 2 -0.007573 0.014260 -0.006411 0.000000 0.003777 0.000000
# 3 -0.001171 -0.006411 0.014630 0.000000 -0.003858 0.000000
# 4 0.000000 0.000000 0.000000 0.359569 0.000000 0.072857
# 5 -0.008745 0.003777 -0.003858 0.000000 0.033788 0.000000
# 6 0.000000 0.000000 0.000000 0.072857 0.000000 0.031035
#
#
# Mechanical properties :
#
#
# Convention : Reuss Voigt Hill
#
# Bulk Modulus (GPa) = 51.84287 64.84237 58.34262
# Shear Modulus (GPa) = 9.78989 30.75295 20.27142
#
# Velocity S-wave (km/s) = 2.25812 4.00223 3.24938
# Velocity P-wave (km/s) = 5.81390 7.42500 6.66828
#
# Compressibility (1/GPa) = 0.01928906
#
# Stress axis : x y z
#
# Youngs Moduli (GPa) = 48.28821 70.12597 68.35227
#
# Poissons Ratio (x) = 0.53104 0.08005
# Poissons Ratio (y) = 0.36567 0.43823
# Poissons Ratio (z) = 0.05655 0.44960
#
# Static dielectric constant tensor:
#      x y z
#    x 1.588710 0.000000 -0.009460 
#    y 0.000000 1.639610 0.000000 
#    z -0.009460 0.000000 1.656110 
# 
# From -- ./inp_files/17324.got.cif
#   From: 2010.05.17/outbox.cif.g08.bks.cpg/sg5_9_cif.got.tgz:17324.got - 2010.06.03 18:56:24.
