data_PCOD9127344
_publ_section_title
;
Structure prediction by ZEFSAII (Michael W. Deem and Ramdas Pophale) SiO2 
 PCOD9127344
Probable space group: C 2
;
_chemical_formula_sum "Si O2"
_cell_formula_units_Z 20
_cell_length_a 5.657923
_cell_length_b 21.847810
_cell_length_c 7.975687
_cell_angle_alpha 90.000000
_cell_angle_beta 63.114541
_cell_angle_gamma 90.000000
_cell_volume 879.336721
_symmetry_space_group_name_H-M "C 2"
_symmetry_group_IT_number 5
_symmetry_cell_setting 'monoclinic'
loop_
_space_group_symop_operation_xyz
x,y,z
-x,y,-z
1/2+x,1/2+y,z
1/2-x,1/2+y,-z
loop_
_atom_site_type_symbol
_atom_site_label
_atom_site_fract_x
_atom_site_fract_y
_atom_site_fract_z
Si Si1 0.000000 0.141930 0.000000
Si Si2 0.500000 0.994911 0.000000
Si Si3 0.511787 0.200025 0.692450
Si Si4 0.348038 0.590769 0.711174
Si Si5 0.876585 0.382897 0.824839
Si Si6 0.578118 0.339617 0.230669
O O1 0.744840 0.183201 0.115093
O O2 0.001254 0.099910 0.163579
O O3 0.342221 0.947326 0.932771
O O4 0.633353 0.040565 0.826495
O O5 0.500000 0.181191 0.500000
O O6 0.737907 0.158323 0.701840
O O7 0.530082 0.272943 0.688616
O O8 0.500000 0.569143 0.500000
O O9 0.685889 0.379175 0.725475
O O10 0.191477 0.366224 0.718978
O O11 0.743363 0.336505 0.002423
#
# Coordination Sequence:
#
# PCOD9127344 Si02
#       6
#     2   2   4   4   4   4
#     4  12  24  43  70  96 153 192 228 298 362 432
#     4  10  22  45  70  98 141 194 238 310 358 408
#     4  12  25  42  68 109 146 191 236 297 371 450
#     4  12  26  44  70 108 144 189 247 291 368 444
#     4   9  20  40  66 101 126 186 249 283 355 433
#     4   9  20  37  65  93 138 171 230 296 348 415
#
# _framework density 22.744413000000002
#
# number of rings (size 3 to 8) (size 9 to 14) (size 15 to 20)
#    0.000    1.600    4.000    1.200    8.400    3.200 
#    0.000    4.000    0.000   12.000    0.000    0.000 
#    0.000    0.000    0.000    0.000    0.000    0.000 
#
# Total GULP energy -55749.569114 kJ/mol
# GULP energy per Si atom -5574.956911 kJ/mol
# Density = 2.269265 g / cm^3
# Si number density = 22.744413 Si / 1000 Ang^3
#
#
#
# Elastic Constant Matrix: (Units=GPa)
#
#
# Indices 1 2 3 4 5 6 
#
# 1 141.2121 27.3561 33.1060 0.0000 2.9898 0.0000
# 2 27.3561 75.3328 36.1682 0.0000 3.4245 0.0000
# 3 33.1060 36.1682 144.5704 0.0000 12.2771 0.0000
# 4 0.0000 0.0000 0.0000 -273.0984 0.0000 59.9433
# 5 2.9898 3.4245 12.2771 0.0000 32.1750 0.0000
# 6 0.0000 0.0000 0.0000 59.9433 0.0000 7.2464
#
#
#
# Elastic Compliance Matrix: (Units=1/GPa)
#
#
# Indices 1 2 3 4 5 6 
#
# 1 0.007804 -0.002245 -0.001224 0.000000 -0.000019 0.000000
# 2 -0.002245 0.015734 -0.003408 0.000000 -0.000166 0.000000
# 3 -0.001224 -0.003408 0.008278 0.000000 -0.002682 0.000000
# 4 0.000000 0.000000 0.000000 -0.001300 0.000000 0.010758
# 5 -0.000019 -0.000166 -0.002682 0.000000 0.032123 0.000000
# 6 0.000000 0.000000 0.000000 0.010758 0.000000 0.049011
#
#
# Mechanical properties :
#
#
# Convention : Reuss Voigt Hill
#
# Bulk Modulus (GPa) = 55.36819 61.59731 58.48275
# Shear Modulus (GPa) = 38.04518 -29.10305 4.47106
#
# Velocity S-wave (km/s) = 4.09433 -3.58099 1.40359
# Velocity P-wave (km/s) = 6.83725 3.16910 5.32875
#
# Compressibility (1/GPa) = 0.01806091
#
# Stress axis : x y z
#
# Youngs Moduli (GPa) = 128.14225 63.55844 120.80803
#
# Poissons Ratio (x) = 0.14272 0.14783
# Poissons Ratio (y) = 0.28774 0.41170
# Poissons Ratio (z) = 0.15680 0.21660
#
# Static dielectric constant tensor:
#      x y z
#    x 1.938240 0.000000 -0.006910 
#    y 0.000000 1.888310 0.000000 
#    z -0.006910 0.000000 1.953090 
# 
# From -- ./inp_files/12677.got.cif
#   From: 2010.05.17/outbox.cif.g08.bks.cpg/sg5_7_cif.got.tgz:12677.got - 2010.06.03 18:56:24.
