data_PCOD9127357
_publ_section_title
;
Structure prediction by ZEFSAII (Michael W. Deem and Ramdas Pophale) SiO2 
 PCOD9127357
Probable space group: C 2
;
_chemical_formula_sum "Si O2"
_cell_formula_units_Z 24
_cell_length_a 5.161957
_cell_length_b 13.825570
_cell_length_c 13.898234
_cell_angle_alpha 90.000000
_cell_angle_beta 78.641314
_cell_angle_gamma 90.000000
_cell_volume 972.447816
_symmetry_space_group_name_H-M "C 2"
_symmetry_group_IT_number 5
_symmetry_cell_setting 'monoclinic'
loop_
_space_group_symop_operation_xyz
x,y,z
-x,y,-z
1/2+x,1/2+y,z
1/2-x,1/2+y,-z
loop_
_atom_site_type_symbol
_atom_site_label
_atom_site_fract_x
_atom_site_fract_y
_atom_site_fract_z
Si Si1 0.835576 0.719350 0.369859
Si Si2 0.730848 0.896267 0.842589
Si Si3 0.500000 0.413410 0.000000
Si Si4 0.808168 0.932118 0.343373
Si Si5 0.409854 0.715414 0.246314
Si Si6 0.345578 0.036626 0.826959
Si Si7 0.000000 0.069798 0.500000
O O1 0.726876 0.828858 0.393640
O O2 0.675416 0.688351 0.283985
O O3 0.736247 0.641200 0.452557
O O4 0.152876 0.723417 0.335914
O O5 0.537474 0.817380 0.809471
O O6 0.966185 0.901342 0.748984
O O7 0.620184 0.005459 0.855577
O O8 0.809754 0.857927 0.941475
O O9 0.344542 0.477986 0.087733
O O10 0.622139 0.992803 0.284540
O O11 0.912376 0.001830 0.418532
O O12 0.291365 0.638733 0.179751
#
# Coordination Sequence:
#
# PCOD9127357 Si02
#       7
#     4   4   2   4   4   4   2
#     4  11  25  46  67 106 139 188 246 294 354 430
#     4  10  22  45  71  97 144 186 234 296 361 426
#     4  10  24  42  66 106 134 176 240 290 356 438
#     4  10  23  44  70  97 142 192 232 300 356 417
#     4  11  24  45  74  98 140 190 239 290 363 429
#     4  11  21  44  70  98 140 185 232 292 363 423
#     4  12  24  46  72 108 148 192 252 296 362 426
#
# _framework density 24.679987000000001
#
# number of rings (size 3 to 8) (size 9 to 14) (size 15 to 20)
#    0.000    1.333    3.333    1.500    2.333    3.333 
#   12.000    0.000    0.000    0.000    0.000    0.000 
#    0.000    0.000    0.000    0.000    0.000    0.000 
#
# Total GULP energy -66980.263017 kJ/mol
# GULP energy per Si atom -5581.688585 kJ/mol
# Density = 2.462381 g / cm^3
# Si number density = 24.679987 Si / 1000 Ang^3
#
#
#
# Elastic Constant Matrix: (Units=GPa)
#
#
# Indices 1 2 3 4 5 6 
#
# 1 76.0130 -0.4384 22.0801 0.0000 12.1718 0.0000
# 2 -0.4384 118.3877 39.2855 0.0000 2.5693 0.0000
# 3 22.0801 39.2855 133.7511 0.0000 19.5376 0.0000
# 4 0.0000 0.0000 0.0000 11.5398 0.0000 10.2707
# 5 12.1718 2.5693 19.5376 0.0000 37.0821 0.0000
# 6 0.0000 0.0000 0.0000 10.2707 0.0000 33.8948
#
#
#
# Elastic Compliance Matrix: (Units=1/GPa)
#
#
# Indices 1 2 3 4 5 6 
#
# 1 0.014351 0.000821 -0.002073 0.000000 -0.003675 0.000000
# 2 0.000821 0.009432 -0.003002 0.000000 0.000659 0.000000
# 3 -0.002073 -0.003002 0.009285 0.000000 -0.004004 0.000000
# 4 0.000000 0.000000 0.000000 0.118657 0.000000 -0.035955
# 5 -0.003675 0.000659 -0.004004 0.000000 0.030237 0.000000
# 6 0.000000 0.000000 0.000000 -0.035955 0.000000 0.040398
#
#
# Mechanical properties :
#
#
# Convention : Reuss Voigt Hill
#
# Bulk Modulus (GPa) = 40.71782 50.00069 45.35926
# Shear Modulus (GPa) = 20.91558 34.31833 27.61696
#
# Velocity S-wave (km/s) = 2.91429 3.73303 3.34878
# Velocity P-wave (km/s) = 5.27809 6.23573 5.77679
#
# Compressibility (1/GPa) = 0.02455927
#
# Stress axis : x y z
#
# Youngs Moduli (GPa) = 69.68085 106.02475 107.69517
#
# Poissons Ratio (x) = -0.08704 0.22330
# Poissons Ratio (y) = -0.05720 0.32331
# Poissons Ratio (z) = 0.14448 0.31829
#
# Static dielectric constant tensor:
#      x y z
#    x 2.116800 0.000000 0.045640 
#    y 0.000000 1.989210 0.000000 
#    z 0.045640 0.000000 1.954600 
# 
# From -- ./inp_files/48961.got.cif
#   From: 2010.05.17/outbox.cif.g08.bks.cpg/sg5_25_cif.got.tgz:48961.got - 2010.06.03 18:56:24.
