data_PCOD9127635
_publ_section_title
;
Structure prediction by ZEFSAII (Michael W. Deem and Ramdas Pophale) SiO2 
 PCOD9127635
Probable space group: C 2
;
_chemical_formula_sum "Si O2"
_cell_formula_units_Z 18
_cell_length_a 6.628196
_cell_length_b 17.918924
_cell_length_c 8.557801
_cell_angle_alpha 90.000000
_cell_angle_beta 122.090841
_cell_angle_gamma 90.000000
_cell_volume 861.110560
_symmetry_space_group_name_H-M "C 2"
_symmetry_group_IT_number 5
_symmetry_cell_setting 'monoclinic'
loop_
_space_group_symop_operation_xyz
x,y,z
-x,y,-z
1/2+x,1/2+y,z
1/2-x,1/2+y,-z
loop_
_atom_site_type_symbol
_atom_site_label
_atom_site_fract_x
_atom_site_fract_y
_atom_site_fract_z
Si Si1 0.037340 0.942690 0.225533
Si Si2 0.000000 0.392676 0.000000
Si Si3 0.240193 0.146181 0.819423
Si Si4 0.500000 0.532108 0.500000
Si Si5 0.500000 0.564179 0.000000
Si Si6 0.129784 0.318012 0.719911
O O1 0.125626 0.862582 0.209132
O O2 0.747473 0.939453 0.110842
O O3 0.113053 0.975956 0.421752
O O4 0.155679 0.002274 0.155054
O O5 0.980035 0.346423 0.157942
O O6 0.170320 0.229746 0.746341
O O7 0.188805 0.087735 0.659443
O O8 0.500000 0.145038 0.000000
O O9 0.083931 0.115900 0.897115
O O10 0.000000 0.333597 0.500000
#
# Coordination Sequence:
#
# PCOD9127635 Si02
#       6
#     4   2   4   2   2   4
#     4  11  23  43  69 102 136 177 240 279 343 414
#     4  12  23  42  72  99 140 184 228 290 347 400
#     4  11  24  45  69  95 146 181 220 290 353 403
#     4  10  24  42  68 104 134 176 234 280 340 420
#     4  10  23  40  68 101 128 178 230 272 347 410
#     4  12  25  44  69 105 140 183 234 289 343 420
#
# _framework density 20.903238999999999
#
# number of rings (size 3 to 8) (size 9 to 14) (size 15 to 20)
#    0.000    0.889    3.333    3.333    6.222    1.778 
#    0.000    3.333    0.000    0.000    0.000    0.000 
#    0.000    0.000    0.000    0.000    0.000    0.000 
#
# Total GULP energy -50101.869360 kJ/mol
# GULP energy per Si atom -5566.874373 kJ/mol
# Density = 2.085566 g / cm^3
# Si number density = 20.903239 Si / 1000 Ang^3
#
#
#
# Elastic Constant Matrix: (Units=GPa)
#
#
# Indices 1 2 3 4 5 6 
#
# 1 71.0158 51.5518 44.3399 0.0000 -15.8417 0.0000
# 2 51.5518 137.8279 34.4070 0.0000 -21.0169 0.0000
# 3 44.3399 34.4070 134.4611 0.0000 -28.6463 0.0000
# 4 0.0000 0.0000 0.0000 36.3165 0.0000 -11.6137
# 5 -15.8417 -21.0169 -28.6463 0.0000 47.0192 0.0000
# 6 0.0000 0.0000 0.0000 -11.6137 0.0000 35.3635
#
#
#
# Elastic Compliance Matrix: (Units=1/GPa)
#
#
# Indices 1 2 3 4 5 6 
#
# 1 0.022857 -0.006992 -0.005485 0.000000 0.001234 0.000000
# 2 -0.006992 0.010174 0.000194 0.000000 0.002311 0.000000
# 3 -0.005485 0.000194 0.010137 0.000000 0.004415 0.000000
# 4 0.000000 0.000000 0.000000 0.030767 0.000000 0.010104
# 5 0.001234 0.002311 0.004415 0.000000 0.025406 0.000000
# 6 0.000000 0.000000 0.000000 0.010104 0.000000 0.031596
#
#
# Mechanical properties :
#
#
# Convention : Reuss Voigt Hill
#
# Bulk Modulus (GPa) = 53.75606 67.10026 60.42816
# Shear Modulus (GPa) = 30.92089 37.94024 34.43056
#
# Velocity S-wave (km/s) = 3.85026 4.26495 4.06290
# Velocity P-wave (km/s) = 6.74822 7.51154 7.14009
#
# Compressibility (1/GPa) = 0.01860255
#
# Stress axis : x y z
#
# Youngs Moduli (GPa) = 43.75056 98.28647 98.65145
#
# Poissons Ratio (x) = 0.68719 0.54114
# Poissons Ratio (y) = 0.30589 -0.01917
# Poissons Ratio (z) = 0.23999 -0.01910
#
# Static dielectric constant tensor:
#      x y z
#    x 1.790830 0.000000 -0.037140 
#    y 0.000000 1.718310 0.000000 
#    z -0.037140 0.000000 1.874970 
# 
# From -- ./inp_files/12024.got.cif
#   From: 2010.05.17/outbox.cif.g08.bks.cpg/sg5_7_cif.got.tgz:12024.got - 2010.06.03 18:56:24.
