data_PCOD9127558
_publ_section_title
;
Structure prediction by ZEFSAII (Michael W. Deem and Ramdas Pophale) SiO2 
 PCOD9127558
Probable space group: C 2
;
_chemical_formula_sum "Si O2"
_cell_formula_units_Z 32
_cell_length_a 23.332908
_cell_length_b 12.248597
_cell_length_c 5.339917
_cell_angle_alpha 90.000000
_cell_angle_beta 54.725063
_cell_angle_gamma 90.000000
_cell_volume 1245.912518
_symmetry_space_group_name_H-M "C 2"
_symmetry_group_IT_number 5
_symmetry_cell_setting 'monoclinic'
loop_
_space_group_symop_operation_xyz
x,y,z
-x,y,-z
1/2+x,1/2+y,z
1/2-x,1/2+y,-z
loop_
_atom_site_type_symbol
_atom_site_label
_atom_site_fract_x
_atom_site_fract_y
_atom_site_fract_z
Si Si1 0.285674 0.392140 0.377978
Si Si2 0.256372 0.735174 0.903545
Si Si3 0.127994 0.466243 0.785125
Si Si4 0.092095 0.240772 0.746306
Si Si5 0.423416 0.299602 0.294475
Si Si6 0.168951 0.112163 0.918941
Si Si7 0.371575 0.101919 0.738668
Si Si8 0.560472 0.537223 0.544085
O O1 0.276786 0.346603 0.114152
O O2 0.203737 0.410806 0.669523
O O3 0.348035 0.314807 0.335200
O O4 0.311391 0.516892 0.317754
O O5 0.331808 0.737854 0.583223
O O6 0.272250 0.698109 0.147320
O O7 0.203593 0.639671 0.961697
O O8 0.077908 0.366086 0.832898
O O9 0.135864 0.536466 0.507248
O O10 0.099450 0.532193 0.099588
O O11 0.048502 0.155422 0.696089
O O12 0.106155 0.183352 0.973266
O O13 0.437903 0.426637 0.307000
O O14 0.500000 0.258788 0.000000
O O15 0.407617 0.216206 0.563536
O O16 0.137214 0.046850 0.229771
O O17 0.500000 0.517500 0.500000
#
# Coordination Sequence:
#
# PCOD9127558 Si02
#       8
#     4   4   4   4   4   4   4   4
#     4  11  22  43  72 112 159 205 260 336 411 484
#     4  10  23  37  67 109 148 200 250 326 399 479
#     4  11  27  44  77 115 159 204 267 335 416 486
#     4  10  24  42  71 110 156 197 259 332 409 486
#     4  12  28  50  78 113 161 219 271 331 404 489
#     4  11  21  39  68 104 151 190 255 326 404 481
#     4  12  26  47  75 112 159 211 265 330 400 487
#     4  11  25  43  75 110 147 204 268 338 399 484
#
# _framework density 25.683986000000001
#
# number of rings (size 3 to 8) (size 9 to 14) (size 15 to 20)
#    0.000    1.000    2.500    3.000   10.500    1.000 
#    0.000    0.000    2.750    0.750    0.000    0.000 
#    0.000    0.000    0.000    0.000    0.000    0.000 
#
# Total GULP energy -89170.084676 kJ/mol
# GULP energy per Si atom -5573.130292 kJ/mol
# Density = 2.562553 g / cm^3
# Si number density = 25.683986 Si / 1000 Ang^3
#
#
#
# Elastic Constant Matrix: (Units=GPa)
#
#
# Indices 1 2 3 4 5 6 
#
# 1 106.6388 56.1395 51.0650 0.0000 -5.9135 0.0000
# 2 56.1395 127.0339 45.2872 0.0000 1.2734 0.0000
# 3 51.0650 45.2872 100.2658 0.0000 -8.3297 0.0000
# 4 0.0000 0.0000 0.0000 27.6494 0.0000 44.5452
# 5 -5.9135 1.2734 -8.3297 0.0000 38.5328 0.0000
# 6 0.0000 0.0000 0.0000 44.5452 0.0000 -15.5255
#
#
#
# Elastic Compliance Matrix: (Units=1/GPa)
#
#
# Indices 1 2 3 4 5 6 
#
# 1 0.014268 -0.004486 -0.005138 0.000000 0.001227 0.000000
# 2 -0.004486 0.010852 -0.002754 0.000000 -0.001642 0.000000
# 3 -0.005138 -0.002754 0.014028 0.000000 0.002335 0.000000
# 4 0.000000 0.000000 0.000000 0.006433 0.000000 0.018456
# 5 0.001227 -0.001642 0.002335 0.000000 0.026699 0.000000
# 6 0.000000 0.000000 0.000000 0.018456 0.000000 -0.011456
#
#
# Mechanical properties :
#
#
# Convention : Reuss Voigt Hill
#
# Bulk Modulus (GPa) = 69.47970 70.99132 70.23551
# Shear Modulus (GPa) = 55.32381 22.22778 38.77580
#
# Velocity S-wave (km/s) = 4.64618 2.94502 3.88974
# Velocity P-wave (km/s) = 7.47617 6.26614 6.89774
#
# Compressibility (1/GPa) = 0.01439269
#
# Stress axis : x y z
#
# Youngs Moduli (GPa) = 70.08917 92.14593 71.28514
#
# Poissons Ratio (x) = 0.41333 0.36629
# Poissons Ratio (y) = 0.31440 0.19629
# Poissons Ratio (z) = 0.36015 0.25373
#
# Static dielectric constant tensor:
#      x y z
#    x 2.093110 0.000000 0.034640 
#    y 0.000000 1.990820 0.000000 
#    z 0.034640 0.000000 2.184720 
# 
# From -- ./inp_files/10365.got.cif
#   From: 2010.05.17/outbox.cif.g08.bks.cpg/sg5_6_cif.got.tgz:10365.got - 2010.06.03 18:56:24.
