data_PCOD9127768
_publ_section_title
;
Structure prediction by ZEFSAII (Michael W. Deem and Ramdas Pophale) SiO2 
 PCOD9127768
Probable space group: C 2
;
_chemical_formula_sum "Si O2"
_cell_formula_units_Z 18
_cell_length_a 14.131701
_cell_length_b 4.824129
_cell_length_c 20.766827
_cell_angle_alpha 90.000000
_cell_angle_beta 149.099185
_cell_angle_gamma 90.000000
_cell_volume 727.058163
_symmetry_space_group_name_H-M "C 2"
_symmetry_group_IT_number 5
_symmetry_cell_setting 'monoclinic'
loop_
_space_group_symop_operation_xyz
x,y,z
-x,y,-z
1/2+x,1/2+y,z
1/2-x,1/2+y,-z
loop_
_atom_site_type_symbol
_atom_site_label
_atom_site_fract_x
_atom_site_fract_y
_atom_site_fract_z
Si Si1 0.000000 0.358040 0.500000
Si Si2 0.057330 0.605096 0.736410
Si Si3 0.799140 0.945312 0.760344
Si Si4 0.296597 0.302821 0.986896
Si Si5 0.834557 0.137221 0.645934
O O1 0.839011 0.237277 0.360479
O O2 0.876546 0.538073 0.477300
O O3 0.183750 0.591507 0.748002
O O4 0.180393 0.449518 0.862879
O O5 0.874898 0.412273 0.630566
O O6 0.976992 0.905217 0.704913
O O7 0.859945 0.153679 0.738473
O O8 0.984311 0.816212 0.896277
O O9 0.247862 0.989258 0.976084
#
# Coordination Sequence:
#
# PCOD9127768 Si02
#       5
#     2   4   4   4   4
#     4   8  20  48  56  98 120 168 196 268 292 366
#     4  12  23  42  67  92 121 171 199 255 315 361
#     4  10  23  42  66  91 128 161 210 250 310 367
#     4  12  21  41  63  90 128 158 203 258 305 360
#     4  10  24  43  62  94 127 156 212 255 299 368
#
# _framework density 24.757304999999999
#
# number of rings (size 3 to 8) (size 9 to 14) (size 15 to 20)
#    1.333    0.000    4.444    0.667    0.000    6.222 
#    0.000    4.444    0.000    0.000    0.000    0.000 
#    0.000    0.000    0.000    0.000    0.000    0.000 
#
# Total GULP energy -50215.420220 kJ/mol
# GULP energy per Si atom -5579.491136 kJ/mol
# Density = 2.470096 g / cm^3
# Si number density = 24.757305 Si / 1000 Ang^3
#
#
#
# Elastic Constant Matrix: (Units=GPa)
#
#
# Indices 1 2 3 4 5 6 
#
# 1 165.0175 27.9116 -2.2590 0.0004 21.5530 0.0002
# 2 27.9116 96.8539 -9.2453 -0.0011 3.5034 0.0033
# 3 -2.2590 -9.2453 119.7889 0.0013 15.2098 -0.0005
# 4 0.0004 -0.0011 0.0013 14.1351 0.0000 2.4742
# 5 21.5530 3.5034 15.2098 0.0000 31.0136 -0.0007
# 6 0.0002 0.0033 -0.0005 2.4742 -0.0007 10.8789
#
#
#
# Elastic Compliance Matrix: (Units=1/GPa)
#
#
# Indices 1 2 3 4 5 6 
#
# 1 0.007021 -0.001783 0.000628 0.000000 -0.004986 0.000000
# 2 -0.001783 0.010936 0.000864 0.000001 -0.000420 -0.000004
# 3 0.000628 0.000864 0.009058 -0.000001 -0.004976 0.000000
# 4 0.000000 0.000001 -0.000001 0.073679 0.000000 -0.016757
# 5 -0.004986 -0.000420 -0.004976 0.000000 0.038197 0.000003
# 6 0.000000 -0.000004 0.000000 -0.016757 0.000003 0.095732
#
#
# Mechanical properties :
#
#
# Convention : Reuss Voigt Hill
#
# Bulk Modulus (GPa) = 37.83145 46.05276 41.94210
# Shear Modulus (GPa) = 20.49022 35.55571 28.02297
#
# Velocity S-wave (km/s) = 2.88000 3.79380 3.36803
# Velocity P-wave (km/s) = 5.13549 6.15082 5.66595
#
# Compressibility (1/GPa) = 0.02643304
#
# Stress axis : x y z
#
# Youngs Moduli (GPa) = 142.42192 91.43825 110.39506
#
# Poissons Ratio (x) = 0.16305 -0.06931
# Poissons Ratio (y) = 0.25396 -0.09535
# Poissons Ratio (z) = -0.08942 -0.07898
#
# Static dielectric constant tensor:
#      x y z
#    x 1.927270 0.000000 -0.063880 
#    y 0.000000 1.888960 0.000000 
#    z -0.063880 0.000000 2.090650 
# 
# From -- ./inp_files/45339.got.cif
#   From: 2010.05.17/outbox.cif.g08.bks.cpg/sg5_23_cif.got.tgz:45339.got - 2010.06.03 18:56:24.
