data_PCOD9127537
_publ_section_title
;
Structure prediction by ZEFSAII (Michael W. Deem and Ramdas Pophale) SiO2 
 PCOD9127537
Probable space group: C 2
;
_chemical_formula_sum "Si O2"
_cell_formula_units_Z 32
_cell_length_a 12.542386
_cell_length_b 7.561342
_cell_length_c 14.695265
_cell_angle_alpha 90.000000
_cell_angle_beta 87.250506
_cell_angle_gamma 90.000000
_cell_volume 1392.054449
_symmetry_space_group_name_H-M "C 2"
_symmetry_group_IT_number 5
_symmetry_cell_setting 'monoclinic'
loop_
_space_group_symop_operation_xyz
x,y,z
-x,y,-z
1/2+x,1/2+y,z
1/2-x,1/2+y,-z
loop_
_atom_site_type_symbol
_atom_site_label
_atom_site_fract_x
_atom_site_fract_y
_atom_site_fract_z
Si Si1 0.599648 0.320940 0.256114
Si Si2 0.608985 0.187074 0.453700
Si Si3 0.994718 0.288634 0.839798
Si Si4 0.778885 0.196491 0.127101
Si Si5 0.029464 0.188431 0.348393
Si Si6 0.543907 0.176777 0.899782
Si Si7 0.654468 0.591459 0.510270
Si Si8 0.275546 0.804967 0.922653
O O1 0.597950 0.198937 0.345753
O O2 0.716377 0.302729 0.206913
O O3 0.567377 0.512396 0.294049
O O4 0.518827 0.266162 0.180168
O O5 0.500000 0.110485 0.500000
O O6 0.620306 0.390371 0.489126
O O7 0.719951 0.099314 0.478318
O O8 0.979428 0.325446 0.733268
O O9 0.885096 0.216426 0.885693
O O10 0.098276 0.168748 0.850915
O O11 0.022065 0.469034 0.890486
O O12 0.724623 0.006312 0.112926
O O13 0.771532 0.297251 0.031619
O O14 0.115030 0.208941 0.425817
O O15 0.915859 0.155937 0.401495
O O16 0.669177 0.214724 0.890158
O O17 0.500000 0.237269 0.000000
#
# Coordination Sequence:
#
# PCOD9127537 Si02
#       8
#     4   4   4   4   4   4   4   4
#     4  11  23  46  75 100 142 192 235 288 362 425
#     4  11  23  47  74 104 143 182 229 292 356 427
#     4  12  26  44  69 104 138 186 246 291 352 428
#     4  12  25  45  69 100 142 187 244 293 359 417
#     4  10  23  46  72 105 144 187 235 296 353 438
#     4  12  25  48  68  99 146 186 243 303 351 420
#     4  10  22  49  73 104 148 179 230 293 362 420
#     4  12  26  46  69 100 142 190 238 305 351 417
#
# _framework density 22.987604999999999
#
# number of rings (size 3 to 8) (size 9 to 14) (size 15 to 20)
#    0.000    0.750    5.000    3.375    3.500    3.000 
#    9.000    0.000    0.000    0.000    0.000    0.000 
#    0.000    0.000    0.000    0.000    0.000    0.000 
#
# Total GULP energy -89605.487632 kJ/mol
# GULP energy per Si atom -5600.342977 kJ/mol
# Density = 2.293528 g / cm^3
# Si number density = 22.987605 Si / 1000 Ang^3
#
#
#
# Elastic Constant Matrix: (Units=GPa)
#
#
# Indices 1 2 3 4 5 6 
#
# 1 212.7738 23.5515 69.9333 0.0000 -2.4640 0.0000
# 2 23.5515 26.3692 15.7025 0.0000 10.1414 0.0000
# 3 69.9333 15.7025 155.7946 0.0000 -12.4217 0.0000
# 4 0.0000 0.0000 0.0000 29.2889 0.0000 9.1999
# 5 -2.4640 10.1414 -12.4217 0.0000 32.4386 0.0000
# 6 0.0000 0.0000 0.0000 9.1999 0.0000 30.0583
#
#
#
# Elastic Compliance Matrix: (Units=1/GPa)
#
#
# Indices 1 2 3 4 5 6 
#
# 1 0.005895 -0.004388 -0.002124 0.000000 0.001006 0.000000
# 2 -0.004388 0.051671 -0.004696 0.000000 -0.018286 0.000000
# 3 -0.002124 -0.004696 0.008200 0.000000 0.004447 0.000000
# 4 0.000000 0.000000 0.000000 0.037774 0.000000 -0.011562
# 5 0.001006 -0.018286 0.004447 0.000000 0.038324 0.000000
# 6 0.000000 0.000000 0.000000 -0.011562 0.000000 0.036807
#
#
# Mechanical properties :
#
#
# Convention : Reuss Voigt Hill
#
# Bulk Modulus (GPa) = 23.06770 68.14580 45.60675
# Shear Modulus (GPa) = 23.19792 37.40718 30.30255
#
# Velocity S-wave (km/s) = 3.18016 4.03833 3.63466
# Velocity P-wave (km/s) = 4.85192 7.17308 6.12349
#
# Compressibility (1/GPa) = 0.04335065
#
# Stress axis : x y z
#
# Youngs Moduli (GPa) = 169.63071 19.35326 121.95219
#
# Poissons Ratio (x) = 0.08491 0.25900
# Poissons Ratio (y) = 0.74426 0.57273
# Poissons Ratio (z) = 0.36026 0.09089
#
# Static dielectric constant tensor:
#      x y z
#    x 1.839840 0.000000 0.013200 
#    y 0.000000 1.894520 0.000000 
#    z 0.013200 0.000000 1.824970 
# 
# From -- ./inp_files/52459.got.cif
#   From: 2010.05.17/outbox.cif.g08.bks.cpg/sg5_27_cif.got.tgz:52459.got - 2010.06.03 18:56:24.
