data_PCOD9127826
_publ_section_title
;
Structure prediction by ZEFSAII (Michael W. Deem and Ramdas Pophale) SiO2 
 PCOD9127826
Probable space group: C 2
;
_chemical_formula_sum "Si O2"
_cell_formula_units_Z 32
_cell_length_a 13.424088
_cell_length_b 21.455470
_cell_length_c 13.669313
_cell_angle_alpha 90.000000
_cell_angle_beta 158.871025
_cell_angle_gamma 90.000000
_cell_volume 1419.178127
_symmetry_space_group_name_H-M "C 2"
_symmetry_group_IT_number 5
_symmetry_cell_setting 'monoclinic'
loop_
_space_group_symop_operation_xyz
x,y,z
-x,y,-z
1/2+x,1/2+y,z
1/2-x,1/2+y,-z
loop_
_atom_site_type_symbol
_atom_site_label
_atom_site_fract_x
_atom_site_fract_y
_atom_site_fract_z
Si Si1 0.146072 0.242430 0.958843
Si Si2 0.372549 0.013653 0.137414
Si Si3 0.714386 0.341968 0.283382
Si Si4 0.850608 0.934246 0.608155
Si Si5 0.210376 0.577566 0.281879
Si Si6 0.063087 0.711155 0.173474
Si Si7 0.778372 0.620707 0.208524
Si Si8 0.409034 0.320809 0.529361
O O1 0.288455 0.219767 0.987930
O O2 0.192625 0.185535 0.077673
O O3 0.332012 0.298305 0.170045
O O4 0.837749 0.270794 0.676391
O O5 0.578561 0.031252 0.238253
O O6 0.359143 0.072561 0.197267
O O7 0.544399 0.959878 0.347627
O O8 0.082492 0.988206 0.829793
O O9 0.592071 0.386571 0.252156
O O10 0.747109 0.272527 0.357518
O O11 0.000000 0.363726 0.500000
O O12 0.500000 0.337292 0.000000
O O13 0.842447 0.890920 0.504102
O O14 0.500000 0.560312 0.500000
O O15 0.217062 0.646438 0.336971
O O16 0.000000 0.580872 0.000000
O O17 0.000000 0.708880 0.000000
O O18 0.000000 0.628477 0.500000
O O19 0.500000 0.593738 0.000000
O O20 0.500000 0.319204 0.500000
#
# Coordination Sequence:
#
# PCOD9127826 Si02
#       8
#     4   4   4   4   4   4   4   4
#     4  12  24  46  75 106 144 180 236 298 374 439
#     4  12  27  47  69 103 140 191 245 291 347 420
#     4  11  24  42  68 100 136 176 226 288 364 431
#     4  12  27  45  71  99 141 190 244 291 351 419
#     4  11  24  45  72 103 141 180 229 291 366 430
#     4  10  23  42  73 109 139 177 223 295 374 442
#     4  12  26  47  74 107 144 191 239 298 362 433
#     4  12  27  46  72 104 142 188 240 301 362 431
#
# _framework density 22.548261
#
# number of rings (size 3 to 8) (size 9 to 14) (size 15 to 20)
#    0.000    0.500    2.500    5.625    3.500    6.500 
#    0.000    0.000    0.000    0.000    0.000    0.000 
#    0.000    0.000    0.000    0.000    0.000    0.000 
#
# Total GULP energy -89469.714776 kJ/mol
# GULP energy per Si atom -5591.857173 kJ/mol
# Density = 2.249694 g / cm^3
# Si number density = 22.548261 Si / 1000 Ang^3
#
#
#
# Elastic Constant Matrix: (Units=GPa)
#
#
# Indices 1 2 3 4 5 6 
#
# 1 138.3864 20.2678 32.0430 0.0032 10.3352 0.0039
# 2 20.2678 70.8510 1.4579 0.0017 -5.2248 -0.0004
# 3 32.0430 1.4579 98.3230 0.0058 6.5594 0.0058
# 4 0.0032 0.0017 0.0058 25.6737 0.0046 -1.3152
# 5 10.3352 -5.2248 6.5594 0.0046 31.7528 0.0042
# 6 0.0039 -0.0004 0.0058 -1.3152 0.0042 27.1184
#
#
#
# Elastic Compliance Matrix: (Units=1/GPa)
#
#
# Indices 1 2 3 4 5 6 
#
# 1 0.008377 -0.002538 -0.002517 0.000000 -0.002624 0.000000
# 2 -0.002538 0.015070 0.000388 -0.000001 0.003226 0.000000
# 3 -0.002517 0.000388 0.011079 -0.000002 -0.001405 -0.000002
# 4 0.000000 -0.000001 -0.000002 0.039047 -0.000006 0.001894
# 5 -0.002624 0.003226 -0.001405 -0.000006 0.033168 -0.000005
# 6 0.000000 0.000000 -0.000002 0.001894 -0.000005 0.036967
#
#
# Mechanical properties :
#
#
# Convention : Reuss Voigt Hill
#
# Bulk Modulus (GPa) = 39.69490 46.12198 42.90844
# Shear Modulus (GPa) = 30.97138 33.82844 32.39991
#
# Velocity S-wave (km/s) = 3.71018 3.87753 3.79478
# Velocity P-wave (km/s) = 5.99971 6.36759 6.18638
#
# Compressibility (1/GPa) = 0.02519216
#
# Stress axis : x y z
#
# Youngs Moduli (GPa) = 119.37902 66.35698 90.26160
#
# Poissons Ratio (x) = 0.16841 0.22721
# Poissons Ratio (y) = 0.30298 -0.03506
# Poissons Ratio (z) = 0.30050 -0.02578
#
# Static dielectric constant tensor:
#      x y z
#    x 1.837600 0.000000 -0.008470 
#    y 0.000000 1.893070 0.000000 
#    z -0.008470 0.000000 1.805510 
# 
# From -- ./inp_files/55035.got.cif
#   From: 2010.05.17/outbox.cif.g08.bks.cpg/sg5_28_cif.got.tgz:55035.got - 2010.06.03 18:56:24.
