data_PCOD9127915
_publ_section_title
;
Structure prediction by ZEFSAII (Michael W. Deem and Ramdas Pophale) SiO2 
 PCOD9127915
Probable space group: C 2
;
_chemical_formula_sum "Si O2"
_cell_formula_units_Z 24
_cell_length_a 8.824364
_cell_length_b 11.291961
_cell_length_c 9.862225
_cell_angle_alpha 90.000000
_cell_angle_beta 88.310389
_cell_angle_gamma 90.000000
_cell_volume 982.287976
_symmetry_space_group_name_H-M "C 2"
_symmetry_group_IT_number 5
_symmetry_cell_setting 'monoclinic'
loop_
_space_group_symop_operation_xyz
x,y,z
-x,y,-z
1/2+x,1/2+y,z
1/2-x,1/2+y,-z
loop_
_atom_site_type_symbol
_atom_site_label
_atom_site_fract_x
_atom_site_fract_y
_atom_site_fract_z
Si Si1 0.220867 0.808120 0.216769
Si Si2 0.371895 0.691405 0.609148
Si Si3 0.054426 0.688250 0.695089
Si Si4 0.052932 0.095563 0.845925
Si Si5 0.026903 0.424311 0.263815
Si Si6 0.702336 0.351642 0.905851
O O1 0.315600 0.687072 0.196246
O O2 0.348821 0.896551 0.263720
O O3 0.077845 0.785147 0.316019
O O4 0.172932 0.843520 0.065843
O O5 0.500000 0.653710 0.500000
O O6 0.193807 0.675207 0.587231
O O7 0.419738 0.620198 0.743253
O O8 0.397972 0.832750 0.632096
O O9 0.970411 0.563447 0.713518
O O10 0.141139 0.735709 0.829330
O O11 0.118684 0.964276 0.843213
O O12 0.000000 0.120461 0.000000
O O13 0.120618 0.381711 0.128234
#
# Coordination Sequence:
#
# PCOD9127915 Si02
#       6
#     4   4   4   4   4   4
#     4  11  22  37  63 100 136 180 223 277 337 409
#     4  10  25  50  69  96 138 182 233 292 342 404
#     4  11  23  41  65  96 129 183 230 280 340 410
#     4  11  22  41  67 100 140 181 223 281 344 405
#     4  10  23  44  64  94 136 180 226 280 341 408
#     4  11  23  37  63 102 145 176 223 278 340 410
#
# _framework density 24.432753000000002
#
# number of rings (size 3 to 8) (size 9 to 14) (size 15 to 20)
#    0.000    1.333    1.667    5.000    7.000    1.333 
#    6.000    3.333    0.000    1.000    0.000    0.000 
#    0.000    0.000    0.000    0.000    0.000    0.000 
#
# Total GULP energy -67087.856047 kJ/mol
# GULP energy per Si atom -5590.654671 kJ/mol
# Density = 2.437714 g / cm^3
# Si number density = 24.432753 Si / 1000 Ang^3
#
#
#
# Elastic Constant Matrix: (Units=GPa)
#
#
# Indices 1 2 3 4 5 6 
#
# 1 147.3866 9.2058 23.7177 0.0000 -36.8081 0.0000
# 2 9.2058 87.8977 -6.0364 0.0000 14.1637 0.0000
# 3 23.7177 -6.0364 66.0388 0.0000 -13.8383 0.0000
# 4 0.0000 0.0000 0.0000 5.2777 0.0000 3.6583
# 5 -36.8081 14.1637 -13.8383 0.0000 36.6595 0.0000
# 6 0.0000 0.0000 0.0000 3.6583 0.0000 41.3593
#
#
#
# Elastic Compliance Matrix: (Units=1/GPa)
#
#
# Indices 1 2 3 4 5 6 
#
# 1 0.009792 -0.002797 -0.001613 0.000000 0.010304 0.000000
# 2 -0.002797 0.012932 0.000598 0.000000 -0.007579 0.000000
# 3 -0.001613 0.000598 0.016711 0.000000 0.004457 0.000000
# 4 0.000000 0.000000 0.000000 0.201852 0.000000 -0.017854
# 5 0.010304 -0.007579 0.004457 0.000000 0.042234 0.000000
# 6 0.000000 0.000000 0.000000 -0.017854 0.000000 0.025758
#
#
# Mechanical properties :
#
#
# Convention : Reuss Voigt Hill
#
# Bulk Modulus (GPa) = 31.43494 39.45525 35.44509
# Shear Modulus (GPa) = 15.26689 34.95505 25.11097
#
# Velocity S-wave (km/s) = 2.50242 3.78651 3.20935
# Velocity P-wave (km/s) = 4.60905 5.94142 5.31713
#
# Compressibility (1/GPa) = 0.03181173
#
# Stress axis : x y z
#
# Youngs Moduli (GPa) = 102.12009 77.32726 59.84186
#
# Poissons Ratio (x) = 0.21626 0.09655
# Poissons Ratio (y) = 0.28560 -0.03581
# Poissons Ratio (z) = 0.16477 -0.04628
#
# Static dielectric constant tensor:
#      x y z
#    x 2.018490 0.000000 -0.023310 
#    y 0.000000 1.916270 0.000000 
#    z -0.023310 0.000000 1.979980 
# 
# From -- ./inp_files/35405.got.cif
#   From: 2010.05.17/outbox.cif.g08.bks.cpg/sg5_18_cif.got.tgz:35405.got - 2010.06.03 18:56:24.
