data_PCOD9127100
_publ_section_title
;
Structure prediction by ZEFSAII (Michael W. Deem and Ramdas Pophale) SiO2 
 PCOD9127100
Probable space group: C 2
;
_chemical_formula_sum "Si O2"
_cell_formula_units_Z 20
_cell_length_a 13.233266
_cell_length_b 4.793811
_cell_length_c 13.576477
_cell_angle_alpha 90.000000
_cell_angle_beta 100.947320
_cell_angle_gamma 90.000000
_cell_volume 845.588449
_symmetry_space_group_name_H-M "C 2"
_symmetry_group_IT_number 5
_symmetry_cell_setting 'monoclinic'
loop_
_space_group_symop_operation_xyz
x,y,z
-x,y,-z
1/2+x,1/2+y,z
1/2-x,1/2+y,-z
loop_
_atom_site_type_symbol
_atom_site_label
_atom_site_fract_x
_atom_site_fract_y
_atom_site_fract_z
Si Si1 0.480601 0.543720 0.687039
Si Si2 0.000000 0.667793 0.500000
Si Si3 0.225340 0.162322 0.057987
Si Si4 0.814486 0.288413 0.536295
Si Si5 0.569017 0.046204 0.812150
Si Si6 0.500000 0.751489 0.000000
O O1 0.509724 0.371464 0.595007
O O2 0.365576 0.656693 0.643704
O O3 0.504580 0.322448 0.776332
O O4 0.545588 0.815786 0.725547
O O5 0.904055 0.463375 0.499995
O O6 0.309194 0.100928 0.156612
O O7 0.105465 0.095213 0.048953
O O8 0.239183 0.484574 0.030832
O O9 0.728182 0.525792 0.532809
O O10 0.531049 0.927331 0.909602
#
# Coordination Sequence:
#
# PCOD9127100 Si02
#       6
#     4   2   4   4   4   2
#     4  12  25  47  75 109 146 187 248 305 353 439
#     4  12  26  50  78 100 154 200 234 312 376 420
#     4  10  22  43  73 101 142 188 238 290 357 430
#     4  12  25  47  77 106 147 199 245 302 369 436
#     4  11  24  44  72 108 145 186 247 297 355 440
#     4  10  24  48  74 102 148 194 224 298 374 408
#
# _framework density 23.652165
#
# number of rings (size 3 to 8) (size 9 to 14) (size 15 to 20)
#    0.000    0.800    4.000    3.000    0.000    7.200 
#    3.600    4.000    8.800    0.000    0.000    0.000 
#    0.000    0.000    0.000    0.000    0.000    0.000 
#
# Total GULP energy -55910.296572 kJ/mol
# GULP energy per Si atom -5591.029657 kJ/mol
# Density = 2.359833 g / cm^3
# Si number density = 23.652165 Si / 1000 Ang^3
#
#
#
# Elastic Constant Matrix: (Units=GPa)
#
#
# Indices 1 2 3 4 5 6 
#
# 1 144.5437 49.4717 61.0243 0.0000 41.1905 0.0000
# 2 49.4717 150.9024 52.6545 0.0000 34.5400 0.0000
# 3 61.0243 52.6545 109.6060 0.0000 42.1333 0.0000
# 4 0.0000 0.0000 0.0000 51.3326 0.0000 8.9431
# 5 41.1905 34.5400 42.1333 0.0000 47.8378 0.0000
# 6 0.0000 0.0000 0.0000 8.9431 0.0000 50.0485
#
#
#
# Elastic Compliance Matrix: (Units=1/GPa)
#
#
# Indices 1 2 3 4 5 6 
#
# 1 0.010061 -0.001025 -0.003120 0.000000 -0.005175 0.000000
# 2 -0.001025 0.008498 -0.002256 0.000000 -0.003266 0.000000
# 3 -0.003120 -0.002256 0.015550 0.000000 -0.009381 0.000000
# 4 0.000000 0.000000 0.000000 0.020107 0.000000 -0.003593
# 5 -0.005175 -0.003266 -0.009381 0.000000 0.035980 0.000000
# 6 0.000000 0.000000 0.000000 -0.003593 0.000000 0.020623
#
#
# Mechanical properties :
#
#
# Convention : Reuss Voigt Hill
#
# Bulk Modulus (GPa) = 46.93324 81.26144 64.09734
# Shear Modulus (GPa) = 38.24883 45.97056 42.10969
#
# Velocity S-wave (km/s) = 4.02573 4.41342 4.22403
# Velocity P-wave (km/s) = 6.44165 7.77190 7.13783
#
# Compressibility (1/GPa) = 0.02130686
#
# Stress axis : x y z
#
# Youngs Moduli (GPa) = 99.39285 117.68012 64.30692
#
# Poissons Ratio (x) = 0.12066 0.20062
# Poissons Ratio (y) = 0.10191 0.14508
# Poissons Ratio (z) = 0.31008 0.26549
#
# Static dielectric constant tensor:
#      x y z
#    x 1.920650 0.000000 0.044810 
#    y 0.000000 1.879580 0.000000 
#    z 0.044810 0.000000 1.899360 
# 
# From -- ./inp_files/53628.got.cif
#   From: 2010.05.17/outbox.cif.g08.bks.cpg/sg5_27_cif.got.tgz:53628.got - 2010.06.03 18:56:24.
