data_PCOD9127493
_publ_section_title
;
Structure prediction by ZEFSAII (Michael W. Deem and Ramdas Pophale) SiO2 
 PCOD9127493
Probable space group: C 2
;
_chemical_formula_sum "Si O2"
_cell_formula_units_Z 24
_cell_length_a 20.915987
_cell_length_b 10.350433
_cell_length_c 13.759621
_cell_angle_alpha 90.000000
_cell_angle_beta 161.460372
_cell_angle_gamma 90.000000
_cell_volume 947.145052
_symmetry_space_group_name_H-M "C 2"
_symmetry_group_IT_number 5
_symmetry_cell_setting 'monoclinic'
loop_
_space_group_symop_operation_xyz
x,y,z
-x,y,-z
1/2+x,1/2+y,z
1/2-x,1/2+y,-z
loop_
_atom_site_type_symbol
_atom_site_label
_atom_site_fract_x
_atom_site_fract_y
_atom_site_fract_z
Si Si1 0.580117 0.443290 0.724232
Si Si2 0.782124 0.664864 0.138139
Si Si3 0.387407 0.775327 0.617607
Si Si4 0.770336 0.008457 0.705705
Si Si5 0.387740 0.267477 0.589790
Si Si6 0.301096 0.778202 0.276574
O O1 0.500000 0.475253 0.500000
O O2 0.715831 0.553307 0.968167
O O3 0.409300 0.396792 0.555607
O O4 0.753824 0.430343 0.228816
O O5 0.588318 0.695553 0.925721
O O6 0.800797 0.808014 0.116364
O O7 0.798382 0.653384 0.397662
O O8 0.382040 0.927863 0.584052
O O9 0.315411 0.723335 0.407147
O O10 0.245774 0.770140 0.506074
O O11 0.000000 0.991657 0.000000
O O12 0.500000 0.144102 0.500000
O O13 0.607093 0.227625 0.943588
O O14 0.500000 0.765544 0.500000
#
# Coordination Sequence:
#
# PCOD9127493 Si02
#       6
#     4   4   4   4   4   4
#     4  11  30  53  80 127 170 220 285 346 429 508
#     4  11  28  55  85 123 170 222 283 355 427 503
#     4  10  24  50  79 121 164 214 286 339 416 505
#     4  10  24  48  80 115 163 216 280 336 419 494
#     4  12  25  45  84 116 159 224 278 343 413 500
#     4  10  22  47  78 116 158 213 273 344 421 497
#
# _framework density 25.339307000000002
#
# number of rings (size 3 to 8) (size 9 to 14) (size 15 to 20)
#    1.000    0.333    1.667    1.500    4.667   10.667 
#    3.000    1.667    0.000    0.000    0.000    0.000 
#    0.000    0.000    0.000    0.000    0.000    0.000 
#
# Total GULP energy -67109.786937 kJ/mol
# GULP energy per Si atom -5592.482245 kJ/mol
# Density = 2.528163 g / cm^3
# Si number density = 25.339307 Si / 1000 Ang^3
#
#
#
# Elastic Constant Matrix: (Units=GPa)
#
#
# Indices 1 2 3 4 5 6 
#
# 1 226.3470 48.5861 92.4859 0.0000 0.3429 0.0000
# 2 48.5861 163.9476 96.5962 0.0000 -1.8889 0.0000
# 3 92.4859 96.5962 202.5785 0.0000 -18.0378 0.0000
# 4 0.0000 0.0000 0.0000 43.0652 0.0000 3.1413
# 5 0.3429 -1.8889 -18.0378 0.0000 41.0768 0.0000
# 6 0.0000 0.0000 0.0000 3.1413 0.0000 30.7804
#
#
#
# Elastic Compliance Matrix: (Units=1/GPa)
#
#
# Indices 1 2 3 4 5 6 
#
# 1 0.005489 -0.000142 -0.002542 0.000000 -0.001169 0.000000
# 2 -0.000142 0.008569 -0.004148 0.000000 -0.001426 0.000000
# 3 -0.002542 -0.004148 0.008388 0.000000 0.003514 0.000000
# 4 0.000000 0.000000 0.000000 0.023395 0.000000 -0.002388
# 5 -0.001169 -0.001426 0.003514 0.000000 0.025832 0.000000
# 6 0.000000 0.000000 0.000000 -0.002388 0.000000 0.032732
#
#
# Mechanical properties :
#
#
# Convention : Reuss Voigt Hill
#
# Bulk Modulus (GPa) = 113.88415 118.68993 116.28704
# Shear Modulus (GPa) = 41.32338 46.66480 43.99409
#
# Velocity S-wave (km/s) = 4.04270 4.29604 4.17129
# Velocity P-wave (km/s) = 8.17511 8.45872 8.31812
#
# Compressibility (1/GPa) = 0.00878085
#
# Stress axis : x y z
#
# Youngs Moduli (GPa) = 182.18051 116.69561 119.22044
#
# Poissons Ratio (x) = 0.01661 0.30308
# Poissons Ratio (y) = 0.02593 0.49454
# Poissons Ratio (z) = 0.46314 0.48407
#
# Static dielectric constant tensor:
#      x y z
#    x 2.152160 0.000000 -0.058520 
#    y 0.000000 2.079640 0.000000 
#    z -0.058520 0.000000 2.005650 
# 
# From -- ./inp_files/24727.got.cif
#   From: 2010.05.17/outbox.cif.g08.bks.cpg/sg5_13_cif.got.tgz:24727.got - 2010.06.03 18:56:24.
