data_PCOD9127610
_publ_section_title
;
Structure prediction by ZEFSAII (Michael W. Deem and Ramdas Pophale) SiO2 
 PCOD9127610
Probable space group: C 2
;
_chemical_formula_sum "Si O2"
_cell_formula_units_Z 18
_cell_length_a 7.557965
_cell_length_b 7.078840
_cell_length_c 14.161903
_cell_angle_alpha 90.000000
_cell_angle_beta 84.305471
_cell_angle_gamma 90.000000
_cell_volume 753.945686
_symmetry_space_group_name_H-M "C 2"
_symmetry_group_IT_number 5
_symmetry_cell_setting 'monoclinic'
loop_
_space_group_symop_operation_xyz
x,y,z
-x,y,-z
1/2+x,1/2+y,z
1/2-x,1/2+y,-z
loop_
_atom_site_type_symbol
_atom_site_label
_atom_site_fract_x
_atom_site_fract_y
_atom_site_fract_z
Si Si1 0.967464 0.286010 0.711560
Si Si2 0.336515 0.015022 0.564916
Si Si3 0.000000 0.793665 0.000000
Si Si4 0.162084 0.935611 0.384537
Si Si5 0.620960 0.660188 0.078271
O O1 0.815257 0.392605 0.659598
O O2 0.150734 0.398099 0.681283
O O3 0.961657 0.076136 0.667183
O O4 0.923959 0.264447 0.822897
O O5 0.500000 0.920594 0.500000
O O6 0.397958 0.221622 0.594417
O O7 0.197448 0.020605 0.487212
O O8 0.172464 0.680955 0.958226
O O9 0.063121 0.939694 0.079102
O O10 0.500000 0.742080 0.000000
#
# Coordination Sequence:
#
# PCOD9127610 Si02
#       5
#     4   4   2   4   4
#     4  11  26  42  68 103 141 188 244 293 368 428
#     4  10  23  40  63  99 143 186 233 294 352 426
#     4  10  26  46  80  98 154 180 250 302 376 424
#     4  11  24  42  68  99 140 190 235 296 353 432
#     4  10  27  49  74 111 143 193 241 310 363 447
#
# _framework density 23.874400999999999
#
# number of rings (size 3 to 8) (size 9 to 14) (size 15 to 20)
#    0.667    0.889    2.222    0.000   10.889    0.000 
#    0.000    0.000    0.000    0.000    0.000    0.000 
#    0.000    0.000    0.000    0.000    0.000    0.000 
#
# Total GULP energy -50277.496360 kJ/mol
# GULP energy per Si atom -5586.388484 kJ/mol
# Density = 2.382006 g / cm^3
# Si number density = 23.874401 Si / 1000 Ang^3
#
#
#
# Elastic Constant Matrix: (Units=GPa)
#
#
# Indices 1 2 3 4 5 6 
#
# 1 132.5284 23.0276 33.4499 0.0000 -6.6032 0.0000
# 2 23.0276 106.0584 20.8922 0.0000 8.8976 0.0000
# 3 33.4499 20.8922 157.4517 0.0000 6.2265 0.0000
# 4 0.0000 0.0000 0.0000 -4.4725 0.0000 -15.9067
# 5 -6.6032 8.8976 6.2265 0.0000 20.7675 0.0000
# 6 0.0000 0.0000 0.0000 -15.9067 0.0000 27.1163
#
#
#
# Elastic Compliance Matrix: (Units=1/GPa)
#
#
# Indices 1 2 3 4 5 6 
#
# 1 0.008499 -0.001843 -0.001720 0.000000 0.004008 0.000000
# 2 -0.001843 0.010388 -0.000797 0.000000 -0.004798 0.000000
# 3 -0.001720 -0.000797 0.006912 0.000000 -0.002278 0.000000
# 4 0.000000 0.000000 0.000000 -0.072446 0.000000 -0.042497
# 5 0.004008 -0.004798 -0.002278 0.000000 0.052165 0.000000
# 6 0.000000 0.000000 0.000000 -0.042497 0.000000 0.011949
#
#
# Mechanical properties :
#
#
# Convention : Reuss Voigt Hill
#
# Bulk Modulus (GPa) = 58.54518 61.19754 59.87136
# Shear Modulus (GPa) = 156.83107 29.92685 93.37896
#
# Velocity S-wave (km/s) = 8.11373 3.54434 6.26079
# Velocity P-wave (km/s) = 10.59964 6.51449 8.79747
#
# Compressibility (1/GPa) = 0.01708083
#
# Stress axis : x y z
#
# Youngs Moduli (GPa) = 117.65430 96.26079 144.66896
#
# Poissons Ratio (x) = 0.17740 0.24878
# Poissons Ratio (y) = 0.21682 0.11533
# Poissons Ratio (z) = 0.20232 0.07674
#
# Static dielectric constant tensor:
#      x y z
#    x 2.044930 0.000000 -0.005990 
#    y 0.000000 1.939820 0.000000 
#    z -0.005990 0.000000 1.887110 
# 
# From -- ./inp_files/34771.got.cif
#   From: 2010.05.17/outbox.cif.g08.bks.cpg/sg5_18_cif.got.tgz:34771.got - 2010.06.03 18:56:24.
