data_PCOD9127340
_publ_section_title
;
Structure prediction by ZEFSAII (Michael W. Deem and Ramdas Pophale) SiO2 
 PCOD9127340
Probable space group: C 2
;
_chemical_formula_sum "Si O2"
_cell_formula_units_Z 28
_cell_length_a 11.517392
_cell_length_b 9.268975
_cell_length_c 14.227811
_cell_angle_alpha 90.000000
_cell_angle_beta 56.710052
_cell_angle_gamma 90.000000
_cell_volume 1269.638778
_symmetry_space_group_name_H-M "C 2"
_symmetry_group_IT_number 5
_symmetry_cell_setting 'monoclinic'
loop_
_space_group_symop_operation_xyz
x,y,z
-x,y,-z
1/2+x,1/2+y,z
1/2-x,1/2+y,-z
loop_
_atom_site_type_symbol
_atom_site_label
_atom_site_fract_x
_atom_site_fract_y
_atom_site_fract_z
Si Si1 0.732192 0.509720 0.819292
Si Si2 0.846553 0.332327 0.929850
Si Si3 0.403659 0.755647 0.401962
Si Si4 0.677145 0.309694 0.194050
Si Si5 0.370970 0.968199 0.250886
Si Si6 0.711743 0.755881 0.346657
Si Si7 0.504564 0.563696 0.794231
O O1 0.741177 0.419515 0.910287
O O2 0.841498 0.640903 0.775964
O O3 0.756786 0.403009 0.721234
O O4 0.581597 0.568701 0.859730
O O5 0.881332 0.180852 0.862849
O O6 0.987675 0.426294 0.865778
O O7 0.784570 0.311148 0.059323
O O8 0.556452 0.724136 0.376809
O O9 0.300872 0.762454 0.535205
O O10 0.391061 0.630779 0.329583
O O11 0.393677 0.901397 0.344734
O O12 0.747632 0.382697 0.253002
O O13 0.551822 0.410539 0.215108
O O14 0.322252 0.132613 0.272180
#
# Coordination Sequence:
#
# PCOD9127340 Si02
#       7
#     4   4   4   4   4   4   4
#     4  12  25  43  69 101 139 174 233 287 332 411
#     4  11  24  45  65  98 141 181 223 281 345 395
#     4  10  22  45  70  93 142 179 222 283 347 398
#     4  12  24  41  73  96 135 185 227 277 343 405
#     4  11  22  43  70  97 135 180 221 279 338 410
#     4  11  24  43  71  99 140 180 224 284 348 404
#     4  11  24  46  66  98 140 177 229 285 331 411
#
# _framework density 22.053516999999999
#
# number of rings (size 3 to 8) (size 9 to 14) (size 15 to 20)
#    0.000    0.857    7.143    1.286    4.000    1.714 
#    0.000    0.000    9.429    0.000    0.000    0.000 
#    0.000    0.000    0.000    0.000    0.000    0.000 
#
# Total GULP energy -78223.657331 kJ/mol
# GULP energy per Si atom -5587.404095 kJ/mol
# Density = 2.200332 g / cm^3
# Si number density = 22.053517 Si / 1000 Ang^3
#
#
#
# Elastic Constant Matrix: (Units=GPa)
#
#
# Indices 1 2 3 4 5 6 
#
# 1 83.7906 33.7143 -1.4603 0.0000 22.3141 0.0000
# 2 33.7143 166.3913 43.8505 0.0000 7.8449 0.0000
# 3 -1.4603 43.8505 89.9008 0.0000 11.5859 0.0000
# 4 0.0000 0.0000 0.0000 14.3570 0.0000 8.8471
# 5 22.3141 7.8449 11.5859 0.0000 23.2264 0.0000
# 6 0.0000 0.0000 0.0000 8.8471 0.0000 47.6162
#
#
#
# Elastic Compliance Matrix: (Units=1/GPa)
#
#
# Indices 1 2 3 4 5 6 
#
# 1 0.018752 -0.004165 0.004784 0.000000 -0.018995 0.000000
# 2 -0.004165 0.007832 -0.004342 0.000000 0.003522 0.000000
# 3 0.004784 -0.004342 0.014665 0.000000 -0.010445 0.000000
# 4 0.000000 0.000000 0.000000 0.078659 0.000000 -0.014615
# 5 -0.018995 0.003522 -0.010445 0.000000 0.065324 0.000000
# 6 0.000000 0.000000 0.000000 -0.014615 0.000000 0.023717
#
#
# Mechanical properties :
#
#
# Convention : Reuss Voigt Hill
#
# Bulk Modulus (GPa) = 29.58201 54.69908 42.14054
# Shear Modulus (GPa) = 21.96242 34.63846 28.30044
#
# Velocity S-wave (km/s) = 3.15916 3.96745 3.58615
# Velocity P-wave (km/s) = 5.17203 6.77084 6.02471
#
# Compressibility (1/GPa) = 0.03380433
#
# Stress axis : x y z
#
# Youngs Moduli (GPa) = 53.32681 127.68192 68.19015
#
# Poissons Ratio (x) = 0.53177 -0.32623
# Poissons Ratio (y) = 0.22210 0.29606
# Poissons Ratio (z) = -0.25512 0.55435
#
# Static dielectric constant tensor:
#      x y z
#    x 1.884390 0.000000 -0.012280 
#    y 0.000000 1.845810 0.000000 
#    z -0.012280 0.000000 1.795380 
# 
# From -- ./inp_files/52196.got.cif
#   From: 2010.05.17/outbox.cif.g08.bks.cpg/sg5_27_cif.got.tgz:52196.got - 2010.06.03 18:56:24.
