data_PCOD9127886
_publ_section_title
;
Structure prediction by ZEFSAII (Michael W. Deem and Ramdas Pophale) SiO2 
 PCOD9127886
Probable space group: C 2
;
_chemical_formula_sum "Si O2"
_cell_formula_units_Z 26
_cell_length_a 6.720890
_cell_length_b 19.801793
_cell_length_c 9.345638
_cell_angle_alpha 90.000000
_cell_angle_beta 60.440348
_cell_angle_gamma 90.000000
_cell_volume 1081.884520
_symmetry_space_group_name_H-M "C 2"
_symmetry_group_IT_number 5
_symmetry_cell_setting 'monoclinic'
loop_
_space_group_symop_operation_xyz
x,y,z
-x,y,-z
1/2+x,1/2+y,z
1/2-x,1/2+y,-z
loop_
_atom_site_type_symbol
_atom_site_label
_atom_site_fract_x
_atom_site_fract_y
_atom_site_fract_z
Si Si1 0.500000 0.935261 0.500000
Si Si2 0.713020 0.595062 0.859344
Si Si3 0.500000 0.713383 0.500000
Si Si4 0.980588 0.324828 0.754202
Si Si5 0.639829 0.324225 0.130703
Si Si6 0.500000 0.026342 0.000000
Si Si7 0.010294 0.971410 0.758046
Si Si8 0.522244 0.202074 0.644139
O O1 0.486384 0.889345 0.647658
O O2 0.245755 0.970562 0.574658
O O3 0.599233 0.529297 0.832000
O O4 0.837963 0.643773 0.707037
O O5 0.894074 0.571709 0.912513
O O6 0.500000 0.636033 0.000000
O O7 0.502929 0.762054 0.637749
O O8 0.728956 0.671217 0.421506
O O9 0.761687 0.319613 0.935035
O O10 0.179335 0.328508 0.801986
O O11 0.502604 0.393803 0.189478
O O12 0.510129 0.256009 0.219113
O O13 0.729663 0.988351 0.852362
O O14 0.500000 0.239019 0.500000
#
# Coordination Sequence:
#
# PCOD9127886 Si02
#       8
#     2   4   2   4   4   2   4   4
#     4  11  26  40  70 112 164 188 257 328 402 451
#     4  10  27  50  78 105 153 208 267 322 393 487
#     4  11  24  44  70 108 164 192 255 320 410 459
#     4  10  23  43  70 117 152 200 252 334 394 475
#     4  11  24  43  79 109 152 203 266 317 403 462
#     4  10  24  52  78 104 152 208 274 314 392 496
#     4  11  26  47  75 113 151 207 259 332 386 478
#     4  12  27  48  74 113 158 204 260 335 395 475
#
# _framework density 24.032139000000001
#
# number of rings (size 3 to 8) (size 9 to 14) (size 15 to 20)
#    0.000    1.231    1.538    2.769   11.846    5.538 
#    0.000    0.000    0.000    0.000    0.000    0.000 
#    0.000    0.000    0.000    0.000    0.000    0.000 
#
# Total GULP energy -72476.710856 kJ/mol
# GULP energy per Si atom -5575.131604 kJ/mol
# Density = 2.397744 g / cm^3
# Si number density = 24.032139 Si / 1000 Ang^3
#
#
#
# Elastic Constant Matrix: (Units=GPa)
#
#
# Indices 1 2 3 4 5 6 
#
# 1 134.0066 26.5264 63.5737 0.0000 -26.5502 0.0000
# 2 26.5264 61.9496 36.1955 0.0000 -7.8974 0.0000
# 3 63.5737 36.1955 165.8919 0.0000 -20.3872 0.0000
# 4 0.0000 0.0000 0.0000 36.9847 0.0000 -8.4677
# 5 -26.5502 -7.8974 -20.3872 0.0000 56.9695 0.0000
# 6 0.0000 0.0000 0.0000 -8.4677 0.0000 17.4929
#
#
#
# Elastic Compliance Matrix: (Units=1/GPa)
#
#
# Indices 1 2 3 4 5 6 
#
# 1 0.009925 -0.002114 -0.002939 0.000000 0.003281 0.000000
# 2 -0.002114 0.019026 -0.003282 0.000000 0.000477 0.000000
# 3 -0.002939 -0.003282 0.007998 0.000000 0.001037 0.000000
# 4 0.000000 0.000000 0.000000 0.030408 0.000000 0.014720
# 5 0.003281 0.000477 0.001037 0.000000 0.019520 0.000000
# 6 0.000000 0.000000 0.000000 0.014720 0.000000 0.064291
#
#
# Mechanical properties :
#
#
# Convention : Reuss Voigt Hill
#
# Bulk Modulus (GPa) = 49.31509 68.27101 58.79305
# Shear Modulus (GPa) = 28.63698 37.99292 33.31495
#
# Velocity S-wave (km/s) = 3.45572 3.98039 3.72730
# Velocity P-wave (km/s) = 6.04050 7.04234 6.56057
#
# Compressibility (1/GPa) = 0.02027777
#
# Stress axis : x y z
#
# Youngs Moduli (GPa) = 100.75408 52.55916 125.03165
#
# Poissons Ratio (x) = 0.11113 0.36747
# Poissons Ratio (y) = 0.21304 0.41039
# Poissons Ratio (z) = 0.29612 0.17251
#
# Static dielectric constant tensor:
#      x y z
#    x 1.990640 0.000000 -0.106460 
#    y 0.000000 1.843470 0.000000 
#    z -0.106460 0.000000 2.005460 
# 
# From -- ./inp_files/33894.got.cif
#   From: 2010.05.17/outbox.cif.g08.bks.cpg/sg5_17_cif.got.tgz:33894.got - 2010.06.03 18:56:24.
