data_PCOD9127017
_publ_section_title
;
Structure prediction by ZEFSAII (Michael W. Deem and Ramdas Pophale) SiO2 
 PCOD9127017
Probable space group: C 2
;
_chemical_formula_sum "Si O2"
_cell_formula_units_Z 28
_cell_length_a 15.804808
_cell_length_b 16.072165
_cell_length_c 5.518989
_cell_angle_alpha 90.000000
_cell_angle_beta 113.291468
_cell_angle_gamma 90.000000
_cell_volume 1287.670626
_symmetry_space_group_name_H-M "C 2"
_symmetry_group_IT_number 5
_symmetry_cell_setting 'monoclinic'
loop_
_space_group_symop_operation_xyz
x,y,z
-x,y,-z
1/2+x,1/2+y,z
1/2-x,1/2+y,-z
loop_
_atom_site_type_symbol
_atom_site_label
_atom_site_fract_x
_atom_site_fract_y
_atom_site_fract_z
Si Si1 0.826238 0.067460 0.288394
Si Si2 0.224320 0.394583 0.669222
Si Si3 0.396943 0.814384 0.865916
Si Si4 0.243977 0.232753 0.982129
Si Si5 0.135851 0.492298 0.942099
Si Si6 0.104094 0.994565 0.154802
Si Si7 0.449853 0.164954 0.191310
O O1 0.806318 0.165194 0.241661
O O2 0.886868 0.052078 0.595807
O O3 0.865925 0.034172 0.073169
O O4 0.725518 0.021856 0.197020
O O5 0.146746 0.348778 0.428388
O O6 0.250192 0.326817 0.898756
O O7 0.177326 0.477070 0.722551
O O8 0.323890 0.422129 0.688988
O O9 0.500000 0.780554 0.000000
O O10 0.323548 0.745484 0.868032
O O11 0.399787 0.901580 0.022066
O O12 0.346977 0.199326 0.115686
O O13 0.062845 0.565395 0.854138
O O14 0.000000 0.965678 0.000000
O O15 0.500000 0.183206 0.500000
O O16 0.500000 0.195019 0.000000
#
# Coordination Sequence:
#
# PCOD9127017 Si02
#       7
#     4   4   4   4   4   4   4
#     4  10  22  43  66  94 137 176 222 283 336 400
#     4  10  23  43  67  94 144 175 232 286 350 406
#     4  11  23  41  68 100 136 187 231 285 353 416
#     4  10  26  44  65 101 143 185 225 294 349 417
#     4   9  21  39  65  99 132 178 224 289 338 410
#     4  11  23  43  69  99 128 183 232 279 336 408
#     4  11  26  43  72 105 139 184 234 286 355 420
#
# _framework density 21.744691
#
# number of rings (size 3 to 8) (size 9 to 14) (size 15 to 20)
#    0.000    1.714    1.429    0.857    8.000    5.143 
#    2.571    0.000    0.000    0.000    0.000    0.000 
#    0.000    0.000    0.000    0.000    0.000    0.000 
#
# Total GULP energy -77991.673813 kJ/mol
# GULP energy per Si atom -5570.833844 kJ/mol
# Density = 2.169520 g / cm^3
# Si number density = 21.744691 Si / 1000 Ang^3
#
#
#
# Elastic Constant Matrix: (Units=GPa)
#
#
# Indices 1 2 3 4 5 6 
#
# 1 92.0425 17.9920 32.1833 0.0000 2.0690 0.0000
# 2 17.9920 40.2476 -3.3710 0.0000 -3.1614 0.0000
# 3 32.1833 -3.3710 103.6051 0.0000 -1.9437 0.0000
# 4 0.0000 0.0000 0.0000 0.1302 0.0000 -4.5150
# 5 2.0690 -3.1614 -1.9437 0.0000 22.6169 0.0000
# 6 0.0000 0.0000 0.0000 -4.5150 0.0000 32.8997
#
#
#
# Elastic Compliance Matrix: (Units=1/GPa)
#
#
# Indices 1 2 3 4 5 6 
#
# 1 0.013846 -0.006777 -0.004570 0.000000 -0.002607 0.000000
# 2 -0.006777 0.028520 0.003125 0.000000 0.004875 0.000000
# 3 -0.004570 0.003125 0.011208 0.000000 0.001818 0.000000
# 4 0.000000 0.000000 0.000000 -2.043248 0.000000 -0.280403
# 5 -0.002607 0.004875 0.001818 0.000000 0.045291 0.000000
# 6 0.000000 0.000000 0.000000 -0.280403 0.000000 -0.008085
#
#
# Mechanical properties :
#
#
# Convention : Reuss Voigt Hill
#
# Bulk Modulus (GPa) = 26.93382 36.61154 31.77268
# Shear Modulus (GPa) = -2.59923 23.73541 10.56809
#
# Velocity S-wave (km/s) = -1.09450 3.30744 2.20695
# Velocity P-wave (km/s) = 3.28877 5.60885 4.59756
#
# Compressibility (1/GPa) = 0.03712804
#
# Stress axis : x y z
#
# Youngs Moduli (GPa) = 72.22302 35.06257 89.22552
#
# Poissons Ratio (x) = 0.23763 0.40780
# Poissons Ratio (y) = 0.48947 -0.27880
# Poissons Ratio (z) = 0.33009 -0.10956
#
# Static dielectric constant tensor:
#      x y z
#    x 1.922390 0.000000 -0.053360 
#    y 0.000000 1.792430 0.000000 
#    z -0.053360 0.000000 1.830890 
# 
# From -- ./inp_files/7346.got.cif
#   From: 2010.05.17/outbox.cif.g08.bks.cpg/sg5_4_cif.got.tgz:7346.got - 2010.06.03 18:56:24.
