data_PCOD9127764
_publ_section_title
;
Structure prediction by ZEFSAII (Michael W. Deem and Ramdas Pophale) SiO2 
 PCOD9127764
Probable space group: C 2
;
_chemical_formula_sum "Si O2"
_cell_formula_units_Z 20
_cell_length_a 7.423347
_cell_length_b 13.207427
_cell_length_c 10.402491
_cell_angle_alpha 90.000000
_cell_angle_beta 83.584559
_cell_angle_gamma 90.000000
_cell_volume 1013.507946
_symmetry_space_group_name_H-M "C 2"
_symmetry_group_IT_number 5
_symmetry_cell_setting 'monoclinic'
loop_
_space_group_symop_operation_xyz
x,y,z
-x,y,-z
1/2+x,1/2+y,z
1/2-x,1/2+y,-z
loop_
_atom_site_type_symbol
_atom_site_label
_atom_site_fract_x
_atom_site_fract_y
_atom_site_fract_z
Si Si1 0.000000 0.138260 0.000000
Si Si2 0.293633 0.708510 0.491678
Si Si3 0.697620 0.886279 0.307416
Si Si4 0.857680 0.292386 0.206023
Si Si5 0.558329 0.442203 0.132640
Si Si6 0.000000 0.544736 0.500000
O O1 0.130951 0.209210 0.906864
O O2 0.906708 0.059556 0.907558
O O3 0.500000 0.676396 0.500000
O O4 0.257189 0.804172 0.586218
O O5 0.284493 0.743492 0.344190
O O6 0.159129 0.618267 0.532993
O O7 0.562126 0.831756 0.217821
O O8 0.579346 0.973460 0.383338
O O9 0.880937 0.930742 0.234613
O O10 0.728028 0.384227 0.176954
O O11 0.500000 0.394669 0.000000
#
# Coordination Sequence:
#
# PCOD9127764 Si02
#       6
#     2   4   4   4   4   2
#     4  10  24  42  66  96 130 176 230 258 322 398
#     4  10  23  42  66 103 134 171 215 273 334 395
#     4  11  23  43  66 102 133 167 225 267 331 398
#     4  11  21  45  67  93 141 167 217 285 316 387
#     4  10  24  42  65  97 126 179 224 262 324 387
#     4  12  22  40  66  96 136 174 208 264 334 392
#
# _framework density 19.733443000000001
#
# number of rings (size 3 to 8) (size 9 to 14) (size 15 to 20)
#    0.600    0.800    3.000    3.600    0.000    4.800 
#    1.800    6.000    0.000    0.000    0.000    0.000 
#    0.000    0.000    0.000    0.000    0.000    0.000 
#
# Total GULP energy -55837.571045 kJ/mol
# GULP energy per Si atom -5583.757105 kJ/mol
# Density = 1.968853 g / cm^3
# Si number density = 19.733443 Si / 1000 Ang^3
#
#
#
# Elastic Constant Matrix: (Units=GPa)
#
#
# Indices 1 2 3 4 5 6 
#
# 1 39.6286 50.2824 52.0741 0.0000 -9.8873 0.0000
# 2 50.2824 131.8948 52.9310 0.0000 -14.2606 0.0000
# 3 52.0741 52.9310 103.1510 0.0000 -18.4023 0.0000
# 4 0.0000 0.0000 0.0000 120.3099 0.0000 51.1610
# 5 -9.8873 -14.2606 -18.4023 0.0000 14.0714 0.0000
# 6 0.0000 0.0000 0.0000 51.1610 0.0000 73.4519
#
#
#
# Elastic Compliance Matrix: (Units=1/GPa)
#
#
# Indices 1 2 3 4 5 6 
#
# 1 0.124734 -0.028325 -0.049460 0.000000 -0.005744 0.000000
# 2 -0.028325 0.016180 0.007006 0.000000 0.005657 0.000000
# 3 -0.049460 0.007006 0.034088 0.000000 0.016927 0.000000
# 4 0.000000 0.000000 0.000000 0.011810 0.000000 -0.008226
# 5 -0.005744 0.005657 0.016927 0.000000 0.094901 0.000000
# 6 0.000000 0.000000 0.000000 -0.008226 0.000000 0.019344
#
#
# Mechanical properties :
#
#
# Convention : Reuss Voigt Hill
#
# Bulk Modulus (GPa) = 29.89998 65.02772 47.46385
# Shear Modulus (GPa) = 11.01899 49.52577 30.27238
#
# Velocity S-wave (km/s) = 2.36559 5.01516 3.92096
# Velocity P-wave (km/s) = 4.75880 8.15846 6.67857
#
# Compressibility (1/GPa) = 0.03344484
#
# Stress axis : x y z
#
# Youngs Moduli (GPa) = 8.01708 61.80402 29.33547
#
# Poissons Ratio (x) = 1.75057 1.45093
# Poissons Ratio (y) = 0.22708 -0.20552
# Poissons Ratio (z) = 0.39652 -0.43298
#
# Static dielectric constant tensor:
#      x y z
#    x 1.678580 0.000000 0.007790 
#    y 0.000000 1.688310 0.000000 
#    z 0.007790 0.000000 1.677250 
# 
# From -- ./inp_files/35187.got.cif
#   From: 2010.05.17/outbox.cif.g08.bks.cpg/sg5_18_cif.got.tgz:35187.got - 2010.06.03 18:56:24.
