data_PCOD9127363
_publ_section_title
;
Structure prediction by ZEFSAII (Michael W. Deem and Ramdas Pophale) SiO2 
 PCOD9127363
Probable space group: C 2
;
_chemical_formula_sum "Si O2"
_cell_formula_units_Z 20
_cell_length_a 11.129900
_cell_length_b 9.915888
_cell_length_c 7.539568
_cell_angle_alpha 90.000000
_cell_angle_beta 109.238208
_cell_angle_gamma 90.000000
_cell_volume 785.621731
_symmetry_space_group_name_H-M "C 2"
_symmetry_group_IT_number 5
_symmetry_cell_setting 'monoclinic'
loop_
_space_group_symop_operation_xyz
x,y,z
-x,y,-z
1/2+x,1/2+y,z
1/2-x,1/2+y,-z
loop_
_atom_site_type_symbol
_atom_site_label
_atom_site_fract_x
_atom_site_fract_y
_atom_site_fract_z
Si Si1 0.282502 0.439470 0.589225
Si Si2 0.500670 0.645965 0.787667
Si Si3 0.511006 0.229195 0.291585
Si Si4 0.574011 0.941918 0.782028
Si Si5 0.710689 0.429115 0.819540
O O1 0.379202 0.565503 0.655206
O O2 0.363928 0.311891 0.700222
O O3 0.161299 0.465113 0.651168
O O4 0.257813 0.412519 0.371402
O O5 0.506265 0.799228 0.729671
O O6 0.626555 0.564429 0.793014
O O7 0.500000 0.642349 0.000000
O O8 0.500000 0.236925 0.500000
O O9 0.385884 0.309761 0.167444
O O10 0.508811 0.075496 0.233318
O O11 0.669399 0.929776 0.994692
#
# Coordination Sequence:
#
# PCOD9127363 Si02
#       5
#     4   4   4   4   4
#     4  10  24  49  71  95 140 184 221 282 348 402
#     4  11  23  46  69 102 141 182 227 281 341 413
#     4   9  22  45  66 101 138 170 229 282 332 408
#     4  12  24  45  71 101 138 179 228 284 337 401
#     4  10  22  45  72  99 136 181 226 280 344 404
#
# _framework density 25.457545
#
# number of rings (size 3 to 8) (size 9 to 14) (size 15 to 20)
#    0.000    1.600    2.000    3.000    0.000    4.800 
#   14.400    2.000    0.000    0.000    0.000    0.000 
#    0.000    0.000    0.000    0.000    0.000    0.000 
#
# Total GULP energy -56182.763916 kJ/mol
# GULP energy per Si atom -5618.276392 kJ/mol
# Density = 2.539960 g / cm^3
# Si number density = 25.457545 Si / 1000 Ang^3
#
#
#
# Elastic Constant Matrix: (Units=GPa)
#
#
# Indices 1 2 3 4 5 6 
#
# 1 100.4888 69.4502 24.3318 0.0000 2.6008 0.0000
# 2 69.4502 218.9665 8.8229 0.0000 20.4741 0.0000
# 3 24.3318 8.8229 111.5088 0.0000 -7.4961 0.0000
# 4 0.0000 0.0000 0.0000 28.7503 0.0000 -3.5105
# 5 2.6008 20.4741 -7.4961 0.0000 26.9268 0.0000
# 6 0.0000 0.0000 0.0000 -3.5105 0.0000 23.2204
#
#
#
# Elastic Compliance Matrix: (Units=1/GPa)
#
#
# Indices 1 2 3 4 5 6 
#
# 1 0.013500 -0.004298 -0.002521 0.000000 0.001263 0.000000
# 2 -0.004298 0.006332 0.000144 0.000000 -0.004359 0.000000
# 3 -0.002521 0.000144 0.009697 0.000000 0.002834 0.000000
# 4 0.000000 0.000000 0.000000 0.035436 0.000000 0.005357
# 5 0.001263 -0.004359 0.002834 0.000000 0.041119 0.000000
# 6 0.000000 0.000000 0.000000 0.005357 0.000000 0.043875
#
#
# Mechanical properties :
#
#
# Convention : Reuss Voigt Hill
#
# Bulk Modulus (GPa) = 61.81055 70.68601 66.24828
# Shear Modulus (GPa) = 29.63790 37.67011 33.65401
#
# Velocity S-wave (km/s) = 3.41575 3.85089 3.63983
# Velocity P-wave (km/s) = 6.31578 6.89920 6.61393
#
# Compressibility (1/GPa) = 0.01617847
#
# Stress axis : x y z
#
# Youngs Moduli (GPa) = 74.07617 157.92787 103.12412
#
# Poissons Ratio (x) = 0.67880 0.25995
# Poissons Ratio (y) = 0.31839 -0.01483
# Poissons Ratio (z) = 0.18673 -0.02271
#
# Static dielectric constant tensor:
#      x y z
#    x 1.972340 0.000000 0.005720 
#    y 0.000000 1.960960 0.000000 
#    z 0.005720 0.000000 1.973170 
# 
# From -- ./inp_files/18352.got.cif
#   From: 2010.05.17/outbox.cif.g08.bks.cpg/sg5_10_cif.got.tgz:18352.got - 2010.06.03 18:56:24.
