data_PCOD9127157
_publ_section_title
;
Structure prediction by ZEFSAII (Michael W. Deem and Ramdas Pophale) SiO2 
 PCOD9127157
Probable space group: C 2
;
_chemical_formula_sum "Si O2"
_cell_formula_units_Z 28
_cell_length_a 14.664999
_cell_length_b 11.466829
_cell_length_c 8.910359
_cell_angle_alpha 90.000000
_cell_angle_beta 56.289660
_cell_angle_gamma 90.000000
_cell_volume 1246.429369
_symmetry_space_group_name_H-M "C 2"
_symmetry_group_IT_number 5
_symmetry_cell_setting 'monoclinic'
loop_
_space_group_symop_operation_xyz
x,y,z
-x,y,-z
1/2+x,1/2+y,z
1/2-x,1/2+y,-z
loop_
_atom_site_type_symbol
_atom_site_label
_atom_site_fract_x
_atom_site_fract_y
_atom_site_fract_z
Si Si1 0.383988 0.857450 0.774779
Si Si2 0.391198 0.237614 0.531978
Si Si3 0.711281 0.013733 0.396164
Si Si4 0.550299 0.401284 0.794110
Si Si5 0.745892 0.411207 0.167293
Si Si6 0.066927 0.484352 0.806058
Si Si7 0.421390 0.585289 0.713045
O O1 0.476313 0.926796 0.782622
O O2 0.419934 0.723687 0.736650
O O3 0.357041 0.922395 0.643358
O O4 0.275301 0.867246 0.976210
O O5 0.500000 0.180095 0.500000
O O6 0.294637 0.145887 0.654928
O O7 0.424011 0.292945 0.341551
O O8 0.355344 0.346679 0.664778
O O9 0.832026 0.963956 0.297709
O O10 0.652079 0.036654 0.610263
O O11 0.470043 0.500179 0.796655
O O12 0.500000 0.365713 0.000000
O O13 0.853063 0.398423 0.173357
O O14 0.703867 0.543991 0.198760
O O15 0.000000 0.549621 0.000000
O O16 0.500000 0.564868 0.500000
#
# Coordination Sequence:
#
# PCOD9127157 Si02
#       7
#     4   4   4   4   4   4   4
#     4  11  27  42  73 105 143 182 246 290 354 423
#     4  12  25  48  72  96 152 189 233 298 358 433
#     4  12  26  46  71 109 143 186 237 300 364 415
#     4  12  27  46  72 110 142 190 248 289 360 432
#     4  11  23  45  67 103 135 190 229 289 360 412
#     4  10  22  44  67 100 137 180 235 282 349 420
#     4  12  23  47  73  99 141 187 237 295 345 433
#
# _framework density 22.464169999999999
#
# number of rings (size 3 to 8) (size 9 to 14) (size 15 to 20)
#    0.000    0.571    4.286    3.000    6.000    3.429 
#    0.000    0.000    0.000    0.000    0.000    0.000 
#    0.000    0.000    0.000    0.000    0.000    0.000 
#
# Total GULP energy -78115.927037 kJ/mol
# GULP energy per Si atom -5579.709074 kJ/mol
# Density = 2.241304 g / cm^3
# Si number density = 22.464170 Si / 1000 Ang^3
#
#
#
# Elastic Constant Matrix: (Units=GPa)
#
#
# Indices 1 2 3 4 5 6 
#
# 1 108.7773 23.0694 18.3028 0.0000 0.0821 0.0000
# 2 23.0694 78.5520 11.1544 0.0000 8.8110 0.0000
# 3 18.3028 11.1544 129.0326 0.0000 -4.1330 0.0000
# 4 0.0000 0.0000 0.0000 14.4744 0.0000 -0.2993
# 5 0.0821 8.8110 -4.1330 0.0000 31.2222 0.0000
# 6 0.0000 0.0000 0.0000 -0.2993 0.0000 -6.6004
#
#
#
# Elastic Compliance Matrix: (Units=1/GPa)
#
#
# Indices 1 2 3 4 5 6 
#
# 1 0.009989 -0.002840 -0.001151 0.000000 0.000623 0.000000
# 2 -0.002840 0.014161 -0.000953 0.000000 -0.004115 0.000000
# 3 -0.001151 -0.000953 0.008039 0.000000 0.001336 0.000000
# 4 0.000000 0.000000 0.000000 0.069023 0.000000 -0.003130
# 5 0.000623 -0.004115 0.001336 0.000000 0.033365 0.000000
# 6 0.000000 0.000000 0.000000 -0.003130 0.000000 -0.151365
#
#
# Mechanical properties :
#
#
# Convention : Reuss Voigt Hill
#
# Bulk Modulus (GPa) = 44.84381 46.82390 45.83385
# Shear Modulus (GPa) = 9376.11656 25.40827 4700.76242
#
# Velocity S-wave (km/s) = 64.67511 3.36677 45.79413
# Velocity P-wave (km/s) = 74.81421 6.00021 53.07150
#
# Compressibility (1/GPa) = 0.02229962
#
# Stress axis : x y z
#
# Youngs Moduli (GPa) = 100.11385 70.61463 124.40128
#
# Poissons Ratio (x) = 0.20053 0.14324
# Poissons Ratio (y) = 0.28431 0.11858
# Poissons Ratio (z) = 0.11527 0.06731
#
# Static dielectric constant tensor:
#      x y z
#    x 1.902210 0.000000 0.065260 
#    y 0.000000 1.820830 0.000000 
#    z 0.065260 0.000000 1.902290 
# 
# From -- ./inp_files/23536.got.cif
#   From: 2010.05.17/outbox.cif.g08.bks.cpg/sg5_12_cif.got.tgz:23536.got - 2010.06.03 18:56:24.
