data_PCOD9127528
_publ_section_title
;
Structure prediction by ZEFSAII (Michael W. Deem and Ramdas Pophale) SiO2 
 PCOD9127528
Probable space group: C 2
;
_chemical_formula_sum "Si O2"
_cell_formula_units_Z 30
_cell_length_a 12.795686
_cell_length_b 8.948358
_cell_length_c 21.637963
_cell_angle_alpha 90.000000
_cell_angle_beta 152.306427
_cell_angle_gamma 90.000000
_cell_volume 1151.425650
_symmetry_space_group_name_H-M "C 2"
_symmetry_group_IT_number 5
_symmetry_cell_setting 'monoclinic'
loop_
_space_group_symop_operation_xyz
x,y,z
-x,y,-z
1/2+x,1/2+y,z
1/2-x,1/2+y,-z
loop_
_atom_site_type_symbol
_atom_site_label
_atom_site_fract_x
_atom_site_fract_y
_atom_site_fract_z
Si Si1 0.867128 0.885880 0.816154
Si Si2 0.701371 0.757137 0.850246
Si Si3 0.000000 0.221185 0.000000
Si Si4 0.247894 0.770939 0.370892
Si Si5 0.999858 0.824874 0.573039
Si Si6 0.854859 0.052434 0.605270
Si Si7 0.058257 0.540411 0.728702
Si Si8 0.990694 0.216386 0.125436
O O1 0.877068 0.804723 0.887921
O O2 0.861315 0.780910 0.754171
O O3 0.788265 0.119836 0.871160
O O4 0.013316 0.035087 0.885375
O O5 0.580324 0.615538 0.756020
O O6 0.698379 0.741332 0.922270
O O7 0.527284 0.897439 0.754934
O O8 0.058094 0.297433 0.965602
O O9 0.500000 0.718005 0.500000
O O10 0.118202 0.664296 0.349123
O O11 0.240855 0.935207 0.395664
O O12 0.817843 0.691471 0.489078
O O13 0.000000 0.860080 0.500000
O O14 0.254380 0.767469 0.723132
O O15 0.925503 0.960669 0.580179
O O16 0.385219 0.961833 0.307037
#
# Coordination Sequence:
#
# PCOD9127528 Si02
#       8
#     4   4   2   4   4   4   4   4
#     4   9  21  44  64  98 143 181 239 302 366 419
#     4  10  23  46  68 102 147 182 250 301 367 445
#     4  10  22  48  78 106 148 204 244 320 370 432
#     4  12  24  42  73 108 148 195 246 302 373 449
#     4  12  27  46  69 105 149 195 242 306 374 436
#     4  12  26  44  68 107 146 195 241 301 376 453
#     4   9  24  48  71 106 139 196 250 300 373 438
#     4  11  21  46  73 101 145 192 246 307 374 433
#
# _framework density 26.054655
#
# number of rings (size 3 to 8) (size 9 to 14) (size 15 to 20)
#    0.800    0.533    2.667    2.800    3.733    1.067 
#    9.600    0.000    0.000    3.200    0.000    0.000 
#    0.000    0.000    0.000    0.000    0.000    0.000 
#
# Total GULP energy -83752.470695 kJ/mol
# GULP energy per Si atom -5583.498046 kJ/mol
# Density = 2.599535 g / cm^3
# Si number density = 26.054655 Si / 1000 Ang^3
#
#
#
# Elastic Constant Matrix: (Units=GPa)
#
#
# Indices 1 2 3 4 5 6 
#
# 1 211.5217 51.5608 61.3663 0.0005 -24.3101 0.0001
# 2 51.5608 59.0822 -12.3859 0.0013 3.9078 0.0003
# 3 61.3663 -12.3859 49.3830 0.0035 -15.2866 0.0008
# 4 0.0005 0.0013 0.0035 -9.7751 0.0008 -22.0376
# 5 -24.3101 3.9078 -15.2866 0.0008 70.2739 0.0001
# 6 0.0001 0.0003 0.0008 -22.0376 0.0001 36.8068
#
#
#
# Elastic Compliance Matrix: (Units=1/GPa)
#
#
# Indices 1 2 3 4 5 6 
#
# 1 0.018269 -0.021854 -0.027717 -0.000006 0.001506 -0.000003
# 2 -0.021854 0.044006 0.037630 0.000009 -0.001821 0.000004
# 3 -0.027717 0.037630 0.064884 0.000013 0.002433 0.000006
# 4 -0.000006 0.000009 0.000013 -0.043535 0.000001 -0.026066
# 5 0.001506 -0.001821 0.002433 0.000001 0.015382 0.000000
# 6 -0.000003 0.000004 0.000006 -0.026066 0.000000 0.011562
#
#
# Mechanical properties :
#
#
# Convention : Reuss Voigt Hill
#
# Bulk Modulus (GPa) = 9.68258 57.89659 33.78959
# Shear Modulus (GPa) = 29.60763 34.09081 31.84922
#
# Velocity S-wave (km/s) = 3.37466 3.62115 3.50008
# Velocity P-wave (km/s) = 4.34842 6.30501 5.41580
#
# Compressibility (1/GPa) = 0.10327824
#
# Stress axis : x y z
#
# Youngs Moduli (GPa) = 54.73745 22.72405 15.41204
#
# Poissons Ratio (x) = 0.49660 0.42718
# Poissons Ratio (y) = 1.19621 -0.57996
# Poissons Ratio (z) = 1.51717 -0.85511
#
# Static dielectric constant tensor:
#      x y z
#    x 2.069900 0.000000 0.045240 
#    y 0.000000 2.005280 0.000000 
#    z 0.045240 0.000000 2.328540 
# 
# From -- ./inp_files/68724.got.cif
#   From: 2010.05.17/outbox.cif.g08.bks.cpg/sg5_35_cif.got.tgz:68724.got - 2010.06.03 18:56:24.
