data_PCOD9127688
_publ_section_title
;
Structure prediction by ZEFSAII (Michael W. Deem and Ramdas Pophale) SiO2 
 PCOD9127688
Probable space group: C 2
;
_chemical_formula_sum "Si O2"
_cell_formula_units_Z 30
_cell_length_a 13.741569
_cell_length_b 13.880855
_cell_length_c 9.222297
_cell_angle_alpha 90.000000
_cell_angle_beta 126.873521
_cell_angle_gamma 90.000000
_cell_volume 1407.216867
_symmetry_space_group_name_H-M "C 2"
_symmetry_group_IT_number 5
_symmetry_cell_setting 'monoclinic'
loop_
_space_group_symop_operation_xyz
x,y,z
-x,y,-z
1/2+x,1/2+y,z
1/2-x,1/2+y,-z
loop_
_atom_site_type_symbol
_atom_site_label
_atom_site_fract_x
_atom_site_fract_y
_atom_site_fract_z
Si Si1 0.182854 0.007690 0.458304
Si Si2 0.099232 0.794692 0.463972
Si Si3 0.326476 0.665094 0.775271
Si Si4 0.996117 0.341250 0.149276
Si Si5 0.828662 0.204402 0.100085
Si Si6 0.942280 0.668780 0.102541
Si Si7 0.959819 0.508807 0.629354
Si Si8 0.500000 0.619010 0.500000
O O1 0.141675 0.065994 0.277855
O O2 0.326096 0.033598 0.573078
O O3 0.105739 0.056571 0.517811
O O4 0.160814 0.893171 0.458847
O O5 0.198533 0.718390 0.617586
O O6 0.000000 0.817930 0.500000
O O7 0.023258 0.741877 0.270115
O O8 0.422767 0.746781 0.810021
O O9 0.330690 0.645190 0.950858
O O10 0.860551 0.308958 0.064260
O O11 0.037186 0.397514 0.325917
O O12 0.000000 0.397314 0.000000
O O13 0.928143 0.176927 0.309834
O O14 0.694698 0.202427 0.040865
O O15 0.944838 0.569053 0.192300
O O16 0.000000 0.654620 0.000000
O O17 0.000000 0.524848 0.500000
#
# Coordination Sequence:
#
# PCOD9127688 Si02
#       8
#     4   4   4   4   4   4   4   2
#     4  12  25  44  75 108 145 191 240 301 364 436
#     4  12  24  47  76 105 150 192 238 297 371 442
#     4  11  22  47  74 101 146 186 237 296 363 435
#     4  10  23  41  67 101 134 185 238 294 357 424
#     4  11  25  45  72  99 143 192 237 302 367 428
#     4  12  26  46  68 103 144 190 239 300 362 433
#     4  12  25  43  72 103 141 191 244 299 365 438
#     4  12  26  44  72 104 144 190 244 304 364 430
#
# _framework density 21.318674999999999
#
# number of rings (size 3 to 8) (size 9 to 14) (size 15 to 20)
#    0.000    0.533    6.000    2.400    0.933    1.067 
#    4.800    0.000    0.000    0.000    0.000    0.000 
#    0.000    0.000    0.000    0.000    0.000    0.000 
#
# Total GULP energy -83629.031129 kJ/mol
# GULP energy per Si atom -5575.268742 kJ/mol
# Density = 2.127015 g / cm^3
# Si number density = 21.318675 Si / 1000 Ang^3
#
#
#
# Elastic Constant Matrix: (Units=GPa)
#
#
# Indices 1 2 3 4 5 6 
#
# 1 156.7875 26.8170 50.1035 0.0000 -4.7484 0.0000
# 2 26.8170 66.6006 32.4752 0.0000 -5.3965 0.0000
# 3 50.1035 32.4752 115.3494 0.0000 -12.6849 0.0000
# 4 0.0000 0.0000 0.0000 -5.0841 0.0000 -7.9097
# 5 -4.7484 -5.3965 -12.6849 0.0000 46.0809 0.0000
# 6 0.0000 0.0000 0.0000 -7.9097 0.0000 26.9365
#
#
#
# Elastic Compliance Matrix: (Units=1/GPa)
#
#
# Indices 1 2 3 4 5 6 
#
# 1 0.007565 -0.001680 -0.002835 0.000000 -0.000198 0.000000
# 2 -0.001680 0.017800 -0.004199 0.000000 0.000756 0.000000
# 3 -0.002835 -0.004199 0.011340 0.000000 0.002338 0.000000
# 4 0.000000 0.000000 0.000000 -0.135011 0.000000 -0.039645
# 5 -0.000198 0.000756 0.002338 0.000000 0.022413 0.000000
# 6 0.000000 0.000000 0.000000 -0.039645 0.000000 0.025483
#
#
# Mechanical properties :
#
#
# Convention : Reuss Voigt Hill
#
# Bulk Modulus (GPa) = 51.87172 61.94764 56.90968
# Shear Modulus (GPa) = -188.26589 28.87610 -79.69490
#
# Velocity S-wave (km/s) = -9.40755 3.68434 -6.12077
# Velocity P-wave (km/s) = 9.67566 6.87169 4.81654
#
# Compressibility (1/GPa) = 0.01927833
#
# Stress axis : x y z
#
# Youngs Moduli (GPa) = 132.18199 56.18052 88.18507
#
# Poissons Ratio (x) = 0.09438 0.24999
# Poissons Ratio (y) = 0.22205 0.37025
# Poissons Ratio (z) = 0.37472 0.23587
#
# Static dielectric constant tensor:
#      x y z
#    x 1.862040 0.000000 0.039040 
#    y 0.000000 1.835830 0.000000 
#    z 0.039040 0.000000 1.833990 
# 
# From -- ./inp_files/20753.got.cif
#   From: 2010.05.17/outbox.cif.g08.bks.cpg/sg5_11_cif.got.tgz:20753.got - 2010.06.03 18:56:24.
