data_PCOD9127704
_publ_section_title
;
Structure prediction by ZEFSAII (Michael W. Deem and Ramdas Pophale) SiO2 
 PCOD9127704
Probable space group: C 2
;
_chemical_formula_sum "Si O2"
_cell_formula_units_Z 28
_cell_length_a 5.732564
_cell_length_b 19.271675
_cell_length_c 12.529065
_cell_angle_alpha 90.000000
_cell_angle_beta 69.425723
_cell_angle_gamma 90.000000
_cell_volume 1295.876894
_symmetry_space_group_name_H-M "C 2"
_symmetry_group_IT_number 5
_symmetry_cell_setting 'monoclinic'
loop_
_space_group_symop_operation_xyz
x,y,z
-x,y,-z
1/2+x,1/2+y,z
1/2-x,1/2+y,-z
loop_
_atom_site_type_symbol
_atom_site_label
_atom_site_fract_x
_atom_site_fract_y
_atom_site_fract_z
Si Si1 0.000000 0.678831 0.500000
Si Si2 0.044499 0.451178 0.615463
Si Si3 0.518394 0.704829 0.695953
Si Si4 0.285094 0.667167 0.103870
Si Si5 0.342499 0.332112 0.294580
Si Si6 0.500000 0.350658 0.500000
Si Si7 0.208089 0.819376 0.053017
Si Si8 0.131187 0.597292 0.696493
O O1 0.747236 0.717016 0.578750
O O2 0.940492 0.633725 0.404261
O O3 0.811490 0.403487 0.686140
O O4 0.000000 0.475025 0.500000
O O5 0.276041 0.399496 0.574654
O O6 0.107804 0.516096 0.679114
O O7 0.607415 0.697229 0.802442
O O8 0.321585 0.767292 0.719852
O O9 0.394674 0.631385 0.683664
O O10 0.210038 0.735288 0.049567
O O11 0.056090 0.620904 0.179508
O O12 0.500000 0.630746 0.000000
O O13 0.403872 0.316020 0.407119
O O14 0.590909 0.338289 0.185813
O O15 0.500000 0.841180 0.000000
O O16 0.000000 0.843533 0.000000
#
# Coordination Sequence:
#
# PCOD9127704 Si02
#       8
#     2   4   4   4   4   2   4   4
#     4  10  24  39  62  94 135 168 230 274 355 408
#     4  10  24  43  65  93 139 190 228 274 355 439
#     4  11  24  40  66 102 135 177 230 306 346 423
#     4  10  23  41  68  97 135 172 230 290 362 409
#     4  11  24  45  65 103 139 181 236 286 366 418
#     4  10  26  39  68  92 143 184 222 288 349 434
#     4  11  24  44  76 104 142 184 239 301 359 423
#     4  11  22  40  67  95 130 178 228 287 340 427
#
# _framework density 21.606992000000002
#
# number of rings (size 3 to 8) (size 9 to 14) (size 15 to 20)
#    0.000    1.429    2.143    2.143    6.000    5.714 
#    0.000    0.714    0.000    0.000    0.000    0.000 
#    0.000    0.000    0.000    0.000    0.000    0.000 
#
# Total GULP energy -78265.919530 kJ/mol
# GULP energy per Si atom -5590.422824 kJ/mol
# Density = 2.155781 g / cm^3
# Si number density = 21.606992 Si / 1000 Ang^3
#
#
#
# Elastic Constant Matrix: (Units=GPa)
#
#
# Indices 1 2 3 4 5 6 
#
# 1 119.3477 27.8807 52.5834 0.0000 -15.2070 0.0000
# 2 27.8807 67.4238 19.9548 0.0000 -12.0077 0.0000
# 3 52.5834 19.9548 126.4669 0.0000 -39.1780 0.0000
# 4 0.0000 0.0000 0.0000 74.5186 0.0000 -22.9289
# 5 -15.2070 -12.0077 -39.1780 0.0000 50.1902 0.0000
# 6 0.0000 0.0000 0.0000 -22.9289 0.0000 33.1768
#
#
#
# Elastic Compliance Matrix: (Units=1/GPa)
#
#
# Indices 1 2 3 4 5 6 
#
# 1 0.010953 -0.003413 -0.004274 0.000000 -0.000834 0.000000
# 2 -0.003413 0.016840 -0.000409 0.000000 0.002675 0.000000
# 3 -0.004274 -0.000409 0.012289 0.000000 0.008200 0.000000
# 4 0.000000 0.000000 0.000000 0.017044 0.000000 0.011779
# 5 -0.000834 0.002675 0.008200 0.000000 0.026712 0.000000
# 6 0.000000 0.000000 0.000000 0.011779 0.000000 0.038282
#
#
# Mechanical properties :
#
#
# Convention : Reuss Voigt Hill
#
# Bulk Modulus (GPa) = 41.85846 57.11959 49.48902
# Shear Modulus (GPa) = 34.18181 45.76509 39.97345
#
# Velocity S-wave (km/s) = 3.98173 4.60724 4.30586
# Velocity P-wave (km/s) = 6.36817 7.40239 6.90467
#
# Compressibility (1/GPa) = 0.02389003
#
# Stress axis : x y z
#
# Youngs Moduli (GPa) = 91.29956 59.38092 81.37295
#
# Poissons Ratio (x) = 0.20266 0.34779
# Poissons Ratio (y) = 0.31159 0.03331
# Poissons Ratio (z) = 0.39022 0.02431
#
# Static dielectric constant tensor:
#      x y z
#    x 1.706460 0.000000 0.024540 
#    y 0.000000 1.812700 0.000000 
#    z 0.024540 0.000000 1.764380 
# 
# From -- ./inp_files/33943.got.cif
#   From: 2010.05.17/outbox.cif.g08.bks.cpg/sg5_17_cif.got.tgz:33943.got - 2010.06.03 18:56:24.
