data_PCOD9127675
_publ_section_title
;
Structure prediction by ZEFSAII (Michael W. Deem and Ramdas Pophale) SiO2 
 PCOD9127675
Probable space group: C 2
;
_chemical_formula_sum "Si O2"
_cell_formula_units_Z 30
_cell_length_a 5.262274
_cell_length_b 18.260888
_cell_length_c 15.121809
_cell_angle_alpha 90.000000
_cell_angle_beta 98.467580
_cell_angle_gamma 90.000000
_cell_volume 1437.272152
_symmetry_space_group_name_H-M "C 2"
_symmetry_group_IT_number 5
_symmetry_cell_setting 'monoclinic'
loop_
_space_group_symop_operation_xyz
x,y,z
-x,y,-z
1/2+x,1/2+y,z
1/2-x,1/2+y,-z
loop_
_atom_site_type_symbol
_atom_site_label
_atom_site_fract_x
_atom_site_fract_y
_atom_site_fract_z
Si Si1 0.283664 0.981380 0.919259
Si Si2 0.482180 0.351443 0.140449
Si Si3 0.000000 0.729019 0.000000
Si Si4 0.970657 0.353521 0.396224
Si Si5 0.901548 0.465688 0.239386
Si Si6 0.365362 0.633281 0.108747
Si Si7 0.427775 0.279581 0.322103
Si Si8 0.888355 0.634275 0.224575
O O1 0.193031 0.899809 0.933301
O O2 0.380350 0.972939 0.823863
O O3 0.086296 0.047953 0.910878
O O4 0.500000 0.002353 0.000000
O O5 0.551648 0.281222 0.086345
O O6 0.694307 0.410763 0.183093
O O7 0.365678 0.319239 0.224832
O O8 0.244333 0.675480 0.019428
O O9 0.201904 0.300915 0.377000
O O10 0.000000 0.372856 0.500000
O O11 0.979261 0.424303 0.332691
O O12 0.699272 0.313007 0.366369
O O13 0.832541 0.550831 0.252806
O O14 0.624463 0.661958 0.165547
O O15 0.127732 0.633412 0.167865
O O16 0.449310 0.193443 0.303095
#
# Coordination Sequence:
#
# PCOD9127675 Si02
#       8
#     4   4   2   4   4   4   4   4
#     4  11  21  38  60  90 130 178 217 269 316 377
#     4  11  22  40  58  93 126 174 218 274 308 384
#     4  12  24  40  58  96 132 182 232 270 310 380
#     4  11  24  45  71  99 132 165 209 271 333 395
#     4  10  23  41  65  92 129 169 217 261 329 384
#     4  11  24  41  58  92 131 179 221 267 319 374
#     4  11  23  42  68  98 129 164 216 262 332 388
#     4  11  23  43  68  90 130 174 216 269 326 384
#
# _framework density 20.872875000000001
#
# number of rings (size 3 to 8) (size 9 to 14) (size 15 to 20)
#    0.000    1.067    4.667    2.000    1.867    1.600 
#    2.400    1.333    0.000    0.000    0.000    0.000 
#    0.000    0.000    0.000    0.000    0.000    0.000 
#
# Total GULP energy -83747.622476 kJ/mol
# GULP energy per Si atom -5583.174832 kJ/mol
# Density = 2.082537 g / cm^3
# Si number density = 20.872875 Si / 1000 Ang^3
#
#
#
# Elastic Constant Matrix: (Units=GPa)
#
#
# Indices 1 2 3 4 5 6 
#
# 1 93.4108 16.4702 33.8478 0.0000 1.1858 0.0000
# 2 16.4702 147.0979 45.0739 0.0000 3.2032 0.0000
# 3 33.8478 45.0739 121.8873 0.0000 -11.9055 0.0000
# 4 0.0000 0.0000 0.0000 10.3346 0.0000 7.6681
# 5 1.1858 3.2032 -11.9055 0.0000 23.0766 0.0000
# 6 0.0000 0.0000 0.0000 7.6681 0.0000 11.4387
#
#
#
# Elastic Compliance Matrix: (Units=1/GPa)
#
#
# Indices 1 2 3 4 5 6 
#
# 1 0.012042 -0.000226 -0.003494 0.000000 -0.002390 0.000000
# 2 -0.000226 0.007830 -0.003094 0.000000 -0.002671 0.000000
# 3 -0.003494 -0.003094 0.010929 0.000000 0.006247 0.000000
# 4 0.000000 0.000000 0.000000 0.192519 0.000000 -0.129056
# 5 -0.002390 -0.002671 0.006247 0.000000 0.047051 0.000000
# 6 0.000000 0.000000 0.000000 -0.129056 0.000000 0.173936
#
#
# Mechanical properties :
#
#
# Convention : Reuss Voigt Hill
#
# Bulk Modulus (GPa) = 58.22900 61.46442 59.84671
# Shear Modulus (GPa) = 10.78385 26.77027 18.77706
#
# Velocity S-wave (km/s) = 2.27545 3.58514 3.00257
# Velocity P-wave (km/s) = 5.90433 6.82998 6.38395
#
# Compressibility (1/GPa) = 0.01717357
#
# Stress axis : x y z
#
# Youngs Moduli (GPa) = 83.04573 127.72070 91.50141
#
# Poissons Ratio (x) = 0.02881 0.31970
# Poissons Ratio (y) = 0.01874 0.28307
# Poissons Ratio (z) = 0.29016 0.39512
#
# Static dielectric constant tensor:
#      x y z
#    x 1.834800 0.000000 -0.021950 
#    y 0.000000 1.763540 0.000000 
#    z -0.021950 0.000000 1.731350 
# 
# From -- ./inp_files/49220.got.cif
#   From: 2010.05.17/outbox.cif.g08.bks.cpg/sg5_25_cif.got.tgz:49220.got - 2010.06.03 18:56:24.
