data_PCOD9127004
_publ_section_title
;
Structure prediction by ZEFSAII (Michael W. Deem and Ramdas Pophale) SiO2 
 PCOD9127004
Probable space group: C 2
;
_chemical_formula_sum "Si O2"
_cell_formula_units_Z 28
_cell_length_a 19.448053
_cell_length_b 12.496558
_cell_length_c 16.410746
_cell_angle_alpha 90.000000
_cell_angle_beta 159.516566
_cell_angle_gamma 90.000000
_cell_volume 1395.674560
_symmetry_space_group_name_H-M "C 2"
_symmetry_group_IT_number 5
_symmetry_cell_setting 'monoclinic'
loop_
_space_group_symop_operation_xyz
x,y,z
-x,y,-z
1/2+x,1/2+y,z
1/2-x,1/2+y,-z
loop_
_atom_site_type_symbol
_atom_site_label
_atom_site_fract_x
_atom_site_fract_y
_atom_site_fract_z
Si Si1 0.695142 0.191700 0.397659
Si Si2 0.649607 0.855749 0.305777
Si Si3 0.526807 0.525390 0.366118
Si Si4 0.122364 0.565182 0.556405
Si Si5 0.500000 0.717363 0.000000
Si Si6 0.500000 0.662897 0.500000
Si Si7 0.575922 0.029269 0.837825
Si Si8 0.223226 0.826498 0.264250
O O1 0.732166 0.264779 0.515805
O O2 0.490250 0.127910 0.176996
O O3 0.723245 0.265691 0.350408
O O4 0.864888 0.102171 0.578706
O O5 0.500783 0.798558 0.078065
O O6 0.817202 0.929288 0.449613
O O7 0.535677 0.928079 0.245875
O O8 0.502805 0.589267 0.423754
O O9 0.306349 0.502549 0.091792
O O10 0.169783 0.439301 0.617193
O O11 0.000000 0.597731 0.500000
O O12 0.005886 0.566001 0.341166
O O13 0.315680 0.639563 0.776569
O O14 0.316511 0.743633 0.303910
O O15 0.000000 0.851061 0.000000
#
# Coordination Sequence:
#
# PCOD9127004 Si02
#       8
#     4   4   4   4   2   2   4   4
#     4  10  22  43  64  98 127 178 229 276 351 402
#     4  11  25  44  70  96 135 188 231 279 346 409
#     4  10  25  41  69  97 135 175 236 283 335 418
#     4  12  26  41  68 104 134 176 229 281 353 411
#     4  12  28  48  68  98 152 184 230 290 344 420
#     4  10  22  44  62 104 128 166 230 284 344 394
#     4  11  24  45  68  97 136 182 232 284 338 422
#     4  11  21  39  68  93 129 170 215 289 341 399
#
# _framework density 20.061983000000001
#
# number of rings (size 3 to 8) (size 9 to 14) (size 15 to 20)
#    0.000    1.143    4.286    0.857    4.000    3.429 
#    2.571    0.000    0.000    0.000    0.000    0.000 
#    0.000    0.000    0.000    0.000    0.000    0.000 
#
# Total GULP energy -78092.291379 kJ/mol
# GULP energy per Si atom -5578.020813 kJ/mol
# Density = 2.001632 g / cm^3
# Si number density = 20.061983 Si / 1000 Ang^3
#
#
#
# Elastic Constant Matrix: (Units=GPa)
#
#
# Indices 1 2 3 4 5 6 
#
# 1 79.5027 29.9418 19.9131 -0.0040 3.8203 -0.0027
# 2 29.9418 85.9796 16.8795 0.0008 -6.4474 0.0018
# 3 19.9131 16.8795 80.9745 0.0002 6.1868 0.0000
# 4 -0.0040 0.0008 0.0002 28.1217 0.0015 -6.3185
# 5 3.8203 -6.4474 6.1868 0.0015 21.8389 0.0013
# 6 -0.0027 0.0018 0.0000 -6.3185 0.0013 24.7803
#
#
#
# Elastic Compliance Matrix: (Units=1/GPa)
#
#
# Indices 1 2 3 4 5 6 
#
# 1 0.015276 -0.005106 -0.002426 0.000003 -0.003492 0.000003
# 2 -0.005106 0.014260 -0.002153 -0.000002 0.005713 -0.000002
# 3 -0.002426 -0.002153 0.013708 0.000000 -0.004095 0.000000
# 4 0.000003 -0.000002 0.000000 0.037721 -0.000004 0.009618
# 5 -0.003492 0.005713 -0.004095 -0.000004 0.049247 -0.000004
# 6 0.000003 -0.000002 0.000000 0.009618 -0.000004 0.042807
#
#
# Mechanical properties :
#
#
# Convention : Reuss Voigt Hill
#
# Bulk Modulus (GPa) = 41.88536 42.21396 42.04966
# Shear Modulus (GPa) = 24.95672 26.92967 25.94319
#
# Velocity S-wave (km/s) = 3.53084 3.66775 3.59994
# Velocity P-wave (km/s) = 6.12746 6.24691 6.18747
#
# Compressibility (1/GPa) = 0.02387469
#
# Stress axis : x y z
#
# Youngs Moduli (GPa) = 65.46048 70.12712 72.95097
#
# Poissons Ratio (x) = 0.35804 0.17695
# Poissons Ratio (y) = 0.33421 0.15710
# Poissons Ratio (z) = 0.15878 0.15102
#
# Static dielectric constant tensor:
#      x y z
#    x 1.712710 0.000000 0.003300 
#    y 0.000000 1.704640 0.000000 
#    z 0.003300 0.000000 1.696270 
# 
# From -- ./inp_files/62925.got.cif
#   From: 2010.05.17/outbox.cif.g08.bks.cpg/sg5_32_cif.got.tgz:62925.got - 2010.06.03 18:56:24.
