data_PCOD9127328
_publ_section_title
;
Structure prediction by ZEFSAII (Michael W. Deem and Ramdas Pophale) SiO2 
 PCOD9127328
Probable space group: C 2
;
_chemical_formula_sum "Si O2"
_cell_formula_units_Z 26
_cell_length_a 14.191692
_cell_length_b 15.172050
_cell_length_c 7.872134
_cell_angle_alpha 90.000000
_cell_angle_beta 133.254185
_cell_angle_gamma 90.000000
_cell_volume 1234.507423
_symmetry_space_group_name_H-M "C 2"
_symmetry_group_IT_number 5
_symmetry_cell_setting 'monoclinic'
loop_
_space_group_symop_operation_xyz
x,y,z
-x,y,-z
1/2+x,1/2+y,z
1/2-x,1/2+y,-z
loop_
_atom_site_type_symbol
_atom_site_label
_atom_site_fract_x
_atom_site_fract_y
_atom_site_fract_z
Si Si1 0.000000 0.777220 0.500000
Si Si2 0.266578 0.635692 0.507566
Si Si3 0.967655 0.075384 0.278532
Si Si4 0.610143 0.952284 0.277390
Si Si5 0.169389 0.824591 0.403616
Si Si6 0.500000 0.987735 0.500000
Si Si7 0.710908 0.133553 0.830446
Si Si8 0.000000 0.948240 0.000000
O O1 0.936208 0.827081 0.577360
O O2 0.886409 0.715716 0.280695
O O3 0.409644 0.637571 0.608081
O O4 0.192800 0.544096 0.373751
O O5 0.188727 0.724285 0.368328
O O6 0.274245 0.637678 0.721690
O O7 0.000000 0.033573 0.500000
O O8 0.828448 0.122753 0.105358
O O9 0.969667 0.007147 0.125937
O O10 0.702274 0.868792 0.362806
O O11 0.552736 0.941112 0.396765
O O12 0.500000 0.957541 0.000000
O O13 0.120745 0.886800 0.193473
O O14 0.616022 0.049741 0.712165
#
# Coordination Sequence:
#
# PCOD9127328 Si02
#       8
#     2   4   4   4   4   2   4   2
#     4   9  22  42  72 101 138 184 236 279 364 413
#     4  10  22  45  68  99 141 180 233 281 355 411
#     4  12  24  40  74 100 137 187 235 280 357 413
#     4  11  24  44  69  99 134 180 232 289 339 410
#     4  11  25  44  69 104 140 186 231 289 349 412
#     4   9  20  40  66  93 132 176 222 273 354 395
#     4   9  18  40  70 100 130 177 227 294 334 417
#     4  12  24  44  64 100 142 176 230 294 334 410
#
# _framework density 21.061032000000001
#
# number of rings (size 3 to 8) (size 9 to 14) (size 15 to 20)
#    0.000    1.538    3.077    1.846    4.308    3.692 
#    4.154    0.000    0.000    0.000    0.000    0.000 
#    0.000    0.000    0.000    0.000    0.000    0.000 
#
# Total GULP energy -72616.114857 kJ/mol
# GULP energy per Si atom -5585.854989 kJ/mol
# Density = 2.101310 g / cm^3
# Si number density = 21.061032 Si / 1000 Ang^3
#
#
#
# Elastic Constant Matrix: (Units=GPa)
#
#
# Indices 1 2 3 4 5 6 
#
# 1 111.1478 26.1033 39.4145 0.0000 5.4695 0.0000
# 2 26.1033 52.4893 11.4704 0.0000 -4.7876 0.0000
# 3 39.4145 11.4704 119.3060 0.0000 4.4547 0.0000
# 4 0.0000 0.0000 0.0000 21.1026 0.0000 6.0234
# 5 5.4695 -4.7876 4.4547 0.0000 29.2346 0.0000
# 6 0.0000 0.0000 0.0000 6.0234 0.0000 9.8813
#
#
#
# Elastic Compliance Matrix: (Units=1/GPa)
#
#
# Indices 1 2 3 4 5 6 
#
# 1 0.011486 -0.005243 -0.003196 0.000000 -0.002521 0.000000
# 2 -0.005243 0.022215 -0.000579 0.000000 0.004707 0.000000
# 3 -0.003196 -0.000579 0.009529 0.000000 -0.000949 0.000000
# 4 0.000000 0.000000 0.000000 0.057369 0.000000 -0.034971
# 5 -0.002521 0.004707 -0.000949 0.000000 0.035593 0.000000
# 6 0.000000 0.000000 0.000000 -0.034971 0.000000 0.122519
#
#
# Mechanical properties :
#
#
# Convention : Reuss Voigt Hill
#
# Bulk Modulus (GPa) = 39.69559 48.54659 44.12109
# Shear Modulus (GPa) = 17.53479 25.77402 21.65441
#
# Velocity S-wave (km/s) = 2.88856 3.50205 3.20999
# Velocity P-wave (km/s) = 5.47849 6.28116 5.89350
#
# Compressibility (1/GPa) = 0.02519172
#
# Stress axis : x y z
#
# Youngs Moduli (GPa) = 87.06276 45.01445 104.94401
#
# Poissons Ratio (x) = 0.23603 0.33544
# Poissons Ratio (y) = 0.45651 0.06080
# Poissons Ratio (z) = 0.27828 0.02608
#
# Static dielectric constant tensor:
#      x y z
#    x 1.779410 0.000000 0.012980 
#    y 0.000000 1.760720 0.000000 
#    z 0.012980 0.000000 1.784570 
# 
# From -- ./inp_files/24553.got.cif
#   From: 2010.05.17/outbox.cif.g08.bks.cpg/sg5_13_cif.got.tgz:24553.got - 2010.06.03 18:56:24.
