data_PCOD9127611
_publ_section_title
;
Structure prediction by ZEFSAII (Michael W. Deem and Ramdas Pophale) SiO2 
 PCOD9127611
Probable space group: C 2
;
_chemical_formula_sum "Si O2"
_cell_formula_units_Z 22
_cell_length_a 6.825625
_cell_length_b 17.146336
_cell_length_c 10.068484
_cell_angle_alpha 90.000000
_cell_angle_beta 111.431786
_cell_angle_gamma 90.000000
_cell_volume 1096.879849
_symmetry_space_group_name_H-M "C 2"
_symmetry_group_IT_number 5
_symmetry_cell_setting 'monoclinic'
loop_
_space_group_symop_operation_xyz
x,y,z
-x,y,-z
1/2+x,1/2+y,z
1/2-x,1/2+y,-z
loop_
_atom_site_type_symbol
_atom_site_label
_atom_site_fract_x
_atom_site_fract_y
_atom_site_fract_z
Si Si1 0.937754 0.304450 0.137489
Si Si2 0.227051 0.017943 0.175276
Si Si3 0.500000 0.388630 0.000000
Si Si4 0.500000 0.526890 0.500000
Si Si5 0.500000 0.066467 0.000000
Si Si6 0.577968 0.927049 0.385351
Si Si7 0.923872 0.132509 0.221892
O O1 0.949432 0.224926 0.223492
O O2 0.061058 0.370427 0.253136
O O3 0.701885 0.335491 0.059660
O O4 0.000000 0.291112 0.000000
O O5 0.099935 0.096737 0.165778
O O6 0.402185 0.994868 0.324157
O O7 0.362924 0.018645 0.073105
O O8 0.048919 0.950575 0.129827
O O9 0.299699 0.469504 0.452998
O O10 0.472673 0.584195 0.367298
O O11 0.317143 0.114427 0.880138
O O12 0.500000 0.884134 0.500000
#
# Coordination Sequence:
#
# PCOD9127611 Si02
#       7
#     4   4   2   2   2   4   4
#     4  11  27  44  69 102 141 179 229 291 346 403
#     4  11  22  38  71  98 130 174 237 282 329 407
#     4  10  23  40  64 101 134 170 226 284 341 392
#     4  12  26  44  72  98 134 194 226 284 342 420
#     4  12  21  38  72 103 128 174 230 296 331 384
#     4  11  25  44  65  98 138 181 231 275 349 417
#     4  12  25  44  69 103 140 177 240 281 347 407
#
# _framework density 20.056892999999999
#
# number of rings (size 3 to 8) (size 9 to 14) (size 15 to 20)
#    0.000    0.727    5.455    1.636    8.909    0.000 
#    0.000    1.818    0.000    0.000    0.000    0.000 
#    0.000    0.000    0.000    0.000    0.000    0.000 
#
# Total GULP energy -61318.117588 kJ/mol
# GULP energy per Si atom -5574.374326 kJ/mol
# Density = 2.001124 g / cm^3
# Si number density = 20.056893 Si / 1000 Ang^3
#
#
#
# Elastic Constant Matrix: (Units=GPa)
#
#
# Indices 1 2 3 4 5 6 
#
# 1 96.8930 57.0710 57.9361 0.0000 21.2928 0.0000
# 2 57.0710 130.6406 45.2611 0.0000 17.3105 0.0000
# 3 57.9361 45.2611 123.3235 0.0000 13.5868 0.0000
# 4 0.0000 0.0000 0.0000-9168.4813 0.0000**********
# 5 21.2928 17.3105 13.5868 0.0000 51.0136 0.0000
# 6 0.0000 0.0000 0.0000********** 0.0000**********
#
#
#
# Elastic Compliance Matrix: (Units=1/GPa)
#
#
# Indices 1 2 3 4 5 6 
#
# 1 0.017889 -0.005174 -0.006053 0.000000 -0.004099 0.000000
# 2 -0.005174 0.010509 -0.001309 0.000000 -0.001057 0.000000
# 3 -0.006053 -0.001309 0.011442 0.000000 -0.000076 0.000000
# 4 0.000000 0.000000 0.000000 0.026387 0.000000 -0.018650
# 5 -0.004099 -0.001057 -0.000076 0.000000 0.021692 0.000000
# 6 0.000000 0.000000 0.000000 -0.018650 0.000000 0.013127
#
#
# Mechanical properties :
#
#
# Convention : Reuss Voigt Hill
#
# Bulk Modulus (GPa) = 67.72943 74.59927 71.16435
# Shear Modulus (GPa) = 38.15571 -5496.66898 -2729.25663
#
# Velocity S-wave (km/s) = 4.36635 -52.40695 -36.92847
# Velocity P-wave (km/s) = 7.69818 60.20556 42.22231
#
# Compressibility (1/GPa) = 0.01476463
#
# Stress axis : x y z
#
# Youngs Moduli (GPa) = 55.90132 95.15775 87.40100
#
# Poissons Ratio (x) = 0.49239 0.52906
# Poissons Ratio (y) = 0.28926 0.11445
# Poissons Ratio (z) = 0.33839 0.12460
#
# Static dielectric constant tensor:
#      x y z
#    x 1.929920 0.000000 -0.454630 
#    y 0.000000 1.689830 0.000000 
#    z -0.454630 0.000000 2.636040 
# 
# From -- ./inp_files/33443.got.cif
#   From: 2010.05.17/outbox.cif.g08.bks.cpg/sg5_17_cif.got.tgz:33443.got - 2010.06.03 18:56:24.
