data_PCOD9127628
_publ_section_title
;
Structure prediction by ZEFSAII (Michael W. Deem and Ramdas Pophale) SiO2 
 PCOD9127628
Probable space group: C 2
;
_chemical_formula_sum "Si O2"
_cell_formula_units_Z 20
_cell_length_a 5.355768
_cell_length_b 18.063043
_cell_length_c 13.163334
_cell_angle_alpha 90.000000
_cell_angle_beta 48.096214
_cell_angle_gamma 90.000000
_cell_volume 947.780084
_symmetry_space_group_name_H-M "C 2"
_symmetry_group_IT_number 5
_symmetry_cell_setting 'monoclinic'
loop_
_space_group_symop_operation_xyz
x,y,z
-x,y,-z
1/2+x,1/2+y,z
1/2-x,1/2+y,-z
loop_
_atom_site_type_symbol
_atom_site_label
_atom_site_fract_x
_atom_site_fract_y
_atom_site_fract_z
Si Si1 0.387462 0.399680 0.644020
Si Si2 0.808292 0.199047 0.336346
Si Si3 0.548237 0.282087 0.745886
Si Si4 0.134085 0.907091 0.855387
Si Si5 0.820431 0.024636 0.338185
O O1 0.500000 0.391631 0.500000
O O2 0.633025 0.348764 0.643901
O O3 0.391712 0.485308 0.674476
O O4 0.008875 0.375190 0.763762
O O5 0.500000 0.210519 0.500000
O O6 0.693821 0.231642 0.257922
O O7 0.858752 0.111102 0.310756
O O8 0.140021 0.234696 0.297031
O O9 0.422503 0.336480 0.870665
O O10 0.167276 0.975316 0.767389
O O11 0.000000 0.931846 0.000000
O O12 0.500000 0.013162 0.500000
#
# Coordination Sequence:
#
# PCOD9127628 Si02
#       5
#     4   4   4   4   4
#     4  11  22  40  73  98 135 173 232 279 330 389
#     4  11  24  39  67 103 139 172 219 282 340 394
#     4  11  24  41  65  97 136 174 223 271 337 393
#     4  11  25  45  70  99 137 181 226 276 335 399
#     4  10  23  40  67 102 135 175 225 278 335 399
#
# _framework density 21.101942999999999
#
# number of rings (size 3 to 8) (size 9 to 14) (size 15 to 20)
#    0.000    1.200    4.000    1.200    5.600    3.200 
#    0.000    2.000    0.000    0.000    0.000    0.000 
#    0.000    0.000    0.000    0.000    0.000    0.000 
#
# Total GULP energy -55725.103463 kJ/mol
# GULP energy per Si atom -5572.510346 kJ/mol
# Density = 2.105391 g / cm^3
# Si number density = 21.101943 Si / 1000 Ang^3
#
#
#
# Elastic Constant Matrix: (Units=GPa)
#
#
# Indices 1 2 3 4 5 6 
#
# 1 118.0036 64.4399 39.5482 0.0000 12.2651 0.0001
# 2 64.4399 185.8401 44.5165 0.0002 22.3206 0.0000
# 3 39.5482 44.5165 115.8977 -0.0003 23.0144 0.0000
# 4 0.0000 0.0002 -0.0003 28.2993 0.0002 19.3061
# 5 12.2651 22.3206 23.0144 0.0002 25.8244 -0.0001
# 6 0.0001 0.0000 0.0000 19.3061 -0.0001 58.4312
#
#
#
# Elastic Compliance Matrix: (Units=1/GPa)
#
#
# Indices 1 2 3 4 5 6 
#
# 1 0.011096 -0.003218 -0.002498 0.000000 -0.000262 0.000000
# 2 -0.003218 0.007176 -0.000887 0.000000 -0.003883 0.000000
# 3 -0.002498 -0.000887 0.011462 0.000000 -0.008262 0.000000
# 4 0.000000 0.000000 0.000000 0.045620 -0.000001 -0.015073
# 5 -0.000262 -0.003883 -0.008262 -0.000001 0.049567 0.000000
# 6 0.000000 0.000000 0.000000 -0.015073 0.000000 0.022094
#
#
# Mechanical properties :
#
#
# Convention : Reuss Voigt Hill
#
# Bulk Modulus (GPa) = 60.50457 79.63896 70.07177
# Shear Modulus (GPa) = 30.16966 40.59346 35.38156
#
# Velocity S-wave (km/s) = 3.78525 4.39074 4.09919
# Velocity P-wave (km/s) = 6.91657 7.97037 7.46210
#
# Compressibility (1/GPa) = 0.01652768
#
# Stress axis : x y z
#
# Youngs Moduli (GPa) = 90.12308 139.36217 87.24411
#
# Poissons Ratio (x) = 0.44840 0.21797
# Poissons Ratio (y) = 0.28997 0.07739
# Poissons Ratio (z) = 0.22516 0.12363
#
# Static dielectric constant tensor:
#      x y z
#    x 1.850600 0.000000 0.024850 
#    y 0.000000 1.779830 0.000000 
#    z 0.024850 0.000000 1.755410 
# 
# From -- ./inp_files/12089.got.cif
#   From: 2010.05.17/outbox.cif.g08.bks.cpg/sg5_7_cif.got.tgz:12089.got - 2010.06.03 18:56:24.
