data_PCOD9127697
_publ_section_title
;
Structure prediction by ZEFSAII (Michael W. Deem and Ramdas Pophale) SiO2 
 PCOD9127697
Probable space group: C 2
;
_chemical_formula_sum "Si O2"
_cell_formula_units_Z 24
_cell_length_a 11.375509
_cell_length_b 21.119070
_cell_length_c 9.219823
_cell_angle_alpha 90.000000
_cell_angle_beta 27.314117
_cell_angle_gamma 90.000000
_cell_volume 1016.380779
_symmetry_space_group_name_H-M "C 2"
_symmetry_group_IT_number 5
_symmetry_cell_setting 'monoclinic'
loop_
_space_group_symop_operation_xyz
x,y,z
-x,y,-z
1/2+x,1/2+y,z
1/2-x,1/2+y,-z
loop_
_atom_site_type_symbol
_atom_site_label
_atom_site_fract_x
_atom_site_fract_y
_atom_site_fract_z
Si Si1 0.916433 0.615130 0.420303
Si Si2 0.774184 0.326938 0.855376
Si Si3 0.052856 0.067896 0.270322
Si Si4 0.512123 0.456293 0.134831
Si Si5 0.076591 0.384678 0.767680
Si Si6 0.901271 0.757615 0.444652
O O1 0.700883 0.579676 0.554939
O O2 0.000000 0.599516 0.500000
O O3 0.801218 0.686422 0.539984
O O4 0.198241 0.610575 0.037722
O O5 0.000000 0.307188 0.500000
O O6 0.849007 0.352674 0.931241
O O7 0.669481 0.393958 0.915193
O O8 0.583286 0.270902 0.105127
O O9 0.000000 0.070462 0.500000
O O10 0.134898 0.997219 0.127757
O O11 0.243030 0.430842 0.487851
O O12 0.500000 0.495733 0.000000
O O13 0.236721 0.321259 0.623847
O O14 0.000000 0.416809 0.000000
O O15 0.000000 0.756054 0.500000
#
# Coordination Sequence:
#
# PCOD9127697 Si02
#       6
#     4   4   4   4   4   4
#     4  11  26  50  77 104 141 193 245 295 355 428
#     4  11  23  41  65 101 138 177 221 287 352 419
#     4  12  29  49  73 107 143 187 243 304 363 420
#     4  11  25  43  66  99 134 183 236 286 350 429
#     4  11  23  39  68  99 140 176 222 285 352 418
#     4  10  23  41  68 101 132 179 234 284 347 423
#
# _framework density 23.613195999999999
#
# number of rings (size 3 to 8) (size 9 to 14) (size 15 to 20)
#    0.000    1.000    3.333    2.000    7.000    1.333 
#    3.000    0.000    0.000    0.000    0.000    0.000 
#    0.000    0.000    0.000    0.000    0.000    0.000 
#
# Total GULP energy -66825.688561 kJ/mol
# GULP energy per Si atom -5568.807380 kJ/mol
# Density = 2.355945 g / cm^3
# Si number density = 23.613196 Si / 1000 Ang^3
#
#
#
# Elastic Constant Matrix: (Units=GPa)
#
#
# Indices 1 2 3 4 5 6 
#
# 1 107.5550 17.5748 48.9524 1.0244 26.1091 -0.4402
# 2 17.5748 66.7606 4.4629 -0.1543 8.7837 0.0671
# 3 48.9524 4.4629 99.5029 0.4550 37.0281 -0.1942
# 4 1.0244 -0.1543 0.4550 2555.8441 -0.2897-1092.9461
# 5 26.1091 8.7837 37.0281 -0.2897 49.0977 0.1238
# 6 -0.4402 0.0671 -0.1942-1092.9461 0.1238 501.6343
#
#
#
# Elastic Compliance Matrix: (Units=1/GPa)
#
#
# Indices 1 2 3 4 5 6 
#
# 1 0.012692 -0.002687 -0.005270 -0.000004 -0.002294 0.000001
# 2 -0.002687 0.015924 0.001579 0.000001 -0.002611 -0.000001
# 3 -0.005270 0.001579 0.016173 -0.000002 -0.009677 -0.000001
# 4 -0.000004 0.000001 -0.000002 0.005729 0.000006 0.012481
# 5 -0.002294 -0.002611 -0.009677 0.000006 0.029353 0.000000
# 6 0.000001 -0.000001 -0.000001 0.012481 0.000000 0.029187
#
#
# Mechanical properties :
#
#
# Convention : Reuss Voigt Hill
#
# Bulk Modulus (GPa) = 31.21651 46.19985 38.70818
# Shear Modulus (GPa) = 37.73837 634.83710 336.28773
#
# Velocity S-wave (km/s) = 4.00207 16.41439 11.94673
# Velocity P-wave (km/s) = 5.88252 19.46408 14.37802
#
# Compressibility (1/GPa) = 0.03203433
#
# Stress axis : x y z
#
# Youngs Moduli (GPa) = 78.78892 62.79741 61.83161
#
# Poissons Ratio (x) = 0.16874 0.32584
# Poissons Ratio (y) = 0.21171 -0.09765
# Poissons Ratio (z) = 0.41520 -0.09918
#
# Static dielectric constant tensor:
#      x y z
#    x -14.609530 -0.004510 7.328430 
#    y -0.004510 2.184120 0.002030 
#    z 7.328430 0.002030 -1.358310 
# 
# From -- ./inp_files/22123.got.cif
#   From: 2010.05.17/outbox.cif.g08.bks.cpg/sg5_12_cif.got.tgz:22123.got - 2010.06.03 18:56:24.
