data_PCOD9127839
_publ_section_title
;
Structure prediction by ZEFSAII (Michael W. Deem and Ramdas Pophale) SiO2 
 PCOD9127839
Probable space group: C 2
;
_chemical_formula_sum "Si O2"
_cell_formula_units_Z 28
_cell_length_a 13.844415
_cell_length_b 11.542527
_cell_length_c 16.476826
_cell_angle_alpha 90.000000
_cell_angle_beta 26.244457
_cell_angle_gamma 90.000000
_cell_volume 1164.312846
_symmetry_space_group_name_H-M "C 2"
_symmetry_group_IT_number 5
_symmetry_cell_setting 'monoclinic'
loop_
_space_group_symop_operation_xyz
x,y,z
-x,y,-z
1/2+x,1/2+y,z
1/2-x,1/2+y,-z
loop_
_atom_site_type_symbol
_atom_site_label
_atom_site_fract_x
_atom_site_fract_y
_atom_site_fract_z
Si Si1 0.361956 0.013510 0.022285
Si Si2 0.689194 0.179653 0.486508
Si Si3 0.828546 0.531662 0.799013
Si Si4 0.128341 0.988493 0.775150
Si Si5 0.985515 0.104034 0.400636
Si Si6 0.605513 0.240201 0.834152
Si Si7 0.641980 0.917405 0.685195
O O1 0.440064 0.139560 0.929306
O O2 0.446170 0.919071 0.897307
O O3 0.500000 0.999354 0.000000
O O4 0.117989 0.023022 0.236913
O O5 0.443946 0.155325 0.700074
O O6 0.766341 0.073780 0.369994
O O7 0.838429 0.182996 0.454110
O O8 0.730905 0.298657 0.410394
O O9 0.760865 0.495031 0.759905
O O10 0.017595 0.452086 0.696093
O O11 0.617691 0.528259 0.015927
O O12 0.124618 0.850334 0.761680
O O13 0.165462 0.179954 0.312636
O O14 0.817618 0.018342 0.571669
O O15 0.500000 0.280295 0.000000
#
# Coordination Sequence:
#
# PCOD9127839 Si02
#       7
#     4   4   4   4   4   4   4
#     4   9  21  41  63  97 119 168 221 263 322 376
#     4  11  24  40  62  99 134 170 208 268 328 393
#     4  10  23  43  63  95 125 175 217 257 327 382
#     4  11  21  43  65  94 128 166 219 272 320 376
#     4   9  21  43  63  95 130 168 223 263 321 387
#     4   9  18  39  68  88 119 160 217 270 307 371
#     4  11  23  43  66  94 136 172 211 270 327 392
#
# _framework density 24.048518999999999
#
# number of rings (size 3 to 8) (size 9 to 14) (size 15 to 20)
#    0.000    2.286    1.429    2.143    2.000    3.429 
#   28.286    0.000    0.000    0.000    0.000    0.000 
#    0.000    0.000    0.000    0.000    0.000    0.000 
#
# Total GULP energy -78260.595854 kJ/mol
# GULP energy per Si atom -5590.042561 kJ/mol
# Density = 2.399378 g / cm^3
# Si number density = 24.048519 Si / 1000 Ang^3
#
#
#
# Elastic Constant Matrix: (Units=GPa)
#
#
# Indices 1 2 3 4 5 6 
#
# 1 60.9473 29.6102 27.9198 -0.0027 -14.9109 -0.0010
# 2 29.6102 89.8635 34.7191 -0.0033 16.9181 0.0001
# 3 27.9198 34.7191 126.9036 -0.0062 3.5930 0.0001
# 4 -0.0027 -0.0033 -0.0062 29.5467 0.0024 11.4016
# 5 -14.9109 16.9181 3.5930 0.0024 35.2920 0.0007
# 6 -0.0010 0.0001 0.0001 11.4016 0.0007 14.4903
#
#
#
# Elastic Compliance Matrix: (Units=1/GPa)
#
#
# Indices 1 2 3 4 5 6 
#
# 1 0.027596 -0.010971 -0.003559 -0.000002 0.017281 0.000003
# 2 -0.010971 0.018033 -0.002150 0.000002 -0.013061 -0.000002
# 3 -0.003559 -0.002150 0.009291 0.000002 -0.001419 -0.000002
# 4 -0.000002 0.000002 0.000002 0.048602 -0.000005 -0.038242
# 5 0.017281 -0.013061 -0.001419 -0.000005 0.042042 0.000003
# 6 0.000003 -0.000002 -0.000002 -0.038242 0.000003 0.099102
#
#
# Mechanical properties :
#
#
# Convention : Reuss Voigt Hill
#
# Bulk Modulus (GPa) = 46.38323 51.35697 48.87010
# Shear Modulus (GPa) = 17.53079 28.23014 22.88046
#
# Velocity S-wave (km/s) = 2.70288 3.42991 3.08787
# Velocity P-wave (km/s) = 5.39166 6.08996 5.75142
#
# Compressibility (1/GPa) = 0.02155952
#
# Stress axis : x y z
#
# Youngs Moduli (GPa) = 36.23698 55.45509 107.62673
#
# Poissons Ratio (x) = 0.60842 0.38305
# Poissons Ratio (y) = 0.39757 0.23139
# Poissons Ratio (z) = 0.12897 0.11922
#
# Static dielectric constant tensor:
#      x y z
#    x 1.972350 0.000000 0.033670 
#    y 0.000000 1.933040 0.000010 
#    z 0.033670 0.000010 1.935960 
# 
# From -- ./inp_files/66703.got.cif
#   From: 2010.05.17/outbox.cif.g08.bks.cpg/sg5_34_cif.got.tgz:66703.got - 2010.06.03 18:56:24.
