data_PCOD9127288
_publ_section_title
;
Structure prediction by ZEFSAII (Michael W. Deem and Ramdas Pophale) SiO2 
 PCOD9127288
Probable space group: C 2
;
_chemical_formula_sum "Si O2"
_cell_formula_units_Z 18
_cell_length_a 17.489522
_cell_length_b 5.518143
_cell_length_c 9.250415
_cell_angle_alpha 90.000000
_cell_angle_beta 132.778231
_cell_angle_gamma 90.000000
_cell_volume 655.271144
_symmetry_space_group_name_H-M "C 2"
_symmetry_group_IT_number 5
_symmetry_cell_setting 'monoclinic'
loop_
_space_group_symop_operation_xyz
x,y,z
-x,y,-z
1/2+x,1/2+y,z
1/2-x,1/2+y,-z
loop_
_atom_site_type_symbol
_atom_site_label
_atom_site_fract_x
_atom_site_fract_y
_atom_site_fract_z
Si Si1 0.962020 0.349540 0.125158
Si Si2 0.500000 0.445077 0.500000
Si Si3 0.604400 0.332933 0.930837
Si Si4 0.661552 0.828956 0.738289
Si Si5 0.804538 0.484541 0.525303
O O1 0.915543 0.383480 0.721912
O O2 0.913879 0.594158 0.999872
O O3 0.919014 0.363678 0.235065
O O4 0.921729 0.086850 0.026316
O O5 0.532869 0.329725 0.695006
O O6 0.606571 0.592833 0.599694
O O7 0.725392 0.315122 0.044903
O O8 0.678398 0.009002 0.626849
O O9 0.771072 0.749997 0.542188
#
# Coordination Sequence:
#
# PCOD9127288 Si02
#       5
#     4   2   4   4   4
#     4  11  23  47  70 104 141 182 237 304 355 418
#     4  10  22  44  76 112 148 178 238 314 348 426
#     4  11  24  40  76 113 139 179 241 302 365 418
#     4  11  23  47  75 108 140 190 242 297 359 435
#     4  12  27  45  69 101 143 195 238 291 362 425
#
# _framework density 27.469546000000001
#
# number of rings (size 3 to 8) (size 9 to 14) (size 15 to 20)
#    0.000    0.889    4.444    4.000    3.111    3.556 
#    0.000    6.667    0.000    0.000    0.000    0.000 
#    0.000    0.000    0.000    0.000    0.000    0.000 
#
# Total GULP energy -50299.632472 kJ/mol
# GULP energy per Si atom -5588.848052 kJ/mol
# Density = 2.740702 g / cm^3
# Si number density = 27.469546 Si / 1000 Ang^3
#
#
#
# Elastic Constant Matrix: (Units=GPa)
#
#
# Indices 1 2 3 4 5 6 
#
# 1 143.1047 52.4740 61.2021 0.0000 2.7222 0.0000
# 2 52.4740 216.5135 37.5991 0.0000 22.7900 0.0000
# 3 61.2021 37.5991 127.1513 0.0000 10.9353 0.0000
# 4 0.0000 0.0000 0.0000 -8.2361 0.0000 13.4198
# 5 2.7222 22.7900 10.9353 0.0000 79.1927 0.0000
# 6 0.0000 0.0000 0.0000 13.4198 0.0000 35.6155
#
#
#
# Elastic Compliance Matrix: (Units=1/GPa)
#
#
# Indices 1 2 3 4 5 6 
#
# 1 0.009307 -0.001625 -0.004060 0.000000 0.000708 0.000000
# 2 -0.001625 0.005271 -0.000659 0.000000 -0.001370 0.000000
# 3 -0.004060 -0.000659 0.010105 0.000000 -0.001066 0.000000
# 4 0.000000 0.000000 0.000000 -0.075230 0.000000 0.028346
# 5 0.000708 -0.001370 -0.001066 0.000000 0.013145 0.000000
# 6 0.000000 0.000000 0.000000 0.028346 0.000000 0.017397
#
#
# Mechanical properties :
#
#
# Convention : Reuss Voigt Hill
#
# Bulk Modulus (GPa) = 83.36347 87.70220 85.53284
# Shear Modulus (GPa) = -1506.44931 43.68071 -731.38430
#
# Velocity S-wave (km/s) = -23.44350 3.99200 -16.33496
# Velocity P-wave (km/s) = 26.50252 7.29688 18.01581
#
# Compressibility (1/GPa) = 0.01199566
#
# Stress axis : x y z
#
# Youngs Moduli (GPa) = 107.45016 189.71387 98.95789
#
# Poissons Ratio (x) = 0.30830 0.40177
# Poissons Ratio (y) = 0.17461 0.06518
# Poissons Ratio (z) = 0.43624 0.12495
#
# Static dielectric constant tensor:
#      x y z
#    x 2.166100 0.000000 -0.103710 
#    y 0.000000 2.348210 0.000000 
#    z -0.103710 0.000000 2.160370 
# 
# From -- ./inp_files/28409.got.cif
#   From: 2010.05.17/outbox.cif.g08.bks.cpg/sg5_15_cif.got.tgz:28409.got - 2010.06.03 18:56:24.
