data_PCOD9127498
_publ_section_title
;
Structure prediction by ZEFSAII (Michael W. Deem and Ramdas Pophale) SiO2 
 PCOD9127498
Probable space group: C 2
;
_chemical_formula_sum "Si O2"
_cell_formula_units_Z 22
_cell_length_a 21.873190
_cell_length_b 8.981532
_cell_length_c 7.388622
_cell_angle_alpha 90.000000
_cell_angle_beta 148.693624
_cell_angle_gamma 90.000000
_cell_volume 754.235557
_symmetry_space_group_name_H-M "C 2"
_symmetry_group_IT_number 5
_symmetry_cell_setting 'monoclinic'
loop_
_space_group_symop_operation_xyz
x,y,z
-x,y,-z
1/2+x,1/2+y,z
1/2-x,1/2+y,-z
loop_
_atom_site_type_symbol
_atom_site_label
_atom_site_fract_x
_atom_site_fract_y
_atom_site_fract_z
Si Si1 0.585475 0.711540 0.963878
Si Si2 0.991712 0.548139 0.193937
Si Si3 0.000000 0.991328 0.500000
Si Si4 0.778473 0.743259 0.151739
Si Si5 0.802287 0.781712 0.831947
Si Si6 0.362524 0.467721 0.644323
O O1 0.488866 0.596825 0.646041
O O2 0.532800 0.875415 0.827559
O O3 0.685260 0.688597 0.064570
O O4 0.633402 0.640474 0.274560
O O5 0.876225 0.635844 0.966276
O O6 0.109516 0.629430 0.566124
O O7 0.000000 0.560842 0.000000
O O8 0.898221 0.882785 0.181548
O O9 0.725414 0.758292 0.817634
O O10 0.814128 0.900378 0.336412
O O11 0.787550 0.880028 0.612177
O O12 0.500000 0.416704 0.000000
#
# Coordination Sequence:
#
# PCOD9127498 Si02
#       6
#     4   4   2   4   4   4
#     4  11  29  43  74 117 149 195 259 316 376 456
#     4  12  24  46  73 109 151 200 249 320 378 445
#     4  10  22  48  64 104 152 190 244 304 376 438
#     4  12  24  45  78 105 148 202 246 305 385 455
#     4  11  21  44  76  96 144 202 240 299 386 445
#     4  11  22  48  72  99 145 195 243 307 377 440
#
# _framework density 29.168607999999999
#
# number of rings (size 3 to 8) (size 9 to 14) (size 15 to 20)
#    0.000    0.727    5.455    1.636    5.091    2.909 
#    0.000    1.818    0.000    0.000    0.000    0.000 
#    0.000    0.000    0.000    0.000    0.000    0.000 
#
# Total GULP energy -61664.924732 kJ/mol
# GULP energy per Si atom -5605.902248 kJ/mol
# Density = 2.910222 g / cm^3
# Si number density = 29.168608 Si / 1000 Ang^3
#
#
#
# Elastic Constant Matrix: (Units=GPa)
#
#
# Indices 1 2 3 4 5 6 
#
# 1 182.3402 54.0366 54.2175 0.0000 -30.4836 0.0000
# 2 54.0366 221.3392 11.8516 0.0000 4.8092 0.0000
# 3 54.2175 11.8516 75.3574 0.0000 -11.8614 0.0000
# 4 0.0000 0.0000 0.0000 16.0667 0.0000 14.1097
# 5 -30.4836 4.8092 -11.8614 0.0000 79.9645 0.0000
# 6 0.0000 0.0000 0.0000 14.1097 0.0000 54.2009
#
#
#
# Elastic Compliance Matrix: (Units=1/GPa)
#
#
# Indices 1 2 3 4 5 6 
#
# 1 0.007880 -0.001706 -0.005030 0.000000 0.002360 0.000000
# 2 -0.001706 0.004937 0.000309 0.000000 -0.000901 0.000000
# 3 -0.005030 0.000309 0.016931 0.000000 0.000575 0.000000
# 4 0.000000 0.000000 0.000000 0.080687 0.000000 -0.021005
# 5 0.002360 -0.000901 0.000575 0.000000 0.013545 0.000000
# 6 0.000000 0.000000 0.000000 -0.021005 0.000000 0.023918
#
#
# Mechanical properties :
#
#
# Convention : Reuss Voigt Hill
#
# Bulk Modulus (GPa) = 59.18865 79.91648 69.55256
# Shear Modulus (GPa) = 30.05128 53.97516 42.01322
#
# Velocity S-wave (km/s) = 3.21325 4.30636 3.79932
# Velocity P-wave (km/s) = 5.83974 7.22384 6.56835
#
# Compressibility (1/GPa) = 0.01689513
#
# Stress axis : x y z
#
# Youngs Moduli (GPa) = 126.90572 202.53453 59.06425
#
# Poissons Ratio (x) = 0.34547 0.29707
# Poissons Ratio (y) = 0.21647 -0.01824
# Poissons Ratio (z) = 0.63828 -0.06255
#
# Static dielectric constant tensor:
#      x y z
#    x 2.389320 0.000000 0.122890 
#    y 0.000000 2.366310 0.000000 
#    z 0.122890 0.000000 2.701410 
# 
# From -- ./inp_files/30635.got.cif
#   From: 2010.05.17/outbox.cif.g08.bks.cpg/sg5_16_cif.got.tgz:30635.got - 2010.06.03 18:56:24.
