data_PCOD9127749
_publ_section_title
;
Structure prediction by ZEFSAII (Michael W. Deem and Ramdas Pophale) SiO2 
 PCOD9127749
Probable space group: C 2
;
_chemical_formula_sum "Si O2"
_cell_formula_units_Z 32
_cell_length_a 15.014420
_cell_length_b 24.121513
_cell_length_c 8.757151
_cell_angle_alpha 90.000000
_cell_angle_beta 29.402897
_cell_angle_gamma 90.000000
_cell_volume 1557.081214
_symmetry_space_group_name_H-M "C 2"
_symmetry_group_IT_number 5
_symmetry_cell_setting 'monoclinic'
loop_
_space_group_symop_operation_xyz
x,y,z
-x,y,-z
1/2+x,1/2+y,z
1/2-x,1/2+y,-z
loop_
_atom_site_type_symbol
_atom_site_label
_atom_site_fract_x
_atom_site_fract_y
_atom_site_fract_z
Si Si1 0.519142 0.287420 0.156122
Si Si2 0.203542 0.078682 0.639104
Si Si3 0.505072 0.409998 0.307201
Si Si4 0.796476 0.491821 0.255299
Si Si5 0.800075 0.198611 0.734390
Si Si6 0.571455 0.106798 0.241229
Si Si7 0.311756 0.995382 0.867683
Si Si8 0.314094 0.710091 0.350478
O O1 0.520949 0.348814 0.218310
O O2 0.350369 0.248641 0.457040
O O3 0.500000 0.289929 0.000000
O O4 0.698564 0.254284 0.939407
O O5 0.225468 0.048416 0.442014
O O6 0.405832 0.070705 0.413965
O O7 0.203842 0.145078 0.658801
O O8 0.000000 0.060931 0.000000
O O9 0.500000 0.406456 0.500000
O O10 0.327020 0.440558 0.510678
O O11 0.664513 0.452879 0.024504
O O12 0.796613 0.489820 0.072704
O O13 0.000000 0.483752 0.000000
O O14 0.816643 0.207351 0.529393
O O15 0.000000 0.189880 0.500000
O O16 0.669147 0.147594 0.978037
O O17 0.500000 0.137668 0.500000
O O18 0.712513 0.062145 0.103104
O O19 0.500000 0.983046 0.500000
O O20 0.500000 0.730801 0.000000
#
# Coordination Sequence:
#
# PCOD9127749 Si02
#       8
#     4   4   4   4   4   4   4   4
#     4  10  23  46  67  92 128 172 225 274 323 383
#     4  11  24  40  67 101 134 173 216 264 327 395
#     4  10  25  44  65  94 128 175 221 270 326 389
#     4  11  23  40  65  95 129 174 215 267 327 384
#     4  11  25  40  67  99 133 173 213 270 331 390
#     4  11  24  41  63 102 139 171 215 264 328 396
#     4  10  23  42  63  92 135 171 215 268 321 387
#     4  10  23  42  67  97 131 170 219 269 329 390
#
# _framework density 20.551271
#
# number of rings (size 3 to 8) (size 9 to 14) (size 15 to 20)
#    0.000    1.500    2.500    0.750    7.000    5.500 
#    0.000    5.000    0.000    0.000    0.000    0.000 
#    0.000    0.000    0.000    0.000    0.000    0.000 
#
# Total GULP energy -89140.270994 kJ/mol
# GULP energy per Si atom -5571.266937 kJ/mol
# Density = 2.050450 g / cm^3
# Si number density = 20.551271 Si / 1000 Ang^3
#
#
#
# Elastic Constant Matrix: (Units=GPa)
#
#
# Indices 1 2 3 4 5 6 
#
# 1 48.1832 19.1462 41.0705 0.0011 -4.1671 0.0008
# 2 19.1462 117.4089 66.0381 0.0005 -7.6260 0.0004
# 3 41.0705 66.0381 152.5452 0.0009 -8.6336 0.0009
# 4 0.0011 0.0005 0.0009 60.7453 -0.0009 33.7030
# 5 -4.1671 -7.6260 -8.6336 -0.0009 27.5819 -0.0007
# 6 0.0008 0.0004 0.0009 33.7030 -0.0007 67.3246
#
#
#
# Elastic Compliance Matrix: (Units=1/GPa)
#
#
# Indices 1 2 3 4 5 6 
#
# 1 0.027037 -0.000338 -0.007032 0.000000 0.001790 0.000000
# 2 -0.000338 0.011334 -0.004725 0.000000 0.001604 0.000000
# 3 -0.007032 -0.004725 0.010547 0.000000 0.000933 0.000000
# 4 0.000000 0.000000 0.000000 0.022793 0.000000 -0.011410
# 5 0.001790 0.001604 0.000933 0.000000 0.037262 0.000000
# 6 0.000000 0.000000 0.000000 -0.011410 0.000000 0.020565
#
#
# Mechanical properties :
#
#
# Convention : Reuss Voigt Hill
#
# Bulk Modulus (GPa) = 40.43808 63.40520 51.92164
# Shear Modulus (GPa) = 30.87005 43.92253 37.39629
#
# Velocity S-wave (km/s) = 3.87990 4.62802 4.27037
# Velocity P-wave (km/s) = 6.30800 7.71215 7.04515
#
# Compressibility (1/GPa) = 0.02472917
#
# Stress axis : x y z
#
# Youngs Moduli (GPa) = 36.98656 88.22952 94.81469
#
# Poissons Ratio (x) = 0.02978 0.66672
# Poissons Ratio (y) = 0.01249 0.44800
# Poissons Ratio (z) = 0.26008 0.41688
#
# Static dielectric constant tensor:
#      x y z
#    x 1.773440 0.000000 -0.010040 
#    y 0.000000 1.716240 0.000000 
#    z -0.010040 0.000000 1.780570 
# 
# From -- ./inp_files/25603.got.cif
#   From: 2010.05.17/outbox.cif.g08.bks.cpg/sg5_13_cif.got.tgz:25603.got - 2010.06.03 18:56:24.
