data_PCOD9127586
_publ_section_title
;
Structure prediction by ZEFSAII (Michael W. Deem and Ramdas Pophale) SiO2 
 PCOD9127586
Probable space group: C 2
;
_chemical_formula_sum "Si O2"
_cell_formula_units_Z 32
_cell_length_a 21.316477
_cell_length_b 15.164450
_cell_length_c 7.607797
_cell_angle_alpha 90.000000
_cell_angle_beta 33.197085
_cell_angle_gamma 90.000000
_cell_volume 1346.484981
_symmetry_space_group_name_H-M "C 2"
_symmetry_group_IT_number 5
_symmetry_cell_setting 'monoclinic'
loop_
_space_group_symop_operation_xyz
x,y,z
-x,y,-z
1/2+x,1/2+y,z
1/2-x,1/2+y,-z
loop_
_atom_site_type_symbol
_atom_site_label
_atom_site_fract_x
_atom_site_fract_y
_atom_site_fract_z
Si Si1 0.943221 0.971620 0.815207
Si Si2 0.770920 0.436034 0.876879
Si Si3 0.988835 0.162042 0.235146
Si Si4 0.145460 0.327344 0.852475
Si Si5 0.491981 0.003666 0.805884
Si Si6 0.221286 0.262055 0.306945
Si Si7 0.970488 0.707778 0.858119
Si Si8 0.873987 0.859385 0.511441
O O1 0.000000 0.938703 0.500000
O O2 0.006271 0.910377 0.807046
O O3 0.808687 0.959098 0.104052
O O4 0.967881 0.073682 0.778933
O O5 0.782209 0.330625 0.842554
O O6 0.890145 0.482221 0.571292
O O7 0.694471 0.440462 0.229671
O O8 0.854435 0.179983 0.576735
O O9 0.000000 0.148689 0.000000
O O10 0.066427 0.246516 0.106139
O O11 0.149964 0.310037 0.631761
O O12 0.276815 0.326747 0.606386
O O13 0.091468 0.420929 0.033051
O O14 0.464878 0.104521 0.823156
O O15 0.500000 0.002806 0.000000
O O16 0.346733 0.243271 0.086688
O O17 0.071339 0.768199 0.537980
O O18 0.000000 0.713475 0.000000
#
# Coordination Sequence:
#
# PCOD9127586 Si02
#       8
#     4   4   4   4   4   4   4   4
#     4  10  24  43  64  92 129 172 219 266 332 396
#     4  11  23  44  66  88 134 176 210 273 335 387
#     4  10  23  39  65  98 127 168 221 270 327 390
#     4  11  22  42  65  96 134 169 219 270 328 400
#     4  11  23  42  68  99 132 174 222 272 333 393
#     4  11  21  42  66  92 132 172 215 270 329 387
#     4  11  24  41  68 103 131 174 224 275 334 392
#     4  11  25  42  62  98 133 172 220 266 335 398
#
# _framework density 23.765582999999999
#
# number of rings (size 3 to 8) (size 9 to 14) (size 15 to 20)
#    0.000    1.250    5.000    0.375    3.500    4.000 
#    2.250    1.250    0.000    0.000    0.000    0.000 
#    0.000    0.000    0.000    0.000    0.000    0.000 
#
# Total GULP energy -89245.479106 kJ/mol
# GULP energy per Si atom -5577.842444 kJ/mol
# Density = 2.371149 g / cm^3
# Si number density = 23.765583 Si / 1000 Ang^3
#
#
#
# Elastic Constant Matrix: (Units=GPa)
#
#
# Indices 1 2 3 4 5 6 
#
# 1 48.3016 11.2557 7.4496 0.0000 -10.2817 0.0000
# 2 11.2557 130.1097 26.5952 0.0000 -11.1323 0.0000
# 3 7.4496 26.5952 54.7092 0.0000 -20.3731 0.0000
# 4 0.0000 0.0000 0.0000 27.3589 0.0000 -9.1623
# 5 -10.2817 -11.1323 -20.3731 0.0000 32.3505 0.0000
# 6 0.0000 0.0000 0.0000 -9.1623 0.0000 44.9002
#
#
#
# Elastic Compliance Matrix: (Units=1/GPa)
#
#
# Indices 1 2 3 4 5 6 
#
# 1 0.022441 -0.001391 0.000128 0.000000 0.006734 0.000000
# 2 -0.001391 0.008625 -0.004001 0.000000 0.000006 0.000000
# 3 0.000128 -0.004001 0.025746 0.000000 0.014878 0.000000
# 4 0.000000 0.000000 0.000000 0.039232 0.000000 0.008006
# 5 0.006734 0.000006 0.014878 0.000000 0.042424 0.000000
# 6 0.000000 0.000000 0.000000 0.008006 0.000000 0.023905
#
#
# Mechanical properties :
#
#
# Convention : Reuss Voigt Hill
#
# Bulk Modulus (GPa) = 21.60556 35.96907 28.78731
# Shear Modulus (GPa) = 26.54932 33.44325 29.99628
#
# Velocity S-wave (km/s) = 3.34598 3.75535 3.55656
# Velocity P-wave (km/s) = 4.90289 5.82850 5.38561
#
# Compressibility (1/GPa) = 0.04628438
#
# Stress axis : x y z
#
# Youngs Moduli (GPa) = 44.56091 115.94870 38.84054
#
# Poissons Ratio (x) = 0.16133 -0.00499
# Poissons Ratio (y) = 0.06200 0.15539
# Poissons Ratio (z) = -0.00572 0.46389
#
# Static dielectric constant tensor:
#      x y z
#    x 2.010440 0.000000 0.070770 
#    y 0.000000 1.860950 0.000000 
#    z 0.070770 0.000000 2.005100 
# 
# From -- ./inp_files/31070.got.cif
#   From: 2010.05.17/outbox.cif.g08.bks.cpg/sg5_16_cif.got.tgz:31070.got - 2010.06.03 18:56:24.
