data_PCOD9127094
_publ_section_title
;
Structure prediction by ZEFSAII (Michael W. Deem and Ramdas Pophale) SiO2 
 PCOD9127094
Probable space group: C 2
;
_chemical_formula_sum "Si O2"
_cell_formula_units_Z 28
_cell_length_a 13.600421
_cell_length_b 5.472428
_cell_length_c 18.751421
_cell_angle_alpha 90.000000
_cell_angle_beta 126.841474
_cell_angle_gamma 90.000000
_cell_volume 1116.909750
_symmetry_space_group_name_H-M "C 2"
_symmetry_group_IT_number 5
_symmetry_cell_setting 'monoclinic'
loop_
_space_group_symop_operation_xyz
x,y,z
-x,y,-z
1/2+x,1/2+y,z
1/2-x,1/2+y,-z
loop_
_atom_site_type_symbol
_atom_site_label
_atom_site_fract_x
_atom_site_fract_y
_atom_site_fract_z
Si Si1 0.667431 0.274460 0.806555
Si Si2 0.846984 0.269256 0.285084
Si Si3 0.500000 0.357603 0.500000
Si Si4 0.333174 0.909052 0.994690
Si Si5 0.414702 0.981324 0.575690
Si Si6 0.263058 0.706333 0.397467
Si Si7 0.441520 0.532809 0.113874
Si Si8 0.500000 0.305456 0.000000
O O1 0.686299 0.509164 0.763616
O O2 0.787175 0.245924 0.908367
O O3 0.559500 0.384467 0.812997
O O4 0.650709 0.012745 0.762729
O O5 0.762272 0.312630 0.317696
O O6 0.990775 0.261064 0.371220
O O7 0.375461 0.513143 0.443757
O O8 0.490253 0.183692 0.564845
O O9 0.203493 0.994313 0.969613
O O10 0.391184 0.131536 0.976890
O O11 0.431261 0.825266 0.097588
O O12 0.305234 0.903221 0.474921
O O13 0.356704 0.078486 0.623155
O O14 0.523776 0.445737 0.084475
#
# Coordination Sequence:
#
# PCOD9127094 Si02
#       8
#     4   4   2   4   4   4   4   2
#     4  10  27  45  77  96 161 188 231 298 377 419
#     4  12  25  49  70 106 146 204 221 303 370 437
#     4  12  20  44  72 104 130 182 232 312 348 408
#     4  10  22  43  72 102 136 183 239 298 342 425
#     4  12  25  42  75 103 139 186 252 298 355 429
#     4  12  25  42  75 103 139 186 252 298 355 429
#     4  10  22  43  72 102 136 183 239 298 342 425
#     4  12  22  40  80 100 128 188 246 296 358 406
#
# _framework density 25.06917
#
# number of rings (size 3 to 8) (size 9 to 14) (size 15 to 20)
#    0.857    0.000    5.714    1.286    6.000    0.000 
#    2.571    0.000    0.000    0.000    0.000    0.000 
#    0.000    0.000    0.000    0.000    0.000    0.000 
#
# Total GULP energy -78074.210890 kJ/mol
# GULP energy per Si atom -5576.729349 kJ/mol
# Density = 2.501211 g / cm^3
# Si number density = 25.069170 Si / 1000 Ang^3
#
#
#
# Elastic Constant Matrix: (Units=GPa)
#
#
# Indices 1 2 3 4 5 6 
#
# 1 146.8940 22.6154 23.5913 0.0000 -40.6922 0.0000
# 2 22.6154 64.8383 28.4256 0.0000 -12.0969 0.0000
# 3 23.5913 28.4256 71.9483 0.0000 -28.9974 0.0000
# 4 0.0000 0.0000 0.0000 51.1561 0.0000 -14.6493
# 5 -40.6922 -12.0969 -28.9974 0.0000 35.8366 0.0000
# 6 0.0000 0.0000 0.0000 -14.6493 0.0000 51.8907
#
#
#
# Elastic Compliance Matrix: (Units=1/GPa)
#
#
# Indices 1 2 3 4 5 6 
#
# 1 0.010418 -0.002424 0.002937 0.000000 0.013388 0.000000
# 2 -0.002424 0.019224 -0.007856 0.000000 -0.002620 0.000000
# 3 0.002937 -0.007856 0.024210 0.000000 0.020273 0.000000
# 4 0.000000 0.000000 0.000000 0.021267 0.000000 0.006004
# 5 0.013388 -0.002620 0.020273 0.000000 0.058626 0.000000
# 6 0.000000 0.000000 0.000000 0.006004 0.000000 0.020966
#
#
# Mechanical properties :
#
#
# Convention : Reuss Voigt Hill
#
# Bulk Modulus (GPa) = 25.53165 48.10503 36.81834
# Shear Modulus (GPa) = 27.40441 41.71323 34.55882
#
# Velocity S-wave (km/s) = 3.30987 4.08355 3.71690
# Velocity P-wave (km/s) = 4.98132 6.43929 5.75665
#
# Compressibility (1/GPa) = 0.03916707
#
# Stress axis : x y z
#
# Youngs Moduli (GPa) = 95.99025 52.01892 41.30465
#
# Poissons Ratio (x) = 0.12608 -0.12133
# Poissons Ratio (y) = 0.23265 0.32450
# Poissons Ratio (z) = -0.28196 0.40867
#
# Static dielectric constant tensor:
#      x y z
#    x 1.945920 0.000000 -0.019610 
#    y 0.000000 2.241210 0.000000 
#    z -0.019610 0.000000 2.152690 
# 
# From -- ./inp_files/61283.got.cif
#   From: 2010.05.17/outbox.cif.g08.bks.cpg/sg5_31_cif.got.tgz:61283.got - 2010.06.03 18:56:24.
