data_PCOD9127894
_publ_section_title
;
Structure prediction by ZEFSAII (Michael W. Deem and Ramdas Pophale) SiO2 
 PCOD9127894
Probable space group: C 2
;
_chemical_formula_sum "Si O2"
_cell_formula_units_Z 32
_cell_length_a 29.754666
_cell_length_b 5.191245
_cell_length_c 8.928344
_cell_angle_alpha 90.000000
_cell_angle_beta 82.669654
_cell_angle_gamma 90.000000
_cell_volume 1367.834172
_symmetry_space_group_name_H-M "C 2"
_symmetry_group_IT_number 5
_symmetry_cell_setting 'monoclinic'
loop_
_space_group_symop_operation_xyz
x,y,z
-x,y,-z
1/2+x,1/2+y,z
1/2-x,1/2+y,-z
loop_
_atom_site_type_symbol
_atom_site_label
_atom_site_fract_x
_atom_site_fract_y
_atom_site_fract_z
Si Si1 0.235501 0.412490 0.415773
Si Si2 0.770279 0.940442 0.067397
Si Si3 0.948970 0.276780 0.529150
Si Si4 0.357536 0.041255 0.692662
Si Si5 0.450750 0.200421 0.041392
Si Si6 0.641282 0.739224 0.012895
Si Si7 0.920597 0.208447 0.202467
Si Si8 0.917855 0.913410 0.770356
O O1 0.257490 0.653091 0.493308
O O2 0.259171 0.381821 0.244031
O O3 0.182901 0.477143 0.401876
O O4 0.755027 0.701324 0.973528
O O5 0.822419 0.014810 0.021974
O O6 0.952145 0.024849 0.635326
O O7 0.000000 0.390538 0.500000
O O8 0.906660 0.435163 0.617230
O O9 0.930575 0.214730 0.372796
O O10 0.343403 0.932478 0.862878
O O11 0.370862 0.339852 0.707841
O O12 0.432161 0.190793 0.879442
O O13 0.500000 0.318959 0.000000
O O14 0.424373 0.409066 0.153132
O O15 0.454060 0.923558 0.117519
O O16 0.595312 0.630613 0.105091
O O17 0.626353 0.818834 0.851953
#
# Coordination Sequence:
#
# PCOD9127894 Si02
#       8
#     4   4   4   4   4   4   4   4
#     4  12  29  49  74 114 153 197 245 308 387 449
#     4  12  25  45  78 107 145 192 250 303 362 450
#     4  11  27  44  70 107 153 197 246 303 378 439
#     4  11  24  47  73  99 152 195 244 302 380 442
#     4  11  23  42  70  95 139 182 245 296 352 422
#     4  10  23  44  70 103 138 187 249 301 361 428
#     4  11  25  42  65 107 134 183 243 300 348 429
#     4  10  23  43  71  98 142 200 238 303 369 439
#
# _framework density 23.394646999999999
#
# number of rings (size 3 to 8) (size 9 to 14) (size 15 to 20)
#    0.000    1.000    2.500    2.625    8.750    0.500 
#    2.250    0.000    0.000    0.000    0.000    0.000 
#    0.000    0.000    0.000    0.000    0.000    0.000 
#
# Total GULP energy -89266.975174 kJ/mol
# GULP energy per Si atom -5579.185948 kJ/mol
# Density = 2.334140 g / cm^3
# Si number density = 23.394647 Si / 1000 Ang^3
#
#
#
# Elastic Constant Matrix: (Units=GPa)
#
#
# Indices 1 2 3 4 5 6 
#
# 1 78.2195 -4.6043 30.1105 0.0000 1.0776 0.0000
# 2 -4.6043 66.1374 11.4908 0.0000 -0.4716 0.0000
# 3 30.1105 11.4908 122.7220 0.0000 14.3433 0.0000
# 4 0.0000 0.0000 0.0000 24.9954 0.0000 0.6267
# 5 1.0776 -0.4716 14.3433 0.0000 32.6044 0.0000
# 6 0.0000 0.0000 0.0000 0.6267 0.0000 35.0906
#
#
#
# Elastic Compliance Matrix: (Units=1/GPa)
#
#
# Indices 1 2 3 4 5 6 
#
# 1 0.014335 0.001670 -0.003817 0.000000 0.001230 0.000000
# 2 0.001670 0.015590 -0.001992 0.000000 0.001047 0.000000
# 3 -0.003817 -0.001992 0.009762 0.000000 -0.004197 0.000000
# 4 0.000000 0.000000 0.000000 0.040025 0.000000 -0.000715
# 5 0.001230 0.001047 -0.004197 0.000000 0.032492 0.000000
# 6 0.000000 0.000000 0.000000 -0.000715 0.000000 0.028510
#
#
# Mechanical properties :
#
#
# Convention : Reuss Voigt Hill
#
# Bulk Modulus (GPa) = 31.83793 37.89699 34.86746
# Shear Modulus (GPa) = 31.35532 33.87688 32.61610
#
# Velocity S-wave (km/s) = 3.66495 3.80947 3.73791
# Velocity P-wave (km/s) = 5.61674 5.96520 5.79359
#
# Compressibility (1/GPa) = 0.03140907
#
# Stress axis : x y z
#
# Youngs Moduli (GPa) = 69.75750 64.14450 102.43648
#
# Poissons Ratio (x) = -0.10712 0.39103
# Poissons Ratio (y) = -0.11649 0.20403
# Poissons Ratio (z) = 0.26629 0.12776
#
# Static dielectric constant tensor:
#      x y z
#    x 1.956830 0.000000 0.032390 
#    y 0.000000 1.969510 0.000000 
#    z 0.032390 0.000000 1.920770 
# 
# From -- ./inp_files/32295.got.cif
#   From: 2010.05.17/outbox.cif.g08.bks.cpg/sg5_17_cif.got.tgz:32295.got - 2010.06.03 18:56:24.
