data_PCOD9127139
_publ_section_title
;
Structure prediction by ZEFSAII (Michael W. Deem and Ramdas Pophale) SiO2 
 PCOD9127139
Probable space group: C 2
;
_chemical_formula_sum "Si O2"
_cell_formula_units_Z 28
_cell_length_a 7.849529
_cell_length_b 9.983252
_cell_length_c 22.723037
_cell_angle_alpha 90.000000
_cell_angle_beta 43.027672
_cell_angle_gamma 90.000000
_cell_volume 1215.038834
_symmetry_space_group_name_H-M "C 2"
_symmetry_group_IT_number 5
_symmetry_cell_setting 'monoclinic'
loop_
_space_group_symop_operation_xyz
x,y,z
-x,y,-z
1/2+x,1/2+y,z
1/2-x,1/2+y,-z
loop_
_atom_site_type_symbol
_atom_site_label
_atom_site_fract_x
_atom_site_fract_y
_atom_site_fract_z
Si Si1 0.497777 0.468050 0.569094
Si Si2 0.306368 0.216579 0.333468
Si Si3 0.000000 0.395983 0.500000
Si Si4 0.263987 0.214602 0.678104
Si Si5 0.000000 0.008258 0.000000
Si Si6 0.038532 0.962741 0.221750
Si Si7 0.707233 0.613405 0.063064
Si Si8 0.024705 0.373436 0.161684
O O1 0.500000 0.505427 0.500000
O O2 0.317483 0.573674 0.647579
O O3 0.769997 0.476170 0.529823
O O4 0.403154 0.313630 0.597938
O O5 0.538467 0.194764 0.318882
O O6 0.409901 0.316300 0.257318
O O7 0.107041 0.302472 0.421142
O O8 0.143794 0.069568 0.699529
O O9 0.044367 0.308511 0.758858
O O10 0.172086 0.077460 0.004458
O O11 0.796454 0.936131 0.092271
O O12 0.103796 0.012719 0.139602
O O13 0.294841 0.957546 0.194326
O O14 0.552673 0.748298 0.110873
O O15 0.000000 0.633621 0.000000
#
# Coordination Sequence:
#
# PCOD9127139 Si02
#       8
#     4   4   2   4   2   4   4   4
#     4  11  24  48  76 104 141 189 233 292 356 416
#     4  10  22  45  69 104 146 179 240 296 339 423
#     4  10  24  46  66 104 148 174 238 296 338 428
#     4   9  23  45  69 101 143 184 236 291 347 425
#     4  12  24  40  72 104 132 182 242 284 356 428
#     4  10  22  45  73  98 149 190 229 298 354 412
#     4  11  23  43  70  99 142 185 233 293 354 413
#     4  10  22  44  66 101 141 181 235 294 344 424
#
# _framework density 23.044530999999999
#
# number of rings (size 3 to 8) (size 9 to 14) (size 15 to 20)
#    0.000    1.714    2.857    0.000    2.000    4.571 
#   10.286    5.714    0.000    0.000    0.000    0.000 
#    0.000    0.000    0.000    0.000    0.000    0.000 
#
# Total GULP energy -78197.079799 kJ/mol
# GULP energy per Si atom -5585.505700 kJ/mol
# Density = 2.299208 g / cm^3
# Si number density = 23.044531 Si / 1000 Ang^3
#
#
#
# Elastic Constant Matrix: (Units=GPa)
#
#
# Indices 1 2 3 4 5 6 
#
# 1 88.7516 49.1455 34.6512 -0.0004 -10.2576 -0.0003
# 2 49.1455 100.4424 30.1169 0.0002 -19.0776 0.0002
# 3 34.6512 30.1169 82.1952 -0.0008 -21.1839 -0.0005
# 4 -0.0004 0.0002 -0.0008 40.5696 0.0004 -5.6743
# 5 -10.2576 -19.0776 -21.1839 0.0004 35.0011 0.0004
# 6 -0.0003 0.0002 -0.0005 -5.6743 0.0004 39.0178
#
#
#
# Elastic Compliance Matrix: (Units=1/GPa)
#
#
# Indices 1 2 3 4 5 6 
#
# 1 0.016978 -0.007173 -0.005041 0.000000 -0.001985 0.000000
# 2 -0.007173 0.014785 -0.001017 0.000000 0.005341 0.000000
# 3 -0.005041 -0.001017 0.016754 0.000000 0.008108 0.000000
# 4 0.000000 0.000000 0.000000 0.025161 0.000000 0.003659
# 5 -0.001985 0.005341 0.008108 0.000000 0.035807 0.000000
# 6 0.000000 0.000000 0.000000 0.003659 0.000000 0.026161
#
#
# Mechanical properties :
#
#
# Convention : Reuss Voigt Hill
#
# Bulk Modulus (GPa) = 45.34027 55.46847 50.40437
# Shear Modulus (GPa) = 29.50572 33.41606 31.46089
#
# Velocity S-wave (km/s) = 3.58212 3.81210 3.69890
# Velocity P-wave (km/s) = 6.06849 6.59534 6.33739
#
# Compressibility (1/GPa) = 0.02205545
#
# Stress axis : x y z
#
# Youngs Moduli (GPa) = 58.90011 67.63683 59.68883
#
# Poissons Ratio (x) = 0.48514 0.30088
# Poissons Ratio (y) = 0.42247 0.06070
# Poissons Ratio (z) = 0.29690 0.06878
#
# Static dielectric constant tensor:
#      x y z
#    x 1.293990 0.000000 0.179220 
#    y 0.000000 1.912640 0.000000 
#    z 0.179220 0.000000 1.901650 
# 
# From -- ./inp_files/70154.got.cif
#   From: 2010.05.17/outbox.cif.g08.bks.cpg/sg5_36_cif.got.tgz:70154.got - 2010.06.03 18:56:24.
