data_PCOD9127830
_publ_section_title
;
Structure prediction by ZEFSAII (Michael W. Deem and Ramdas Pophale) SiO2 
 PCOD9127830
Probable space group: C 2
;
_chemical_formula_sum "Si O2"
_cell_formula_units_Z 20
_cell_length_a 17.993240
_cell_length_b 5.187311
_cell_length_c 15.194440
_cell_angle_alpha 90.000000
_cell_angle_beta 32.968205
_cell_angle_gamma 90.000000
_cell_volume 771.744932
_symmetry_space_group_name_H-M "C 2"
_symmetry_group_IT_number 5
_symmetry_cell_setting 'monoclinic'
loop_
_space_group_symop_operation_xyz
x,y,z
-x,y,-z
1/2+x,1/2+y,z
1/2-x,1/2+y,-z
loop_
_atom_site_type_symbol
_atom_site_label
_atom_site_fract_x
_atom_site_fract_y
_atom_site_fract_z
Si Si1 0.615228 0.120900 0.313774
Si Si2 0.059592 0.251328 0.223511
Si Si3 0.277073 0.139961 0.124580
Si Si4 0.289137 0.497702 0.517865
Si Si5 0.535031 0.871693 0.872594
O O1 0.500000 0.157765 0.500000
O O2 0.711224 0.366467 0.213249
O O3 0.549931 0.022304 0.285690
O O4 0.708243 0.871983 0.245509
O O5 0.215242 0.176487 0.088006
O O6 0.020559 0.240216 0.160868
O O7 0.945293 0.070736 0.383126
O O8 0.438074 0.124569 0.970567
O O9 0.271760 0.252556 0.470329
O O10 0.191554 0.435305 0.697238
O O11 0.500000 0.741904 0.000000
#
# Coordination Sequence:
#
# PCOD9127830 Si02
#       5
#     4   4   4   4   4
#     4  10  23  42  75 106 139 187 252 302 351 432
#     4   9  25  44  77  98 146 196 247 287 365 440
#     4  10  25  43  75 101 145 186 255 291 366 423
#     4  10  24  44  69 100 146 191 241 291 370 435
#     4  11  26  47  72 114 152 191 238 316 372 431
#
# _framework density 25.915299000000001
#
# number of rings (size 3 to 8) (size 9 to 14) (size 15 to 20)
#    1.200    0.800    0.000    0.600   11.200    3.200 
#    7.200    5.000    0.000    0.000    0.000    0.000 
#    0.000    0.000    0.000    0.000    0.000    0.000 
#
# Total GULP energy -55893.015291 kJ/mol
# GULP energy per Si atom -5589.301529 kJ/mol
# Density = 2.585631 g / cm^3
# Si number density = 25.915299 Si / 1000 Ang^3
#
#
#
# Elastic Constant Matrix: (Units=GPa)
#
#
# Indices 1 2 3 4 5 6 
#
# 1 113.4142 -8.7065 23.9500 -0.0103 22.7996 0.0062
# 2 -8.7065 135.7160 17.0308 -0.0207 23.5606 0.0216
# 3 23.9500 17.0308 165.7646 -0.0163 27.1761 0.0145
# 4 -0.0103 -0.0207 -0.0163 28.9061 0.0058 -5.1106
# 5 22.7996 23.5606 27.1761 0.0058 28.3521 -0.0047
# 6 0.0062 0.0216 0.0145 -5.1106 -0.0047 24.6432
#
#
#
# Elastic Compliance Matrix: (Units=1/GPa)
#
#
# Indices 1 2 3 4 5 6 
#
# 1 0.011301 0.002688 -0.000063 0.000007 -0.011261 -0.000006
# 2 0.002688 0.009266 0.000328 0.000008 -0.010176 -0.000009
# 3 -0.000063 0.000328 0.007171 0.000005 -0.007096 -0.000005
# 4 0.000007 0.000008 0.000005 0.035912 -0.000023 0.007447
# 5 -0.011261 -0.010176 -0.007096 -0.000023 0.059584 0.000022
# 6 -0.000006 -0.000009 -0.000005 0.007447 0.000022 0.042124
#
#
# Mechanical properties :
#
#
# Convention : Reuss Voigt Hill
#
# Bulk Modulus (GPa) = 29.72291 53.27150 41.49721
# Shear Modulus (GPa) = 29.29693 41.88830 35.59261
#
# Velocity S-wave (km/s) = 3.36592 4.02475 3.70999
# Velocity P-wave (km/s) = 5.15752 6.49606 5.86510
#
# Compressibility (1/GPa) = 0.03364408
#
# Stress axis : x y z
#
# Youngs Moduli (GPa) = 88.49098 107.91945 139.44341
#
# Poissons Ratio (x) = -0.29006 0.00875
# Poissons Ratio (y) = -0.23784 -0.04573
# Poissons Ratio (z) = 0.00555 -0.03539
#
# Static dielectric constant tensor:
#      x y z
#    x 2.106680 0.000000 0.019200 
#    y 0.000000 2.033470 0.000000 
#    z 0.019200 0.000000 2.037710 
# 
# From -- ./inp_files/57426.got.cif
#   From: 2010.05.17/outbox.cif.g08.bks.cpg/sg5_29_cif.got.tgz:57426.got - 2010.06.03 18:56:24.
