data_PCOD9127682
_publ_section_title
;
Structure prediction by ZEFSAII (Michael W. Deem and Ramdas Pophale) SiO2 
 PCOD9127682
Probable space group: C 2
;
_chemical_formula_sum "Si O2"
_cell_formula_units_Z 18
_cell_length_a 6.570512
_cell_length_b 20.477011
_cell_length_c 5.274342
_cell_angle_alpha 90.000000
_cell_angle_beta 106.370333
_cell_angle_gamma 90.000000
_cell_volume 680.864913
_symmetry_space_group_name_H-M "C 2"
_symmetry_group_IT_number 5
_symmetry_cell_setting 'monoclinic'
loop_
_space_group_symop_operation_xyz
x,y,z
-x,y,-z
1/2+x,1/2+y,z
1/2-x,1/2+y,-z
loop_
_atom_site_type_symbol
_atom_site_label
_atom_site_fract_x
_atom_site_fract_y
_atom_site_fract_z
Si Si1 0.000000 0.767560 0.500000
Si Si2 0.909569 0.896198 0.696810
Si Si3 0.915023 0.437254 0.705426
Si Si4 0.253508 0.080926 0.593102
Si Si5 0.750751 0.661597 0.093994
O O1 0.882238 0.816961 0.653710
O O2 0.858020 0.723530 0.265749
O O3 0.657629 0.926164 0.639454
O O4 0.156575 0.910864 0.641301
O O5 0.000000 0.915777 0.000000
O O6 0.872761 0.515254 0.710083
O O7 0.000000 0.408695 0.000000
O O8 0.292585 0.105511 0.320428
O O9 0.000000 0.066274 0.500000
O O10 0.296581 0.136167 0.823366
O O11 0.500000 0.673830 0.000000
#
# Coordination Sequence:
#
# PCOD9127682 Si02
#       5
#     2   4   4   4   4
#     4  10  26  42  74  94 138 186 224 278 332 414
#     4  10  24  45  65  95 130 189 222 271 341 394
#     4  12  25  41  67 104 135 175 229 286 337 408
#     4  10  23  42  65  96 136 176 212 280 344 402
#     4  10  23  41  66 102 134 172 227 276 338 405
#
# _framework density 26.436964
#
# number of rings (size 3 to 8) (size 9 to 14) (size 15 to 20)
#    0.667    0.889    0.000    3.333    7.778    3.556 
#    0.000    0.000    0.000    0.000    0.000    0.000 
#    0.000    0.000    0.000    0.000    0.000    0.000 
#
# Total GULP energy -50267.779277 kJ/mol
# GULP energy per Si atom -5585.308809 kJ/mol
# Density = 2.637679 g / cm^3
# Si number density = 26.436964 Si / 1000 Ang^3
#
#
#
# Elastic Constant Matrix: (Units=GPa)
#
#
# Indices 1 2 3 4 5 6 
#
# 1 178.1617 51.1718 121.1810 0.0000 12.0439 0.0000
# 2 51.1718 133.5134 24.5584 0.0000 31.5386 0.0000
# 3 121.1810 24.5584 275.9630 0.0000 28.0246 0.0000
# 4 0.0000 0.0000 0.0000 -113.0519 0.0000 45.5134
# 5 12.0439 31.5386 28.0246 0.0000 104.0524 0.0000
# 6 0.0000 0.0000 0.0000 45.5134 0.0000 12.7999
#
#
#
# Elastic Compliance Matrix: (Units=1/GPa)
#
#
# Indices 1 2 3 4 5 6 
#
# 1 0.008958 -0.002947 -0.003759 0.000000 0.000869 0.000000
# 2 -0.002947 0.009100 0.000750 0.000000 -0.002619 0.000000
# 3 -0.003759 0.000750 0.005333 0.000000 -0.001228 0.000000
# 4 0.000000 0.000000 0.000000 -0.003638 0.000000 0.012935
# 5 0.000869 -0.002619 -0.001228 0.000000 0.010635 0.000000
# 6 0.000000 0.000000 0.000000 0.012935 0.000000 0.032131
#
#
# Mechanical properties :
#
#
# Convention : Reuss Voigt Hill
#
# Bulk Modulus (GPa) = 87.12436 109.05117 98.08777
# Shear Modulus (GPa) = 63.89281 26.80855 45.35068
#
# Velocity S-wave (km/s) = 4.92143 3.18788 4.14626
# Velocity P-wave (km/s) = 8.08214 7.40872 7.75275
#
# Compressibility (1/GPa) = 0.01147785
#
# Stress axis : x y z
#
# Youngs Moduli (GPa) = 111.63616 109.88908 187.52823
#
# Poissons Ratio (x) = 0.32384 0.70501
# Poissons Ratio (y) = 0.32899 -0.14069
# Poissons Ratio (z) = 0.41969 -0.08244
#
# Static dielectric constant tensor:
#      x y z
#    x 2.426840 0.000000 0.151470 
#    y 0.000000 1.927080 0.000000 
#    z 0.151470 0.000000 2.129010 
# 
# From -- ./inp_files/3084.got.cif
#   From: 2010.05.17/outbox.cif.g08.bks.cpg/sg5_2_cif.got.tgz:3084.got - 2010.06.03 18:56:24.
