data_PCOD9127149
_publ_section_title
;
Structure prediction by ZEFSAII (Michael W. Deem and Ramdas Pophale) SiO2 
 PCOD9127149
Probable space group: C 2
;
_chemical_formula_sum "Si O2"
_cell_formula_units_Z 30
_cell_length_a 8.925804
_cell_length_b 11.173946
_cell_length_c 14.125359
_cell_angle_alpha 90.000000
_cell_angle_beta 65.269017
_cell_angle_gamma 90.000000
_cell_volume 1279.599774
_symmetry_space_group_name_H-M "C 2"
_symmetry_group_IT_number 5
_symmetry_cell_setting 'monoclinic'
loop_
_space_group_symop_operation_xyz
x,y,z
-x,y,-z
1/2+x,1/2+y,z
1/2-x,1/2+y,-z
loop_
_atom_site_type_symbol
_atom_site_label
_atom_site_fract_x
_atom_site_fract_y
_atom_site_fract_z
Si Si1 0.021634 0.786150 0.680640
Si Si2 0.438536 0.568724 0.921295
Si Si3 0.529234 0.908613 0.213623
Si Si4 0.886970 0.538535 0.437274
Si Si5 0.319715 0.724949 0.706191
Si Si6 0.284581 0.467820 0.779641
Si Si7 0.232022 0.642596 0.129601
Si Si8 0.000000 0.092534 0.500000
O O1 0.060944 0.677211 0.599742
O O2 0.194608 0.811683 0.684922
O O3 0.923007 0.904589 0.677096
O O4 0.898350 0.732918 0.792999
O O5 0.358973 0.490896 0.862162
O O6 0.610831 0.625433 0.842637
O O7 0.500000 0.498415 0.000000
O O8 0.313566 0.661935 0.004974
O O9 0.620776 0.788445 0.215945
O O10 0.380743 0.893024 0.180480
O O11 0.452178 0.955306 0.334232
O O12 0.644738 0.013907 0.147314
O O13 0.683332 0.535688 0.482047
O O14 0.000000 0.507441 0.500000
O O15 0.235140 0.599158 0.755097
O O16 0.460202 0.679762 0.598914
#
# Coordination Sequence:
#
# PCOD9127149 Si02
#       8
#     4   4   4   4   4   4   4   2
#     4  10  22  44  66  96 134 179 223 271 344 401
#     4   8  21  39  66  99 129 176 223 273 335 394
#     4  11  23  42  67 100 132 178 224 271 348 397
#     4  10  23  45  68 102 136 185 227 283 339 400
#     4  11  25  44  65  99 138 173 219 285 330 400
#     4  12  23  43  68  97 132 176 225 270 339 408
#     4   8  18  44  63  94 135 162 230 265 329 406
#     4  10  22  46  62 100 142 166 240 274 332 410
#
# _framework density 23.444828999999999
#
# number of rings (size 3 to 8) (size 9 to 14) (size 15 to 20)
#    0.800    1.067    4.000    0.800    4.667    2.667 
#    6.000    0.000    0.000    0.000    0.000    0.000 
#    0.000    0.000    0.000    0.000    0.000    0.000 
#
# Total GULP energy -83556.124538 kJ/mol
# GULP energy per Si atom -5570.408303 kJ/mol
# Density = 2.339147 g / cm^3
# Si number density = 23.444829 Si / 1000 Ang^3
#
#
#
# Elastic Constant Matrix: (Units=GPa)
#
#
# Indices 1 2 3 4 5 6 
#
# 1 126.5776 25.1576 29.7791 0.0000 -5.5079 0.0000
# 2 25.1576 56.0901 -15.4518 0.0000 -4.5308 0.0000
# 3 29.7791 -15.4518 51.5358 0.0000 -11.9350 0.0000
# 4 0.0000 0.0000 0.0000 19.8071 0.0000 -4.8468
# 5 -5.5079 -4.5308 -11.9350 0.0000 45.3928 0.0000
# 6 0.0000 0.0000 0.0000 -4.8468 0.0000 27.1774
#
#
#
# Elastic Compliance Matrix: (Units=1/GPa)
#
#
# Indices 1 2 3 4 5 6 
#
# 1 0.011671 -0.008031 -0.009593 0.000000 -0.001908 0.000000
# 2 -0.008031 0.025561 0.013491 0.000000 0.005124 0.000000
# 3 -0.009593 0.013491 0.030917 0.000000 0.008312 0.000000
# 4 0.000000 0.000000 0.000000 0.052791 0.000000 0.009415
# 5 -0.001908 0.005124 0.008312 0.000000 0.024495 0.000000
# 6 0.000000 0.000000 0.000000 0.009415 0.000000 0.038474
#
#
# Mechanical properties :
#
#
# Convention : Reuss Voigt Hill
#
# Bulk Modulus (GPa) = 16.69950 34.79704 25.74827
# Shear Modulus (GPa) = 23.56967 31.45671 27.51319
#
# Velocity S-wave (km/s) = 3.17413 3.66694 3.42940
# Velocity P-wave (km/s) = 4.53561 5.72738 5.16598
#
# Compressibility (1/GPa) = 0.05988204
#
# Stress axis : x y z
#
# Youngs Moduli (GPa) = 85.68594 39.12177 32.34432
#
# Poissons Ratio (x) = 0.31420 0.31029
# Poissons Ratio (y) = 0.68818 -0.43637
# Poissons Ratio (z) = 0.82203 -0.52781
#
# Static dielectric constant tensor:
#      x y z
#    x 1.905380 0.000000 0.006300 
#    y 0.000000 1.921110 0.000000 
#    z 0.006300 0.000000 1.896940 
# 
# From -- ./inp_files/50452.got.cif
#   From: 2010.05.17/outbox.cif.g08.bks.cpg/sg5_26_cif.got.tgz:50452.got - 2010.06.03 18:56:24.
