data_PCOD9127172
_publ_section_title
;
Structure prediction by ZEFSAII (Michael W. Deem and Ramdas Pophale) SiO2 
 PCOD9127172
Probable space group: C 2
;
_chemical_formula_sum "Si O2"
_cell_formula_units_Z 28
_cell_length_a 7.470503
_cell_length_b 10.920136
_cell_length_c 14.793997
_cell_angle_alpha 90.000000
_cell_angle_beta 113.642330
_cell_angle_gamma 90.000000
_cell_volume 1105.580870
_symmetry_space_group_name_H-M "C 2"
_symmetry_group_IT_number 5
_symmetry_cell_setting 'monoclinic'
loop_
_space_group_symop_operation_xyz
x,y,z
-x,y,-z
1/2+x,1/2+y,z
1/2-x,1/2+y,-z
loop_
_atom_site_type_symbol
_atom_site_label
_atom_site_fract_x
_atom_site_fract_y
_atom_site_fract_z
Si Si1 0.630846 0.539300 0.938370
Si Si2 0.188679 0.168842 0.414005
Si Si3 0.873604 0.761944 0.201371
Si Si4 0.797672 0.291982 0.010743
Si Si5 0.274562 0.504554 0.748330
Si Si6 0.377487 0.897074 0.716067
Si Si7 0.767653 0.667080 0.632839
O O1 0.773055 0.438022 0.011534
O O2 0.492803 0.485546 0.830790
O O3 0.500000 0.557606 0.000000
O O4 0.701454 0.674966 0.922129
O O5 0.223596 0.051256 0.355884
O O6 0.224303 0.295395 0.368200
O O7 0.299926 0.163388 0.531404
O O8 0.959671 0.182451 0.392181
O O9 0.875438 0.758220 0.094152
O O10 0.790390 0.629799 0.214712
O O11 0.708081 0.855778 0.204988
O O12 0.084871 0.764803 0.292384
O O13 0.000000 0.284340 0.000000
O O14 0.111088 0.405990 0.745941
O O15 0.312397 0.032938 0.679853
#
# Coordination Sequence:
#
# PCOD9127172 Si02
#       7
#     4   4   4   4   4   4   4
#     4  11  25  45  68 101 135 179 228 292 350 424
#     4  10  24  42  65 101 136 179 233 279 343 417
#     4  10  22  44  67  97 138 179 232 286 348 415
#     4  11  25  45  68 101 135 179 228 292 350 424
#     4  10  22  44  67  97 138 179 232 286 348 415
#     4  10  24  40  68  94 134 188 220 286 344 408
#     4  10  24  42  65 101 136 179 233 279 343 417
#
# _framework density 25.326053999999999
#
# number of rings (size 3 to 8) (size 9 to 14) (size 15 to 20)
#    0.000    1.714    2.857    0.000    6.000   10.286 
#    0.000    0.000    0.000    0.000    0.000    0.000 
#    0.000    0.000    0.000    0.000    0.000    0.000 
#
# Total GULP energy -78112.701632 kJ/mol
# GULP energy per Si atom -5579.478688 kJ/mol
# Density = 2.526841 g / cm^3
# Si number density = 25.326054 Si / 1000 Ang^3
#
#
#
# Elastic Constant Matrix: (Units=GPa)
#
#
# Indices 1 2 3 4 5 6 
#
# 1 84.7344 27.2719 3.0291 0.0000 10.4532 0.0000
# 2 27.2719 124.5359 4.6438 0.0000 13.9096 0.0000
# 3 3.0291 4.6438 106.1945 0.0000 14.6990 0.0000
# 4 0.0000 0.0000 0.0000 29.3543 0.0000 -8.6475
# 5 10.4532 13.9096 14.6990 0.0000 30.1024 0.0000
# 6 0.0000 0.0000 0.0000 -8.6475 0.0000 -5.7990
#
#
#
# Elastic Compliance Matrix: (Units=1/GPa)
#
#
# Indices 1 2 3 4 5 6 
#
# 1 0.013019 -0.002470 0.000219 0.000000 -0.003487 0.000000
# 2 -0.002470 0.008939 0.000142 0.000000 -0.003342 0.000000
# 3 0.000219 0.000142 0.010107 0.000000 -0.005077 0.000000
# 4 0.000000 0.000000 0.000000 0.023669 0.000000 -0.035295
# 5 -0.003487 -0.003342 -0.005077 0.000000 0.038454 0.000000
# 6 0.000000 0.000000 0.000000 -0.035295 0.000000 -0.119811
#
#
# Mechanical properties :
#
#
# Convention : Reuss Voigt Hill
#
# Bulk Modulus (GPa) = 35.90944 42.81713 39.36329
# Shear Modulus (GPa) = -412.37687 29.43288 -191.47199
#
# Velocity S-wave (km/s) = -12.77422 3.41274 -8.70442
# Velocity P-wave (km/s) = 14.26059 5.69843 9.24371
#
# Compressibility (1/GPa) = 0.02784783
#
# Stress axis : x y z
#
# Youngs Moduli (GPa) = 76.81233 111.87396 98.94172
#
# Poissons Ratio (x) = 0.27629 -0.02169
# Poissons Ratio (y) = 0.18970 -0.01407
# Poissons Ratio (z) = -0.01684 -0.01591
#
# Static dielectric constant tensor:
#      x y z
#    x 2.081080 0.000000 0.031370 
#    y 0.000000 2.290100 0.000000 
#    z 0.031370 0.000000 2.075920 
# 
# From -- ./inp_files/50561.got.cif
#   From: 2010.05.17/outbox.cif.g08.bks.cpg/sg5_26_cif.got.tgz:50561.got - 2010.06.03 18:56:24.
