data_PCOD9127207
_publ_section_title
;
Structure prediction by ZEFSAII (Michael W. Deem and Ramdas Pophale) SiO2 
 PCOD9127207
Probable space group: C 2
;
_chemical_formula_sum "Si O2"
_cell_formula_units_Z 26
_cell_length_a 24.007460
_cell_length_b 8.737593
_cell_length_c 17.090608
_cell_angle_alpha 90.000000
_cell_angle_beta 161.556752
_cell_angle_gamma 90.000000
_cell_volume 1134.185819
_symmetry_space_group_name_H-M "C 2"
_symmetry_group_IT_number 5
_symmetry_cell_setting 'monoclinic'
loop_
_space_group_symop_operation_xyz
x,y,z
-x,y,-z
1/2+x,1/2+y,z
1/2-x,1/2+y,-z
loop_
_atom_site_type_symbol
_atom_site_label
_atom_site_fract_x
_atom_site_fract_y
_atom_site_fract_z
Si Si1 0.000000 0.712970 0.500000
Si Si2 0.273921 0.476723 0.808069
Si Si3 0.382859 0.514705 0.636564
Si Si4 0.500000 0.733688 0.500000
Si Si5 0.786972 0.543136 0.975251
Si Si6 0.000000 0.160151 0.000000
Si Si7 0.451784 0.334582 0.267388
Si Si8 0.042764 0.344142 0.218897
O O1 0.828236 0.607711 0.279886
O O2 0.993032 0.806779 0.412032
O O3 0.136703 0.337383 0.631051
O O4 0.456352 0.447197 0.096990
O O5 0.337522 0.549253 0.810048
O O6 0.399419 0.430449 0.576449
O O7 0.199188 0.466443 0.428180
O O8 0.409671 0.695579 0.666093
O O9 0.622005 0.632077 0.718466
O O10 0.917371 0.673940 0.179954
O O11 0.875061 0.432200 0.029028
O O12 0.723130 0.439595 0.963035
O O13 0.025934 0.267069 0.110474
#
# Coordination Sequence:
#
# PCOD9127207 Si02
#       8
#     2   4   4   2   4   2   4   4
#     4  11  23  42  74  98 144 188 248 298 366 440
#     4  10  22  44  69 109 143 189 241 300 369 425
#     4  11  23  45  71 107 141 194 240 298 367 437
#     4  11  25  46  72 106 156 186 252 306 346 446
#     4  12  26  45  72 107 146 191 249 302 364 430
#     4  10  22  46  76 106 146 194 238 296 382 434
#     4  12  24  44  71 104 140 195 242 304 366 426
#     4  11  25  46  75 106 148 190 244 298 368 444
#
# _framework density 22.923933000000002
#
# number of rings (size 3 to 8) (size 9 to 14) (size 15 to 20)
#    0.000    0.923    1.538    6.000    2.154    2.462 
#    5.538    0.769    0.000    0.000    0.000    0.000 
#    0.000    0.000    0.000    0.000    0.000    0.000 
#
# Total GULP energy -72736.808300 kJ/mol
# GULP energy per Si atom -5595.139100 kJ/mol
# Density = 2.287176 g / cm^3
# Si number density = 22.923933 Si / 1000 Ang^3
#
#
#
# Elastic Constant Matrix: (Units=GPa)
#
#
# Indices 1 2 3 4 5 6 
#
# 1 100.9057 42.9244 20.9996 0.0000 10.2953 0.0000
# 2 42.9244 135.4169 32.4869 0.0000 7.4911 0.0000
# 3 20.9996 32.4869 85.1930 0.0000 23.9102 0.0000
# 4 0.0000 0.0000 0.0000 40.1955 0.0000 13.9815
# 5 10.2953 7.4911 23.9102 0.0000 38.0847 0.0000
# 6 0.0000 0.0000 0.0000 13.9815 0.0000 42.5564
#
#
#
# Elastic Compliance Matrix: (Units=1/GPa)
#
#
# Indices 1 2 3 4 5 6 
#
# 1 0.011756 -0.003360 -0.001104 0.000000 -0.001823 0.000000
# 2 -0.003360 0.009094 -0.002904 0.000000 0.000943 0.000000
# 3 -0.001104 -0.002904 0.015627 0.000000 -0.008941 0.000000
# 4 0.000000 0.000000 0.000000 0.028088 0.000000 -0.009228
# 5 -0.001823 0.000943 -0.008941 0.000000 0.032178 0.000000
# 6 0.000000 0.000000 0.000000 -0.009228 0.000000 0.026530
#
#
# Mechanical properties :
#
#
# Convention : Reuss Voigt Hill
#
# Bulk Modulus (GPa) = 46.00068 57.14860 51.57464
# Shear Modulus (GPa) = 34.42141 39.17432 36.79787
#
# Velocity S-wave (km/s) = 3.87919 4.13835 4.01086
# Velocity P-wave (km/s) = 6.33832 6.91508 6.63297
#
# Compressibility (1/GPa) = 0.02173881
#
# Stress axis : x y z
#
# Youngs Moduli (GPa) = 85.06545 109.95795 63.99083
#
# Poissons Ratio (x) = 0.36951 0.07068
# Poissons Ratio (y) = 0.28586 0.18585
# Poissons Ratio (z) = 0.09395 0.31935
#
# Static dielectric constant tensor:
#      x y z
#    x 1.854700 0.000000 -0.004760 
#    y 0.000000 1.881780 0.000000 
#    z -0.004760 0.000000 1.915380 
# 
# From -- ./inp_files/63332.got.cif
#   From: 2010.05.17/outbox.cif.g08.bks.cpg/sg5_32_cif.got.tgz:63332.got - 2010.06.03 18:56:24.
