data_PCOD9127864
_publ_section_title
;
Structure prediction by ZEFSAII (Michael W. Deem and Ramdas Pophale) SiO2 
 PCOD9127864
Probable space group: C 2
;
_chemical_formula_sum "Si O2"
_cell_formula_units_Z 30
_cell_length_a 21.428189
_cell_length_b 7.161270
_cell_length_c 14.040785
_cell_angle_alpha 90.000000
_cell_angle_beta 34.807969
_cell_angle_gamma 90.000000
_cell_volume 1229.906226
_symmetry_space_group_name_H-M "C 2"
_symmetry_group_IT_number 5
_symmetry_cell_setting 'monoclinic'
loop_
_space_group_symop_operation_xyz
x,y,z
-x,y,-z
1/2+x,1/2+y,z
1/2-x,1/2+y,-z
loop_
_atom_site_type_symbol
_atom_site_label
_atom_site_fract_x
_atom_site_fract_y
_atom_site_fract_z
Si Si1 0.480199 0.229400 0.805290
Si Si2 0.000000 0.017734 0.000000
Si Si3 0.254804 0.900264 0.848866
Si Si4 0.727758 0.322119 0.672650
Si Si5 0.406967 0.220441 0.694798
Si Si6 0.157744 0.477413 0.646743
Si Si7 0.452966 0.622416 0.251264
Si Si8 0.441647 0.659433 0.675856
O O1 0.457348 0.149836 0.730444
O O2 0.537019 0.069178 0.794490
O O3 0.566024 0.402758 0.700451
O O4 0.366716 0.326082 0.977559
O O5 0.031138 0.121856 0.059161
O O6 0.895762 0.892864 0.156099
O O7 0.280695 0.835896 0.709242
O O8 0.335608 0.786917 0.815483
O O9 0.294410 0.114159 0.811665
O O10 0.787882 0.463461 0.525644
O O11 0.722851 0.110373 0.637579
O O12 0.500000 0.183840 0.500000
O O13 0.401858 0.443715 0.716862
O O14 0.362967 0.757916 0.316577
O O15 0.492474 0.686890 0.306889
O O16 0.500000 0.697476 0.500000
#
# Coordination Sequence:
#
# PCOD9127864 Si02
#       8
#     4   2   4   4   4   4   4   4
#     4  11  25  43  72 104 149 191 245 306 364 451
#     4  12  24  50  68 110 148 184 246 310 368 448
#     4  12  24  43  70 107 149 184 244 310 372 437
#     4  12  26  46  74 104 143 196 248 313 372 447
#     4  10  23  43  68 103 141 190 238 294 370 441
#     4  12  26  49  73 104 141 201 254 307 376 440
#     4  11  24  47  75 102 149 192 247 309 374 440
#     4  10  23  44  73 109 144 194 246 299 372 454
#
# _framework density 24.392104
#
# number of rings (size 3 to 8) (size 9 to 14) (size 15 to 20)
#    0.000    0.800    2.667    3.600    3.733    2.667 
#    4.800    0.000    0.000    0.000    0.000    0.000 
#    0.000    0.000    0.000    0.000    0.000    0.000 
#
# Total GULP energy -83625.882620 kJ/mol
# GULP energy per Si atom -5575.058841 kJ/mol
# Density = 2.433659 g / cm^3
# Si number density = 24.392104 Si / 1000 Ang^3
#
#
#
# Elastic Constant Matrix: (Units=GPa)
#
#
# Indices 1 2 3 4 5 6 
#
# 1 125.5309 35.4154 18.8418 0.0002 28.6882 -0.0004
# 2 35.4154 120.3248 26.0884 -0.0039 -10.1763 0.0021
# 3 18.8418 26.0884 94.3252 -0.0025 11.0241 0.0015
# 4 0.0002 -0.0039 -0.0025 29.6746 0.0010 -21.6074
# 5 28.6882 -10.1763 11.0241 0.0010 49.4622 -0.0002
# 6 -0.0004 0.0021 0.0015 -21.6074 -0.0002 43.2373
#
#
#
# Elastic Compliance Matrix: (Units=1/GPa)
#
#
# Indices 1 2 3 4 5 6 
#
# 1 0.010596 -0.003627 -0.000316 0.000000 -0.006821 0.000000
# 2 -0.003627 0.010376 -0.002711 0.000001 0.004843 0.000000
# 3 -0.000316 -0.002711 0.011765 0.000001 -0.002997 0.000000
# 4 0.000000 0.000001 0.000001 0.052976 -0.000001 0.026474
# 5 -0.006821 0.004843 -0.002997 -0.000001 0.025838 0.000000
# 6 0.000000 0.000000 0.000000 0.026474 0.000000 0.036358
#
#
# Mechanical properties :
#
#
# Convention : Reuss Voigt Hill
#
# Bulk Modulus (GPa) = 51.47295 55.65245 53.56270
# Shear Modulus (GPa) = 29.81637 41.79718 35.80677
#
# Velocity S-wave (km/s) = 3.50005 4.14400 3.83556
# Velocity P-wave (km/s) = 6.12224 6.76478 6.45152
#
# Compressibility (1/GPa) = 0.01942768
#
# Stress axis : x y z
#
# Youngs Moduli (GPa) = 94.37677 96.37816 84.99896
#
# Poissons Ratio (x) = 0.34957 0.02687
# Poissons Ratio (y) = 0.34231 0.23045
# Poissons Ratio (z) = 0.02984 0.26130
#
# Static dielectric constant tensor:
#      x y z
#    x 2.000880 0.000000 -0.024780 
#    y 0.000000 1.942990 0.000000 
#    z -0.024780 0.000000 2.077450 
# 
# From -- ./inp_files/57600.got.cif
#   From: 2010.05.17/outbox.cif.g08.bks.cpg/sg5_29_cif.got.tgz:57600.got - 2010.06.03 18:56:24.
