data_PCOD9127705
_publ_section_title
;
Structure prediction by ZEFSAII (Michael W. Deem and Ramdas Pophale) SiO2 
 PCOD9127705
Probable space group: C 2
;
_chemical_formula_sum "Si O2"
_cell_formula_units_Z 20
_cell_length_a 9.012129
_cell_length_b 4.886392
_cell_length_c 14.149935
_cell_angle_alpha 90.000000
_cell_angle_beta 101.371563
_cell_angle_gamma 90.000000
_cell_volume 610.885459
_symmetry_space_group_name_H-M "C 2"
_symmetry_group_IT_number 5
_symmetry_cell_setting 'monoclinic'
loop_
_space_group_symop_operation_xyz
x,y,z
-x,y,-z
1/2+x,1/2+y,z
1/2-x,1/2+y,-z
loop_
_atom_site_type_symbol
_atom_site_label
_atom_site_fract_x
_atom_site_fract_y
_atom_site_fract_z
Si Si1 0.130694 0.547320 0.951914
Si Si2 0.823707 0.790417 0.854182
Si Si3 0.940146 0.493264 0.598606
Si Si4 0.422610 0.492607 0.656041
Si Si5 0.221117 0.729272 0.742841
O O1 0.189908 0.531902 0.845698
O O2 0.999088 0.775800 0.902809
O O3 0.238330 0.749921 0.033467
O O4 0.000000 0.386943 0.000000
O O5 0.775566 0.498095 0.804979
O O6 0.842639 0.786194 0.575011
O O7 0.808798 0.295511 0.642488
O O8 0.000000 0.466638 0.500000
O O9 0.046386 0.222806 0.652184
O O10 0.351969 0.475814 0.754475
O O11 0.547395 0.219405 0.683479
#
# Coordination Sequence:
#
# PCOD9127705 Si02
#       5
#     4   4   4   4   4
#     4   8  20  35  63  88 132 175 228 285 348 420
#     4   9  18  43  59  97 130 181 231 287 354 416
#     4  10  24  43  68 100 137 186 229 293 354 427
#     4  10  24  40  69 100 136 184 233 288 357 419
#     4  10  23  41  68  99 142 181 236 292 349 429
#
# _framework density 32.739364000000002
#
# number of rings (size 3 to 8) (size 9 to 14) (size 15 to 20)
#    2.400    0.000    0.000    1.800    2.800    1.600 
#   14.400    0.000    0.000    0.000    0.000    0.000 
#    0.000    0.000    0.000    0.000    0.000    0.000 
#
# Total GULP energy -55764.329047 kJ/mol
# GULP energy per Si atom -5576.432905 kJ/mol
# Density = 3.266485 g / cm^3
# Si number density = 32.739364 Si / 1000 Ang^3
#
#
#
# Elastic Constant Matrix: (Units=GPa)
#
#
# Indices 1 2 3 4 5 6 
#
# 1 273.3044 83.3916 129.8714 0.0000 -55.1184 0.0000
# 2 83.3916 392.2387 135.4680 0.0000 -36.3206 0.0000
# 3 129.8714 135.4680 305.3579 0.0000 -50.7814 0.0000
# 4 0.0000 0.0000 0.0000 67.9125 0.0000 -27.5526
# 5 -55.1184 -36.3206 -50.7814 0.0000 -3.2927 0.0000
# 6 0.0000 0.0000 0.0000 -27.5526 0.0000 50.4709
#
#
#
# Elastic Compliance Matrix: (Units=1/GPa)
#
#
# Indices 1 2 3 4 5 6 
#
# 1 0.003316 -0.000620 -0.002588 0.000000 -0.008740 0.000000
# 2 -0.000620 0.002987 -0.001350 0.000000 -0.001738 0.000000
# 3 -0.002588 -0.001350 0.004112 0.000000 -0.005189 0.000000
# 4 0.000000 0.000000 0.000000 0.018914 0.000000 0.010325
# 5 -0.008740 -0.001738 -0.005189 0.000000 -0.058194 0.000000
# 6 0.000000 0.000000 0.000000 0.010325 0.000000 0.025450
#
#
# Mechanical properties :
#
#
# Convention : Reuss Voigt Hill
#
# Bulk Modulus (GPa) = 771.52956 185.37366 478.45161
# Shear Modulus (GPa) = 815.11820 64.49615 439.80718
#
# Velocity S-wave (km/s) = 15.79596 4.44327 11.60291
# Velocity P-wave (km/s) = 23.85064 9.11414 18.05437
#
# Compressibility (1/GPa) = 0.00129613
#
# Stress axis : x y z
#
# Youngs Moduli (GPa) = 301.60784 334.81429 243.20458
#
# Poissons Ratio (x) = 0.20766 0.62952
# Poissons Ratio (y) = 0.18707 0.32840
# Poissons Ratio (z) = 0.78069 0.45210
#
# Static dielectric constant tensor:
#      x y z
#    x 2.528900 0.000000 -0.184070 
#    y 0.000000 2.486880 0.000000 
#    z -0.184070 0.000000 2.737530 
# 
# From -- ./inp_files/51911.got.cif
#   From: 2010.05.17/outbox.cif.g08.bks.cpg/sg5_26_cif.got.tgz:51911.got - 2010.06.03 18:56:24.
