data_PCOD9127580
_publ_section_title
;
Structure prediction by ZEFSAII (Michael W. Deem and Ramdas Pophale) SiO2 
 PCOD9127580
Probable space group: C 2
;
_chemical_formula_sum "Si O2"
_cell_formula_units_Z 28
_cell_length_a 8.098034
_cell_length_b 14.341035
_cell_length_c 16.613663
_cell_angle_alpha 90.000000
_cell_angle_beta 137.843767
_cell_angle_gamma 90.000000
_cell_volume 1294.935093
_symmetry_space_group_name_H-M "C 2"
_symmetry_group_IT_number 5
_symmetry_cell_setting 'monoclinic'
loop_
_space_group_symop_operation_xyz
x,y,z
-x,y,-z
1/2+x,1/2+y,z
1/2-x,1/2+y,-z
loop_
_atom_site_type_symbol
_atom_site_label
_atom_site_fract_x
_atom_site_fract_y
_atom_site_fract_z
Si Si1 0.175004 0.747070 0.139778
Si Si2 0.059240 0.876360 0.699031
Si Si3 0.344015 0.543017 0.153266
Si Si4 0.737046 0.025951 0.928529
Si Si5 0.727994 0.240308 0.876308
Si Si6 0.912650 0.400291 0.698202
Si Si7 0.635927 0.982481 0.621865
O O1 0.250878 0.637999 0.160740
O O2 0.421973 0.807095 0.235044
O O3 0.995146 0.773973 0.147958
O O4 0.000000 0.764099 0.000000
O O5 0.157858 0.776774 0.763590
O O6 0.140510 0.889136 0.636629
O O7 0.781314 0.899889 0.625339
O O8 0.197537 0.951893 0.807200
O O9 0.643382 0.541452 0.257602
O O10 0.234204 0.532548 0.024339
O O11 0.731855 0.130296 0.891576
O O12 0.539657 0.968629 0.808591
O O13 0.000000 0.983256 0.000000
O O14 0.000000 0.274201 0.000000
O O15 0.959888 0.443760 0.627668
O O16 0.500000 0.035130 0.500000
#
# Coordination Sequence:
#
# PCOD9127580 Si02
#       7
#     4   4   4   4   4   4   4
#     4  12  22  36  60  96 135 168 203 249 318 384
#     4  10  24  39  61  94 123 167 213 257 316 376
#     4  10  23  39  61  93 130 168 205 261 308 383
#     4  11  21  36  59  95 132 167 203 242 319 385
#     4  11  23  36  57  92 138 169 200 251 309 390
#     4  12  24  38  69  93 127 170 207 260 322 382
#     4  10  24  47  68  85 123 165 222 273 318 358
#
# _framework density 21.622703000000001
#
# number of rings (size 3 to 8) (size 9 to 14) (size 15 to 20)
#    0.857    0.286    4.286    2.143    6.000    0.571 
#    0.000    0.000    6.286    0.000    0.000    0.000 
#    0.000    0.000    0.000    0.000    0.000    0.000 
#
# Total GULP energy -78093.938281 kJ/mol
# GULP energy per Si atom -5578.138449 kJ/mol
# Density = 2.157349 g / cm^3
# Si number density = 21.622703 Si / 1000 Ang^3
#
#
#
# Elastic Constant Matrix: (Units=GPa)
#
#
# Indices 1 2 3 4 5 6 
#
# 1 155.9867 10.4596 25.0255 0.0000 -24.9871 0.0000
# 2 10.4596 57.0412 20.6570 0.0000 -7.9527 0.0000
# 3 25.0255 20.6570 86.5150 0.0000 -23.0858 0.0000
# 4 0.0000 0.0000 0.0000 6.8045 0.0000 -0.0709
# 5 -24.9871 -7.9527 -23.0858 0.0000 28.0370 0.0000
# 6 0.0000 0.0000 0.0000 -0.0709 0.0000 25.5657
#
#
#
# Elastic Compliance Matrix: (Units=1/GPa)
#
#
# Indices 1 2 3 4 5 6 
#
# 1 0.007501 -0.000353 -0.000421 0.000000 0.006239 0.000000
# 2 -0.000353 0.019308 -0.004012 0.000000 0.001858 0.000000
# 3 -0.000421 -0.004012 0.015680 0.000000 0.011398 0.000000
# 4 0.000000 0.000000 0.000000 0.146965 0.000000 0.000408
# 5 0.006239 0.001858 0.011398 0.000000 0.051139 0.000000
# 6 0.000000 0.000000 0.000000 0.000408 0.000000 0.039116
#
#
# Mechanical properties :
#
#
# Convention : Reuss Voigt Hill
#
# Bulk Modulus (GPa) = 30.37967 45.75858 38.06913
# Shear Modulus (GPa) = 16.65258 28.30817 22.48037
#
# Velocity S-wave (km/s) = 2.77816 3.62219 3.22788
# Velocity P-wave (km/s) = 4.93673 6.22109 5.61575
#
# Compressibility (1/GPa) = 0.03291675
#
# Stress axis : x y z
#
# Youngs Moduli (GPa) = 133.30931 51.79202 63.77654
#
# Poissons Ratio (x) = 0.01830 0.02683
# Poissons Ratio (y) = 0.04710 0.25588
# Poissons Ratio (z) = 0.05609 0.20779
#
# Static dielectric constant tensor:
#      x y z
#    x 1.898780 0.000000 0.035850 
#    y 0.000000 1.781650 0.000000 
#    z 0.035850 0.000000 1.794300 
# 
# From -- ./inp_files/50978.got.cif
#   From: 2010.05.17/outbox.cif.g08.bks.cpg/sg5_26_cif.got.tgz:50978.got - 2010.06.03 18:56:24.
