data_PCOD9127917
_publ_section_title
;
Structure prediction by ZEFSAII (Michael W. Deem and Ramdas Pophale) SiO2 
 PCOD9127917
Probable space group: C 2
;
_chemical_formula_sum "Si O2"
_cell_formula_units_Z 32
_cell_length_a 13.705043
_cell_length_b 10.756181
_cell_length_c 9.558718
_cell_angle_alpha 90.000000
_cell_angle_beta 85.519504
_cell_angle_gamma 90.000000
_cell_volume 1404.781925
_symmetry_space_group_name_H-M "C 2"
_symmetry_group_IT_number 5
_symmetry_cell_setting 'monoclinic'
loop_
_space_group_symop_operation_xyz
x,y,z
-x,y,-z
1/2+x,1/2+y,z
1/2-x,1/2+y,-z
loop_
_atom_site_type_symbol
_atom_site_label
_atom_site_fract_x
_atom_site_fract_y
_atom_site_fract_z
Si Si1 0.241665 0.277820 0.030546
Si Si2 0.868588 0.396580 0.186860
Si Si3 0.971466 0.130245 0.169991
Si Si4 0.711096 0.457516 0.739631
Si Si5 0.227438 0.745656 0.540072
Si Si6 0.819965 0.074013 0.749512
Si Si7 0.164108 0.681634 0.254121
Si Si8 0.033611 0.598318 0.644007
O O1 0.295597 0.351344 0.144334
O O2 0.207688 0.152373 0.108195
O O3 0.156523 0.362184 0.971490
O O4 0.308226 0.242481 0.893251
O O5 0.930623 0.268828 0.217201
O O6 0.761024 0.462218 0.245470
O O7 0.939707 0.503515 0.236375
O O8 0.063347 0.065958 0.240498
O O9 0.878837 0.046043 0.219599
O O10 0.000000 0.130713 0.000000
O O11 0.721950 0.387402 0.591249
O O12 0.808835 0.536617 0.752768
O O13 0.305894 0.665447 0.617553
O O14 0.230577 0.731132 0.374153
O O15 0.127605 0.678884 0.596605
O O16 0.051540 0.691614 0.301766
O O17 0.000000 0.536490 0.500000
#
# Coordination Sequence:
#
# PCOD9127917 Si02
#       8
#     4   4   4   4   4   4   4   4
#     4  11  22  42  67  96 141 175 232 289 356 422
#     4  11  22  39  65  99 135 183 232 288 346 419
#     4  12  23  42  67 103 140 183 239 293 356 433
#     4  11  25  45  66 101 138 180 233 291 358 430
#     4   9  23  45  69  96 137 178 230 291 359 428
#     4  10  23  44  65 100 143 181 229 296 352 418
#     4  11  22  44  69 102 131 183 229 289 356 424
#     4   9  22  42  66  99 134 178 240 289 356 429
#
# _framework density 22.779335
#
# number of rings (size 3 to 8) (size 9 to 14) (size 15 to 20)
#    0.000    1.500    2.500    1.500    3.500    6.000 
#    0.000   10.000    0.000    0.000    0.000    0.000 
#    0.000    0.000    0.000    0.000    0.000    0.000 
#
# Total GULP energy -89166.734490 kJ/mol
# GULP energy per Si atom -5572.920906 kJ/mol
# Density = 2.272749 g / cm^3
# Si number density = 22.779335 Si / 1000 Ang^3
#
#
#
# Elastic Constant Matrix: (Units=GPa)
#
#
# Indices 1 2 3 4 5 6 
#
# 1 77.0218 -2.9794 6.5773 0.0000 12.9380 0.0000
# 2 -2.9794 62.0463 5.9900 0.0000 -4.0570 0.0000
# 3 6.5773 5.9900 83.2845 0.0000 -3.6284 0.0000
# 4 0.0000 0.0000 0.0000 34.7398 0.0000 -8.7042
# 5 12.9380 -4.0570 -3.6284 0.0000 24.4004 0.0000
# 6 0.0000 0.0000 0.0000 -8.7042 0.0000 1.1924
#
#
#
# Elastic Compliance Matrix: (Units=1/GPa)
#
#
# Indices 1 2 3 4 5 6 
#
# 1 0.014439 0.000327 -0.001505 0.000000 -0.007826 0.000000
# 2 0.000327 0.016395 -0.001101 0.000000 0.002389 0.000000
# 3 -0.001505 -0.001101 0.012312 0.000000 0.002446 0.000000
# 4 0.000000 0.000000 0.000000 -0.034726 0.000000 -0.253486
# 5 -0.007826 0.002389 0.002446 0.000000 0.045893 0.000000
# 6 0.000000 0.000000 0.000000 -0.253486 0.000000 -1.011706
#
#
# Mechanical properties :
#
#
# Convention : Reuss Voigt Hill
#
# Bulk Modulus (GPa) = 25.91458 26.83649 26.37553
# Shear Modulus (GPa) = -5.31930 26.25086 10.46578
#
# Velocity S-wave (km/s) = -1.52978 3.39838 2.14578
# Velocity P-wave (km/s) = 2.87763 5.21587 4.21225
#
# Compressibility (1/GPa) = 0.03858832
#
# Stress axis : x y z
#
# Youngs Moduli (GPa) = 69.25685 60.99357 81.22428
#
# Poissons Ratio (x) = -0.01994 0.12222
# Poissons Ratio (y) = -0.02264 0.08942
# Poissons Ratio (z) = 0.10421 0.06715
#
# Static dielectric constant tensor:
#      x y z
#    x 1.870240 0.000000 0.025370 
#    y 0.000000 1.881640 0.000000 
#    z 0.025370 0.000000 1.855270 
# 
# From -- ./inp_files/23893.got.cif
#   From: 2010.05.17/outbox.cif.g08.bks.cpg/sg5_12_cif.got.tgz:23893.got - 2010.06.03 18:56:24.
