data_PCOD9127316
_publ_section_title
;
Structure prediction by ZEFSAII (Michael W. Deem and Ramdas Pophale) SiO2 
 PCOD9127316
Probable space group: C 2
;
_chemical_formula_sum "Si O2"
_cell_formula_units_Z 30
_cell_length_a 17.322281
_cell_length_b 15.215051
_cell_length_c 5.289712
_cell_angle_alpha 90.000000
_cell_angle_beta 60.261765
_cell_angle_gamma 90.000000
_cell_volume 1210.544237
_symmetry_space_group_name_H-M "C 2"
_symmetry_group_IT_number 5
_symmetry_cell_setting 'monoclinic'
loop_
_space_group_symop_operation_xyz
x,y,z
-x,y,-z
1/2+x,1/2+y,z
1/2-x,1/2+y,-z
loop_
_atom_site_type_symbol
_atom_site_label
_atom_site_fract_x
_atom_site_fract_y
_atom_site_fract_z
Si Si1 0.134000 0.350730 0.682536
Si Si2 0.416721 0.329028 0.827604
Si Si3 0.709469 0.421778 0.262400
Si Si4 0.914685 0.641106 0.815238
Si Si5 0.898153 0.238706 0.747958
Si Si6 0.593912 0.504397 0.810870
Si Si7 0.500000 0.994617 0.000000
Si Si8 0.766058 0.087191 0.094129
O O1 0.225936 0.395210 0.618500
O O2 0.140799 0.296885 0.416101
O O3 0.062009 0.427234 0.746117
O O4 0.106755 0.290544 0.973048
O O5 0.500000 0.328507 0.500000
O O6 0.325170 0.336286 0.821063
O O7 0.413016 0.234047 0.965728
O O8 0.415558 0.415755 0.003383
O O9 0.617849 0.468129 0.499564
O O10 0.750894 0.493999 0.014528
O O11 0.000000 0.642288 0.500000
O O12 0.931946 0.558051 0.965507
O O13 0.828913 0.632222 0.775248
O O14 0.838862 0.151318 0.851628
O O15 0.000000 0.221033 0.500000
O O16 0.500000 0.552379 0.000000
O O17 0.680451 0.561149 0.740714
#
# Coordination Sequence:
#
# PCOD9127316 Si02
#       8
#     4   4   4   4   4   4   2   4
#     4  12  28  50  78 109 148 201 254 311 383 448
#     4  10  22  45  67 104 139 190 241 307 376 450
#     4  11  25  44  73 104 147 193 248 307 380 454
#     4  11  27  46  72 102 150 191 252 318 376 452
#     4  12  28  51  79 109 154 199 254 316 377 457
#     4  11  25  43  75 102 148 193 249 306 387 453
#     4  12  26  46  74 104 142 196 254 308 382 442
#     4  11  28  45  71 111 146 194 254 311 383 452
#
# _framework density 24.782243999999999
#
# number of rings (size 3 to 8) (size 9 to 14) (size 15 to 20)
#    0.000    0.800    4.000    0.800   14.000    0.000 
#    0.000    0.000    0.000    0.000    0.000    0.000 
#    0.000    0.000    0.000    0.000    0.000    0.000 
#
# Total GULP energy -83873.575164 kJ/mol
# GULP energy per Si atom -5591.571678 kJ/mol
# Density = 2.472584 g / cm^3
# Si number density = 24.782244 Si / 1000 Ang^3
#
#
#
# Elastic Constant Matrix: (Units=GPa)
#
#
# Indices 1 2 3 4 5 6 
#
# 1 150.8314 29.1868 5.1191 0.0000 -16.3466 0.0000
# 2 29.1868 123.5703 18.8808 0.0000 6.4713 0.0000
# 3 5.1191 18.8808 57.6511 0.0000 -3.2254 0.0000
# 4 0.0000 0.0000 0.0000 25.8496 0.0000 -6.9511
# 5 -16.3466 6.4713 -3.2254 0.0000 41.9660 0.0000
# 6 0.0000 0.0000 0.0000 -6.9511 0.0000 27.5730
#
#
#
# Elastic Compliance Matrix: (Units=1/GPa)
#
#
# Indices 1 2 3 4 5 6 
#
# 1 0.007340 -0.001923 0.000155 0.000000 0.003168 0.000000
# 2 -0.001923 0.009122 -0.002950 0.000000 -0.002383 0.000000
# 3 0.000155 -0.002950 0.018406 0.000000 0.001930 0.000000
# 4 0.000000 0.000000 0.000000 0.041498 0.000000 0.010462
# 5 0.003168 -0.002383 0.001930 0.000000 0.025578 0.000000
# 6 0.000000 0.000000 0.000000 0.010462 0.000000 0.038905
#
#
# Mechanical properties :
#
#
# Convention : Reuss Voigt Hill
#
# Bulk Modulus (GPa) = 39.31992 48.71402 44.01697
# Shear Modulus (GPa) = 31.49333 37.66880 34.58107
#
# Velocity S-wave (km/s) = 3.56870 3.90294 3.73955
# Velocity P-wave (km/s) = 5.73423 6.32535 6.03703
#
# Compressibility (1/GPa) = 0.02543240
#
# Stress axis : x y z
#
# Youngs Moduli (GPa) = 136.23749 109.62056 54.32986
#
# Poissons Ratio (x) = 0.21084 -0.00844
# Poissons Ratio (y) = 0.26203 0.16028
# Poissons Ratio (z) = -0.02116 0.32339
#
# Static dielectric constant tensor:
#      x y z
#    x 2.001690 0.000000 0.015940 
#    y 0.000000 1.987390 0.000000 
#    z 0.015940 0.000000 2.023160 
# 
# From -- ./inp_files/8653.got.cif
#   From: 2010.05.17/outbox.cif.g08.bks.cpg/sg5_5_cif.got.tgz:8653.got - 2010.06.03 18:56:24.
