data_PCOD9127922
_publ_section_title
;
Structure prediction by ZEFSAII (Michael W. Deem and Ramdas Pophale) SiO2 
 PCOD9127922
Probable space group: C 2
;
_chemical_formula_sum "Si O2"
_cell_formula_units_Z 32
_cell_length_a 29.858486
_cell_length_b 8.203382
_cell_length_c 11.695418
_cell_angle_alpha 90.000000
_cell_angle_beta 148.145455
_cell_angle_gamma 90.000000
_cell_volume 1511.878045
_symmetry_space_group_name_H-M "C 2"
_symmetry_group_IT_number 5
_symmetry_cell_setting 'monoclinic'
loop_
_space_group_symop_operation_xyz
x,y,z
-x,y,-z
1/2+x,1/2+y,z
1/2-x,1/2+y,-z
loop_
_atom_site_type_symbol
_atom_site_label
_atom_site_fract_x
_atom_site_fract_y
_atom_site_fract_z
Si Si1 0.094861 0.099260 0.420634
Si Si2 0.544529 0.438164 0.720702
Si Si3 0.288863 0.657907 0.519532
Si Si4 0.699529 0.013411 0.527093
Si Si5 0.122982 0.612554 0.000920
Si Si6 0.252183 0.949198 0.891142
Si Si7 0.723371 0.573385 0.075652
Si Si8 0.026804 0.441507 0.186603
O O1 0.136102 0.061287 0.383862
O O2 0.062755 0.285085 0.334043
O O3 0.176082 0.060685 0.676366
O O4 0.019731 0.003073 0.321077
O O5 0.500000 0.410773 0.500000
O O6 0.586723 0.274976 0.863331
O O7 0.621611 0.564012 0.864451
O O8 0.311921 0.846554 0.566093
O O9 0.266091 0.614634 0.598797
O O10 0.201494 0.641163 0.258365
O O11 0.739299 0.980314 0.735311
O O12 0.603794 0.072012 0.339039
O O13 0.049921 0.521391 0.912022
O O14 0.162515 0.503491 0.986410
O O15 0.241431 0.757343 0.845373
O O16 0.253202 0.983558 0.026937
O O17 0.000000 0.392549 0.000000
#
# Coordination Sequence:
#
# PCOD9127922 Si02
#       8
#     4   4   4   4   4   4   4   4
#     4  10  25  44  69  99 140 177 229 285 342 409
#     4  12  25  45  68 106 141 179 230 291 345 413
#     4  10  23  44  66 100 139 180 231 279 347 414
#     4  11  25  42  72 101 139 184 231 285 348 411
#     4  11  24  46  68 101 140 180 227 290 342 415
#     4  11  26  45  71 101 139 185 231 283 350 422
#     4  12  26  45  73 100 143 184 233 286 352 414
#     4  11  24  45  69 104 143 181 230 287 348 412
#
# _framework density 21.165728000000001
#
# number of rings (size 3 to 8) (size 9 to 14) (size 15 to 20)
#    0.000    1.000    3.750    1.500    8.750    2.000 
#    0.000    0.000    0.000    0.000    0.000    0.000 
#    0.000    0.000    0.000    0.000    0.000    0.000 
#
# Total GULP energy -89325.437928 kJ/mol
# GULP energy per Si atom -5582.839871 kJ/mol
# Density = 2.111755 g / cm^3
# Si number density = 21.165728 Si / 1000 Ang^3
#
#
#
# Elastic Constant Matrix: (Units=GPa)
#
#
# Indices 1 2 3 4 5 6 
#
# 1 130.4993 19.1107 30.9166 0.0000 27.4014 0.0000
# 2 19.1107 63.9249 7.5113 0.0000 4.4232 0.0000
# 3 30.9166 7.5113 66.6901 0.0000 4.3721 0.0000
# 4 0.0000 0.0000 0.0000 24.6745 0.0000 8.8616
# 5 27.4014 4.4232 4.3721 0.0000 37.2712 0.0000
# 6 0.0000 0.0000 0.0000 8.8616 0.0000 31.7051
#
#
#
# Elastic Compliance Matrix: (Units=1/GPa)
#
#
# Indices 1 2 3 4 5 6 
#
# 1 0.010407 -0.002148 -0.004130 0.000000 -0.006912 0.000000
# 2 -0.002148 0.016402 -0.000834 0.000000 -0.000270 0.000000
# 3 -0.004130 -0.000834 0.016928 0.000000 0.001149 0.000000
# 4 0.000000 0.000000 0.000000 0.045050 0.000000 -0.012591
# 5 -0.006912 -0.000270 0.001149 0.000000 0.031809 0.000000
# 6 0.000000 0.000000 0.000000 -0.012591 0.000000 0.035060
#
#
# Mechanical properties :
#
#
# Convention : Reuss Voigt Hill
#
# Bulk Modulus (GPa) = 33.88194 41.79905 37.84050
# Shear Modulus (GPa) = 27.82163 32.30188 30.06176
#
# Velocity S-wave (km/s) = 3.62949 3.91082 3.77278
# Velocity P-wave (km/s) = 5.79715 6.33909 6.07417
#
# Compressibility (1/GPa) = 0.02951425
#
# Stress axis : x y z
#
# Youngs Moduli (GPa) = 96.08895 60.96782 59.07474
#
# Poissons Ratio (x) = 0.13094 0.24395
# Poissons Ratio (y) = 0.20638 0.04927
# Poissons Ratio (z) = 0.39680 0.05085
#
# Static dielectric constant tensor:
#      x y z
#    x 1.780310 0.000000 0.036560 
#    y 0.000000 1.762500 0.000000 
#    z 0.036560 0.000000 1.785680 
# 
# From -- ./inp_files/48416.got.cif
#   From: 2010.05.17/outbox.cif.g08.bks.cpg/sg5_25_cif.got.tgz:48416.got - 2010.06.03 18:56:24.
