data_PCOD9127373
_publ_section_title
;
Structure prediction by ZEFSAII (Michael W. Deem and Ramdas Pophale) SiO2 
 PCOD9127373
Probable space group: C 2
;
_chemical_formula_sum "Si O2"
_cell_formula_units_Z 16
_cell_length_a 7.495879
_cell_length_b 11.982168
_cell_length_c 8.480363
_cell_angle_alpha 90.000000
_cell_angle_beta 55.622106
_cell_angle_gamma 90.000000
_cell_volume 628.638232
_symmetry_space_group_name_H-M "C 2"
_symmetry_group_IT_number 5
_symmetry_cell_setting 'monoclinic'
loop_
_space_group_symop_operation_xyz
x,y,z
-x,y,-z
1/2+x,1/2+y,z
1/2-x,1/2+y,-z
loop_
_atom_site_type_symbol
_atom_site_label
_atom_site_fract_x
_atom_site_fract_y
_atom_site_fract_z
Si Si1 0.517330 0.833990 0.156296
Si Si2 0.562688 0.216199 0.138864
Si Si3 0.194824 0.156372 0.533799
Si Si4 0.344446 0.455223 0.212219
O O1 0.331712 0.763783 0.337001
O O2 0.630090 0.910543 0.231841
O O3 0.500000 0.900457 0.000000
O O4 0.686579 0.739747 0.009133
O O5 0.430556 0.152795 0.336518
O O6 0.462248 0.340993 0.204506
O O7 0.500000 0.169240 0.000000
O O8 0.172139 0.043323 0.642372
O O9 0.000000 0.165391 0.500000
O O10 0.500000 0.504040 0.000000
#
# Coordination Sequence:
#
# PCOD9127373 Si02
#       4
#     4   4   4   4
#     4  10  22  45  74  99 149 193 229 298 356 416
#     4   9  20  44  71 102 146 182 238 291 348 433
#     4  12  21  42  81 108 140 187 238 297 364 415
#     4   9  21  44  71 107 141 183 244 288 350 432
#
# _framework density 25.451841000000002
#
# number of rings (size 3 to 8) (size 9 to 14) (size 15 to 20)
#    0.000    2.500    5.000    0.750    0.000    1.000 
#    9.000   17.500    0.000    0.000    0.000    0.000 
#    0.000    0.000    0.000    0.000    0.000    0.000 
#
# Total GULP energy -44717.140090 kJ/mol
# GULP energy per Si atom -5589.642511 kJ/mol
# Density = 2.539391 g / cm^3
# Si number density = 25.451841 Si / 1000 Ang^3
#
#
#
# Elastic Constant Matrix: (Units=GPa)
#
#
# Indices 1 2 3 4 5 6 
#
# 1 69.5412 14.5554 5.8893 0.0000 7.5254 0.0000
# 2 14.5554 116.4236 47.0220 0.0000 12.4815 0.0000
# 3 5.8893 47.0220 178.3891 0.0000 0.4800 0.0000
# 4 0.0000 0.0000 0.0000 47.5742 0.0000 7.9450
# 5 7.5254 12.4815 0.4800 0.0000 38.8336 0.0000
# 6 0.0000 0.0000 0.0000 7.9450 0.0000 13.0633
#
#
#
# Elastic Compliance Matrix: (Units=1/GPa)
#
#
# Indices 1 2 3 4 5 6 
#
# 1 0.014977 -0.001588 -0.000069 0.000000 -0.002391 0.000000
# 2 -0.001588 0.010159 -0.002617 0.000000 -0.002925 0.000000
# 3 -0.000069 -0.002617 0.006296 0.000000 0.000777 0.000000
# 4 0.000000 0.000000 0.000000 0.023396 0.000000 -0.014229
# 5 -0.002391 -0.002925 0.000777 0.000000 0.027145 0.000000
# 6 0.000000 0.000000 0.000000 -0.014229 0.000000 0.085205
#
#
# Mechanical properties :
#
#
# Convention : Reuss Voigt Hill
#
# Bulk Modulus (GPa) = 43.70320 55.47639 49.58979
# Shear Modulus (GPa) = 27.26962 39.68669 33.47815
#
# Velocity S-wave (km/s) = 3.27681 3.95306 3.63071
# Velocity P-wave (km/s) = 5.61470 6.53296 6.09116
#
# Compressibility (1/GPa) = 0.02288162
#
# Stress axis : x y z
#
# Youngs Moduli (GPa) = 66.76909 98.43884 158.83450
#
# Poissons Ratio (x) = 0.15633 0.01103
# Poissons Ratio (y) = 0.10603 0.41574
# Poissons Ratio (z) = 0.00463 0.25766
#
# Static dielectric constant tensor:
#      x y z
#    x 2.326480 0.000000 0.121150 
#    y 0.000000 1.963040 0.000000 
#    z 0.121150 0.000000 2.045480 
# 
# From -- ./inp_files/13902.got.cif
#   From: 2010.05.17/outbox.cif.g08.bks.cpg/sg5_7_cif.got.tgz:13902.got - 2010.06.03 18:56:24.
