data_PCOD9127984
_publ_section_title
;
Structure prediction by ZEFSAII (Michael W. Deem and Ramdas Pophale) SiO2 
 PCOD9127984
Probable space group: C 2
;
_chemical_formula_sum "Si O2"
_cell_formula_units_Z 20
_cell_length_a 15.131731
_cell_length_b 5.090686
_cell_length_c 10.820153
_cell_angle_alpha 90.000000
_cell_angle_beta 121.462104
_cell_angle_gamma 90.000000
_cell_volume 710.951549
_symmetry_space_group_name_H-M "C 2"
_symmetry_group_IT_number 5
_symmetry_cell_setting 'monoclinic'
loop_
_space_group_symop_operation_xyz
x,y,z
-x,y,-z
1/2+x,1/2+y,z
1/2-x,1/2+y,-z
loop_
_atom_site_type_symbol
_atom_site_label
_atom_site_fract_x
_atom_site_fract_y
_atom_site_fract_z
Si Si1 0.191910 0.849860 0.910895
Si Si2 0.075330 0.513088 0.166576
Si Si3 0.614567 0.071075 0.611429
Si Si4 0.481643 0.684124 0.287939
Si Si5 0.177257 0.015751 0.328672
O O1 0.169907 0.734039 0.759324
O O2 0.083745 0.004293 0.853896
O O3 0.227385 0.594118 0.014995
O O4 0.132682 0.233967 0.201176
O O5 0.005567 0.459363 0.236875
O O6 0.156644 0.737964 0.252436
O O7 0.000000 0.568055 0.000000
O O8 0.500000 0.179195 0.500000
O O9 0.412961 0.781760 0.352025
O O10 0.700511 0.055184 0.566240
O O11 0.596198 0.558452 0.381920
#
# Coordination Sequence:
#
# PCOD9127984 Si02
#       5
#     4   4   4   4   4
#     4  12  27  48  84 118 159 208 265 334 406 476
#     4  10  23  44  72 112 155 204 261 325 398 476
#     4  12  29  54  81 118 164 214 273 334 408 488
#     4  10  26  48  76 117 157 209 265 334 392 487
#     4  10  26  44  70 110 151 206 260 322 397 470
#
# _framework density 28.131311
#
# number of rings (size 3 to 8) (size 9 to 14) (size 15 to 20)
#    1.200    0.000    2.000    1.800    5.600    2.400 
#    7.200    0.000    0.000    0.000    0.000    0.000 
#    0.000    0.000    0.000    0.000    0.000    0.000 
#
# Total GULP energy -55922.824978 kJ/mol
# GULP energy per Si atom -5592.282498 kJ/mol
# Density = 2.806728 g / cm^3
# Si number density = 28.131311 Si / 1000 Ang^3
#
#
#
# Elastic Constant Matrix: (Units=GPa)
#
#
# Indices 1 2 3 4 5 6 
#
# 1 196.2396 32.5720 50.7498 0.0000 44.9993 0.0000
# 2 32.5720 182.1364 60.3337 0.0000 14.2745 0.0000
# 3 50.7498 60.3337 142.8618 0.0000 27.0938 0.0000
# 4 0.0000 0.0000 0.0000 41.9765 0.0000 30.4172
# 5 44.9993 14.2745 27.0938 0.0000 37.9805 0.0000
# 6 0.0000 0.0000 0.0000 30.4172 0.0000 14.5886
#
#
#
# Elastic Compliance Matrix: (Units=1/GPa)
#
#
# Indices 1 2 3 4 5 6 
#
# 1 0.007159 -0.000370 -0.000930 0.000000 -0.007679 0.000000
# 2 -0.000370 0.006413 -0.002547 0.000000 -0.000154 0.000000
# 3 -0.000930 -0.002547 0.009270 0.000000 -0.004553 0.000000
# 4 0.000000 0.000000 0.000000 -0.046634 0.000000 0.097233
# 5 -0.007679 -0.000154 -0.004553 0.000000 0.038733 0.000000
# 6 0.000000 0.000000 0.000000 0.097233 0.000000 -0.134183
#
#
# Mechanical properties :
#
#
# Convention : Reuss Voigt Hill
#
# Bulk Modulus (GPa) = 66.02949 89.83875 77.93412
# Shear Modulus (GPa) = -46.94843 44.08128 -1.43358
#
# Velocity S-wave (km/s) = -4.08965 3.96281 -0.71464
# Velocity P-wave (km/s) = 1.10566 7.27621 5.20412
#
# Compressibility (1/GPa) = 0.01514475
#
# Stress axis : x y z
#
# Youngs Moduli (GPa) = 139.69078 155.94495 107.88024
#
# Poissons Ratio (x) = 0.05773 0.10037
# Poissons Ratio (y) = 0.05171 0.27481
# Poissons Ratio (z) = 0.12997 0.39725
#
# Static dielectric constant tensor:
#      x y z
#    x 2.338720 0.000000 -0.020810 
#    y 0.000000 2.192810 0.000000 
#    z -0.020810 0.000000 2.125500 
# 
# From -- ./inp_files/45558.got.cif
#   From: 2010.05.17/outbox.cif.g08.bks.cpg/sg5_23_cif.got.tgz:45558.got - 2010.06.03 18:56:24.
