data_PCOD9127483
_publ_section_title
;
Structure prediction by ZEFSAII (Michael W. Deem and Ramdas Pophale) SiO2 
 PCOD9127483
Probable space group: C 2
;
_chemical_formula_sum "Si O2"
_cell_formula_units_Z 20
_cell_length_a 8.122547
_cell_length_b 17.765826
_cell_length_c 5.877293
_cell_angle_alpha 90.000000
_cell_angle_beta 89.810800
_cell_angle_gamma 90.000000
_cell_volume 848.110835
_symmetry_space_group_name_H-M "C 2"
_symmetry_group_IT_number 5
_symmetry_cell_setting 'monoclinic'
loop_
_space_group_symop_operation_xyz
x,y,z
-x,y,-z
1/2+x,1/2+y,z
1/2-x,1/2+y,-z
loop_
_atom_site_type_symbol
_atom_site_label
_atom_site_fract_x
_atom_site_fract_y
_atom_site_fract_z
Si Si1 0.727853 0.491810 0.767234
Si Si2 0.500000 0.060060 0.000000
Si Si3 0.000000 0.395801 0.500000
Si Si4 0.500000 0.382852 0.000000
Si Si5 0.836684 0.161130 0.367492
Si Si6 0.000000 0.643068 0.500000
Si Si7 0.665886 0.802027 0.868445
O O1 0.872648 0.450298 0.630222
O O2 0.671661 0.571679 0.667164
O O3 0.571849 0.439060 0.808008
O O4 0.829791 0.512636 0.997856
O O5 0.502094 0.102616 0.246929
O O6 0.875697 0.340635 0.369877
O O7 0.659547 0.333124 0.053525
O O8 0.672116 0.185671 0.500417
O O9 0.830814 0.211665 0.142513
O O10 0.000000 0.179839 0.500000
O O11 0.500000 0.825327 0.000000
#
# Coordination Sequence:
#
# PCOD9127483 Si02
#       7
#     4   2   2   2   4   2   4
#     4  11  25  44  80 117 150 202 273 330 390 478
#     4  10  22  47  72 113 164 198 250 338 416 453
#     4  12  25  54  76 106 171 208 254 332 417 480
#     4  12  28  45  78 119 148 210 264 330 404 493
#     4  11  27  46  77 114 152 206 267 329 394 481
#     4  10  25  46  74 114 159 200 256 338 403 470
#     4  12  28  53  73 113 162 210 257 331 414 486
#
# _framework density 23.581821999999999
#
# number of rings (size 3 to 8) (size 9 to 14) (size 15 to 20)
#    0.000    0.800    3.000    3.600    7.000    8.000 
#    0.000    0.000    0.000    0.000    0.000    0.000 
#    0.000    0.000    0.000    0.000    0.000    0.000 
#
# Total GULP energy -55773.066549 kJ/mol
# GULP energy per Si atom -5577.306655 kJ/mol
# Density = 2.352815 g / cm^3
# Si number density = 23.581822 Si / 1000 Ang^3
#
#
#
# Elastic Constant Matrix: (Units=GPa)
#
#
# Indices 1 2 3 4 5 6 
#
# 1 223.0130 55.0759 37.2877 0.0000 -5.4800 0.0000
# 2 55.0759 105.4197 23.7583 0.0000 -7.9538 0.0000
# 3 37.2877 23.7583 61.5098 0.0000 -1.7996 0.0000
# 4 0.0000 0.0000 0.0000 23.4773 0.0000 -33.4630
# 5 -5.4800 -7.9538 -1.7996 0.0000 35.4157 0.0000
# 6 0.0000 0.0000 0.0000 -33.4630 0.0000 -330.0297
#
#
#
# Elastic Compliance Matrix: (Units=1/GPa)
#
#
# Indices 1 2 3 4 5 6 
#
# 1 0.005459 -0.002292 -0.002418 0.000000 0.000207 0.000000
# 2 -0.002292 0.011516 -0.002998 0.000000 0.002079 0.000000
# 3 -0.002418 -0.002998 0.018879 0.000000 -0.000088 0.000000
# 4 0.000000 0.000000 0.000000 0.037216 0.000000 -0.003773
# 5 0.000207 0.002079 -0.000088 0.000000 0.028731 0.000000
# 6 0.000000 0.000000 0.000000 -0.003773 0.000000 -0.002647
#
#
# Mechanical properties :
#
#
# Convention : Reuss Voigt Hill
#
# Bulk Modulus (GPa) = 48.92776 69.13182 59.02979
# Shear Modulus (GPa) = 41.19238 -35.97264 2.60987
#
# Velocity S-wave (km/s) = 4.18399 -3.90992 1.05315
# Velocity P-wave (km/s) = 6.64335 2.99934 5.15413
#
# Compressibility (1/GPa) = 0.02043830
#
# Stress axis : x y z
#
# Youngs Moduli (GPa) = 183.16963 86.83844 52.96897
#
# Poissons Ratio (x) = 0.19900 0.12810
# Poissons Ratio (y) = 0.41975 0.15880
# Poissons Ratio (z) = 0.44297 0.26034
#
# Static dielectric constant tensor:
#      x y z
#    x 2.345950 0.000000 -0.226930 
#    y 0.000000 1.953620 0.000000 
#    z -0.226930 0.000000 2.068870 
# 
# From -- ./inp_files/2446.got.cif
#   From: 2010.05.17/outbox.cif.g08.bks.cpg/sg5_2_cif.got.tgz:2446.got - 2010.06.03 18:56:24.
