data_PCOD9127125
_publ_section_title
;
Structure prediction by ZEFSAII (Michael W. Deem and Ramdas Pophale) SiO2 
 PCOD9127125
Probable space group: C 2
;
_chemical_formula_sum "Si O2"
_cell_formula_units_Z 22
_cell_length_a 8.626427
_cell_length_b 21.047311
_cell_length_c 5.419513
_cell_angle_alpha 90.000000
_cell_angle_beta 68.743952
_cell_angle_gamma 90.000000
_cell_volume 917.042749
_symmetry_space_group_name_H-M "C 2"
_symmetry_group_IT_number 5
_symmetry_cell_setting 'monoclinic'
loop_
_space_group_symop_operation_xyz
x,y,z
-x,y,-z
1/2+x,1/2+y,z
1/2-x,1/2+y,-z
loop_
_atom_site_type_symbol
_atom_site_label
_atom_site_fract_x
_atom_site_fract_y
_atom_site_fract_z
Si Si1 0.683178 0.134640 0.265449
Si Si2 0.775186 0.301497 0.793282
Si Si3 0.500000 0.215188 0.000000
Si Si4 0.853271 0.505994 0.931151
Si Si5 0.397204 0.407324 0.805294
Si Si6 0.000000 0.400411 0.500000
Si Si7 0.500000 0.712828 0.000000
O O1 0.500000 0.141173 0.500000
O O2 0.635470 0.170511 0.042446
O O3 0.713914 0.059760 0.212873
O O4 0.857468 0.170265 0.221608
O O5 0.912382 0.256880 0.842793
O O6 0.848562 0.351565 0.556268
O O7 0.619088 0.262474 0.776915
O O8 0.708277 0.345493 0.056401
O O9 0.945555 0.447757 0.744069
O O10 0.712613 0.470913 0.167361
O O11 0.000000 0.538507 0.000000
O O12 0.500000 0.396928 0.500000
O O13 0.500000 0.419344 0.000000
#
# Coordination Sequence:
#
# PCOD9127125 Si02
#       7
#     4   4   2   4   4   2   2
#     4  11  24  46  72  96 147 194 251 307 382 438
#     4  10  23  41  70 104 147 182 251 307 383 447
#     4  10  22  44  62 106 132 194 238 308 376 448
#     4  11  25  44  71 102 144 194 255 307 380 450
#     4  11  27  46  75 111 153 198 248 317 386 452
#     4  10  24  40  68 100 140 184 238 302 376 442
#     4  10  26  44  68 112 136 192 250 312 372 466
#
# _framework density 23.990157
#
# number of rings (size 3 to 8) (size 9 to 14) (size 15 to 20)
#    0.000    1.455    2.727    0.000   14.000    2.909 
#    0.000    0.000    0.000    0.000    0.000    0.000 
#    0.000    0.000    0.000    0.000    0.000    0.000 
#
# Total GULP energy -61330.658807 kJ/mol
# GULP energy per Si atom -5575.514437 kJ/mol
# Density = 2.393555 g / cm^3
# Si number density = 23.990157 Si / 1000 Ang^3
#
#
#
# Elastic Constant Matrix: (Units=GPa)
#
#
# Indices 1 2 3 4 5 6 
#
# 1 108.0483 59.6590 8.6325 0.0000 -15.3917 0.0000
# 2 59.6590 142.1688 36.3914 0.0000 -26.9240 0.0000
# 3 8.6325 36.3914 79.9632 0.0000 -32.9358 0.0000
# 4 0.0000 0.0000 0.0000 23.3267 0.0000 -5.1228
# 5 -15.3917 -26.9240 -32.9358 0.0000 37.0447 0.0000
# 6 0.0000 0.0000 0.0000 -5.1228 0.0000 16.7475
#
#
#
# Elastic Compliance Matrix: (Units=1/GPa)
#
#
# Indices 1 2 3 4 5 6 
#
# 1 0.012426 -0.005168 0.002509 0.000000 0.003637 0.000000
# 2 -0.005168 0.010515 -0.003099 0.000000 0.002740 0.000000
# 3 0.002509 -0.003099 0.020743 0.000000 0.017232 0.000000
# 4 0.000000 0.000000 0.000000 0.045957 0.000000 0.014057
# 5 0.003637 0.002740 0.017232 0.000000 0.045818 0.000000
# 6 0.000000 0.000000 0.000000 0.014057 0.000000 0.064010
#
#
# Mechanical properties :
#
#
# Convention : Reuss Voigt Hill
#
# Bulk Modulus (GPa) = 31.08721 59.94953 45.51837
# Shear Modulus (GPa) = 22.55232 30.45694 26.50463
#
# Velocity S-wave (km/s) = 3.06937 3.56695 3.32748
# Velocity P-wave (km/s) = 5.05449 6.48133 5.81186
#
# Compressibility (1/GPa) = 0.03216757
#
# Stress axis : x y z
#
# Youngs Moduli (GPa) = 80.47492 95.10654 48.20912
#
# Poissons Ratio (x) = 0.49149 -0.12094
# Poissons Ratio (y) = 0.41587 0.14939
# Poissons Ratio (z) = -0.20188 0.29472
#
# Static dielectric constant tensor:
#      x y z
#    x 2.011030 0.000000 -0.020790 
#    y 0.000000 1.911430 0.000000 
#    z -0.020790 0.000000 1.977550 
# 
# From -- ./inp_files/2899.got.cif
#   From: 2010.05.17/outbox.cif.g08.bks.cpg/sg5_2_cif.got.tgz:2899.got - 2010.06.03 18:56:24.
