data_PCOD9127061
_publ_section_title
;
Structure prediction by ZEFSAII (Michael W. Deem and Ramdas Pophale) SiO2 
 PCOD9127061
Probable space group: C 2
;
_chemical_formula_sum "Si O2"
_cell_formula_units_Z 22
_cell_length_a 13.664693
_cell_length_b 13.128070
_cell_length_c 9.882694
_cell_angle_alpha 90.000000
_cell_angle_beta 29.388779
_cell_angle_gamma 90.000000
_cell_volume 870.004469
_symmetry_space_group_name_H-M "C 2"
_symmetry_group_IT_number 5
_symmetry_cell_setting 'monoclinic'
loop_
_space_group_symop_operation_xyz
x,y,z
-x,y,-z
1/2+x,1/2+y,z
1/2-x,1/2+y,-z
loop_
_atom_site_type_symbol
_atom_site_label
_atom_site_fract_x
_atom_site_fract_y
_atom_site_fract_z
Si Si1 0.000000 0.696360 0.500000
Si Si2 0.744294 0.019710 0.958928
Si Si3 0.127682 0.366266 0.587231
Si Si4 0.217171 0.052575 0.767612
Si Si5 0.209297 0.720163 0.819541
Si Si6 0.011625 0.846091 0.283291
O O1 0.124723 0.637365 0.462274
O O2 0.117927 0.775029 0.266526
O O3 0.569339 0.934407 0.141773
O O4 0.730570 0.045387 0.136657
O O5 0.951937 0.959457 0.710462
O O6 0.753835 0.119400 0.854380
O O7 0.250881 0.450707 0.352942
O O8 0.130506 0.267528 0.481608
O O9 0.277588 0.337161 0.528643
O O10 0.000000 0.091049 0.000000
O O11 0.139667 0.814503 0.998252
O O12 0.000000 0.692957 0.000000
#
# Coordination Sequence:
#
# PCOD9127061 Si02
#       6
#     2   4   4   4   4   4
#     4  12  26  44  66 102 142 182 226 302 348 416
#     4  12  23  43  72 101 138 182 229 291 348 413
#     4  11  22  43  72 100 135 186 226 286 359 418
#     4  12  21  40  73  98 128 180 235 277 344 420
#     4  10  22  43  69 104 141 178 237 292 344 431
#     4  11  24  43  67 102 143 177 236 290 349 426
#
# _framework density 25.287224999999999
#
# number of rings (size 3 to 8) (size 9 to 14) (size 15 to 20)
#    0.000    0.727    7.273    0.545    0.000    2.909 
#    0.000    7.273    0.000    0.000    0.000    0.000 
#    0.000    0.000    0.000    0.000    0.000    0.000 
#
# Total GULP energy -61309.837176 kJ/mol
# GULP energy per Si atom -5573.621561 kJ/mol
# Density = 2.522967 g / cm^3
# Si number density = 25.287225 Si / 1000 Ang^3
#
#
#
# Elastic Constant Matrix: (Units=GPa)
#
#
# Indices 1 2 3 4 5 6 
#
# 1 96.6262 55.6486 21.1885 -0.0014 -20.8512 0.0007
# 2 55.6486 135.1208 20.8376 -0.0019 -20.6341 0.0011
# 3 21.1885 20.8376 58.5801 -0.0055 -23.8677 0.0031
# 4 -0.0014 -0.0019 -0.0055 33.4553 0.0029 1.3808
# 5 -20.8512 -20.6341 -23.8677 0.0029 29.4440 -0.0014
# 6 0.0007 0.0011 0.0031 1.3808 -0.0014 58.6967
#
#
#
# Elastic Compliance Matrix: (Units=1/GPa)
#
#
# Indices 1 2 3 4 5 6 
#
# 1 0.014773 -0.004987 -0.001091 0.000000 0.006082 0.000000
# 2 -0.004987 0.010001 -0.000503 0.000000 0.003069 0.000000
# 3 -0.001091 -0.000503 0.025661 0.000002 0.019676 -0.000001
# 4 0.000000 0.000000 0.000002 0.029920 -0.000001 -0.000704
# 5 0.006082 0.003069 0.019676 -0.000001 0.056370 0.000000
# 6 0.000000 0.000000 -0.000001 -0.000704 0.000000 0.017053
#
#
# Mechanical properties :
#
#
# Convention : Reuss Voigt Hill
#
# Bulk Modulus (GPa) = 26.82999 53.96404 40.39702
# Shear Modulus (GPa) = 27.87607 37.16269 32.51938
#
# Velocity S-wave (km/s) = 3.32381 3.83773 3.58998
# Velocity P-wave (km/s) = 5.03621 6.40502 5.76141
#
# Compressibility (1/GPa) = 0.03727172
#
# Stress axis : x y z
#
# Youngs Moduli (GPa) = 67.69042 99.99050 38.96972
#
# Poissons Ratio (x) = 0.49866 0.04253
# Poissons Ratio (y) = 0.33758 0.01961
# Poissons Ratio (z) = 0.07387 0.05031
#
# Static dielectric constant tensor:
#      x y z
#    x 2.085860 0.000000 -0.000440 
#    y 0.000000 2.075760 0.000000 
#    z -0.000440 0.000000 2.128200 
# 
# From -- ./inp_files/42629.got.cif
#   From: 2010.05.17/outbox.cif.g08.bks.cpg/sg5_22_cif.got.tgz:42629.got - 2010.06.03 18:56:24.
