data_PCOD9127640
_publ_section_title
;
Structure prediction by ZEFSAII (Michael W. Deem and Ramdas Pophale) SiO2 
 PCOD9127640
Probable space group: C 2
;
_chemical_formula_sum "Si O2"
_cell_formula_units_Z 32
_cell_length_a 14.537178
_cell_length_b 13.838386
_cell_length_c 8.968674
_cell_angle_alpha 90.000000
_cell_angle_beta 115.044215
_cell_angle_gamma 90.000000
_cell_volume 1634.605894
_symmetry_space_group_name_H-M "C 2"
_symmetry_group_IT_number 5
_symmetry_cell_setting 'monoclinic'
loop_
_space_group_symop_operation_xyz
x,y,z
-x,y,-z
1/2+x,1/2+y,z
1/2-x,1/2+y,-z
loop_
_atom_site_type_symbol
_atom_site_label
_atom_site_fract_x
_atom_site_fract_y
_atom_site_fract_z
Si Si1 0.586534 0.320220 0.176256
Si Si2 0.969764 0.176548 0.306001
Si Si3 0.922021 0.475455 0.557159
Si Si4 0.814305 0.352351 0.224443
Si Si5 0.399542 0.091397 0.831177
Si Si6 0.930360 0.324453 0.806755
Si Si7 0.032897 0.955104 0.693076
Si Si8 0.768107 0.435336 0.874442
O O1 0.697822 0.339065 0.191061
O O2 0.585691 0.204247 0.187444
O O3 0.550980 0.385866 0.289563
O O4 0.500000 0.347562 0.000000
O O5 0.873369 0.250489 0.234226
O O6 0.000000 0.177030 0.500000
O O7 0.059065 0.222428 0.266170
O O8 0.958380 0.066390 0.245678
O O9 0.858216 0.411875 0.396268
O O10 0.882309 0.548679 0.653086
O O11 0.969024 0.396245 0.702976
O O12 0.000000 0.527009 0.500000
O O13 0.810268 0.410249 0.066455
O O14 0.305438 0.043832 0.856806
O O15 0.500000 0.060738 0.000000
O O16 0.823726 0.365618 0.791701
O O17 0.000000 0.324840 0.000000
O O18 0.148209 0.918023 0.787640
O O19 0.000000 0.961378 0.500000
#
# Coordination Sequence:
#
# PCOD9127640 Si02
#       8
#     4   4   4   4   4   4   4   4
#     4  11  25  47  63  88 131 179 214 258 309 384
#     4  11  22  41  66 100 126 166 208 266 321 375
#     4  11  19  35  65 100 125 158 203 269 323 371
#     4  12  21  40  69  93 134 163 213 263 321 378
#     4  10  23  40  68  95 128 164 213 263 323 371
#     4  11  19  35  64  98 129 152 207 269 316 365
#     4  11  27  45  66  87 133 174 216 256 314 379
#     4  11  22  41  64  99 124 169 208 260 319 376
#
# _framework density 19.576585000000001
#
# number of rings (size 3 to 8) (size 9 to 14) (size 15 to 20)
#    0.000    1.000    5.000    3.000    3.500    1.000 
#    0.000    0.000    2.750    0.000    0.000    0.000 
#    0.000    0.000    0.000    0.000    0.000    0.000 
#
# Total GULP energy -89068.741276 kJ/mol
# GULP energy per Si atom -5566.796330 kJ/mol
# Density = 1.953203 g / cm^3
# Si number density = 19.576585 Si / 1000 Ang^3
#
#
#
# Elastic Constant Matrix: (Units=GPa)
#
#
# Indices 1 2 3 4 5 6 
#
# 1 86.1427 48.8077 14.3180 0.0000 -8.8773 0.0000
# 2 48.8077 98.1951 30.7285 0.0000 -15.1153 0.0000
# 3 14.3180 30.7285 94.2229 0.0000 -19.6367 0.0000
# 4 0.0000 0.0000 0.0000 20.1952 0.0000 1.6628
# 5 -8.8773 -15.1153 -19.6367 0.0000 30.6011 0.0000
# 6 0.0000 0.0000 0.0000 1.6628 0.0000 -3.8575
#
#
#
# Elastic Compliance Matrix: (Units=1/GPa)
#
#
# Indices 1 2 3 4 5 6 
#
# 1 0.016186 -0.008007 0.000353 0.000000 0.000967 0.000000
# 2 -0.008007 0.015683 -0.003195 0.000000 0.003374 0.000000
# 3 0.000353 -0.003195 0.013037 0.000000 0.006890 0.000000
# 4 0.000000 0.000000 0.000000 0.047819 0.000000 0.020613
# 5 0.000967 0.003374 0.006890 0.000000 0.039047 0.000000
# 6 0.000000 0.000000 0.000000 0.020613 0.000000 -0.250351
#
#
# Mechanical properties :
#
#
# Convention : Reuss Voigt Hill
#
# Bulk Modulus (GPa) = 43.08610 51.80766 47.44688
# Shear Modulus (GPa) = -56.08885 21.70153 -17.19366
#
# Velocity S-wave (km/s) = -5.35847 3.33309 -2.96679
# Velocity P-wave (km/s) = 4.02833 6.42917 3.54308
#
# Compressibility (1/GPa) = 0.02320934
#
# Stress axis : x y z
#
# Youngs Moduli (GPa) = 61.78055 63.76444 76.70262
#
# Poissons Ratio (x) = 0.51056 -0.02709
# Poissons Ratio (y) = 0.49468 0.24504
# Poissons Ratio (z) = -0.02182 0.20371
#
# Static dielectric constant tensor:
#      x y z
#    x 1.748110 0.000000 -0.007830 
#    y 0.000000 1.730790 0.000000 
#    z -0.007830 0.000000 1.723140 
# 
# From -- ./inp_files/24656.got.cif
#   From: 2010.05.17/outbox.cif.g08.bks.cpg/sg5_13_cif.got.tgz:24656.got - 2010.06.03 18:56:24.
