data_PCOD9127334
_publ_section_title
;
Structure prediction by ZEFSAII (Michael W. Deem and Ramdas Pophale) SiO2 
 PCOD9127334
Probable space group: C 2
;
_chemical_formula_sum "Si O2"
_cell_formula_units_Z 28
_cell_length_a 13.557623
_cell_length_b 7.065852
_cell_length_c 22.507432
_cell_angle_alpha 90.000000
_cell_angle_beta 146.135101
_cell_angle_gamma 90.000000
_cell_volume 1201.471862
_symmetry_space_group_name_H-M "C 2"
_symmetry_group_IT_number 5
_symmetry_cell_setting 'monoclinic'
loop_
_space_group_symop_operation_xyz
x,y,z
-x,y,-z
1/2+x,1/2+y,z
1/2-x,1/2+y,-z
loop_
_atom_site_type_symbol
_atom_site_label
_atom_site_fract_x
_atom_site_fract_y
_atom_site_fract_z
Si Si1 0.008091 0.342460 0.229854
Si Si2 0.709347 0.175205 0.271961
Si Si3 0.955040 0.057444 0.847692
Si Si4 0.500000 0.665016 0.000000
Si Si5 0.654814 0.174917 0.775351
Si Si6 0.000000 0.347223 0.500000
Si Si7 0.020116 0.980882 0.376942
Si Si8 0.311153 0.183741 0.465366
O O1 0.087047 0.503401 0.227826
O O2 0.942849 0.183165 0.150124
O O3 0.170893 0.241966 0.345171
O O4 0.898001 0.472190 0.222171
O O5 0.585933 0.350444 0.195643
O O6 0.845188 0.228885 0.392408
O O7 0.841884 0.101821 0.287484
O O8 0.756977 0.140719 0.763759
O O9 0.031197 0.055989 0.953086
O O10 0.686785 0.764831 0.106096
O O11 0.500407 0.324692 0.685860
O O12 0.916682 0.494160 0.504789
O O13 0.058775 0.853339 0.453697
O O14 0.181914 0.125076 0.454203
#
# Coordination Sequence:
#
# PCOD9127334 Si02
#       8
#     4   4   4   2   4   2   4   4
#     4  12  23  43  68 102 139 178 234 287 342 432
#     4  12  22  40  66  96 136 182 229 277 346 414
#     4  10  22  47  65  98 132 175 229 290 354 408
#     4   8  22  48  66  94 134 176 232 302 358 420
#     4  10  22  45  69  96 137 185 223 296 352 405
#     4  12  22  36  60  96 134 180 222 282 334 412
#     4  12  23  41  66 100 143 193 228 284 350 428
#     4  12  24  39  61 102 139 182 229 274 346 421
#
# _framework density 23.304749999999999
#
# number of rings (size 3 to 8) (size 9 to 14) (size 15 to 20)
#    0.857    0.000    2.857    6.000    0.000    0.000 
#    2.571    2.857    0.000    0.000    0.000    0.000 
#    0.000    0.000    0.000    0.000    0.000    0.000 
#
# Total GULP energy -78071.942494 kJ/mol
# GULP energy per Si atom -5576.567321 kJ/mol
# Density = 2.325171 g / cm^3
# Si number density = 23.304750 Si / 1000 Ang^3
#
#
#
# Elastic Constant Matrix: (Units=GPa)
#
#
# Indices 1 2 3 4 5 6 
#
# 1 55.5920 20.4943 -9.0943 0.0000 -0.0483 0.0000
# 2 20.4943 104.9097 13.6630 0.0000 -11.3752 0.0000
# 3 -9.0943 13.6630 84.6723 0.0000 -23.2786 0.0000
# 4 0.0000 0.0000 0.0000 -0.1598 0.0000 -3.6184
# 5 -0.0483 -11.3752 -23.2786 0.0000 30.5034 0.0000
# 6 0.0000 0.0000 0.0000 -3.6184 0.0000 24.2777
#
#
#
# Elastic Compliance Matrix: (Units=1/GPa)
#
#
# Indices 1 2 3 4 5 6 
#
# 1 0.020047 -0.004229 0.003051 0.000000 0.000783 0.000000
# 2 -0.004229 0.010862 -0.001386 0.000000 0.002986 0.000000
# 3 0.003051 -0.001386 0.015466 0.000001 0.011291 0.000000
# 4 0.000000 0.000000 0.000001 -1.430442 0.000001 -0.213195
# 5 0.000783 0.002986 0.011291 0.000001 0.042514 0.000000
# 6 0.000000 0.000000 0.000000 -0.213195 0.000000 0.009415
#
#
# Mechanical properties :
#
#
# Convention : Reuss Voigt Hill
#
# Bulk Modulus (GPa) = 24.24401 32.81110 28.52755
# Shear Modulus (GPa) = -3.80732 25.59833 10.89550
#
# Velocity S-wave (km/s) = -1.27955 3.31783 2.16457
# Velocity P-wave (km/s) = 2.87099 5.36536 4.30289
#
# Compressibility (1/GPa) = 0.04124731
#
# Stress axis : x y z
#
# Youngs Moduli (GPa) = 49.88311 92.06083 64.65960
#
# Poissons Ratio (x) = 0.38929 -0.19726
# Poissons Ratio (y) = 0.21094 0.08961
# Poissons Ratio (z) = -0.15218 0.12759
#
# Static dielectric constant tensor:
#      x y z
#    x 2.062250 0.000000 -0.015610 
#    y 0.000000 1.877520 0.000000 
#    z -0.015610 0.000000 2.116740 
# 
# From -- ./inp_files/70816.got.cif
#   From: 2010.05.17/outbox.cif.g08.bks.cpg/sg5_36_cif.got.tgz:70816.got - 2010.06.03 18:56:24.
