data_PCOD9127188
_publ_section_title
;
Structure prediction by ZEFSAII (Michael W. Deem and Ramdas Pophale) SiO2 
 PCOD9127188
Probable space group: C 2
;
_chemical_formula_sum "Si O2"
_cell_formula_units_Z 26
_cell_length_a 18.552960
_cell_length_b 5.401352
_cell_length_c 24.917332
_cell_angle_alpha 90.000000
_cell_angle_beta 154.602081
_cell_angle_gamma 90.000000
_cell_volume 1070.965860
_symmetry_space_group_name_H-M "C 2"
_symmetry_group_IT_number 5
_symmetry_cell_setting 'monoclinic'
loop_
_space_group_symop_operation_xyz
x,y,z
-x,y,-z
1/2+x,1/2+y,z
1/2-x,1/2+y,-z
loop_
_atom_site_type_symbol
_atom_site_label
_atom_site_fract_x
_atom_site_fract_y
_atom_site_fract_z
Si Si1 0.000000 0.596360 0.000000
Si Si2 0.578231 0.463672 0.968774
Si Si3 0.524998 0.442277 0.209765
Si Si4 0.227054 0.438898 0.335384
Si Si5 0.748584 0.769649 0.236203
Si Si6 0.789199 0.401450 0.558833
Si Si7 0.393720 0.202401 0.222609
O O1 0.880744 0.457155 0.878690
O O2 0.112820 0.759162 0.036407
O O3 0.608057 0.392157 0.927339
O O4 0.380300 0.537572 0.841732
O O5 0.706356 0.673058 0.073511
O O6 0.584951 0.722053 0.240105
O O7 0.471832 0.403876 0.235149
O O8 0.661193 0.221670 0.291016
O O9 0.313127 0.373552 0.336460
O O10 0.303236 0.398627 0.445617
O O11 0.881410 0.733592 0.278145
O O12 0.767774 0.145687 0.512715
O O13 0.984065 0.467323 0.702448
#
# Coordination Sequence:
#
# PCOD9127188 Si02
#       7
#     2   4   4   4   4   4   4
#     4  12  18  34  64  90 146 182 196 248 306 398
#     4  11  22  38  58  99 142 174 207 257 319 405
#     4  10  23  39  61  99 136 173 215 256 314 405
#     4  10  22  44  68  93 130 175 210 272 337 381
#     4  11  22  39  62 100 139 171 208 256 324 409
#     4  11  25  48  70  93 124 169 230 292 328 366
#     4  11  23  41  66  96 128 176 222 265 327 387
#
# _framework density 24.277149000000001
#
# number of rings (size 3 to 8) (size 9 to 14) (size 15 to 20)
#    0.000    1.231    4.615    1.846    0.000    9.846 
#    0.000    0.769    0.000    7.385    0.000    0.000 
#    0.000    0.000    0.000    0.000    0.000    0.000 
#
# Total GULP energy -72511.334922 kJ/mol
# GULP energy per Si atom -5577.794994 kJ/mol
# Density = 2.422189 g / cm^3
# Si number density = 24.277149 Si / 1000 Ang^3
#
#
#
# Elastic Constant Matrix: (Units=GPa)
#
#
# Indices 1 2 3 4 5 6 
#
# 1 202.7202 28.6089 48.5884 0.0004 -40.1071 0.0007
# 2 28.6089 64.2571 4.9290 -0.0007 -13.4573 0.0087
# 3 48.5884 4.9290 65.8322 0.0002 -30.0028 -0.0001
# 4 0.0004 -0.0007 0.0002 30.5169 -0.0008 -17.8292
# 5 -40.1071 -13.4573 -30.0028 -0.0008 51.4706 -0.0004
# 6 0.0007 0.0087 -0.0001 -17.8292 -0.0004 36.0335
#
#
#
# Elastic Compliance Matrix: (Units=1/GPa)
#
#
# Indices 1 2 3 4 5 6 
#
# 1 0.006581 -0.002135 -0.003561 0.000000 0.002495 0.000001
# 2 -0.002135 0.017204 0.002151 -0.000003 0.004088 -0.000005
# 3 -0.003561 0.002151 0.022672 0.000000 0.011004 0.000000
# 4 0.000000 -0.000003 0.000000 0.046093 0.000000 0.022807
# 5 0.002495 0.004088 0.011004 0.000000 0.028855 0.000000
# 6 0.000001 -0.000005 0.000000 0.022807 0.000000 0.039037
#
#
# Mechanical properties :
#
#
# Convention : Reuss Voigt Hill
#
# Bulk Modulus (GPa) = 25.40127 55.22912 40.31520
# Shear Modulus (GPa) = 27.67723 40.31640 33.99681
#
# Velocity S-wave (km/s) = 3.38013 4.07956 3.74620
# Velocity P-wave (km/s) = 5.07143 6.70740 5.94595
#
# Compressibility (1/GPa) = 0.03936811
#
# Stress axis : x y z
#
# Youngs Moduli (GPa) = 151.95084 58.12565 44.10755
#
# Poissons Ratio (x) = 0.12407 0.15705
# Poissons Ratio (y) = 0.32434 -0.09486
# Poissons Ratio (z) = 0.54103 -0.12501
#
# Static dielectric constant tensor:
#      x y z
#    x 2.047990 0.000000 0.044600 
#    y 0.000000 1.965610 0.000000 
#    z 0.044600 0.000000 1.990390 
# 
# From -- ./inp_files/55190.got.cif
#   From: 2010.05.17/outbox.cif.g08.bks.cpg/sg5_28_cif.got.tgz:55190.got - 2010.06.03 18:56:24.
