data_PCOD9127440
_publ_section_title
;
Structure prediction by ZEFSAII (Michael W. Deem and Ramdas Pophale) SiO2 
 PCOD9127440
Probable space group: C 2
;
_chemical_formula_sum "Si O2"
_cell_formula_units_Z 22
_cell_length_a 5.378439
_cell_length_b 28.410895
_cell_length_c 7.498821
_cell_angle_alpha 90.000000
_cell_angle_beta 68.404008
_cell_angle_gamma 90.000000
_cell_volume 1065.429543
_symmetry_space_group_name_H-M "C 2"
_symmetry_group_IT_number 5
_symmetry_cell_setting 'monoclinic'
loop_
_space_group_symop_operation_xyz
x,y,z
-x,y,-z
1/2+x,1/2+y,z
1/2-x,1/2+y,-z
loop_
_atom_site_type_symbol
_atom_site_label
_atom_site_fract_x
_atom_site_fract_y
_atom_site_fract_z
Si Si1 0.000000 0.868001 0.000000
Si Si2 0.686496 0.633545 0.626996
Si Si3 0.513942 0.534337 0.711427
Si Si4 0.500000 0.806573 0.000000
Si Si5 0.315477 0.938608 0.704913
Si Si6 0.684547 0.739661 0.630258
Si Si7 0.000000 0.484975 0.000000
O O1 0.914402 0.902426 0.183690
O O2 0.251843 0.837332 0.994301
O O3 0.500000 0.634594 0.500000
O O4 0.606482 0.585858 0.749911
O O5 0.652105 0.685972 0.712025
O O6 0.000000 0.628306 0.500000
O O7 0.500000 0.537481 0.500000
O O8 0.710207 0.490556 0.686657
O O9 0.248526 0.518209 0.884600
O O10 0.597252 0.775106 0.807652
O O11 0.500000 0.920161 0.500000
O O12 0.473195 0.949877 0.842113
O O13 0.500000 0.744825 0.500000
O O14 0.000000 0.745687 0.500000
#
# Coordination Sequence:
#
# PCOD9127440 Si02
#       7
#     2   4   4   2   4   4   2
#     4  12  28  46  70 100 137 169 238 292 332 412
#     4   9  20  39  67 102 138 179 225 267 325 407
#     4  11  22  39  68  96 140 183 219 270 328 396
#     4  12  27  48  71 104 131 172 232 293 346 404
#     4  12  25  44  67  93 135 183 221 275 340 394
#     4  10  22  46  74 100 138 178 219 281 345 403
#     4  12  23  42  63  98 134 183 230 271 318 398
#
# _framework density 20.648948000000001
#
# number of rings (size 3 to 8) (size 9 to 14) (size 15 to 20)
#    0.000    1.091    3.636    2.182    2.545    2.182 
#    3.273    2.727    0.000    0.000    0.000    0.000 
#    0.000    0.000    0.000    0.000    0.000    0.000 
#
# Total GULP energy -61420.814254 kJ/mol
# GULP energy per Si atom -5583.710387 kJ/mol
# Density = 2.060195 g / cm^3
# Si number density = 20.648948 Si / 1000 Ang^3
#
#
#
# Elastic Constant Matrix: (Units=GPa)
#
#
# Indices 1 2 3 4 5 6 
#
# 1 118.7229 51.6175 38.1706 0.0000 -11.8115 0.0000
# 2 51.6175 150.2299 58.3192 0.0000 -7.7653 0.0000
# 3 38.1706 58.3192 129.3015 0.0000 -12.3535 0.0000
# 4 0.0000 0.0000 0.0000 -6.3643 0.0000 -30.8277
# 5 -11.8115 -7.7653 -12.3535 0.0000 32.9373 0.0000
# 6 0.0000 0.0000 0.0000 -30.8277 0.0000 34.6527
#
#
#
# Elastic Compliance Matrix: (Units=1/GPa)
#
#
# Indices 1 2 3 4 5 6 
#
# 1 0.010405 -0.002845 -0.001552 0.000000 0.002479 0.000000
# 2 -0.002845 0.008857 -0.003166 0.000000 -0.000120 0.000000
# 3 -0.001552 -0.003166 0.009849 0.000000 0.002391 0.000000
# 4 0.000000 0.000000 0.000000 -0.029595 0.000000 -0.026328
# 5 0.002479 -0.000120 0.002391 0.000000 0.032118 0.000000
# 6 0.000000 0.000000 0.000000 -0.026328 0.000000 0.005435
#
#
# Mechanical properties :
#
#
# Convention : Reuss Voigt Hill
#
# Bulk Modulus (GPa) = 71.50563 77.16321 74.33442
# Shear Modulus (GPa) = 87.94087 28.92160 58.43124
#
# Velocity S-wave (km/s) = 6.53307 3.74656 5.32530
# Velocity P-wave (km/s) = 9.57144 7.49439 8.59588
#
# Compressibility (1/GPa) = 0.01398491
#
# Stress axis : x y z
#
# Youngs Moduli (GPa) = 96.10518 112.90686 101.53768
#
# Poissons Ratio (x) = 0.32117 0.15757
# Poissons Ratio (y) = 0.27338 0.32151
# Poissons Ratio (z) = 0.14914 0.35751
#
# Static dielectric constant tensor:
#      x y z
#    x 1.756170 0.000000 -0.037960 
#    y 0.000000 1.762070 0.000000 
#    z -0.037960 0.000000 1.572510 
# 
# From -- ./inp_files/12960.got.cif
#   From: 2010.05.17/outbox.cif.g08.bks.cpg/sg5_7_cif.got.tgz:12960.got - 2010.06.03 18:56:24.
