data_PCOD9127398
_publ_section_title
;
Structure prediction by ZEFSAII (Michael W. Deem and Ramdas Pophale) SiO2 
 PCOD9127398
Probable space group: C 2
;
_chemical_formula_sum "Si O2"
_cell_formula_units_Z 20
_cell_length_a 28.221001
_cell_length_b 5.104628
_cell_length_c 5.266639
_cell_angle_alpha 90.000000
_cell_angle_beta 87.745337
_cell_angle_gamma 90.000000
_cell_volume 758.112607
_symmetry_space_group_name_H-M "C 2"
_symmetry_group_IT_number 5
_symmetry_cell_setting 'monoclinic'
loop_
_space_group_symop_operation_xyz
x,y,z
-x,y,-z
1/2+x,1/2+y,z
1/2-x,1/2+y,-z
loop_
_atom_site_type_symbol
_atom_site_label
_atom_site_fract_x
_atom_site_fract_y
_atom_site_fract_z
Si Si1 0.826967 0.453580 0.276778
Si Si2 0.000000 0.614933 0.500000
Si Si3 0.604594 0.662292 0.096973
Si Si4 0.238158 0.159121 0.369935
Si Si5 0.000000 0.257086 0.000000
Si Si6 0.101426 0.693314 0.422576
O O1 0.808489 0.328672 0.550946
O O2 0.777565 0.554407 0.157082
O O3 0.867467 0.659497 0.335062
O O4 0.854910 0.243535 0.108516
O O5 0.952214 0.780593 0.515133
O O6 0.996301 0.437895 0.250267
O O7 0.551099 0.613212 0.002607
O O8 0.622593 0.406864 0.234664
O O9 0.598008 0.911623 0.286060
O O10 0.272137 0.380537 0.494418
#
# Coordination Sequence:
#
# PCOD9127398 Si02
#       6
#     4   2   4   4   2   4
#     4  10  22  46  68 100 150 182 252 312 378 456
#     4  10  22  48  68 110 152 208 252 316 382 466
#     4  11  26  41  70 104 144 196 248 308 385 457
#     4   8  20  36  70  96 128 196 234 298 384 434
#     4  10  22  48  68 110 152 208 252 316 382 466
#     4  11  26  41  70 104 144 196 248 308 385 457
#
# _framework density 26.381302999999999
#
# number of rings (size 3 to 8) (size 9 to 14) (size 15 to 20)
#    1.200    0.800    2.000    0.000    5.600    6.400 
#    0.000    4.000    0.000    0.000    0.000    0.000 
#    0.000    0.000    0.000    0.000    0.000    0.000 
#
# Total GULP energy -55692.812552 kJ/mol
# GULP energy per Si atom -5569.281255 kJ/mol
# Density = 2.632126 g / cm^3
# Si number density = 26.381303 Si / 1000 Ang^3
#
#
#
# Elastic Constant Matrix: (Units=GPa)
#
#
# Indices 1 2 3 4 5 6 
#
# 1 128.5022 -21.0038 9.5397 0.0000 -16.3196 0.0000
# 2 -21.0038 80.2779 19.6562 0.0000 18.8422 0.0000
# 3 9.5397 19.6562 89.5487 0.0000 -4.3653 0.0000
# 4 0.0000 0.0000 0.0000 52.0507 0.0000 -7.7318
# 5 -16.3196 18.8422 -4.3653 0.0000 26.1450 0.0000
# 6 0.0000 0.0000 0.0000 -7.7318 0.0000 17.4724
#
#
#
# Elastic Compliance Matrix: (Units=1/GPa)
#
#
# Indices 1 2 3 4 5 6 
#
# 1 0.008635 0.001560 -0.001063 0.000000 0.004088 0.000000
# 2 0.001560 0.016717 -0.004411 0.000000 -0.011811 0.000000
# 3 -0.001063 -0.004411 0.012473 0.000000 0.004598 0.000000
# 4 0.000000 0.000000 0.000000 0.020564 0.000000 0.009100
# 5 0.004088 -0.011811 0.004598 0.000000 0.050079 0.000000
# 6 0.000000 0.000000 0.000000 0.009100 0.000000 0.061260
#
#
# Mechanical properties :
#
#
# Convention : Reuss Voigt Hill
#
# Bulk Modulus (GPa) = 33.33763 34.96813 34.15288
# Shear Modulus (GPa) = 26.65874 38.47604 32.56739
#
# Velocity S-wave (km/s) = 3.18231 3.82312 3.51734
# Velocity P-wave (km/s) = 5.11538 5.72468 5.42859
#
# Compressibility (1/GPa) = 0.02999613
#
# Stress axis : x y z
#
# Youngs Moduli (GPa) = 115.80694 59.81898 80.17432
#
# Poissons Ratio (x) = -0.09332 0.08523
# Poissons Ratio (y) = -0.18066 0.35368
# Poissons Ratio (z) = 0.12311 0.26388
#
# Static dielectric constant tensor:
#      x y z
#    x 2.157970 0.000000 0.081720 
#    y 0.000000 2.025740 0.000000 
#    z 0.081720 0.000000 2.151860 
# 
# From -- ./inp_files/11031.got.cif
#   From: 2010.05.17/outbox.cif.g08.bks.cpg/sg5_6_cif.got.tgz:11031.got - 2010.06.03 18:56:24.
