data_PCOD9127077
_publ_section_title
;
Structure prediction by ZEFSAII (Michael W. Deem and Ramdas Pophale) SiO2 
 PCOD9127077
Probable space group: C 2
;
_chemical_formula_sum "Si O2"
_cell_formula_units_Z 28
_cell_length_a 7.774031
_cell_length_b 17.705846
_cell_length_c 11.392726
_cell_angle_alpha 90.000000
_cell_angle_beta 61.077884
_cell_angle_gamma 90.000000
_cell_volume 1372.576548
_symmetry_space_group_name_H-M "C 2"
_symmetry_group_IT_number 5
_symmetry_cell_setting 'monoclinic'
loop_
_space_group_symop_operation_xyz
x,y,z
-x,y,-z
1/2+x,1/2+y,z
1/2-x,1/2+y,-z
loop_
_atom_site_type_symbol
_atom_site_label
_atom_site_fract_x
_atom_site_fract_y
_atom_site_fract_z
Si Si1 0.178872 0.350770 0.601113
Si Si2 0.181414 0.106987 0.854901
Si Si3 0.272487 0.654153 0.615999
Si Si4 0.647504 0.242647 0.057970
Si Si5 0.469659 0.301909 0.341034
Si Si6 0.556641 0.718505 0.222770
Si Si7 0.985160 0.512256 0.364051
O O1 0.287699 0.354591 0.438845
O O2 0.349900 0.324804 0.634973
O O3 0.082905 0.430647 0.657627
O O4 0.023822 0.283703 0.666549
O O5 0.315279 0.164128 0.886768
O O6 0.311267 0.039941 0.760979
O O7 0.100590 0.158772 0.774548
O O8 0.000000 0.085202 0.000000
O O9 0.500000 0.656116 0.500000
O O10 0.131068 0.719088 0.607507
O O11 0.288825 0.672696 0.749042
O O12 0.176496 0.574579 0.618543
O O13 0.559606 0.300314 0.181622
O O14 0.500000 0.237425 0.000000
O O15 0.853003 0.257278 0.923260
O O16 0.000000 0.511654 0.500000
#
# Coordination Sequence:
#
# PCOD9127077 Si02
#       7
#     4   4   4   4   4   4   4
#     4  11  26  43  65  95 137 182 220 285 342 392
#     4  10  22  43  70  99 135 177 227 282 330 406
#     4  12  23  38  71 102 130 181 228 277 334 407
#     4  11  20  36  71 104 129 166 230 281 331 394
#     4  11  23  43  67  95 132 172 228 281 322 400
#     4  11  21  40  72  99 129 172 232 271 336 406
#     4  12  27  44  66  99 143 176 226 283 348 402
#
# _framework density 20.399591000000001
#
# number of rings (size 3 to 8) (size 9 to 14) (size 15 to 20)
#    0.000    0.857    5.714    0.857    6.000    0.000 
#    0.000    2.143   12.571    0.000    0.000    0.000 
#    0.000    0.000    0.000    0.000    0.000    0.000 
#
# Total GULP energy -78139.063972 kJ/mol
# GULP energy per Si atom -5581.361712 kJ/mol
# Density = 2.035316 g / cm^3
# Si number density = 20.399591 Si / 1000 Ang^3
#
#
#
# Elastic Constant Matrix: (Units=GPa)
#
#
# Indices 1 2 3 4 5 6 
#
# 1 109.6020 65.5713 41.3542 0.0000 8.6293 0.0000
# 2 65.5713 116.2713 36.2576 0.0000 -3.6921 0.0000
# 3 41.3542 36.2576 131.2138 0.0000 -9.3904 0.0000
# 4 0.0000 0.0000 0.0000 24.8755 0.0000 -9.1814
# 5 8.6293 -3.6921 -9.3904 0.0000 41.9168 0.0000
# 6 0.0000 0.0000 0.0000 -9.1814 0.0000 24.9259
#
#
#
# Elastic Compliance Matrix: (Units=1/GPa)
#
#
# Indices 1 2 3 4 5 6 
#
# 1 0.015291 -0.007838 -0.002976 0.000000 -0.004505 0.000000
# 2 -0.007838 0.013432 -0.001058 0.000000 0.002560 0.000000
# 3 -0.002976 -0.001058 0.009033 0.000000 0.002543 0.000000
# 4 0.000000 0.000000 0.000000 0.046526 0.000000 0.017138
# 5 -0.004505 0.002560 0.002543 0.000000 0.025579 0.000000
# 6 0.000000 0.000000 0.000000 0.017138 0.000000 0.046432
#
#
# Mechanical properties :
#
#
# Convention : Reuss Voigt Hill
#
# Bulk Modulus (GPa) = 71.36616 71.49482 71.43049
# Shear Modulus (GPa) = 27.06975 32.60389 29.83682
#
# Velocity S-wave (km/s) = 3.64672 4.00216 3.82857
# Velocity P-wave (km/s) = 7.26577 7.51530 7.39159
#
# Compressibility (1/GPa) = 0.01401224
#
# Stress axis : x y z
#
# Youngs Moduli (GPa) = 65.39876 74.44753 110.70111
#
# Poissons Ratio (x) = 0.58355 0.32940
# Poissons Ratio (y) = 0.51262 0.11713
# Poissons Ratio (z) = 0.19460 0.07877
#
# Static dielectric constant tensor:
#      x y z
#    x 1.780360 0.000000 -0.045260 
#    y 0.000000 1.667530 0.000000 
#    z -0.045260 0.000000 1.831240 
# 
# From -- ./inp_files/36311.got.cif
#   From: 2010.05.17/outbox.cif.g08.bks.cpg/sg5_19_cif.got.tgz:36311.got - 2010.06.03 18:56:24.
