data_PCOD9127998
_publ_section_title
;
Structure prediction by ZEFSAII (Michael W. Deem and Ramdas Pophale) SiO2 
 PCOD9127998
Probable space group: C 2
;
_chemical_formula_sum "Si O2"
_cell_formula_units_Z 16
_cell_length_a 7.416698
_cell_length_b 7.421517
_cell_length_c 10.372891
_cell_angle_alpha 90.000000
_cell_angle_beta 99.555231
_cell_angle_gamma 90.000000
_cell_volume 563.035171
_symmetry_space_group_name_H-M "C 2"
_symmetry_group_IT_number 5
_symmetry_cell_setting 'monoclinic'
loop_
_space_group_symop_operation_xyz
x,y,z
-x,y,-z
1/2+x,1/2+y,z
1/2-x,1/2+y,-z
loop_
_atom_site_type_symbol
_atom_site_label
_atom_site_fract_x
_atom_site_fract_y
_atom_site_fract_z
Si Si1 0.021363 0.705280 0.188473
Si Si2 0.823355 0.519709 0.543087
Si Si3 0.884020 0.327063 0.114441
Si Si4 0.506329 0.547434 0.310401
O O1 0.888734 0.542163 0.138656
O O2 0.091111 0.666424 0.345502
O O3 0.192067 0.724627 0.110493
O O4 0.965343 0.912248 0.187566
O O5 0.703170 0.556414 0.400696
O O6 0.650242 0.474842 0.612293
O O7 0.000000 0.423148 0.500000
O O8 0.988683 0.245703 0.249876
O O9 0.000000 0.292399 0.000000
#
# Coordination Sequence:
#
# PCOD9127998 Si02
#       4
#     4   4   4   4
#     4  11  26  47  78 113 154 206 266 327 402 476
#     4  10  23  44  75 117 156 198 260 326 403 489
#     4  11  28  50  78 114 155 210 273 331 396 486
#     4  10  25  48  77 115 158 208 257 335 408 478
#
# _framework density 28.417407000000001
#
# number of rings (size 3 to 8) (size 9 to 14) (size 15 to 20)
#    0.000    1.500    0.000    1.500   10.500    7.000 
#    0.000    0.000    0.000    0.000    0.000    0.000 
#    0.000    0.000    0.000    0.000    0.000    0.000 
#
# Total GULP energy -44611.838677 kJ/mol
# GULP energy per Si atom -5576.479835 kJ/mol
# Density = 2.835273 g / cm^3
# Si number density = 28.417407 Si / 1000 Ang^3
#
#
#
# Elastic Constant Matrix: (Units=GPa)
#
#
# Indices 1 2 3 4 5 6 
#
# 1 183.3814 22.2962 54.7732 0.0000 -21.4876 0.0000
# 2 22.2962 116.1131 51.4020 0.0000 -11.4112 0.0000
# 3 54.7732 51.4020 100.9518 0.0000 -25.1278 0.0000
# 4 0.0000 0.0000 0.0000 -69.6521 0.0000 -17.6286
# 5 -21.4876 -11.4112 -25.1278 0.0000 54.5529 0.0000
# 6 0.0000 0.0000 0.0000 -17.6286 0.0000 48.8804
#
#
#
# Elastic Compliance Matrix: (Units=1/GPa)
#
#
# Indices 1 2 3 4 5 6 
#
# 1 0.006576 0.000393 -0.003505 0.000000 0.001058 0.000000
# 2 0.000393 0.011147 -0.005952 0.000000 -0.000255 0.000000
# 3 -0.003505 -0.005952 0.016021 0.000000 0.004754 0.000000
# 4 0.000000 0.000000 0.000000 -0.013156 0.000000 -0.004745
# 5 0.001058 -0.000255 0.004754 0.000000 0.020884 0.000000
# 6 0.000000 0.000000 0.000000 -0.004745 0.000000 0.018747
#
#
# Mechanical properties :
#
#
# Convention : Reuss Voigt Hill
#
# Bulk Modulus (GPa) = 64.03742 73.04324 68.54033
# Shear Modulus (GPa) = 59.84260 24.88790 42.36525
#
# Velocity S-wave (km/s) = 4.59392 2.96260 3.86530
# Velocity P-wave (km/s) = 7.12196 6.12063 6.64020
#
# Compressibility (1/GPa) = 0.01561587
#
# Stress axis : x y z
#
# Youngs Moduli (GPa) = 152.06548 89.71184 62.41704
#
# Poissons Ratio (x) = -0.03523 0.21874
# Poissons Ratio (y) = -0.05971 0.37152
# Poissons Ratio (z) = 0.53292 0.53399
#
# Static dielectric constant tensor:
#      x y z
#    x 2.217980 0.000000 0.084380 
#    y 0.000000 2.213220 0.000000 
#    z 0.084380 0.000000 2.346350 
# 
# From -- ./inp_files/35067.got.cif
#   From: 2010.05.17/outbox.cif.g08.bks.cpg/sg5_18_cif.got.tgz:35067.got - 2010.06.03 18:56:24.
