data_PCOD9127658
_publ_section_title
;
Structure prediction by ZEFSAII (Michael W. Deem and Ramdas Pophale) SiO2 
 PCOD9127658
Probable space group: C 2
;
_chemical_formula_sum "Si O2"
_cell_formula_units_Z 28
_cell_length_a 5.710907
_cell_length_b 28.932478
_cell_length_c 7.322410
_cell_angle_alpha 90.000000
_cell_angle_beta 102.357580
_cell_angle_gamma 90.000000
_cell_volume 1181.854989
_symmetry_space_group_name_H-M "C 2"
_symmetry_group_IT_number 5
_symmetry_cell_setting 'monoclinic'
loop_
_space_group_symop_operation_xyz
x,y,z
-x,y,-z
1/2+x,1/2+y,z
1/2-x,1/2+y,-z
loop_
_atom_site_type_symbol
_atom_site_label
_atom_site_fract_x
_atom_site_fract_y
_atom_site_fract_z
Si Si1 0.708139 0.731440 0.677191
Si Si2 0.343635 0.052178 0.713749
Si Si3 0.500000 0.890061 0.000000
Si Si4 0.666258 0.329483 0.197011
Si Si5 0.000000 0.188678 0.000000
Si Si6 0.451602 0.151975 0.207535
Si Si7 0.840656 0.018917 0.709445
Si Si8 0.047241 0.921586 0.790238
O O1 0.500000 0.720096 0.500000
O O2 0.769147 0.785337 0.675079
O O3 0.628855 0.721268 0.873568
O O4 0.930573 0.697161 0.686548
O O5 0.418813 0.105692 0.709612
O O6 0.603486 0.027742 0.795145
O O7 0.250596 0.036823 0.500367
O O8 0.102835 0.042246 0.794963
O O9 0.376901 0.855745 0.124523
O O10 0.666886 0.921922 0.156306
O O11 0.537342 0.371028 0.284530
O O12 0.500000 0.313231 0.000000
O O13 0.834144 0.156524 0.842996
O O14 0.500000 0.153134 0.000000
O O15 0.905988 0.965064 0.694949
O O16 0.000000 0.922158 0.000000
#
# Coordination Sequence:
#
# PCOD9127658 Si02
#       8
#     4   4   2   4   2   4   4   4
#     4  11  24  40  67 102 135 174 224 280 347 419
#     4  10  24  41  64  90 127 174 221 276 348 404
#     4   8  17  34  62  88 124 172 218 266 335 402
#     4   9  18  37  61  90 129 172 216 274 337 406
#     4  10  23  44  68  94 136 180 222 280 347 406
#     4  10  24  43  67  93 131 171 226 283 342 415
#     4  10  23  41  62  91 129 174 219 280 342 407
#     4   9  20  36  61  91 128 169 223 272 334 405
#
# _framework density 23.691569999999999
#
# number of rings (size 3 to 8) (size 9 to 14) (size 15 to 20)
#    0.000    2.571    0.000    1.714   10.000    4.000 
#    2.571    0.000    0.000    0.000    0.000    0.000 
#    0.000    0.000    0.000    0.000    0.000    0.000 
#
# Total GULP energy -78054.177121 kJ/mol
# GULP energy per Si atom -5575.298366 kJ/mol
# Density = 2.363765 g / cm^3
# Si number density = 23.691570 Si / 1000 Ang^3
#
#
#
# Elastic Constant Matrix: (Units=GPa)
#
#
# Indices 1 2 3 4 5 6 
#
# 1 123.2199 42.2312 25.3724 0.0000 34.6762 0.0000
# 2 42.2312 154.5059 50.0140 0.0000 35.0874 0.0000
# 3 25.3724 50.0140 96.4736 0.0000 20.1239 0.0000
# 4 0.0000 0.0000 0.0000 46.6179 0.0000 19.3787
# 5 34.6762 35.0874 20.1239 0.0000 43.8539 0.0000
# 6 0.0000 0.0000 0.0000 19.3787 0.0000 28.4113
#
#
#
# Elastic Compliance Matrix: (Units=1/GPa)
#
#
# Indices 1 2 3 4 5 6 
#
# 1 0.010667 -0.001018 -0.000761 0.000000 -0.007271 0.000000
# 2 -0.001018 0.008927 -0.003360 0.000000 -0.004796 0.000000
# 3 -0.000761 -0.003360 0.012851 0.000000 -0.002607 0.000000
# 4 0.000000 0.000000 0.000000 0.029940 0.000000 -0.020421
# 5 -0.007271 -0.004796 -0.002607 0.000000 0.033586 0.000000
# 6 0.000000 0.000000 0.000000 -0.020421 0.000000 0.049126
#
#
# Mechanical properties :
#
#
# Convention : Reuss Voigt Hill
#
# Bulk Modulus (GPa) = 45.11014 67.71497 56.41256
# Shear Modulus (GPa) = 30.71897 40.88206 35.80052
#
# Velocity S-wave (km/s) = 3.60477 4.15854 3.89151
# Velocity P-wave (km/s) = 6.03388 7.19040 6.63738
#
# Compressibility (1/GPa) = 0.02216796
#
# Stress axis : x y z
#
# Youngs Moduli (GPa) = 93.74319 112.01650 77.81255
#
# Poissons Ratio (x) = 0.11405 0.05921
# Poissons Ratio (y) = 0.09545 0.26144
# Poissons Ratio (z) = 0.07133 0.37637
#
# Static dielectric constant tensor:
#      x y z
#    x 2.171990 0.000000 0.117550 
#    y 0.000000 1.884670 0.000000 
#    z 0.117550 0.000000 1.873780 
# 
# From -- ./inp_files/13404.got.cif
#   From: 2010.05.17/outbox.cif.g08.bks.cpg/sg5_7_cif.got.tgz:13404.got - 2010.06.03 18:56:24.
