data_PCOD9127716
_publ_section_title
;
Structure prediction by ZEFSAII (Michael W. Deem and Ramdas Pophale) SiO2 
 PCOD9127716
Probable space group: C 2
;
_chemical_formula_sum "Si O2"
_cell_formula_units_Z 24
_cell_length_a 9.693090
_cell_length_b 19.263280
_cell_length_c 4.922359
_cell_angle_alpha 90.000000
_cell_angle_beta 86.823645
_cell_angle_gamma 90.000000
_cell_volume 917.694343
_symmetry_space_group_name_H-M "C 2"
_symmetry_group_IT_number 5
_symmetry_cell_setting 'monoclinic'
loop_
_space_group_symop_operation_xyz
x,y,z
-x,y,-z
1/2+x,1/2+y,z
1/2-x,1/2+y,-z
loop_
_atom_site_type_symbol
_atom_site_label
_atom_site_fract_x
_atom_site_fract_y
_atom_site_fract_z
Si Si1 0.500000 0.519161 0.500000
Si Si2 0.651771 0.836788 0.801571
Si Si3 0.000000 0.217244 0.500000
Si Si4 0.206828 0.572871 0.328153
Si Si5 0.280306 0.166852 0.200065
Si Si6 0.500000 0.956910 0.500000
Si Si7 0.813921 0.821790 0.289195
Si Si8 0.500000 0.435475 0.000000
O O1 0.366689 0.552822 0.369891
O O2 0.568096 0.480562 0.231405
O O3 0.577532 0.767227 0.704094
O O4 0.792997 0.829438 0.612240
O O5 0.582230 0.906177 0.696305
O O6 0.676608 0.834199 0.118724
O O7 0.879312 0.177709 0.678145
O O8 0.153514 0.615186 0.592805
O O9 0.110838 0.504860 0.327516
O O10 0.209286 0.627281 0.082874
O O11 0.348962 0.242830 0.209405
O O12 0.903904 0.884465 0.178324
#
# Coordination Sequence:
#
# PCOD9127716 Si02
#       8
#     2   4   2   4   4   2   4   2
#     4  12  27  46  66  98 131 180 230 272 330 394
#     4  10  23  41  69  98 128 165 227 289 332 379
#     4   9  21  42  70  98 129 169 226 294 336 379
#     4  12  27  44  69  97 142 183 222 272 326 415
#     4  11  25  44  67 101 134 175 226 273 339 402
#     4  11  26  46  68 100 138 183 224 270 340 403
#     4  11  23  42  67  99 129 170 221 286 338 390
#     4  12  24  42  68  92 134 174 220 278 340 400
#
# _framework density 26.152495999999999
#
# number of rings (size 3 to 8) (size 9 to 14) (size 15 to 20)
#    0.000    1.000    0.000    6.500    0.000   16.667 
#    0.000    0.000    0.000    0.000    0.000    0.000 
#    0.000    0.000    0.000    0.000    0.000    0.000 
#
# Total GULP energy -67207.048318 kJ/mol
# GULP energy per Si atom -5600.587360 kJ/mol
# Density = 2.609297 g / cm^3
# Si number density = 26.152496 Si / 1000 Ang^3
#
#
#
# Elastic Constant Matrix: (Units=GPa)
#
#
# Indices 1 2 3 4 5 6 
#
# 1 40.8629 8.3187 -8.6643 0.0000 3.8985 0.0000
# 2 8.3187 118.6051 12.3373 0.0000 12.3911 0.0000
# 3 -8.6643 12.3373 102.8311 0.0000 9.4168 0.0000
# 4 0.0000 0.0000 0.0000 60.7221 0.0000 -237.9417
# 5 3.8985 12.3911 9.4168 0.0000 36.5634 0.0000
# 6 0.0000 0.0000 0.0000 -237.9417 0.0000 977.5001
#
#
#
# Elastic Compliance Matrix: (Units=1/GPa)
#
#
# Indices 1 2 3 4 5 6 
#
# 1 0.025661 -0.001780 0.002633 0.000000 -0.002811 0.000000
# 2 -0.001780 0.008928 -0.000985 0.000000 -0.002582 0.000000
# 3 0.002633 -0.000985 0.010303 0.000000 -0.002601 0.000000
# 4 0.000000 0.000000 0.000000 0.356807 0.000000 0.086853
# 5 -0.002811 -0.002582 -0.002601 0.000000 0.029194 0.000000
# 6 0.000000 0.000000 0.000000 0.086853 0.000000 0.022165
#
#
# Mechanical properties :
#
#
# Convention : Reuss Voigt Hill
#
# Bulk Modulus (GPa) = 22.40699 31.80915 27.10807
# Shear Modulus (GPa) = 10.67925 231.64428 121.16177
#
# Velocity S-wave (km/s) = 2.02295 9.42161 6.81392
# Velocity P-wave (km/s) = 3.74738 11.42563 8.50258
#
# Compressibility (1/GPa) = 0.04462892
#
# Stress axis : x y z
#
# Youngs Moduli (GPa) = 38.96979 112.00203 97.06075
#
# Poissons Ratio (x) = 0.19937 -0.25557
# Poissons Ratio (y) = 0.06937 0.09558
# Poissons Ratio (z) = -0.10261 0.11029
#
# Static dielectric constant tensor:
#      x y z
#    x 2.165860 0.000000 -0.059670 
#    y 0.000000 2.080720 0.000000 
#    z -0.059670 0.000000 0.524800 
# 
# From -- ./inp_files/5153.got.cif
#   From: 2010.05.17/outbox.cif.g08.bks.cpg/sg5_3_cif.got.tgz:5153.got - 2010.06.03 18:56:24.
