data_PCOD9127857
_publ_section_title
;
Structure prediction by ZEFSAII (Michael W. Deem and Ramdas Pophale) SiO2 
 PCOD9127857
Probable space group: C 2
;
_chemical_formula_sum "Si O2"
_cell_formula_units_Z 24
_cell_length_a 21.650951
_cell_length_b 8.780952
_cell_length_c 11.220359
_cell_angle_alpha 90.000000
_cell_angle_beta 30.683912
_cell_angle_gamma 90.000000
_cell_volume 1088.559431
_symmetry_space_group_name_H-M "C 2"
_symmetry_group_IT_number 5
_symmetry_cell_setting 'monoclinic'
loop_
_space_group_symop_operation_xyz
x,y,z
-x,y,-z
1/2+x,1/2+y,z
1/2-x,1/2+y,-z
loop_
_atom_site_type_symbol
_atom_site_label
_atom_site_fract_x
_atom_site_fract_y
_atom_site_fract_z
Si Si1 0.081270 0.314070 0.983550
Si Si2 0.135230 0.872556 0.797695
Si Si3 0.313680 0.131173 0.112408
Si Si4 0.690093 0.149648 0.495980
Si Si5 0.492072 0.085644 0.638977
Si Si6 0.955030 0.232753 0.442408
O O1 0.114677 0.492065 0.944497
O O2 0.207523 0.236915 0.746065
O O3 0.000000 0.297851 0.000000
O O4 0.026759 0.237799 0.195347
O O5 0.142265 0.796468 0.915599
O O6 0.158244 0.732181 0.670825
O O7 0.246193 0.986641 0.590631
O O8 0.000000 0.936289 0.000000
O O9 0.170523 0.144115 0.370099
O O10 0.353336 0.096174 0.911300
O O11 0.572401 0.152395 0.610264
O O12 0.500000 0.165808 0.500000
O O13 0.550030 0.916620 0.530329
O O14 0.000000 0.178468 0.500000
#
# Coordination Sequence:
#
# PCOD9127857 Si02
#       6
#     4   4   4   4   4   4
#     4  11  25  43  68 101 138 179 227 285 342 400
#     4  12  24  42  67 103 137 172 223 279 342 403
#     4  11  22  42  71  95 133 176 224 279 340 405
#     4  12  25  42  68 100 136 175 223 280 339 406
#     4  10  23  43  67  96 135 180 223 277 340 399
#     4  10  23  45  69  99 136 182 226 281 346 403
#
# _framework density 22.047488999999999
#
# number of rings (size 3 to 8) (size 9 to 14) (size 15 to 20)
#    0.000    1.000    3.333    3.000    7.000    1.333 
#    0.000    0.833    0.000    0.000    0.000    0.000 
#    0.000    0.000    0.000    0.000    0.000    0.000 
#
# Total GULP energy -66894.297057 kJ/mol
# GULP energy per Si atom -5574.524755 kJ/mol
# Density = 2.199731 g / cm^3
# Si number density = 22.047489 Si / 1000 Ang^3
#
#
#
# Elastic Constant Matrix: (Units=GPa)
#
#
# Indices 1 2 3 4 5 6 
#
# 1 77.6923 7.1783 42.3592 0.0000 13.0876 0.0000
# 2 7.1783 47.6216 26.2709 0.0000 10.0125 0.0000
# 3 42.3592 26.2709 134.3608 0.0000 4.2753 0.0000
# 4 0.0000 0.0000 0.0000 73.4455 0.0000 106.6650
# 5 13.0876 10.0125 4.2753 0.0000 32.0263 0.0000
# 6 0.0000 0.0000 0.0000 106.6650 0.0000 438.1516
#
#
#
# Elastic Compliance Matrix: (Units=1/GPa)
#
#
# Indices 1 2 3 4 5 6 
#
# 1 0.016803 0.001890 -0.005453 0.000000 -0.006730 0.000000
# 2 0.001890 0.025310 -0.005291 0.000000 -0.007979 0.000000
# 3 -0.005453 -0.005291 0.010116 0.000000 0.002532 0.000000
# 4 0.000000 0.000000 0.000000 0.021062 0.000000 -0.005127
# 5 -0.006730 -0.007979 0.002532 0.000000 0.036131 0.000000
# 6 0.000000 0.000000 0.000000 -0.005127 0.000000 0.003531
#
#
# Mechanical properties :
#
#
# Convention : Reuss Voigt Hill
#
# Bulk Modulus (GPa) = 28.96687 45.69905 37.33296
# Shear Modulus (GPa) = 35.16983 120.98243 78.07613
#
# Velocity S-wave (km/s) = 3.99831 7.41571 5.95731
# Velocity P-wave (km/s) = 5.87216 9.70032 8.01805
#
# Compressibility (1/GPa) = 0.03452219
#
# Stress axis : x y z
#
# Youngs Moduli (GPa) = 59.51203 39.50966 98.85633
#
# Poissons Ratio (x) = -0.07468 0.53906
# Poissons Ratio (y) = -0.11249 0.52303
# Poissons Ratio (z) = 0.32452 0.20904
#
# Static dielectric constant tensor:
#      x y z
#    x 1.873730 0.000000 0.006040 
#    y 0.000000 1.872990 0.000000 
#    z 0.006040 0.000000 1.741160 
# 
# From -- ./inp_files/38261.got.cif
#   From: 2010.05.17/outbox.cif.g08.bks.cpg/sg5_20_cif.got.tgz:38261.got - 2010.06.03 18:56:24.
