data_PCOD9127794
_publ_section_title
;
Structure prediction by ZEFSAII (Michael W. Deem and Ramdas Pophale) SiO2 
 PCOD9127794
Probable space group: C 2
;
_chemical_formula_sum "Si O2"
_cell_formula_units_Z 22
_cell_length_a 11.143421
_cell_length_b 8.760292
_cell_length_c 11.423639
_cell_angle_alpha 90.000000
_cell_angle_beta 70.979452
_cell_angle_gamma 90.000000
_cell_volume 1054.284924
_symmetry_space_group_name_H-M "C 2"
_symmetry_group_IT_number 5
_symmetry_cell_setting 'monoclinic'
loop_
_space_group_symop_operation_xyz
x,y,z
-x,y,-z
1/2+x,1/2+y,z
1/2-x,1/2+y,-z
loop_
_atom_site_type_symbol
_atom_site_label
_atom_site_fract_x
_atom_site_fract_y
_atom_site_fract_z
Si Si1 0.375482 0.923090 0.478049
Si Si2 0.275815 0.443575 0.071040
Si Si3 0.352159 0.250884 0.573453
Si Si4 0.000000 0.715803 0.000000
Si Si5 0.790915 0.288797 0.143762
Si Si6 0.505873 0.965654 0.197662
O O1 0.500000 0.846663 0.500000
O O2 0.252965 0.824496 0.480617
O O3 0.429474 0.995525 0.339844
O O4 0.338275 0.068425 0.566837
O O5 0.304629 0.619670 0.087055
O O6 0.145754 0.405789 0.179221
O O7 0.385038 0.326600 0.068556
O O8 0.247952 0.408212 0.943763
O O9 0.500000 0.290032 0.500000
O O10 0.310230 0.292507 0.718429
O O11 0.976722 0.608983 0.894719
O O12 0.924245 0.341478 0.154423
#
# Coordination Sequence:
#
# PCOD9127794 Si02
#       6
#     4   4   4   2   4   4
#     4  10  23  42  68  95 129 176 219 265 328 381
#     4  12  23  40  63  96 128 173 215 262 327 392
#     4  10  23  44  67  96 132 171 219 273 320 389
#     4  12  26  36  66  96 130 176 212 260 340 376
#     4  11  23  43  66  94 135 172 214 269 327 385
#     4  11  23  45  62  91 139 170 213 275 315 392
#
# _framework density 20.867222999999999
#
# number of rings (size 3 to 8) (size 9 to 14) (size 15 to 20)
#    0.000    1.091    3.636    2.182    2.545    3.636 
#    0.000    3.636    0.000    0.000    0.000    0.000 
#    0.000    0.000    0.000    0.000    0.000    0.000 
#
# Total GULP energy -61451.689132 kJ/mol
# GULP energy per Si atom -5586.517194 kJ/mol
# Density = 2.081973 g / cm^3
# Si number density = 20.867223 Si / 1000 Ang^3
#
#
#
# Elastic Constant Matrix: (Units=GPa)
#
#
# Indices 1 2 3 4 5 6 
#
# 1 148.1500 69.4995 25.8181 0.0000 -18.2207 0.0000
# 2 69.4995 92.0461 35.9405 0.0000 -8.5330 0.0000
# 3 25.8181 35.9405 77.0052 0.0000 -5.4210 0.0000
# 4 0.0000 0.0000 0.0000 29.7453 0.0000 1.4365
# 5 -18.2207 -8.5330 -5.4210 0.0000 30.7655 0.0000
# 6 0.0000 0.0000 0.0000 1.4365 0.0000 30.5490
#
#
#
# Elastic Compliance Matrix: (Units=1/GPa)
#
#
# Indices 1 2 3 4 5 6 
#
# 1 0.010992 -0.008043 0.000374 0.000000 0.004345 0.000000
# 2 -0.008043 0.019383 -0.006386 0.000000 -0.000513 0.000000
# 3 0.000374 -0.006386 0.015930 0.000000 0.001257 0.000000
# 4 0.000000 0.000000 0.000000 0.033695 0.000000 -0.001584
# 5 0.004345 -0.000513 0.001257 0.000000 0.035157 0.000000
# 6 0.000000 0.000000 0.000000 -0.001584 0.000000 0.032809
#
#
# Mechanical properties :
#
#
# Convention : Reuss Voigt Hill
#
# Bulk Modulus (GPa) = 54.95869 64.41305 59.68587
# Shear Modulus (GPa) = 27.45137 30.60817 29.02977
#
# Velocity S-wave (km/s) = 3.63095 3.83405 3.73388
# Velocity P-wave (km/s) = 6.63121 7.10879 6.87415
#
# Compressibility (1/GPa) = 0.01819548
#
# Stress axis : x y z
#
# Youngs Moduli (GPa) = 90.97353 51.59160 62.77590
#
# Poissons Ratio (x) = 0.41495 -0.02350
# Poissons Ratio (y) = 0.73170 0.40089
# Poissons Ratio (z) = -0.03406 0.32947
#
# Static dielectric constant tensor:
#      x y z
#    x 1.802980 0.000000 0.026850 
#    y 0.000000 1.725700 0.000000 
#    z 0.026850 0.000000 1.772190 
# 
# From -- ./inp_files/38076.got.cif
#   From: 2010.05.17/outbox.cif.g08.bks.cpg/sg5_20_cif.got.tgz:38076.got - 2010.06.03 18:56:24.
