data_PCOD9127540
_publ_section_title
;
Structure prediction by ZEFSAII (Michael W. Deem and Ramdas Pophale) SiO2 
 PCOD9127540
Probable space group: C 2
;
_chemical_formula_sum "Si O2"
_cell_formula_units_Z 30
_cell_length_a 7.924520
_cell_length_b 13.821086
_cell_length_c 12.768346
_cell_angle_alpha 90.000000
_cell_angle_beta 85.265515
_cell_angle_gamma 90.000000
_cell_volume 1393.687431
_symmetry_space_group_name_H-M "C 2"
_symmetry_group_IT_number 5
_symmetry_cell_setting 'monoclinic'
loop_
_space_group_symop_operation_xyz
x,y,z
-x,y,-z
1/2+x,1/2+y,z
1/2-x,1/2+y,-z
loop_
_atom_site_type_symbol
_atom_site_label
_atom_site_fract_x
_atom_site_fract_y
_atom_site_fract_z
Si Si1 0.356081 0.670230 0.579970
Si Si2 0.823022 0.803105 0.562059
Si Si3 0.643792 0.194600 0.223880
Si Si4 0.135423 0.487143 0.585585
Si Si5 0.891067 0.466139 0.782865
Si Si6 0.755616 0.764745 0.212725
Si Si7 0.192604 0.170339 0.999975
Si Si8 0.500000 0.020033 0.000000
O O1 0.500000 0.622211 0.500000
O O2 0.312307 0.762559 0.512106
O O3 0.200874 0.595784 0.589731
O O4 0.367193 0.709442 0.698026
O O5 0.802664 0.749723 0.673888
O O6 0.794327 0.916705 0.567852
O O7 0.000000 0.779238 0.500000
O O8 0.665862 0.077816 0.232996
O O9 0.446343 0.224104 0.217691
O O10 0.746261 0.217903 0.112395
O O11 0.000000 0.479960 0.500000
O O12 0.041817 0.452592 0.694266
O O13 0.757512 0.380390 0.770514
O O14 0.964614 0.461842 0.896385
O O15 0.700053 0.741647 0.097858
O O16 0.333416 0.088196 0.018157
O O17 0.000000 0.133150 0.000000
#
# Coordination Sequence:
#
# PCOD9127540 Si02
#       8
#     4   4   4   4   4   4   4   2
#     4  12  25  44  69 102 144 187 240 302 362 443
#     4  12  24  43  69 101 138 190 234 295 369 435
#     4  11  24  49  71 103 150 190 241 311 369 438
#     4  12  25  44  67 101 141 187 244 297 364 438
#     4  11  23  43  73 101 138 195 235 299 372 434
#     4  12  23  45  73 106 146 194 245 304 375 442
#     4  11  24  44  75 104 142 199 240 304 379 436
#     4  10  22  50  70 102 148 186 248 312 368 436
#
# _framework density 21.525628000000001
#
# number of rings (size 3 to 8) (size 9 to 14) (size 15 to 20)
#    0.000    0.533    5.333    3.600    4.667    0.000 
#    2.400    6.667    0.000    0.000    0.000    0.000 
#    0.000    0.000    0.000    0.000    0.000    0.000 
#
# Total GULP energy -83782.382735 kJ/mol
# GULP energy per Si atom -5585.492182 kJ/mol
# Density = 2.147663 g / cm^3
# Si number density = 21.525628 Si / 1000 Ang^3
#
#
#
# Elastic Constant Matrix: (Units=GPa)
#
#
# Indices 1 2 3 4 5 6 
#
# 1 84.1440 31.6866 29.9434 0.0000 -25.6492 0.0000
# 2 31.6866 116.6028 40.2971 0.0000 0.0965 0.0000
# 3 29.9434 40.2971 167.2324 0.0000 -14.8968 0.0000
# 4 0.0000 0.0000 0.0000 -18.0280 0.0000 16.6459
# 5 -25.6492 0.0965 -14.8968 0.0000 17.7050 0.0000
# 6 0.0000 0.0000 0.0000 16.6459 0.0000 32.5506
#
#
#
# Elastic Compliance Matrix: (Units=1/GPa)
#
#
# Indices 1 2 3 4 5 6 
#
# 1 0.026145 -0.007307 0.000494 0.000000 0.038331 0.000000
# 2 -0.007307 0.011471 -0.002599 0.000000 -0.012835 0.000000
# 3 0.000494 -0.002599 0.007116 0.000000 0.006717 0.000000
# 4 0.000000 0.000000 0.000000 -0.037678 0.000000 0.019268
# 5 0.038331 -0.012835 0.006717 0.000000 0.117733 0.000000
# 6 0.000000 0.000000 0.000000 0.019268 0.000000 0.020868
#
#
# Mechanical properties :
#
#
# Convention : Reuss Voigt Hill
#
# Bulk Modulus (GPa) = 38.59999 63.53702 51.06851
# Shear Modulus (GPa) = 28.88271 24.18232 26.53251
#
# Velocity S-wave (km/s) = 3.66701 3.35538 3.51465
# Velocity P-wave (km/s) = 5.99169 6.67776 6.34400
#
# Compressibility (1/GPa) = 0.02590674
#
# Stress axis : x y z
#
# Youngs Moduli (GPa) = 38.24881 87.17907 140.53125
#
# Poissons Ratio (x) = 0.63703 -0.06942
# Poissons Ratio (y) = 0.27949 0.36524
# Poissons Ratio (z) = -0.01889 0.22658
#
# Static dielectric constant tensor:
#      x y z
#    x 1.890970 0.000000 -0.081910 
#    y 0.000000 1.765690 0.000000 
#    z -0.081910 0.000000 1.793270 
# 
# From -- ./inp_files/36376.got.cif
#   From: 2010.05.17/outbox.cif.g08.bks.cpg/sg5_19_cif.got.tgz:36376.got - 2010.06.03 18:56:24.
