data_PCOD9127204
_publ_section_title
;
Structure prediction by ZEFSAII (Michael W. Deem and Ramdas Pophale) SiO2 
 PCOD9127204
Probable space group: C 2
;
_chemical_formula_sum "Si O2"
_cell_formula_units_Z 24
_cell_length_a 12.924945
_cell_length_b 5.583098
_cell_length_c 13.712880
_cell_angle_alpha 90.000000
_cell_angle_beta 97.478504
_cell_angle_gamma 90.000000
_cell_volume 981.121102
_symmetry_space_group_name_H-M "C 2"
_symmetry_group_IT_number 5
_symmetry_cell_setting 'monoclinic'
loop_
_space_group_symop_operation_xyz
x,y,z
-x,y,-z
1/2+x,1/2+y,z
1/2-x,1/2+y,-z
loop_
_atom_site_type_symbol
_atom_site_label
_atom_site_fract_x
_atom_site_fract_y
_atom_site_fract_z
Si Si1 0.000000 0.141541 0.000000
Si Si2 0.726255 0.999300 0.240468
Si Si3 0.100090 0.903234 0.192877
Si Si4 0.805614 0.385703 0.982522
Si Si5 0.000000 0.991945 0.500000
Si Si6 0.574145 0.798585 0.355206
Si Si7 0.431010 0.191016 0.303075
O O1 0.084607 0.308101 0.956971
O O2 0.064425 0.978867 0.082121
O O3 0.714601 0.284037 0.216370
O O4 0.676365 0.909608 0.131777
O O5 0.665815 0.979832 0.336794
O O6 0.827057 0.832468 0.261111
O O7 0.010841 0.726826 0.222926
O O8 0.089575 0.113819 0.269353
O O9 0.765744 0.647650 0.010339
O O10 0.083782 0.166304 0.458771
O O11 0.036746 0.829220 0.593642
O O12 0.458841 0.916366 0.333739
#
# Coordination Sequence:
#
# PCOD9127204 Si02
#       7
#     2   4   4   4   2   4   4
#     4  12  24  46  74  98 158 198 252 332 374 436
#     4  11  24  44  68 105 148 194 257 314 385 459
#     4  10  23  43  67 102 142 200 252 310 384 448
#     4  12  28  44  72 112 150 206 272 310 385 467
#     4  10  22  46  66 104 136 186 244 308 398 456
#     4  10  22  44  69 103 142 188 254 304 393 457
#     4  10  23  43  72  99 146 192 244 325 380 459
#
# _framework density 24.46181
#
# number of rings (size 3 to 8) (size 9 to 14) (size 15 to 20)
#    0.000    1.333    1.667    2.500    2.333    5.333 
#   12.000    0.000    0.000    0.000    0.000    0.000 
#    0.000    0.000    0.000    0.000    0.000    0.000 
#
# Total GULP energy -66850.863330 kJ/mol
# GULP energy per Si atom -5570.905277 kJ/mol
# Density = 2.440613 g / cm^3
# Si number density = 24.461810 Si / 1000 Ang^3
#
#
#
# Elastic Constant Matrix: (Units=GPa)
#
#
# Indices 1 2 3 4 5 6 
#
# 1 85.9998 36.0974 3.1539 0.0000 -1.7067 0.0000
# 2 36.0974 129.5460 26.0642 0.0000 -5.8105 0.0000
# 3 3.1539 26.0642 89.0217 0.0000 -23.6783 0.0000
# 4 0.0000 0.0000 0.0000 43.2836 0.0000 -14.7777
# 5 -1.7067 -5.8105 -23.6783 0.0000 36.1434 0.0000
# 6 0.0000 0.0000 0.0000 -14.7777 0.0000 38.6434
#
#
#
# Elastic Compliance Matrix: (Units=1/GPa)
#
#
# Indices 1 2 3 4 5 6 
#
# 1 0.013211 -0.003817 0.000790 0.000000 0.000528 0.000000
# 2 -0.003817 0.009308 -0.002713 0.000000 -0.000461 0.000000
# 3 0.000790 -0.002713 0.014403 0.000000 0.009037 0.000000
# 4 0.000000 0.000000 0.000000 0.026573 0.000000 0.010162
# 5 0.000528 -0.000461 0.009037 0.000000 0.033539 0.000000
# 6 0.000000 0.000000 0.000000 0.010162 0.000000 0.029764
#
#
# Mechanical properties :
#
#
# Convention : Reuss Voigt Hill
#
# Bulk Modulus (GPa) = 39.30267 48.35539 43.82903
# Shear Modulus (GPa) = 34.06983 39.56421 36.81702
#
# Velocity S-wave (km/s) = 3.73604 4.02604 3.88375
# Velocity P-wave (km/s) = 5.89173 6.43604 6.16989
#
# Compressibility (1/GPa) = 0.02544356
#
# Stress axis : x y z
#
# Youngs Moduli (GPa) = 75.69229 107.43671 69.42935
#
# Poissons Ratio (x) = 0.41003 -0.05483
# Poissons Ratio (y) = 0.28888 0.18833
# Poissons Ratio (z) = -0.05977 0.29143
#
# Static dielectric constant tensor:
#      x y z
#    x 2.053000 0.000000 -0.032610 
#    y 0.000000 2.225370 0.000000 
#    z -0.032610 0.000000 1.904840 
# 
# From -- ./inp_files/53717.got.cif
#   From: 2010.05.17/outbox.cif.g08.bks.cpg/sg5_27_cif.got.tgz:53717.got - 2010.06.03 18:56:24.
