data_PCOD9127261
_publ_section_title
;
Structure prediction by ZEFSAII (Michael W. Deem and Ramdas Pophale) SiO2 
 PCOD9127261
Probable space group: C 2
;
_chemical_formula_sum "Si O2"
_cell_formula_units_Z 20
_cell_length_a 10.775851
_cell_length_b 13.310072
_cell_length_c 10.377574
_cell_angle_alpha 90.000000
_cell_angle_beta 144.613272
_cell_angle_gamma 90.000000
_cell_volume 861.937235
_symmetry_space_group_name_H-M "C 2"
_symmetry_group_IT_number 5
_symmetry_cell_setting 'monoclinic'
loop_
_space_group_symop_operation_xyz
x,y,z
-x,y,-z
1/2+x,1/2+y,z
1/2-x,1/2+y,-z
loop_
_atom_site_type_symbol
_atom_site_label
_atom_site_fract_x
_atom_site_fract_y
_atom_site_fract_z
Si Si1 0.500000 0.594600 0.500000
Si Si2 0.751125 0.458153 0.548383
Si Si3 0.603607 0.315122 0.827311
Si Si4 0.449186 0.795946 0.313547
Si Si5 0.826901 0.653112 0.464543
Si Si6 0.500000 0.742353 0.000000
O O1 0.697698 0.520462 0.633404
O O2 0.480224 0.675059 0.365100
O O3 0.521872 0.416422 0.308446
O O4 0.833446 0.542051 0.522439
O O5 0.909077 0.363332 0.666023
O O6 0.425439 0.228063 0.656011
O O7 0.711299 0.309679 0.057836
O O8 0.796664 0.300586 0.887830
O O9 0.500000 0.836491 0.500000
O O10 0.603689 0.678164 0.203990
O O11 0.000000 0.664600 0.500000
#
# Coordination Sequence:
#
# PCOD9127261 Si02
#       6
#     2   4   4   4   4   2
#     4  10  26  46  72 102 154 194 248 302 366 436
#     4  12  24  44  74 107 141 196 248 293 379 441
#     4  11  24  42  76 105 144 193 244 305 362 440
#     4  10  26  50  67 104 159 191 242 314 361 438
#     4  10  24  45  72 103 142 189 242 303 369 439
#     4  10  22  44  72  98 148 180 236 312 354 436
#
# _framework density 23.203547
#
# number of rings (size 3 to 8) (size 9 to 14) (size 15 to 20)
#    0.600    0.800    0.000    4.200    7.000    7.200 
#    0.000    2.000    0.000    0.000    0.000    0.000 
#    0.000    0.000    0.000    0.000    0.000    0.000 
#
# Total GULP energy -55724.733889 kJ/mol
# GULP energy per Si atom -5572.473389 kJ/mol
# Density = 2.315073 g / cm^3
# Si number density = 23.203547 Si / 1000 Ang^3
#
#
#
# Elastic Constant Matrix: (Units=GPa)
#
#
# Indices 1 2 3 4 5 6 
#
# 1 60.7281 29.2491 40.1417 0.0000 -10.3416 0.0000
# 2 29.2491 129.1241 61.3783 0.0000 -1.8482 0.0000
# 3 40.1417 61.3783 134.0933 0.0000 -4.3284 0.0000
# 4 0.0000 0.0000 0.0000 18.9434 0.0000 2.7876
# 5 -10.3416 -1.8482 -4.3284 0.0000 30.6082 0.0000
# 6 0.0000 0.0000 0.0000 2.7876 0.0000 42.1555
#
#
#
# Elastic Compliance Matrix: (Units=1/GPa)
#
#
# Indices 1 2 3 4 5 6 
#
# 1 0.022298 -0.002409 -0.005358 0.000000 0.006631 0.000000
# 2 -0.002409 0.010158 -0.003953 0.000000 -0.000760 0.000000
# 3 -0.005358 -0.003953 0.010854 0.000000 -0.000514 0.000000
# 4 0.000000 0.000000 0.000000 0.053308 0.000000 -0.003525
# 5 0.006631 -0.000760 -0.000514 0.000000 0.034793 0.000000
# 6 0.000000 0.000000 0.000000 -0.003525 0.000000 0.023955
#
#
# Mechanical properties :
#
#
# Convention : Reuss Voigt Hill
#
# Bulk Modulus (GPa) = 50.32726 65.05372 57.69049
# Shear Modulus (GPa) = 26.96426 31.21985 29.09206
#
# Velocity S-wave (km/s) = 3.41262 3.67205 3.54471
# Velocity P-wave (km/s) = 6.10447 6.78790 6.45524
#
# Compressibility (1/GPa) = 0.01986995
#
# Stress axis : x y z
#
# Youngs Moduli (GPa) = 44.84663 98.44061 92.12803
#
# Poissons Ratio (x) = 0.23714 0.49366
# Poissons Ratio (y) = 0.10803 0.36420
# Poissons Ratio (z) = 0.24031 0.38915
#
# Static dielectric constant tensor:
#      x y z
#    x 1.981590 0.000000 0.019230 
#    y 0.000000 1.844710 0.000000 
#    z 0.019230 0.000000 1.855270 
# 
# From -- ./inp_files/39981.got.cif
#   From: 2010.05.17/outbox.cif.g08.bks.cpg/sg5_20_cif.got.tgz:39981.got - 2010.06.03 18:56:24.
