data_PCOD9127475
_publ_section_title
;
Structure prediction by ZEFSAII (Michael W. Deem and Ramdas Pophale) SiO2 
 PCOD9127475
Probable space group: C 2
;
_chemical_formula_sum "Si O2"
_cell_formula_units_Z 22
_cell_length_a 7.534928
_cell_length_b 18.548938
_cell_length_c 8.622065
_cell_angle_alpha 90.000000
_cell_angle_beta 128.443558
_cell_angle_gamma 90.000000
_cell_volume 943.830008
_symmetry_space_group_name_H-M "C 2"
_symmetry_group_IT_number 5
_symmetry_cell_setting 'monoclinic'
loop_
_space_group_symop_operation_xyz
x,y,z
-x,y,-z
1/2+x,1/2+y,z
1/2-x,1/2+y,-z
loop_
_atom_site_type_symbol
_atom_site_label
_atom_site_fract_x
_atom_site_fract_y
_atom_site_fract_z
Si Si1 0.235108 0.776370 0.222829
Si Si2 0.000000 0.497094 0.500000
Si Si3 0.365824 0.056975 0.125073
Si Si4 0.161619 0.116987 0.723632
Si Si5 0.837442 0.393293 0.039070
Si Si6 0.116821 0.884815 0.394458
O O1 0.370091 0.702552 0.281920
O O2 0.197927 0.806190 0.376617
O O3 0.343578 0.843812 0.192160
O O4 0.000000 0.764042 0.000000
O O5 0.860244 0.548506 0.306510
O O6 0.810396 0.445013 0.475740
O O7 0.585227 0.103914 0.203760
O O8 0.169656 0.083280 0.901227
O O9 0.415568 0.974137 0.108873
O O10 0.000000 0.086512 0.500000
O O11 0.584710 0.400305 0.837059
O O12 0.000000 0.358740 0.000000
O O13 0.000000 0.884811 0.500000
#
# Coordination Sequence:
#
# PCOD9127475 Si02
#       6
#     4   2   4   4   4   4
#     4  10  22  47  70 105 154 196 251 320 374 456
#     4  12  26  46  74 114 152 198 260 318 376 458
#     4  11  24  44  68 105 150 191 251 309 371 455
#     4  11  25  45  75 103 154 209 248 310 391 453
#     4  11  22  43  76 106 150 197 255 314 374 453
#     4  11  26  41  76 113 147 196 254 318 382 441
#
# _framework density 23.309282
#
# number of rings (size 3 to 8) (size 9 to 14) (size 15 to 20)
#    0.000    1.091    5.455    1.091    3.818    0.000 
#    1.636    1.818    0.000    0.000    0.000    0.000 
#    0.000    0.000    0.000    0.000    0.000    0.000 
#
# Total GULP energy -61431.413662 kJ/mol
# GULP energy per Si atom -5584.673969 kJ/mol
# Density = 2.325623 g / cm^3
# Si number density = 23.309282 Si / 1000 Ang^3
#
#
#
# Elastic Constant Matrix: (Units=GPa)
#
#
# Indices 1 2 3 4 5 6 
#
# 1 89.7697 31.8386 39.7704 0.0000 -13.9949 0.0000
# 2 31.8386 102.5005 43.6059 0.0000 -19.0727 0.0000
# 3 39.7704 43.6059 206.4877 0.0000 -9.9961 0.0000
# 4 0.0000 0.0000 0.0000 25.6234 0.0000 -9.4647
# 5 -13.9949 -19.0727 -9.9961 0.0000 43.0859 0.0000
# 6 0.0000 0.0000 0.0000 -9.4647 0.0000 8.5971
#
#
#
# Elastic Compliance Matrix: (Units=1/GPa)
#
#
# Indices 1 2 3 4 5 6 
#
# 1 0.013391 -0.002883 -0.001842 0.000000 0.002646 0.000000
# 2 -0.002883 0.012176 -0.001821 0.000000 0.004031 0.000000
# 3 -0.001842 -0.001821 0.005577 0.000000 -0.000111 0.000000
# 4 0.000000 0.000000 0.000000 0.065774 0.000000 0.072412
# 5 0.002646 0.004031 -0.000111 0.000000 0.025828 0.000000
# 6 0.000000 0.000000 0.000000 0.072412 0.000000 0.196039
#
#
# Mechanical properties :
#
#
# Convention : Reuss Voigt Hill
#
# Bulk Modulus (GPa) = 55.39795 69.90973 62.65384
# Shear Modulus (GPa) = 14.79752 34.36414 24.58083
#
# Velocity S-wave (km/s) = 2.52232 3.84379 3.25091
# Velocity P-wave (km/s) = 5.68339 7.05386 6.40538
#
# Compressibility (1/GPa) = 0.01805121
#
# Stress axis : x y z
#
# Youngs Moduli (GPa) = 74.67769 82.12591 179.31144
#
# Poissons Ratio (x) = 0.23681 0.33032
# Poissons Ratio (y) = 0.21533 0.32651
# Poissons Ratio (z) = 0.13757 0.14954
#
# Static dielectric constant tensor:
#      x y z
#    x 1.959120 0.000000 -0.042630 
#    y 0.000000 1.821990 0.000000 
#    z -0.042630 0.000000 2.040140 
# 
# From -- ./inp_files/16216.got.cif
#   From: 2010.05.17/outbox.cif.g08.bks.cpg/sg5_9_cif.got.tgz:16216.got - 2010.06.03 18:56:24.
