data_PCOD9127812
_publ_section_title
;
Structure prediction by ZEFSAII (Michael W. Deem and Ramdas Pophale) SiO2 
 PCOD9127812
Probable space group: C 2
;
_chemical_formula_sum "Si O2"
_cell_formula_units_Z 20
_cell_length_a 13.682023
_cell_length_b 4.813506
_cell_length_c 19.871802
_cell_angle_alpha 90.000000
_cell_angle_beta 35.545686
_cell_angle_gamma 90.000000
_cell_volume 760.830998
_symmetry_space_group_name_H-M "C 2"
_symmetry_group_IT_number 5
_symmetry_cell_setting 'monoclinic'
loop_
_space_group_symop_operation_xyz
x,y,z
-x,y,-z
1/2+x,1/2+y,z
1/2-x,1/2+y,-z
loop_
_atom_site_type_symbol
_atom_site_label
_atom_site_fract_x
_atom_site_fract_y
_atom_site_fract_z
Si Si1 0.642579 0.041700 0.735222
Si Si2 0.830566 0.315727 0.986309
Si Si3 0.642029 0.060590 0.350701
Si Si4 0.631016 0.766437 0.562422
Si Si5 0.099115 0.865230 0.233269
O O1 0.514077 0.896100 0.859052
O O2 0.732492 0.304501 0.717522
O O3 0.527157 0.184422 0.742447
O O4 0.785334 0.805523 0.642733
O O5 0.794042 0.993621 0.992491
O O6 0.767381 0.397769 0.095527
O O7 0.634589 0.208825 0.282327
O O8 0.459636 0.906766 0.451172
O O9 0.738677 0.495265 0.485050
O O10 0.495900 0.647525 0.691614
#
# Coordination Sequence:
#
# PCOD9127812 Si02
#       5
#     4   4   4   4   4
#     4  11  25  45  73 110 150 183 241 294 352 448
#     4  10  23  42  70 110 146 188 234 280 353 442
#     4  12  25  46  73 109 144 187 246 297 357 437
#     4  12  25  48  78 102 143 195 249 310 364 423
#     4  11  26  47  78 100 152 197 232 294 376 414
#
# _framework density 26.287046
#
# number of rings (size 3 to 8) (size 9 to 14) (size 15 to 20)
#    0.000    0.800    4.000    2.400    8.400    0.800 
#    3.600    1.000   13.200    0.000    0.000    0.000 
#    0.000    0.000    0.000    0.000    0.000    0.000 
#
# Total GULP energy -56011.142715 kJ/mol
# GULP energy per Si atom -5601.114271 kJ/mol
# Density = 2.622722 g / cm^3
# Si number density = 26.287046 Si / 1000 Ang^3
#
#
#
# Elastic Constant Matrix: (Units=GPa)
#
#
# Indices 1 2 3 4 5 6 
#
# 1 132.2105 56.3415 37.1413 0.0021 -28.3880 -0.0010
# 2 56.3415 191.8043 36.6547 0.0028 -21.9644 0.0067
# 3 37.1413 36.6547 83.1046 0.0015 5.6709 -0.0024
# 4 0.0021 0.0028 0.0015 55.2748 -0.0006 -10.1435
# 5 -28.3880 -21.9644 5.6709 -0.0006 38.8549 0.0018
# 6 -0.0010 0.0067 -0.0024 -10.1435 0.0018 56.0007
#
#
#
# Elastic Compliance Matrix: (Units=1/GPa)
#
#
# Indices 1 2 3 4 5 6 
#
# 1 0.011340 -0.001438 -0.004994 0.000000 0.008202 0.000000
# 2 -0.001438 0.006429 -0.002393 0.000000 0.002933 -0.000001
# 3 -0.004994 -0.002393 0.015819 0.000000 -0.007310 0.000001
# 4 0.000000 0.000000 0.000000 0.018713 0.000000 0.003390
# 5 0.008202 0.002933 -0.007310 0.000000 0.034454 -0.000002
# 6 0.000000 -0.000001 0.000001 0.003390 -0.000002 0.018471
#
#
# Mechanical properties :
#
#
# Convention : Reuss Voigt Hill
#
# Bulk Modulus (GPa) = 62.73818 74.15494 68.44656
# Shear Modulus (GPa) = 39.00465 48.49153 43.74809
#
# Velocity S-wave (km/s) = 3.85619 4.29965 4.08394
# Velocity P-wave (km/s) = 6.61402 7.27463 6.95218
#
# Compressibility (1/GPa) = 0.01593926
#
# Stress axis : x y z
#
# Youngs Moduli (GPa) = 88.18169 155.53934 63.21376
#
# Poissons Ratio (x) = 0.22360 0.31568
# Poissons Ratio (y) = 0.12677 0.15130
# Poissons Ratio (z) = 0.44036 0.37227
#
# Static dielectric constant tensor:
#      x y z
#    x 2.072930 0.000000 0.018780 
#    y 0.000000 1.988980 0.000000 
#    z 0.018780 0.000000 2.151470 
# 
# From -- ./inp_files/68536.got.cif
#   From: 2010.05.17/outbox.cif.g08.bks.cpg/sg5_35_cif.got.tgz:68536.got - 2010.06.03 18:56:24.
