data_PCOD9127152
_publ_section_title
;
Structure prediction by ZEFSAII (Michael W. Deem and Ramdas Pophale) SiO2 
 PCOD9127152
Probable space group: C 2
;
_chemical_formula_sum "Si O2"
_cell_formula_units_Z 16
_cell_length_a 23.417351
_cell_length_b 4.838129
_cell_length_c 9.663918
_cell_angle_alpha 90.000000
_cell_angle_beta 33.936371
_cell_angle_gamma 90.000000
_cell_volume 611.243426
_symmetry_space_group_name_H-M "C 2"
_symmetry_group_IT_number 5
_symmetry_cell_setting 'monoclinic'
loop_
_space_group_symop_operation_xyz
x,y,z
-x,y,-z
1/2+x,1/2+y,z
1/2-x,1/2+y,-z
loop_
_atom_site_type_symbol
_atom_site_label
_atom_site_fract_x
_atom_site_fract_y
_atom_site_fract_z
Si Si1 0.500000 0.139820 0.500000
Si Si2 0.204493 0.237145 0.671950
Si Si3 0.681626 0.807978 0.169118
Si Si4 0.879959 0.696703 0.489988
Si Si5 0.500000 0.460618 0.000000
O O1 0.589484 0.938115 0.265198
O O2 0.449812 0.308177 0.476390
O O3 0.229492 0.477692 0.514948
O O4 0.265627 0.311358 0.688924
O O5 0.087565 0.145048 0.898106
O O6 0.640970 0.887169 0.406231
O O7 0.778537 0.011610 0.953060
O O8 0.945446 0.771028 0.224223
#
# Coordination Sequence:
#
# PCOD9127152 Si02
#       5
#     2   4   4   4   2
#     4   8  22  44  66 102 124 180 212 270 330 380
#     4  10  23  43  63  96 132 174 216 261 323 392
#     4  10  23  43  65  96 129 171 217 267 319 387
#     4   9  22  43  68 100 129 174 217 270 327 389
#     4  10  22  44  66  98 136 170 216 274 326 386
#
# _framework density 26.176151999999998
#
# number of rings (size 3 to 8) (size 9 to 14) (size 15 to 20)
#    1.500    1.000    0.000    0.000    3.500    9.000 
#   13.500    0.000    0.000    0.000    0.000    0.000 
#    0.000    0.000    0.000    0.000    0.000    0.000 
#
# Total GULP energy -44616.531377 kJ/mol
# GULP energy per Si atom -5577.066422 kJ/mol
# Density = 2.611657 g / cm^3
# Si number density = 26.176152 Si / 1000 Ang^3
#
#
#
# Elastic Constant Matrix: (Units=GPa)
#
#
# Indices 1 2 3 4 5 6 
#
# 1 196.3068 9.1949 61.6120 -0.0005 -31.7384 0.0005
# 2 9.1949 75.4491 40.6330 -0.0013 0.7898 0.0014
# 3 61.6120 40.6330 163.9190 -0.0005 -23.9833 0.0002
# 4 -0.0005 -0.0013 -0.0005 56.4740 -0.0003 -10.0055
# 5 -31.7384 0.7898 -23.9833 -0.0003 51.2245 -0.0001
# 6 0.0005 0.0014 0.0002 -10.0055 -0.0001 29.8047
#
#
#
# Elastic Compliance Matrix: (Units=1/GPa)
#
#
# Indices 1 2 3 4 5 6 
#
# 1 0.006165 0.000275 -0.001961 0.000000 0.002897 0.000000
# 2 0.000275 0.015534 -0.004256 0.000000 -0.002062 -0.000001
# 3 -0.001961 -0.004256 0.008293 0.000000 0.002733 0.000000
# 4 0.000000 0.000000 0.000000 0.018827 0.000000 0.006320
# 5 0.002897 -0.002062 0.002733 0.000000 0.022628 0.000000
# 6 0.000000 -0.000001 0.000000 0.006320 0.000000 0.035673
#
#
# Mechanical properties :
#
#
# Convention : Reuss Voigt Hill
#
# Bulk Modulus (GPa) = 55.22711 73.17273 64.19992
# Shear Modulus (GPa) = 39.98691 49.11632 44.55162
#
# Velocity S-wave (km/s) = 3.91270 4.33642 4.13000
# Velocity P-wave (km/s) = 6.44642 7.28610 6.87909
#
# Compressibility (1/GPa) = 0.01810705
#
# Stress axis : x y z
#
# Youngs Moduli (GPa) = 162.19904 64.37547 120.59005
#
# Poissons Ratio (x) = -0.01768 0.23654
# Poissons Ratio (y) = -0.04455 0.51317
# Poissons Ratio (z) = 0.31815 0.27395
#
# Static dielectric constant tensor:
#      x y z
#    x 2.226770 0.000000 0.044090 
#    y 0.000000 2.057490 0.000000 
#    z 0.044090 0.000000 2.075310 
# 
# From -- ./inp_files/28123.got.cif
#   From: 2010.05.17/outbox.cif.g08.bks.cpg/sg5_15_cif.got.tgz:28123.got - 2010.06.03 18:56:24.
