data_PCOD9127443
_publ_section_title
;
Structure prediction by ZEFSAII (Michael W. Deem and Ramdas Pophale) SiO2 
 PCOD9127443
Probable space group: C 2
;
_chemical_formula_sum "Si O2"
_cell_formula_units_Z 28
_cell_length_a 22.563456
_cell_length_b 7.283679
_cell_length_c 11.768316
_cell_angle_alpha 90.000000
_cell_angle_beta 148.557979
_cell_angle_gamma 90.000000
_cell_volume 1008.876186
_symmetry_space_group_name_H-M "C 2"
_symmetry_group_IT_number 5
_symmetry_cell_setting 'monoclinic'
loop_
_space_group_symop_operation_xyz
x,y,z
-x,y,-z
1/2+x,1/2+y,z
1/2-x,1/2+y,-z
loop_
_atom_site_type_symbol
_atom_site_label
_atom_site_fract_x
_atom_site_fract_y
_atom_site_fract_z
Si Si1 0.099855 0.771840 0.317459
Si Si2 0.000000 0.226814 0.000000
Si Si3 0.160119 0.030628 0.594149
Si Si4 0.430439 0.125862 0.160023
Si Si5 0.360534 0.748293 0.976102
Si Si6 0.178953 0.207433 0.836450
Si Si7 0.308936 0.876441 0.515605
Si Si8 0.000000 0.525877 0.500000
O O1 0.182464 0.855381 0.360268
O O2 0.165870 0.588731 0.469280
O O3 0.971298 0.698956 0.103944
O O4 0.079077 0.930225 0.375381
O O5 0.924658 0.143747 0.980286
O O6 0.900056 0.329577 0.765250
O O7 0.121438 0.061014 0.658677
O O8 0.183498 0.227150 0.572542
O O9 0.264454 0.886660 0.770347
O O10 0.506217 0.147247 0.397364
O O11 0.307251 0.196975 0.996773
O O12 0.442906 0.906483 0.160918
O O13 0.321480 0.658480 0.030777
O O14 0.110018 0.394151 0.697665
#
# Coordination Sequence:
#
# PCOD9127443 Si02
#       8
#     4   2   4   4   4   4   4   2
#     4  12  23  45  77 111 158 214 269 337 416 487
#     4  12  22  44  76 108 156 212 256 332 416 482
#     4  11  25  48  76 114 154 210 268 337 406 491
#     4  10  23  42  74 108 154 215 266 334 419 491
#     4  10  22  46  75 107 157 207 266 334 405 496
#     4  10  24  47  72 115 155 215 278 332 422 498
#     4  12  25  46  76 115 162 212 276 337 412 495
#     4  10  22  46  74 102 164 212 252 360 414 462
#
# _framework density 27.753654999999998
#
# number of rings (size 3 to 8) (size 9 to 14) (size 15 to 20)
#    0.000    1.143    4.286    0.857    4.000    0.000 
#   10.286    5.000    0.000    0.000    0.000    0.000 
#    0.000    0.000    0.000    0.000    0.000    0.000 
#
# Total GULP energy -78108.254822 kJ/mol
# GULP energy per Si atom -5579.161059 kJ/mol
# Density = 2.769049 g / cm^3
# Si number density = 27.753655 Si / 1000 Ang^3
#
#
#
# Elastic Constant Matrix: (Units=GPa)
#
#
# Indices 1 2 3 4 5 6 
#
# 1 213.4496 60.0059 74.7728 0.0000 27.0432 0.0000
# 2 60.0059 118.8912 28.6060 0.0000 -11.5750 0.0000
# 3 74.7728 28.6060 107.6317 0.0000 -13.2754 0.0000
# 4 0.0000 0.0000 0.0000 39.7268 0.0000 -11.5300
# 5 27.0432 -11.5750 -13.2754 0.0000 47.2925 0.0000
# 6 0.0000 0.0000 0.0000 -11.5300 0.0000 45.1395
#
#
#
# Elastic Compliance Matrix: (Units=1/GPa)
#
#
# Indices 1 2 3 4 5 6 
#
# 1 0.008850 -0.003748 -0.006101 0.000000 -0.007690 0.000000
# 2 -0.003748 0.010689 0.000362 0.000000 0.004861 0.000000
# 3 -0.006101 0.000362 0.014372 0.000000 0.007611 0.000000
# 4 0.000000 0.000000 0.000000 0.027187 0.000000 0.006945
# 5 -0.007690 0.004861 0.007611 0.000000 0.028869 0.000000
# 6 0.000000 0.000000 0.000000 0.006945 0.000000 0.023927
#
#
# Mechanical properties :
#
#
# Convention : Reuss Voigt Hill
#
# Bulk Modulus (GPa) = 66.94262 85.19355 76.06808
# Shear Modulus (GPa) = 36.27263 44.87097 40.57180
#
# Velocity S-wave (km/s) = 3.61910 4.02526 3.82757
# Velocity P-wave (km/s) = 6.45263 7.23647 6.85577
#
# Compressibility (1/GPa) = 0.01493817
#
# Stress axis : x y z
#
# Youngs Moduli (GPa) = 112.99575 93.55806 69.58146
#
# Poissons Ratio (x) = 0.35061 0.42449
# Poissons Ratio (y) = 0.42345 -0.02520
# Poissons Ratio (z) = 0.68935 -0.03389
#
# Static dielectric constant tensor:
#      x y z
#    x 2.263290 0.000000 0.028100 
#    y 0.000000 2.179110 0.000000 
#    z 0.028100 0.000000 2.364620 
# 
# From -- ./inp_files/46184.got.cif
#   From: 2010.05.17/outbox.cif.g08.bks.cpg/sg5_24_cif.got.tgz:46184.got - 2010.06.03 18:56:24.
