data_PCOD9127311
_publ_section_title
;
Structure prediction by ZEFSAII (Michael W. Deem and Ramdas Pophale) SiO2 
 PCOD9127311
Probable space group: C 2
;
_chemical_formula_sum "Si O2"
_cell_formula_units_Z 30
_cell_length_a 21.419597
_cell_length_b 9.112832
_cell_length_c 9.829879
_cell_angle_alpha 90.000000
_cell_angle_beta 131.868179
_cell_angle_gamma 90.000000
_cell_volume 1428.840929
_symmetry_space_group_name_H-M "C 2"
_symmetry_group_IT_number 5
_symmetry_cell_setting 'monoclinic'
loop_
_space_group_symop_operation_xyz
x,y,z
-x,y,-z
1/2+x,1/2+y,z
1/2-x,1/2+y,-z
loop_
_atom_site_type_symbol
_atom_site_label
_atom_site_fract_x
_atom_site_fract_y
_atom_site_fract_z
Si Si1 0.512352 0.071630 0.681224
Si Si2 0.898802 0.831510 0.574290
Si Si3 0.304077 0.982999 0.066236
Si Si4 0.405908 0.582123 0.808077
Si Si5 0.500000 0.514580 0.500000
Si Si6 0.155458 0.173276 0.774055
Si Si7 0.767143 0.590112 0.317128
Si Si8 0.622039 0.836781 0.443769
O O1 0.500000 0.095941 0.500000
O O2 0.467556 0.203090 0.695220
O O3 0.609125 0.052759 0.856970
O O4 0.462337 0.924062 0.642156
O O5 0.938693 0.920308 0.505564
O O6 0.813221 0.743427 0.417395
O O7 0.891838 0.943008 0.688425
O O8 0.293756 0.039845 0.205857
O O9 0.313594 0.807777 0.087377
O O10 0.223581 0.044864 0.873592
O O11 0.332271 0.585583 0.812344
O O12 0.391391 0.729181 0.699957
O O13 0.500000 0.576855 0.000000
O O14 0.563808 0.613587 0.680200
O O15 0.146343 0.239665 0.610027
O O16 0.808244 0.463831 0.472722
#
# Coordination Sequence:
#
# PCOD9127311 Si02
#       8
#     4   4   4   4   2   4   4   4
#     4  11  19  42  69 101 134 163 211 271 349 391
#     4  11  23  40  72  95 126 175 216 269 331 393
#     4  11  24  37  66 105 133 170 211 278 331 398
#     4  12  27  43  64  94 129 178 230 275 310 383
#     4  12  22  40  68  98 128 168 214 274 350 400
#     4  11  24  37  64  97 138 163 215 272 339 391
#     4  10  23  45  64  89 134 176 220 257 325 400
#     4  10  22  45  66  90 128 184 211 269 338 394
#
# _framework density 20.996040000000001
#
# number of rings (size 3 to 8) (size 9 to 14) (size 15 to 20)
#    0.000    1.067    6.000    1.600    5.600    1.067 
#    0.000    2.667    0.000    0.000    0.000    0.000 
#    0.000    0.000    0.000    0.000    0.000    0.000 
#
# Total GULP energy -83851.532018 kJ/mol
# GULP energy per Si atom -5590.102135 kJ/mol
# Density = 2.094825 g / cm^3
# Si number density = 20.996040 Si / 1000 Ang^3
#
#
#
# Elastic Constant Matrix: (Units=GPa)
#
#
# Indices 1 2 3 4 5 6 
#
# 1 66.3684 22.8289 32.4186 0.0000 36.4257 0.0000
# 2 22.8289 116.7736 49.8989 0.0000 17.9285 0.0000
# 3 32.4186 49.8989 93.1230 0.0000 42.5455 0.0000
# 4 0.0000 0.0000 0.0000 32.9474 0.0000 7.6055
# 5 36.4257 17.9285 42.5455 0.0000 41.7758 0.0000
# 6 0.0000 0.0000 0.0000 7.6055 0.0000 15.6264
#
#
#
# Elastic Compliance Matrix: (Units=1/GPa)
#
#
# Indices 1 2 3 4 5 6 
#
# 1 0.030298 -0.003463 0.005047 0.000000 -0.030072 0.000000
# 2 -0.003463 0.011635 -0.007718 0.000000 0.005887 0.000000
# 3 0.005047 -0.007718 0.025462 0.000000 -0.027019 0.000000
# 4 0.000000 0.000000 0.000000 0.034193 0.000000 -0.016642
# 5 -0.030072 0.005887 -0.027019 0.000000 0.075148 0.000000
# 6 0.000000 0.000000 0.000000 -0.016642 0.000000 0.072094
#
#
# Mechanical properties :
#
#
# Convention : Reuss Voigt Hill
#
# Bulk Modulus (GPa) = 18.14036 54.06196 36.10116
# Shear Modulus (GPa) = 17.89080 29.47783 23.68431
#
# Velocity S-wave (km/s) = 2.92225 3.75102 3.36227
# Velocity P-wave (km/s) = 4.47713 6.67569 5.68373
#
# Compressibility (1/GPa) = 0.05512570
#
# Stress axis : x y z
#
# Youngs Moduli (GPa) = 33.00577 85.94801 39.27481
#
# Poissons Ratio (x) = 0.29762 -0.19822
# Poissons Ratio (y) = 0.11429 0.30314
# Poissons Ratio (z) = -0.16658 0.66339
#
# Static dielectric constant tensor:
#      x y z
#    x 1.747430 0.000000 0.004050 
#    y 0.000000 1.786880 0.000000 
#    z 0.004050 0.000000 1.759710 
# 
# From -- ./inp_files/47317.got.cif
#   From: 2010.05.17/outbox.cif.g08.bks.cpg/sg5_24_cif.got.tgz:47317.got - 2010.06.03 18:56:24.
