data_PCOD9127115
_publ_section_title
;
Structure prediction by ZEFSAII (Michael W. Deem and Ramdas Pophale) SiO2 
 PCOD9127115
Probable space group: C 2
;
_chemical_formula_sum "Si O2"
_cell_formula_units_Z 20
_cell_length_a 9.977562
_cell_length_b 10.085113
_cell_length_c 17.483782
_cell_angle_alpha 90.000000
_cell_angle_beta 151.656357
_cell_angle_gamma 90.000000
_cell_volume 835.244373
_symmetry_space_group_name_H-M "C 2"
_symmetry_group_IT_number 5
_symmetry_cell_setting 'monoclinic'
loop_
_space_group_symop_operation_xyz
x,y,z
-x,y,-z
1/2+x,1/2+y,z
1/2-x,1/2+y,-z
loop_
_atom_site_type_symbol
_atom_site_label
_atom_site_fract_x
_atom_site_fract_y
_atom_site_fract_z
Si Si1 0.083293 0.761300 0.306487
Si Si2 0.734977 0.531698 0.055701
Si Si3 0.181124 0.115722 0.441436
Si Si4 0.292134 0.547136 0.708846
Si Si5 0.644189 0.931931 0.153618
O O1 0.688401 0.717929 0.515255
O O2 0.963488 0.640653 0.196671
O O3 0.804998 0.798415 0.215273
O O4 0.160954 0.897173 0.301314
O O5 0.919940 0.418698 0.108192
O O6 0.500000 0.492764 0.000000
O O7 0.545711 0.581967 0.890992
O O8 0.491119 0.045983 0.601038
O O9 0.193135 0.146520 0.356639
O O10 0.900133 0.028567 0.306668
O O11 0.500000 0.974043 0.000000
#
# Coordination Sequence:
#
# PCOD9127115 Si02
#       5
#     4   4   4   4   4
#     4  11  24  47  79 101 150 199 233 307 373 418
#     4  12  24  43  78 107 148 196 243 300 369 436
#     4  10  22  43  76 101 145 191 240 300 360 425
#     4  10  23  44  70 107 147 186 243 304 351 442
#     4  11  24  46  75 108 147 191 247 301 355 444
#
# _framework density 23.945087999999998
#
# number of rings (size 3 to 8) (size 9 to 14) (size 15 to 20)
#    0.000    1.200    6.000    0.600    0.000    7.200 
#    0.000   13.000   13.200    0.000    0.000    0.000 
#    0.000    0.000    0.000    0.000    0.000    0.000 
#
# Total GULP energy -55768.908965 kJ/mol
# GULP energy per Si atom -5576.890897 kJ/mol
# Density = 2.389059 g / cm^3
# Si number density = 23.945088 Si / 1000 Ang^3
#
#
#
# Elastic Constant Matrix: (Units=GPa)
#
#
# Indices 1 2 3 4 5 6 
#
# 1 110.5252 43.7584 30.6951 0.0019 2.9234 -0.0008
# 2 43.7584 62.5617 22.1883 0.0054 -2.5043 -0.0001
# 3 30.6951 22.1883 114.6978 0.0146 -17.4645 0.0031
# 4 0.0019 0.0054 0.0146 201.9909 -0.0067 -92.3417
# 5 2.9234 -2.5043 -17.4645 -0.0067 50.8504 0.0060
# 6 -0.0008 -0.0001 0.0031 -92.3417 0.0060 106.8560
#
#
#
# Elastic Compliance Matrix: (Units=1/GPa)
#
#
# Indices 1 2 3 4 5 6 
#
# 1 0.013032 -0.008430 -0.002146 0.000001 -0.001901 0.000001
# 2 -0.008430 0.022619 -0.001980 -0.000001 0.000919 -0.000001
# 3 -0.002146 -0.001980 0.010214 -0.000001 0.003534 -0.000002
# 4 0.000001 -0.000001 -0.000001 0.008184 0.000000 0.007072
# 5 -0.001901 0.000919 0.003534 0.000000 0.021034 -0.000002
# 6 0.000001 -0.000001 -0.000002 0.007072 -0.000002 0.015470
#
#
# Mechanical properties :
#
#
# Convention : Reuss Voigt Hill
#
# Bulk Modulus (GPa) = 48.18557 53.45205 50.81881
# Shear Modulus (GPa) = 40.78905 84.68232 62.73568
#
# Velocity S-wave (km/s) = 4.13175 5.95332 5.12413
# Velocity P-wave (km/s) = 6.55202 8.34429 7.50187
#
# Compressibility (1/GPa) = 0.02075310
#
# Stress axis : x y z
#
# Youngs Moduli (GPa) = 76.73709 44.21003 97.90448
#
# Poissons Ratio (x) = 0.37268 0.21013
# Poissons Ratio (y) = 0.64687 0.19384
# Poissons Ratio (z) = 0.16470 0.08753
#
# Static dielectric constant tensor:
#      x y z
#    x 1.697360 0.000000 0.471770 
#    y 0.000000 1.889360 0.000010 
#    z 0.471770 0.000010 1.246190 
# 
# From -- ./inp_files/59596.got.cif
#   From: 2010.05.17/outbox.cif.g08.bks.cpg/sg5_30_cif.got.tgz:59596.got - 2010.06.03 18:56:24.
