data_PCOD9127855
_publ_section_title
;
Structure prediction by ZEFSAII (Michael W. Deem and Ramdas Pophale) SiO2 
 PCOD9127855
Probable space group: C 2
;
_chemical_formula_sum "Si O2"
_cell_formula_units_Z 28
_cell_length_a 17.956861
_cell_length_b 5.069644
_cell_length_c 13.360240
_cell_angle_alpha 90.000000
_cell_angle_beta 60.226928
_cell_angle_gamma 90.000000
_cell_volume 1055.701970
_symmetry_space_group_name_H-M "C 2"
_symmetry_group_IT_number 5
_symmetry_cell_setting 'monoclinic'
loop_
_space_group_symop_operation_xyz
x,y,z
-x,y,-z
1/2+x,1/2+y,z
1/2-x,1/2+y,-z
loop_
_atom_site_type_symbol
_atom_site_label
_atom_site_fract_x
_atom_site_fract_y
_atom_site_fract_z
Si Si1 0.485378 0.743860 0.112005
Si Si2 0.268923 0.880533 0.863388
Si Si3 0.758450 0.502443 0.653726
Si Si4 0.842755 0.483103 0.323262
Si Si5 0.569089 0.513045 0.255966
Si Si6 0.557782 0.873341 0.547808
Si Si7 0.121079 0.647247 0.066810
O O1 0.391026 0.838975 0.200262
O O2 0.525038 0.596300 0.180192
O O3 0.543732 0.002333 0.068004
O O4 0.500000 0.594220 0.000000
O O5 0.266575 0.059700 0.765931
O O6 0.339354 0.654643 0.787494
O O7 0.302298 0.953699 0.951799
O O8 0.169669 0.827277 0.955367
O O9 0.733778 0.767471 0.607842
O O10 0.847849 0.365404 0.562347
O O11 0.689082 0.272709 0.681309
O O12 0.913452 0.498515 0.364872
O O13 0.499823 0.616113 0.383151
O O14 0.593315 0.223028 0.200627
O O15 0.500000 0.010814 0.500000
#
# Coordination Sequence:
#
# PCOD9127855 Si02
#       7
#     4   4   4   4   4   4   4
#     4  10  24  42  67 101 144 201 246 305 383 452
#     4  11  23  40  72 105 146 198 246 310 380 447
#     4  12  27  49  76 108 148 198 250 311 382 441
#     4  11  28  49  74 109 152 190 254 310 376 450
#     4  10  23  43  67 103 146 186 254 308 370 446
#     4  11  24  50  76 106 144 199 253 311 374 446
#     4  11  23  40  68 105 151 192 256 311 372 459
#
# _framework density 26.522635999999999
#
# number of rings (size 3 to 8) (size 9 to 14) (size 15 to 20)
#    0.000    1.143    2.857    1.714    8.000    0.571 
#    5.143    2.857    0.000    0.000    0.000    0.000 
#    0.000    0.000    0.000    0.000    0.000    0.000 
#
# Total GULP energy -78093.243086 kJ/mol
# GULP energy per Si atom -5578.088792 kJ/mol
# Density = 2.646227 g / cm^3
# Si number density = 26.522636 Si / 1000 Ang^3
#
#
#
# Elastic Constant Matrix: (Units=GPa)
#
#
# Indices 1 2 3 4 5 6 
#
# 1 134.4835 26.3724 27.0716 0.0003 11.1620 0.0048
# 2 26.3724 61.5554 -13.2067 0.0009 10.3526 0.0089
# 3 27.0716 -13.2067 118.5955 -0.0003 4.5460 0.0028
# 4 0.0003 0.0009 -0.0003 13.7938 -0.0002 3.7139
# 5 11.1620 10.3526 4.5460 -0.0002 51.4140 -0.0002
# 6 0.0048 0.0089 0.0028 3.7139 -0.0002 30.6684
#
#
#
# Elastic Compliance Matrix: (Units=1/GPa)
#
#
# Indices 1 2 3 4 5 6 
#
# 1 0.008814 -0.004155 -0.002442 0.000000 -0.000861 0.000000
# 2 -0.004155 0.019265 0.003219 0.000000 -0.003262 -0.000005
# 3 -0.002442 0.003219 0.009384 0.000000 -0.000948 -0.000001
# 4 0.000000 0.000000 0.000000 0.074940 0.000000 -0.009075
# 5 -0.000861 -0.003262 -0.000948 0.000000 0.020377 0.000001
# 6 0.000000 -0.000005 -0.000001 -0.009075 0.000001 0.033706
#
#
# Mechanical properties :
#
#
# Convention : Reuss Voigt Hill
#
# Bulk Modulus (GPa) = 32.56597 43.90102 38.23350
# Shear Modulus (GPa) = 27.25139 37.46839 32.35989
#
# Velocity S-wave (km/s) = 3.20891 3.76266 3.49676
# Velocity P-wave (km/s) = 5.10242 5.95525 5.54525
#
# Compressibility (1/GPa) = 0.03070690
#
# Stress axis : x y z
#
# Youngs Moduli (GPa) = 113.46072 51.90793 106.56285
#
# Poissons Ratio (x) = 0.21568 0.26018
# Poissons Ratio (y) = 0.47144 -0.34301
# Poissons Ratio (z) = 0.27702 -0.16708
#
# Static dielectric constant tensor:
#      x y z
#    x 2.125900 0.000000 -0.122450 
#    y 0.000000 2.233110 0.000000 
#    z -0.122450 0.000000 2.258290 
# 
# From -- ./inp_files/55396.got.cif
#   From: 2010.05.17/outbox.cif.g08.bks.cpg/sg5_28_cif.got.tgz:55396.got - 2010.06.03 18:56:24.
