data_PCOD9127461
_publ_section_title
;
Structure prediction by ZEFSAII (Michael W. Deem and Ramdas Pophale) SiO2 
 PCOD9127461
Probable space group: C 2
;
_chemical_formula_sum "Si O2"
_cell_formula_units_Z 24
_cell_length_a 17.247953
_cell_length_b 8.271283
_cell_length_c 11.725123
_cell_angle_alpha 90.000000
_cell_angle_beta 30.780990
_cell_angle_gamma 90.000000
_cell_volume 856.036646
_symmetry_space_group_name_H-M "C 2"
_symmetry_group_IT_number 5
_symmetry_cell_setting 'monoclinic'
loop_
_space_group_symop_operation_xyz
x,y,z
-x,y,-z
1/2+x,1/2+y,z
1/2-x,1/2+y,-z
loop_
_atom_site_type_symbol
_atom_site_label
_atom_site_fract_x
_atom_site_fract_y
_atom_site_fract_z
Si Si1 0.084310 0.848560 0.000596
Si Si2 0.661561 0.060698 0.059277
Si Si3 0.132525 0.158240 0.688961
Si Si4 0.506946 0.630103 0.621692
Si Si5 0.366600 0.017519 0.544355
Si Si6 0.744221 0.351775 0.271628
O O1 0.888460 0.970707 0.520506
O O2 0.335087 0.182230 0.655707
O O3 0.000000 0.764698 0.000000
O O4 0.991367 0.015958 0.134895
O O5 0.000000 0.190030 0.500000
O O6 0.597196 0.229395 0.090425
O O7 0.834852 0.092917 0.875787
O O8 0.543997 0.994489 0.300280
O O9 0.290349 0.067528 0.517628
O O10 0.145559 0.300868 0.764378
O O11 0.094985 0.221265 0.611539
O O12 0.822804 0.435289 0.065293
O O13 0.251452 0.893740 0.747906
#
# Coordination Sequence:
#
# PCOD9127461 Si02
#       6
#     4   4   4   4   4   4
#     4  10  22  48  75 117 164 204 272 328 391 484
#     4  11  23  46  83 114 164 206 258 337 411 463
#     4   9  21  48  81 108 166 213 269 332 387 488
#     4  10  22  46  76 120 164 200 262 339 401 471
#     4   9  22  48  80 114 154 212 268 326 392 475
#     4   9  22  47  79 114 152 210 273 321 384 485
#
# _framework density 28.036182
#
# number of rings (size 3 to 8) (size 9 to 14) (size 15 to 20)
#    1.000    1.333    0.000    1.000    0.000    2.667 
#   21.000   20.833    0.000    0.000    0.000    0.000 
#    0.000    0.000    0.000    0.000    0.000    0.000 
#
# Total GULP energy -67238.369477 kJ/mol
# GULP energy per Si atom -5603.197456 kJ/mol
# Density = 2.797237 g / cm^3
# Si number density = 28.036182 Si / 1000 Ang^3
#
#
#
# Elastic Constant Matrix: (Units=GPa)
#
#
# Indices 1 2 3 4 5 6 
#
# 1 184.9542 50.4887 41.4722 0.0000 -35.3187 0.0000
# 2 50.4887 109.9643 59.7681 0.0000 -6.3418 0.0000
# 3 41.4722 59.7681 218.8373 0.0000 -9.6426 0.0000
# 4 0.0000 0.0000 0.0000 52.2735 0.0000 -4.0344
# 5 -35.3187 -6.3418 -9.6426 0.0000 39.2254 0.0000
# 6 0.0000 0.0000 0.0000 -4.0344 0.0000 52.9386
#
#
#
# Elastic Compliance Matrix: (Units=1/GPa)
#
#
# Indices 1 2 3 4 5 6 
#
# 1 0.007445 -0.002870 -0.000356 0.000000 0.006152 0.000000
# 2 -0.002870 0.011826 -0.002745 0.000000 -0.001347 0.000000
# 3 -0.000356 -0.002745 0.005412 0.000000 0.000566 0.000000
# 4 0.000000 0.000000 0.000000 0.019243 0.000000 0.001467
# 5 0.006152 -0.001347 0.000566 0.000000 0.030954 0.000000
# 6 0.000000 0.000000 0.000000 0.001467 0.000000 0.019002
#
#
# Mechanical properties :
#
#
# Convention : Reuss Voigt Hill
#
# Bulk Modulus (GPa) = 78.49233 90.80152 84.64692
# Shear Modulus (GPa) = 45.42538 53.02263 49.22400
#
# Velocity S-wave (km/s) = 4.02959 4.35354 4.19469
# Velocity P-wave (km/s) = 7.05037 7.59793 7.32927
#
# Compressibility (1/GPa) = 0.01274010
#
# Stress axis : x y z
#
# Youngs Moduli (GPa) = 134.32351 84.55936 184.78112
#
# Poissons Ratio (x) = 0.24268 0.06578
# Poissons Ratio (y) = 0.38549 0.50729
# Poissons Ratio (z) = 0.04782 0.23215
#
# Static dielectric constant tensor:
#      x y z
#    x 2.208110 0.000000 0.030290 
#    y 0.000000 2.214020 0.000000 
#    z 0.030290 0.000000 2.138700 
# 
# From -- ./inp_files/57026.got.cif
#   From: 2010.05.17/outbox.cif.g08.bks.cpg/sg5_29_cif.got.tgz:57026.got - 2010.06.03 18:56:24.
