data_PCOD9127219
_publ_section_title
;
Structure prediction by ZEFSAII (Michael W. Deem and Ramdas Pophale) SiO2 
 PCOD9127219
Probable space group: C 2
;
_chemical_formula_sum "Si O2"
_cell_formula_units_Z 24
_cell_length_a 16.760377
_cell_length_b 7.167133
_cell_length_c 10.317177
_cell_angle_alpha 90.000000
_cell_angle_beta 128.207564
_cell_angle_gamma 90.000000
_cell_volume 973.841934
_symmetry_space_group_name_H-M "C 2"
_symmetry_group_IT_number 5
_symmetry_cell_setting 'monoclinic'
loop_
_space_group_symop_operation_xyz
x,y,z
-x,y,-z
1/2+x,1/2+y,z
1/2-x,1/2+y,-z
loop_
_atom_site_type_symbol
_atom_site_label
_atom_site_fract_x
_atom_site_fract_y
_atom_site_fract_z
Si Si1 0.088151 0.591280 0.822363
Si Si2 0.286717 0.245360 0.689727
Si Si3 0.701455 0.743287 0.065116
Si Si4 0.057375 0.290083 0.442807
Si Si5 0.811485 0.317222 0.657889
Si Si6 0.569273 0.427364 0.958507
O O1 0.182948 0.706594 0.858733
O O2 0.012682 0.472170 0.654985
O O3 0.147278 0.435012 0.968153
O O4 0.025057 0.753669 0.833120
O O5 0.171187 0.298417 0.613944
O O6 0.283070 0.314978 0.536990
O O7 0.317941 0.031515 0.704226
O O8 0.350633 0.323611 0.869714
O O9 0.627582 0.582299 0.935122
O O10 0.701354 0.716241 0.220117
O O11 0.093781 0.238712 0.331947
O O12 0.000000 0.179462 0.500000
O O13 0.500000 0.517366 0.000000
#
# Coordination Sequence:
#
# PCOD9127219 Si02
#       6
#     4   4   4   4   4   4
#     4  12  26  47  72 107 149 197 244 308 367 436
#     4  10  22  44  70 104 141 191 238 300 361 432
#     4  12  26  45  72 106 149 195 247 308 367 434
#     4  10  25  42  74  99 143 191 239 301 369 429
#     4  10  23  42  75  99 145 191 239 304 363 432
#     4  12  26  44  75 108 146 190 252 294 371 445
#
# _framework density 24.644656999999999
#
# number of rings (size 3 to 8) (size 9 to 14) (size 15 to 20)
#    1.000    0.000    3.333    3.000    4.667    0.000 
#    0.000    0.000    0.000    0.000    0.000    0.000 
#    0.000    0.000    0.000    0.000    0.000    0.000 
#
# Total GULP energy -66830.911956 kJ/mol
# GULP energy per Si atom -5569.242663 kJ/mol
# Density = 2.458856 g / cm^3
# Si number density = 24.644657 Si / 1000 Ang^3
#
#
#
# Elastic Constant Matrix: (Units=GPa)
#
#
# Indices 1 2 3 4 5 6 
#
# 1 88.1659 12.5533 27.2069 0.0000 -9.3484 0.0000
# 2 12.5533 71.4074 -15.2811 0.0000 -29.1651 0.0000
# 3 27.2069 -15.2811 65.9246 0.0000 -15.0122 0.0000
# 4 0.0000 0.0000 0.0000 32.5554 0.0000 -4.0583
# 5 -9.3484 -29.1651 -15.0122 0.0000 32.6284 0.0000
# 6 0.0000 0.0000 0.0000 -4.0583 0.0000 25.1465
#
#
#
# Elastic Compliance Matrix: (Units=1/GPa)
#
#
# Indices 1 2 3 4 5 6 
#
# 1 0.014471 -0.007072 -0.009056 0.000000 -0.006342 0.000000
# 2 -0.007072 0.035322 0.019922 0.000000 0.038713 0.000000
# 3 -0.009056 0.019922 0.030147 0.000000 0.029083 0.000000
# 4 0.000000 0.000000 0.000000 0.031348 0.000000 0.005059
# 5 -0.006342 0.038713 0.029083 0.000000 0.076816 0.000000
# 6 0.000000 0.000000 0.000000 0.005059 0.000000 0.040583
#
#
# Mechanical properties :
#
#
# Convention : Reuss Voigt Hill
#
# Bulk Modulus (GPa) = 11.42490 30.49512 20.96001
# Shear Modulus (GPa) = 19.97803 31.46730 25.72266
#
# Velocity S-wave (km/s) = 2.85027 3.57717 3.23420
# Velocity P-wave (km/s) = 3.93420 5.42792 4.74027
#
# Compressibility (1/GPa) = 0.08752810
#
# Stress axis : x y z
#
# Youngs Moduli (GPa) = 69.10260 28.31082 33.17119
#
# Poissons Ratio (x) = 0.20022 0.30039
# Poissons Ratio (y) = 0.48870 -0.66083
# Poissons Ratio (z) = 0.62577 -0.56400
#
# Static dielectric constant tensor:
#      x y z
#    x 2.110500 0.000000 -0.041950 
#    y 0.000000 2.016090 0.000000 
#    z -0.041950 0.000000 1.953490 
# 
# From -- ./inp_files/41588.got.cif
#   From: 2010.05.17/outbox.cif.g08.bks.cpg/sg5_21_cif.got.tgz:41588.got - 2010.06.03 18:56:24.
