data_PCOD9127058
_publ_section_title
;
Structure prediction by ZEFSAII (Michael W. Deem and Ramdas Pophale) SiO2 
 PCOD9127058
Probable space group: C 2
;
_chemical_formula_sum "Si O2"
_cell_formula_units_Z 26
_cell_length_a 10.328130
_cell_length_b 8.804563
_cell_length_c 14.253353
_cell_angle_alpha 90.000000
_cell_angle_beta 55.069324
_cell_angle_gamma 90.000000
_cell_volume 1062.621317
_symmetry_space_group_name_H-M "C 2"
_symmetry_group_IT_number 5
_symmetry_cell_setting 'monoclinic'
loop_
_space_group_symop_operation_xyz
x,y,z
-x,y,-z
1/2+x,1/2+y,z
1/2-x,1/2+y,-z
loop_
_atom_site_type_symbol
_atom_site_label
_atom_site_fract_x
_atom_site_fract_y
_atom_site_fract_z
Si Si1 0.500000 0.522290 0.000000
Si Si2 0.721234 0.640902 0.645857
Si Si3 0.333133 0.665675 0.594522
Si Si4 0.877785 0.717660 0.976601
Si Si5 0.256947 0.901048 0.497023
Si Si6 0.138562 0.069384 0.204006
Si Si7 0.291678 0.219237 0.815672
O O1 0.411741 0.398356 0.970156
O O2 0.372236 0.631532 0.098551
O O3 0.668795 0.792677 0.612234
O O4 0.821737 0.532806 0.536848
O O5 0.550707 0.560826 0.729314
O O6 0.821140 0.677606 0.696176
O O7 0.500000 0.744193 0.500000
O O8 0.205655 0.775440 0.596984
O O9 0.343324 0.509698 0.530761
O O10 0.320137 0.640674 0.710453
O O11 0.711000 0.673925 0.091738
O O12 0.895042 0.667209 0.862354
O O13 0.000000 0.646419 0.000000
O O14 0.212074 0.900944 0.174681
#
# Coordination Sequence:
#
# PCOD9127058 Si02
#       7
#     2   4   4   4   4   4   4
#     4  10  26  48  70 102 146 176 240 296 354 428
#     4  11  24  44  74 107 145 191 238 290 355 430
#     4  11  22  46  69 101 147 185 233 291 351 424
#     4  10  26  49  69 103 146 186 235 309 350 424
#     4  10  22  43  69 100 147 183 230 290 347 415
#     4  12  25  44  75 102 145 192 234 298 361 416
#     4  12  23  45  75 105 136 191 237 296 356 431
#
# _framework density 24.467793
#
# number of rings (size 3 to 8) (size 9 to 14) (size 15 to 20)
#    0.462    0.615    4.615    2.769    3.231    0.000 
#    2.769   10.769    0.000    0.000    0.000    0.000 
#    0.000    0.000    0.000    0.000    0.000    0.000 
#
# Total GULP energy -72398.484734 kJ/mol
# GULP energy per Si atom -5569.114210 kJ/mol
# Density = 2.441210 g / cm^3
# Si number density = 24.467793 Si / 1000 Ang^3
#
#
#
# Elastic Constant Matrix: (Units=GPa)
#
#
# Indices 1 2 3 4 5 6 
#
# 1 104.0264 56.9767 60.9609 0.0000 36.5148 0.0000
# 2 56.9767 119.0845 38.1798 0.0000 8.0059 0.0000
# 3 60.9609 38.1798 98.5196 0.0000 52.8396 0.0000
# 4 0.0000 0.0000 0.0000 43.1495 0.0000 0.0406
# 5 36.5148 8.0059 52.8396 0.0000 64.7378 0.0000
# 6 0.0000 0.0000 0.0000 0.0406 0.0000 30.6044
#
#
#
# Elastic Compliance Matrix: (Units=1/GPa)
#
#
# Indices 1 2 3 4 5 6 
#
# 1 0.018555 -0.006430 -0.006763 0.000000 -0.004150 0.000000
# 2 -0.006430 0.012227 -0.003368 0.000000 0.004864 0.000000
# 3 -0.006763 -0.003368 0.023782 0.000000 -0.015180 0.000000
# 4 0.000000 0.000000 0.000000 0.023175 0.000000 -0.000031
# 5 -0.004150 0.004864 -0.015180 0.000000 0.029576 0.000000
# 6 0.000000 0.000000 0.000000 -0.000031 0.000000 0.032675
#
#
# Mechanical properties :
#
#
# Convention : Reuss Voigt Hill
#
# Bulk Modulus (GPa) = 46.64177 70.42947 58.53562
# Shear Modulus (GPa) = 27.73745 38.73255 33.23500
#
# Velocity S-wave (km/s) = 3.37060 3.98301 3.68953
# Velocity P-wave (km/s) = 5.85250 7.07104 6.49043
#
# Compressibility (1/GPa) = 0.02144001
#
# Stress axis : x y z
#
# Youngs Moduli (GPa) = 53.89302 81.78645 42.04857
#
# Poissons Ratio (x) = 0.52592 0.28439
# Poissons Ratio (y) = 0.34655 0.14163
# Poissons Ratio (z) = 0.36450 0.27548
#
# Static dielectric constant tensor:
#      x y z
#    x 2.017010 0.000000 0.006660 
#    y 0.000000 1.929460 0.000000 
#    z 0.006660 0.000000 1.992640 
# 
# From -- ./inp_files/52191.got.cif
#   From: 2010.05.17/outbox.cif.g08.bks.cpg/sg5_27_cif.got.tgz:52191.got - 2010.06.03 18:56:24.
