data_PCOD9127444
_publ_section_title
;
Structure prediction by ZEFSAII (Michael W. Deem and Ramdas Pophale) SiO2 
 PCOD9127444
Probable space group: C 2
;
_chemical_formula_sum "Si O2"
_cell_formula_units_Z 26
_cell_length_a 14.098167
_cell_length_b 5.122366
_cell_length_c 27.097905
_cell_angle_alpha 90.000000
_cell_angle_beta 148.167277
_cell_angle_gamma 90.000000
_cell_volume 1032.150303
_symmetry_space_group_name_H-M "C 2"
_symmetry_group_IT_number 5
_symmetry_cell_setting 'monoclinic'
loop_
_space_group_symop_operation_xyz
x,y,z
-x,y,-z
1/2+x,1/2+y,z
1/2-x,1/2+y,-z
loop_
_atom_site_type_symbol
_atom_site_label
_atom_site_fract_x
_atom_site_fract_y
_atom_site_fract_z
Si Si1 0.453418 0.508100 0.195426
Si Si2 0.175598 0.444372 0.994517
Si Si3 0.771906 0.340184 0.451377
Si Si4 0.041298 0.047193 0.617031
Si Si5 0.820426 0.243945 0.794415
Si Si6 0.500000 0.217453 0.500000
Si Si7 0.004966 0.508752 0.720038
O O1 0.583285 0.589238 0.207556
O O2 0.490573 0.226484 0.234924
O O3 0.468791 0.727608 0.244439
O O4 0.254965 0.503213 0.083303
O O5 0.972901 0.345422 0.898972
O O6 0.206454 0.705991 0.976106
O O7 0.620145 0.450670 0.419442
O O8 0.829088 0.530772 0.433418
O O9 0.682260 0.075517 0.390744
O O10 0.960066 0.321208 0.564269
O O11 0.042683 0.888802 0.566738
O O12 0.220852 0.991374 0.725548
O O13 0.668586 0.078651 0.755510
#
# Coordination Sequence:
#
# PCOD9127444 Si02
#       7
#     4   4   4   4   4   2   4
#     4  11  24  47  73 104 141 181 237 296 348 422
#     4  10  22  46  74 104 140 183 235 293 356 420
#     4  11  25  43  67 101 141 182 235 288 339 419
#     4  11  24  46  66  99 141 183 234 287 342 419
#     4  10  25  47  71 102 143 190 231 291 361 411
#     4  12  24  42  70  96 140 190 228 284 356 398
#     4  11  27  44  73 106 141 185 239 287 349 427
#
# _framework density 25.190128999999999
#
# number of rings (size 3 to 8) (size 9 to 14) (size 15 to 20)
#    0.000    1.231    1.538    3.231    6.462    4.308 
#    5.538    4.615    0.000    0.000    0.000    0.000 
#    0.000    0.000    0.000    0.000    0.000    0.000 
#
# Total GULP energy -72872.464137 kJ/mol
# GULP energy per Si atom -5605.574164 kJ/mol
# Density = 2.513279 g / cm^3
# Si number density = 25.190129 Si / 1000 Ang^3
#
#
#
# Elastic Constant Matrix: (Units=GPa)
#
#
# Indices 1 2 3 4 5 6 
#
# 1 136.6194 18.9136 33.9673 -0.0009 9.0917 0.0015
# 2 18.9136 74.5845 25.9175 -0.0039 -2.0005 0.0029
# 3 33.9673 25.9175 127.2401 0.0021 1.1991 -0.0005
# 4 -0.0009 -0.0039 0.0021 39.7061 0.0000 -11.1997
# 5 9.0917 -2.0005 1.1991 0.0000 29.1334 -0.0008
# 6 0.0015 0.0029 -0.0005 -11.1997 -0.0008 37.0866
#
#
#
# Elastic Compliance Matrix: (Units=1/GPa)
#
#
# Indices 1 2 3 4 5 6 
#
# 1 0.008157 -0.001495 -0.001849 0.000000 -0.002572 0.000000
# 2 -0.001495 0.014739 -0.002618 0.000001 0.001586 -0.000001
# 3 -0.001849 -0.002618 0.008886 -0.000001 0.000031 0.000000
# 4 0.000000 0.000001 -0.000001 0.027530 0.000000 0.008314
# 5 -0.002572 0.001586 0.000031 0.000000 0.035235 0.000001
# 6 0.000000 -0.000001 0.000000 0.008314 0.000001 0.029475
#
#
# Mechanical properties :
#
#
# Convention : Reuss Voigt Hill
#
# Bulk Modulus (GPa) = 50.35720 55.11564 52.73642
# Shear Modulus (GPa) = 35.07160 38.49493 36.78327
#
# Velocity S-wave (km/s) = 3.73537 3.91343 3.82544
# Velocity P-wave (km/s) = 6.21597 6.50748 6.36339
#
# Compressibility (1/GPa) = 0.01985813
#
# Stress axis : x y z
#
# Youngs Moduli (GPa) = 122.58728 67.84696 112.54049
#
# Poissons Ratio (x) = 0.10144 0.20807
# Poissons Ratio (y) = 0.18329 0.29463
# Poissons Ratio (z) = 0.22665 0.17762
#
# Static dielectric constant tensor:
#      x y z
#    x 1.965420 0.000000 -0.016770 
#    y 0.000000 2.030600 0.000000 
#    z -0.016770 0.000000 2.002440 
# 
# From -- ./inp_files/71826.got.cif
#   From: 2010.05.17/outbox.cif.g08.bks.cpg/sg5_36_cif.got.tgz:71826.got - 2010.06.03 18:56:24.
