data_PCOD9127867
_publ_section_title
;
Structure prediction by ZEFSAII (Michael W. Deem and Ramdas Pophale) SiO2 
 PCOD9127867
Probable space group: C 2
;
_chemical_formula_sum "Si O2"
_cell_formula_units_Z 28
_cell_length_a 19.135817
_cell_length_b 14.428105
_cell_length_c 13.723198
_cell_angle_alpha 90.000000
_cell_angle_beta 158.542795
_cell_angle_gamma 90.000000
_cell_volume 1385.998226
_symmetry_space_group_name_H-M "C 2"
_symmetry_group_IT_number 5
_symmetry_cell_setting 'monoclinic'
loop_
_space_group_symop_operation_xyz
x,y,z
-x,y,-z
1/2+x,1/2+y,z
1/2-x,1/2+y,-z
loop_
_atom_site_type_symbol
_atom_site_label
_atom_site_fract_x
_atom_site_fract_y
_atom_site_fract_z
Si Si1 0.921510 0.384890 0.705781
Si Si2 0.000000 0.162802 0.500000
Si Si3 0.000000 0.478611 0.500000
Si Si4 0.705680 0.730617 0.312469
Si Si5 0.274921 0.531445 0.685585
Si Si6 0.671414 0.821853 0.858193
Si Si7 0.823493 0.526217 0.833121
Si Si8 0.943678 0.869871 0.536993
O O1 0.811985 0.310044 0.629552
O O2 0.786468 0.447810 0.463587
O O3 0.049736 0.325773 0.798545
O O4 0.064563 0.455158 0.948707
O O5 0.106241 0.230539 0.715228
O O6 0.173673 0.099583 0.683127
O O7 0.147583 0.530388 0.619526
O O8 0.117554 0.410132 0.722551
O O9 0.772676 0.629106 0.429119
O O10 0.823317 0.776085 0.377765
O O11 0.500000 0.716593 0.000000
O O12 0.500000 0.523035 0.000000
O O13 0.885950 0.841055 0.170974
O O14 0.686124 0.455577 0.595012
O O15 0.000000 0.567521 0.000000
O O16 0.000000 0.895796 0.500000
#
# Coordination Sequence:
#
# PCOD9127867 Si02
#       8
#     4   2   2   4   4   4   4   4
#     4  11  21  45  64  95 133 172 226 278 333 399
#     4  11  26  46  63 104 138 174 237 274 337 412
#     4   9  22  46  63  94 134 172 225 270 333 400
#     4  11  22  41  62  97 130 166 223 275 330 409
#     4  10  25  41  66  95 131 177 219 276 334 398
#     4  10  23  43  68  93 135 179 218 284 336 396
#     4  12  23  43  69  98 134 178 227 278 341 401
#     4  12  21  40  67  94 131 180 214 275 343 390
#
# _framework density 20.202045999999999
#
# number of rings (size 3 to 8) (size 9 to 14) (size 15 to 20)
#    0.000    1.143    5.000    0.000    5.000    1.143 
#    0.000    1.429    0.000    0.000    0.000    0.000 
#    0.000    0.000    0.000    0.000    0.000    0.000 
#
# Total GULP energy -78031.608996 kJ/mol
# GULP energy per Si atom -5573.686357 kJ/mol
# Density = 2.015607 g / cm^3
# Si number density = 20.202046 Si / 1000 Ang^3
#
#
#
# Elastic Constant Matrix: (Units=GPa)
#
#
# Indices 1 2 3 4 5 6 
#
# 1 100.2727 54.2329 42.6744 0.0000 17.7444 0.0000
# 2 54.2329 112.1329 50.2159 0.0000 19.3583 0.0000
# 3 42.6744 50.2159 114.1587 0.0000 17.9028 0.0000
# 4 0.0000 0.0000 0.0000 15.1163 0.0000 -2.2195
# 5 17.7444 19.3583 17.9028 0.0000 29.9024 0.0000
# 6 0.0000 0.0000 0.0000 -2.2195 0.0000 45.4253
#
#
#
# Elastic Compliance Matrix: (Units=1/GPa)
#
#
# Indices 1 2 3 4 5 6 
#
# 1 0.014558 -0.005260 -0.002546 0.000000 -0.003709 0.000000
# 2 -0.005260 0.013641 -0.003464 0.000000 -0.003636 0.000000
# 3 -0.002546 -0.003464 0.011750 0.000000 -0.003281 0.000000
# 4 0.000000 0.000000 0.000000 0.066632 0.000000 0.003256
# 5 -0.003709 -0.003636 -0.003281 0.000000 0.039961 0.000000
# 6 0.000000 0.000000 0.000000 0.003256 0.000000 0.022173
#
#
# Mechanical properties :
#
#
# Convention : Reuss Voigt Hill
#
# Bulk Modulus (GPa) = 57.44622 68.97898 63.21260
# Shear Modulus (GPa) = 25.37318 30.05153 27.71236
#
# Velocity S-wave (km/s) = 3.54781 3.86106 3.70775
# Velocity P-wave (km/s) = 6.72906 7.35498 7.04897
#
# Compressibility (1/GPa) = 0.01740758
#
# Stress axis : x y z
#
# Youngs Moduli (GPa) = 68.69130 73.30881 85.10717
#
# Poissons Ratio (x) = 0.38562 0.21672
# Poissons Ratio (y) = 0.36133 0.29480
# Poissons Ratio (z) = 0.17492 0.25393
#
# Static dielectric constant tensor:
#      x y z
#    x 1.793050 0.000000 -0.012240 
#    y 0.000000 1.738030 0.000000 
#    z -0.012240 0.000000 1.627980 
# 
# From -- ./inp_files/57114.got.cif
#   From: 2010.05.17/outbox.cif.g08.bks.cpg/sg5_29_cif.got.tgz:57114.got - 2010.06.03 18:56:24.
