data_PCOD9127599
_publ_section_title
;
Structure prediction by ZEFSAII (Michael W. Deem and Ramdas Pophale) SiO2 
 PCOD9127599
Probable space group: C 2
;
_chemical_formula_sum "Si O2"
_cell_formula_units_Z 32
_cell_length_a 13.687682
_cell_length_b 27.918842
_cell_length_c 8.315750
_cell_angle_alpha 90.000000
_cell_angle_beta 28.319716
_cell_angle_gamma 90.000000
_cell_volume 1507.527770
_symmetry_space_group_name_H-M "C 2"
_symmetry_group_IT_number 5
_symmetry_cell_setting 'monoclinic'
loop_
_space_group_symop_operation_xyz
x,y,z
-x,y,-z
1/2+x,1/2+y,z
1/2-x,1/2+y,-z
loop_
_atom_site_type_symbol
_atom_site_label
_atom_site_fract_x
_atom_site_fract_y
_atom_site_fract_z
Si Si1 0.101947 0.866830 0.683231
Si Si2 0.349148 0.616616 0.366089
Si Si3 0.204657 0.548094 0.810465
Si Si4 0.320756 0.852954 0.890589
Si Si5 0.229210 0.937419 0.237540
Si Si6 0.227524 0.702174 0.751190
Si Si7 0.561211 0.784152 0.739239
Si Si8 0.424133 0.131138 0.792002
O O1 0.216963 0.910388 0.426395
O O2 0.263657 0.824131 0.478290
O O3 0.000000 0.881361 0.000000
O O4 0.906484 0.851231 0.856536
O O5 0.369239 0.568933 0.444762
O O6 0.359682 0.660809 0.472327
O O7 0.127175 0.625038 0.606697
O O8 0.500000 0.617006 0.000000
O O9 0.213055 0.492663 0.839972
O O10 0.201508 0.584012 0.967467
O O11 0.000000 0.553850 0.000000
O O12 0.500000 0.848721 0.500000
O O13 0.362177 0.811216 0.958390
O O14 0.352190 0.903111 0.938620
O O15 0.000000 0.936598 0.500000
O O16 0.347424 0.750054 0.531412
O O17 0.185771 0.680046 0.988211
O O18 0.000000 0.707222 0.000000
O O19 0.500000 0.760763 0.000000
O O20 0.500000 0.131574 0.500000
#
# Coordination Sequence:
#
# PCOD9127599 Si02
#       8
#     4   4   4   4   4   4   4   4
#     4  11  23  41  64  89 128 173 214 280 318 376
#     4   9  18  37  61  88 123 159 202 260 314 388
#     4   9  20  35  60  90 122 167 211 249 318 396
#     4  11  24  41  61  94 126 164 226 266 319 388
#     4  10  23  40  59  91 130 166 214 271 316 380
#     4   9  20  39  63  89 125 161 209 260 319 391
#     4  12  23  40  70  92 122 178 214 268 336 380
#     4   9  19  39  64  89 127 164 199 265 325 373
#
# _framework density 21.226807000000001
#
# number of rings (size 3 to 8) (size 9 to 14) (size 15 to 20)
#    0.000    2.000    2.500    2.250    1.750    2.000 
#    0.000   10.625    0.000    0.000    0.000    0.000 
#    0.000    0.000    0.000    0.000    0.000    0.000 
#
# Total GULP energy -89268.459131 kJ/mol
# GULP energy per Si atom -5579.278696 kJ/mol
# Density = 2.117849 g / cm^3
# Si number density = 21.226807 Si / 1000 Ang^3
#
#
#
# Elastic Constant Matrix: (Units=GPa)
#
#
# Indices 1 2 3 4 5 6 
#
# 1 91.6324 39.9558 23.4646 0.0000 13.1305 0.0000
# 2 39.9558 120.2008 28.5219 0.0000 18.0402 0.0000
# 3 23.4646 28.5219 72.5263 0.0000 27.9045 0.0000
# 4 0.0000 0.0000 0.0000 23.2336 0.0000 4.1789
# 5 13.1305 18.0402 27.9045 0.0000 45.4548 0.0000
# 6 0.0000 0.0000 0.0000 4.1789 0.0000 7.2783
#
#
#
# Elastic Compliance Matrix: (Units=1/GPa)
#
#
# Indices 1 2 3 4 5 6 
#
# 1 0.013290 -0.003694 -0.002532 0.000000 -0.000819 0.000000
# 2 -0.003694 0.010325 -0.002225 0.000000 -0.001665 0.000000
# 3 -0.002532 -0.002225 0.019457 0.000000 -0.010330 0.000000
# 4 0.000000 0.000000 0.000000 0.047998 0.000000 -0.027558
# 5 -0.000819 -0.001665 -0.010330 0.000000 0.029239 0.000000
# 6 0.000000 0.000000 0.000000 -0.027558 0.000000 0.153217
#
#
# Mechanical properties :
#
#
# Convention : Reuss Voigt Hill
#
# Bulk Modulus (GPa) = 38.21172 52.02711 45.11942
# Shear Modulus (GPa) = 16.71405 28.02117 22.36761
#
# Velocity S-wave (km/s) = 2.80911 3.63724 3.24966
# Velocity P-wave (km/s) = 5.34436 6.49636 5.94831
#
# Compressibility (1/GPa) = 0.02616998
#
# Stress axis : x y z
#
# Youngs Moduli (GPa) = 75.24714 96.85140 51.39630
#
# Poissons Ratio (x) = 0.35776 0.13013
# Poissons Ratio (y) = 0.27796 0.11434
# Poissons Ratio (z) = 0.19053 0.21547
#
# Static dielectric constant tensor:
#      x y z
#    x 1.801290 0.000000 -0.014450 
#    y 0.000000 1.794440 0.000000 
#    z -0.014450 0.000000 1.800130 
# 
# From -- ./inp_files/25701.got.cif
#   From: 2010.05.17/outbox.cif.g08.bks.cpg/sg5_13_cif.got.tgz:25701.got - 2010.06.03 18:56:24.
