data_PCOD9127414
_publ_section_title
;
Structure prediction by ZEFSAII (Michael W. Deem and Ramdas Pophale) SiO2 
 PCOD9127414
Probable space group: C 2
;
_chemical_formula_sum "Si O2"
_cell_formula_units_Z 20
_cell_length_a 5.413825
_cell_length_b 28.326623
_cell_length_c 5.146426
_cell_angle_alpha 90.000000
_cell_angle_beta 90.311440
_cell_angle_gamma 90.000000
_cell_volume 789.220454
_symmetry_space_group_name_H-M "C 2"
_symmetry_group_IT_number 5
_symmetry_cell_setting 'monoclinic'
loop_
_space_group_symop_operation_xyz
x,y,z
-x,y,-z
1/2+x,1/2+y,z
1/2-x,1/2+y,-z
loop_
_atom_site_type_symbol
_atom_site_label
_atom_site_fract_x
_atom_site_fract_y
_atom_site_fract_z
Si Si1 0.829294 0.428010 0.252854
Si Si2 0.500000 0.353300 0.000000
Si Si3 0.247110 0.668320 0.637966
Si Si4 0.500000 0.609365 0.000000
Si Si5 0.322182 0.034844 0.252869
Si Si6 0.742696 0.262394 0.851219
O O1 0.724885 0.481096 0.271713
O O2 0.000000 0.419217 0.500000
O O3 0.634286 0.387227 0.202356
O O4 0.000000 0.427932 0.000000
O O5 0.680565 0.317946 0.840601
O O6 0.500000 0.652959 0.500000
O O7 0.284038 0.647903 0.930173
O O8 0.251651 0.725329 0.620219
O O9 0.000000 0.650933 0.500000
O O10 0.403381 0.570623 0.788538
O O11 0.500000 0.043165 0.500000
O O12 0.500000 0.039299 0.000000
O O13 0.500000 0.244379 0.000000
O O14 0.000000 0.257816 0.000000
#
# Coordination Sequence:
#
# PCOD9127414 Si02
#       6
#     4   2   4   2   4   4
#     4  10  22  46  71 108 151 194 244 307 375 447
#     4  10  23  42  74 102 152 190 259 298 376 448
#     4  12  28  47  74 105 147 200 254 315 381 444
#     4  12  27  42  74 100 156 186 265 298 384 448
#     4  10  24  44  74 107 151 194 245 308 378 449
#     4  10  22  46  69  99 146 193 251 305 375 435
#
# _framework density 25.341459
#
# number of rings (size 3 to 8) (size 9 to 14) (size 15 to 20)
#    0.600    0.800    1.000    3.000    5.600    0.800 
#    7.200    6.000    0.000    0.000    0.000    0.000 
#    0.000    0.000    0.000    0.000    0.000    0.000 
#
# Total GULP energy -55801.281843 kJ/mol
# GULP energy per Si atom -5580.128184 kJ/mol
# Density = 2.528378 g / cm^3
# Si number density = 25.341459 Si / 1000 Ang^3
#
#
#
# Elastic Constant Matrix: (Units=GPa)
#
#
# Indices 1 2 3 4 5 6 
#
# 1 158.8792 65.1125 66.1319 0.0000 32.7151 0.0000
# 2 65.1125 228.0094 56.2198 0.0000 40.7744 0.0000
# 3 66.1319 56.2198 148.4778 0.0000 33.9721 0.0000
# 4 0.0000 0.0000 0.0000 16.5306 0.0000 2.8579
# 5 32.7151 40.7744 33.9721 0.0000 58.9500 0.0000
# 6 0.0000 0.0000 0.0000 2.8579 0.0000 29.6697
#
#
#
# Elastic Compliance Matrix: (Units=1/GPa)
#
#
# Indices 1 2 3 4 5 6 
#
# 1 0.008437 -0.001343 -0.002754 0.000000 -0.002166 0.000000
# 2 -0.001343 0.005436 -0.000887 0.000000 -0.002503 0.000000
# 3 -0.002754 -0.000887 0.008993 0.000000 -0.003041 0.000000
# 4 0.000000 0.000000 0.000000 0.061518 0.000000 -0.005926
# 5 -0.002166 -0.002503 -0.003041 0.000000 0.021649 0.000000
# 6 0.000000 0.000000 0.000000 -0.005926 0.000000 0.034275
#
#
# Mechanical properties :
#
#
# Convention : Reuss Voigt Hill
#
# Bulk Modulus (GPa) = 77.53163 101.14386 89.33774
# Shear Modulus (GPa) = 32.34668 44.22354 38.28511
#
# Velocity S-wave (km/s) = 3.57660 4.18198 3.89108
# Velocity P-wave (km/s) = 6.90777 7.95724 7.45100
#
# Compressibility (1/GPa) = 0.01289796
#
# Stress axis : x y z
#
# Youngs Moduli (GPa) = 118.53037 183.96921 111.19576
#
# Poissons Ratio (x) = 0.24705 0.30618
# Poissons Ratio (y) = 0.15918 0.09867
# Poissons Ratio (z) = 0.32638 0.16324
#
# Static dielectric constant tensor:
#      x y z
#    x 2.021780 0.000000 -0.141550 
#    y 0.000000 2.018970 0.000000 
#    z -0.141550 0.000000 2.193330 
# 
# From -- ./inp_files/1305.got.cif
#   From: 2010.05.17/outbox.cif.g08.bks.cpg/sg5_1_cif.got.tgz:1305.got - 2010.06.03 18:56:24.
