data_PCOD9127836
_publ_section_title
;
Structure prediction by ZEFSAII (Michael W. Deem and Ramdas Pophale) SiO2 
 PCOD9127836
Probable space group: C 2
;
_chemical_formula_sum "Si O2"
_cell_formula_units_Z 20
_cell_length_a 12.851503
_cell_length_b 8.874072
_cell_length_c 13.069649
_cell_angle_alpha 90.000000
_cell_angle_beta 145.912483
_cell_angle_gamma 90.000000
_cell_volume 835.380456
_symmetry_space_group_name_H-M "C 2"
_symmetry_group_IT_number 5
_symmetry_cell_setting 'monoclinic'
loop_
_space_group_symop_operation_xyz
x,y,z
-x,y,-z
1/2+x,1/2+y,z
1/2-x,1/2+y,-z
loop_
_atom_site_type_symbol
_atom_site_label
_atom_site_fract_x
_atom_site_fract_y
_atom_site_fract_z
Si Si1 0.207388 0.271210 0.361044
Si Si2 0.721679 0.903164 0.166121
Si Si3 0.186070 0.230651 0.704141
Si Si4 0.789618 0.236242 0.051383
Si Si5 0.584645 0.114912 0.292124
O O1 0.259789 0.279781 0.284814
O O2 0.354105 0.193365 0.553575
O O3 0.171418 0.447795 0.359328
O O4 0.006122 0.194521 0.214625
O O5 0.836520 0.054208 0.281271
O O6 0.500000 0.939070 0.000000
O O7 0.754308 0.839356 0.081600
O O8 0.230767 0.302813 0.850194
O O9 0.335047 0.217560 0.735319
O O10 0.000000 0.289728 0.500000
O O11 0.632903 0.110386 0.907821
#
# Coordination Sequence:
#
# PCOD9127836 Si02
#       5
#     4   4   4   4   4
#     4  10  23  43  63 100 130 175 223 270 329 398
#     4   9  21  39  63  91 128 170 223 263 326 401
#     4  11  21  39  64  92 128 174 222 266 325 400
#     4  11  21  38  64  95 126 169 216 273 321 383
#     4  11  24  41  69  95 135 173 222 274 328 397
#
# _framework density 23.941189000000001
#
# number of rings (size 3 to 8) (size 9 to 14) (size 15 to 20)
#    0.000    1.600    2.000    4.200    5.600    1.600 
#    0.000    6.000    0.000   12.000    0.000    0.000 
#    0.000    0.000    0.000    0.000    0.000    0.000 
#
# Total GULP energy -55891.752697 kJ/mol
# GULP energy per Si atom -5589.175270 kJ/mol
# Density = 2.388670 g / cm^3
# Si number density = 23.941189 Si / 1000 Ang^3
#
#
#
# Elastic Constant Matrix: (Units=GPa)
#
#
# Indices 1 2 3 4 5 6 
#
# 1 103.1889 37.1313 51.0061 0.0000 -36.2935 0.0000
# 2 37.1313 31.0988 33.6352 0.0000 -12.3153 0.0000
# 3 51.0061 33.6352 174.5005 0.0000 -28.3230 0.0000
# 4 0.0000 0.0000 0.0000 34.4147 0.0000 -9.3041
# 5 -36.2935 -12.3153 -28.3230 0.0000 56.4752 0.0000
# 6 0.0000 0.0000 0.0000 -9.3041 0.0000 26.1631
#
#
#
# Elastic Compliance Matrix: (Units=1/GPa)
#
#
# Indices 1 2 3 4 5 6 
#
# 1 0.020135 -0.020040 -0.000688 0.000000 0.008225 0.000000
# 2 -0.020040 0.062122 -0.006541 0.000000 -0.002612 0.000000
# 3 -0.000688 -0.006541 0.007500 0.000000 0.001893 0.000000
# 4 0.000000 0.000000 0.000000 0.032148 0.000000 0.011433
# 5 0.008225 -0.002612 0.001893 0.000000 0.023372 0.000000
# 6 0.000000 0.000000 0.000000 0.011433 0.000000 0.042287
#
#
# Mechanical properties :
#
#
# Convention : Reuss Voigt Hill
#
# Bulk Modulus (GPa) = 28.39239 61.37035 44.88137
# Shear Modulus (GPa) = 19.69744 35.87830 27.78787
#
# Velocity S-wave (km/s) = 2.87146 3.87538 3.41056
# Velocity P-wave (km/s) = 4.78317 6.76123 5.85632
#
# Compressibility (1/GPa) = 0.03522071
#
# Stress axis : x y z
#
# Youngs Moduli (GPa) = 49.66553 16.09733 133.34051
#
# Poissons Ratio (x) = 0.32258 0.09170
# Poissons Ratio (y) = 0.99528 0.87212
# Poissons Ratio (z) = 0.03416 0.10528
#
# Static dielectric constant tensor:
#      x y z
#    x 1.984080 0.000000 0.005910 
#    y 0.000000 1.930580 0.000000 
#    z 0.005910 0.000000 1.915740 
# 
# From -- ./inp_files/27177.got.cif
#   From: 2010.05.17/outbox.cif.g08.bks.cpg/sg5_14_cif.got.tgz:27177.got - 2010.06.03 18:56:24.
