data_PCOD9127113
_publ_section_title
;
Structure prediction by ZEFSAII (Michael W. Deem and Ramdas Pophale) SiO2 
 PCOD9127113
Probable space group: C 2
;
_chemical_formula_sum "Si O2"
_cell_formula_units_Z 22
_cell_length_a 16.925864
_cell_length_b 11.008036
_cell_length_c 8.968615
_cell_angle_alpha 90.000000
_cell_angle_beta 31.946034
_cell_angle_gamma 90.000000
_cell_volume 884.179549
_symmetry_space_group_name_H-M "C 2"
_symmetry_group_IT_number 5
_symmetry_cell_setting 'monoclinic'
loop_
_space_group_symop_operation_xyz
x,y,z
-x,y,-z
1/2+x,1/2+y,z
1/2-x,1/2+y,-z
loop_
_atom_site_type_symbol
_atom_site_label
_atom_site_fract_x
_atom_site_fract_y
_atom_site_fract_z
Si Si1 0.246419 0.891850 0.063222
Si Si2 0.227765 0.231711 0.711815
Si Si3 0.062345 0.709676 0.158876
Si Si4 0.370444 0.996290 0.571029
Si Si5 0.500000 0.597106 0.500000
Si Si6 0.162043 0.243078 0.491292
O O1 0.317054 0.836292 0.100105
O O2 0.142613 0.783456 0.162402
O O3 0.141038 0.007439 0.258425
O O4 0.350376 0.923870 0.757265
O O5 0.399905 0.267962 0.390082
O O6 0.245138 0.101623 0.765036
O O7 0.146603 0.207521 0.686997
O O8 0.012905 0.577330 0.295522
O O9 0.176912 0.707959 0.838803
O O10 0.345157 0.888883 0.496209
O O11 0.541461 0.681149 0.574731
#
# Coordination Sequence:
#
# PCOD9127113 Si02
#       6
#     4   4   4   4   2   4
#     4  11  22  43  72 102 146 200 252 299 380 470
#     4  10  22  43  75 109 143 201 259 307 376 453
#     4   9  21  46  73 102 141 203 253 301 389 449
#     4   9  24  42  73 104 142 196 249 312 373 456
#     4  12  26  42  66 104 152 196 238 316 390 440
#     4  11  25  44  72 112 151 192 257 324 376 453
#
# _framework density 24.881823000000001
#
# number of rings (size 3 to 8) (size 9 to 14) (size 15 to 20)
#    1.091    0.727    1.818    0.545    7.636    1.455 
#    3.273    2.727    4.000    0.000    0.000    0.000 
#    0.000    0.000    0.000    0.000    0.000    0.000 
#
# Total GULP energy -61494.539399 kJ/mol
# GULP energy per Si atom -5590.412673 kJ/mol
# Density = 2.482519 g / cm^3
# Si number density = 24.881823 Si / 1000 Ang^3
#
#
#
# Elastic Constant Matrix: (Units=GPa)
#
#
# Indices 1 2 3 4 5 6 
#
# 1 134.4887 49.1918 41.7683 0.0000 39.8188 0.0000
# 2 49.1918 157.0419 54.4422 0.0000 12.2536 0.0000
# 3 41.7683 54.4422 164.9289 0.0000 2.4354 0.0000
# 4 0.0000 0.0000 0.0000 35.0981 0.0000 1.5086
# 5 39.8188 12.2536 2.4354 0.0000 34.1140 0.0000
# 6 0.0000 0.0000 0.0000 1.5086 0.0000 28.6737
#
#
#
# Elastic Compliance Matrix: (Units=1/GPa)
#
#
# Indices 1 2 3 4 5 6 
#
# 1 0.013305 -0.002188 -0.002432 0.000000 -0.014571 0.000000
# 2 -0.002188 0.007755 -0.002005 0.000000 -0.000089 0.000000
# 3 -0.002432 -0.002005 0.007296 0.000000 0.003038 0.000000
# 4 0.000000 0.000000 0.000000 0.028556 0.000000 -0.001502
# 5 -0.014571 -0.000089 0.003038 0.000000 0.046136 0.000000
# 6 0.000000 0.000000 0.000000 -0.001502 0.000000 0.034954
#
#
# Mechanical properties :
#
#
# Convention : Reuss Voigt Hill
#
# Bulk Modulus (GPa) = 66.19337 83.02936 74.61136
# Shear Modulus (GPa) = 31.99248 40.31430 36.15339
#
# Velocity S-wave (km/s) = 3.58966 4.02958 3.81596
# Velocity P-wave (km/s) = 6.62131 7.42239 7.03327
#
# Compressibility (1/GPa) = 0.01510725
#
# Stress axis : x y z
#
# Youngs Moduli (GPa) = 75.15889 128.95205 137.06132
#
# Poissons Ratio (x) = 0.28209 0.33337
# Poissons Ratio (y) = 0.16442 0.27474
# Poissons Ratio (z) = 0.18281 0.25849
#
# Static dielectric constant tensor:
#      x y z
#    x 2.120200 0.000000 -0.123400 
#    y 0.000000 1.941060 0.000000 
#    z -0.123400 0.000000 2.050340 
# 
# From -- ./inp_files/23265.got.cif
#   From: 2010.05.17/outbox.cif.g08.bks.cpg/sg5_12_cif.got.tgz:23265.got - 2010.06.03 18:56:24.
