data_PCOD9127672
_publ_section_title
;
Structure prediction by ZEFSAII (Michael W. Deem and Ramdas Pophale) SiO2 
 PCOD9127672
Probable space group: C 2
;
_chemical_formula_sum "Si O2"
_cell_formula_units_Z 26
_cell_length_a 11.324576
_cell_length_b 7.532451
_cell_length_c 14.637814
_cell_angle_alpha 90.000000
_cell_angle_beta 120.952140
_cell_angle_gamma 90.000000
_cell_volume 1070.823405
_symmetry_space_group_name_H-M "C 2"
_symmetry_group_IT_number 5
_symmetry_cell_setting 'monoclinic'
loop_
_space_group_symop_operation_xyz
x,y,z
-x,y,-z
1/2+x,1/2+y,z
1/2-x,1/2+y,-z
loop_
_atom_site_type_symbol
_atom_site_label
_atom_site_fract_x
_atom_site_fract_y
_atom_site_fract_z
Si Si1 0.340205 0.774340 0.436797
Si Si2 0.244663 0.377869 0.797498
Si Si3 0.072737 0.446841 0.888333
Si Si4 0.655834 0.353835 0.541417
Si Si5 0.720078 0.788996 0.219736
Si Si6 0.500000 0.388261 0.000000
Si Si7 0.654699 0.357054 0.899726
O O1 0.500000 0.844373 0.500000
O O2 0.272920 0.820505 0.312588
O O3 0.350688 0.563755 0.447872
O O4 0.236609 0.825837 0.478173
O O5 0.107545 0.363663 0.802630
O O6 0.282313 0.587119 0.815902
O O7 0.367373 0.289529 0.904488
O O8 0.094977 0.658761 0.889889
O O9 0.921067 0.389901 0.851961
O O10 0.190096 0.374829 0.002490
O O11 0.500000 0.284816 0.500000
O O12 0.745543 0.279909 0.660420
O O13 0.837871 0.887282 0.205678
O O14 0.566256 0.475486 0.935098
#
# Coordination Sequence:
#
# PCOD9127672 Si02
#       7
#     4   4   4   4   4   2   4
#     4  11  25  48  73 103 142 184 233 297 350 422
#     4  10  24  42  67  95 139 180 227 285 342 410
#     4  10  23  41  64  99 133 184 229 279 341 409
#     4  11  27  45  71 108 137 183 239 287 358 415
#     4  11  24  41  68  98 135 181 229 287 342 412
#     4  10  24  42  62 102 138 178 228 278 344 410
#     4  10  24  39  64  96 135 180 225 279 336 405
#
# _framework density 24.280379
#
# number of rings (size 3 to 8) (size 9 to 14) (size 15 to 20)
#    0.000    1.538    0.000    2.308   12.923    6.154 
#    0.000    0.000    0.000    0.000    0.000    0.000 
#    0.000    0.000    0.000    0.000    0.000    0.000 
#
# Total GULP energy -72613.877486 kJ/mol
# GULP energy per Si atom -5585.682884 kJ/mol
# Density = 2.422512 g / cm^3
# Si number density = 24.280379 Si / 1000 Ang^3
#
#
#
# Elastic Constant Matrix: (Units=GPa)
#
#
# Indices 1 2 3 4 5 6 
#
# 1 197.8863 20.1899 67.7708 0.0000 -30.6289 0.0000
# 2 20.1899 64.6124 -9.3454 0.0000 -0.0375 0.0000
# 3 67.7708 -9.3454 100.8454 0.0000 -34.3917 0.0000
# 4 0.0000 0.0000 0.0000 27.7120 0.0000 -3.7210
# 5 -30.6289 -0.0375 -34.3917 0.0000 58.4829 0.0000
# 6 0.0000 0.0000 0.0000 -3.7210 0.0000 26.0951
#
#
#
# Elastic Compliance Matrix: (Units=1/GPa)
#
#
# Indices 1 2 3 4 5 6 
#
# 1 0.007116 -0.002907 -0.004730 0.000000 0.000944 0.000000
# 2 -0.002907 0.016930 0.003761 0.000000 0.000700 0.000000
# 3 -0.004730 0.003761 0.015760 0.000000 0.006793 0.000000
# 4 0.000000 0.000000 0.000000 0.036790 0.000000 0.005246
# 5 0.000944 0.000700 0.006793 0.000000 0.021588 0.000000
# 6 0.000000 0.000000 0.000000 0.005246 0.000000 0.039069
#
#
# Mechanical properties :
#
#
# Convention : Reuss Voigt Hill
#
# Bulk Modulus (GPa) = 31.19668 57.84162 44.51915
# Shear Modulus (GPa) = 32.11534 41.43992 36.77763
#
# Velocity S-wave (km/s) = 3.64082 4.13573 3.89614
# Velocity P-wave (km/s) = 5.52725 6.83226 6.21411
#
# Compressibility (1/GPa) = 0.03205469
#
# Stress axis : x y z
#
# Youngs Moduli (GPa) = 140.53175 59.06766 63.45218
#
# Poissons Ratio (x) = 0.17171 0.30011
# Poissons Ratio (y) = 0.40854 -0.23867
# Poissons Ratio (z) = 0.66467 -0.22217
#
# Static dielectric constant tensor:
#      x y z
#    x 2.001040 0.000000 -0.045870 
#    y 0.000000 1.995720 0.000000 
#    z -0.045870 0.000000 1.921480 
# 
# From -- ./inp_files/52333.got.cif
#   From: 2010.05.17/outbox.cif.g08.bks.cpg/sg5_27_cif.got.tgz:52333.got - 2010.06.03 18:56:24.
