data_PCOD9127042
_publ_section_title
;
Structure prediction by ZEFSAII (Michael W. Deem and Ramdas Pophale) SiO2 
 PCOD9127042
Probable space group: C 2
;
_chemical_formula_sum "Si O2"
_cell_formula_units_Z 30
_cell_length_a 10.049241
_cell_length_b 11.079101
_cell_length_c 14.921104
_cell_angle_alpha 90.000000
_cell_angle_beta 51.664319
_cell_angle_gamma 90.000000
_cell_volume 1303.079545
_symmetry_space_group_name_H-M "C 2"
_symmetry_group_IT_number 5
_symmetry_cell_setting 'monoclinic'
loop_
_space_group_symop_operation_xyz
x,y,z
-x,y,-z
1/2+x,1/2+y,z
1/2-x,1/2+y,-z
loop_
_atom_site_type_symbol
_atom_site_label
_atom_site_fract_x
_atom_site_fract_y
_atom_site_fract_z
Si Si1 0.135762 0.854440 0.159789
Si Si2 0.500000 0.133542 0.000000
Si Si3 0.138964 0.359381 0.307013
Si Si4 0.291051 0.832189 0.911087
Si Si5 0.812082 0.269463 0.262860
Si Si6 0.219684 0.460156 0.585961
Si Si7 0.643230 0.518511 0.657145
Si Si8 0.140051 0.648313 0.766032
O O1 0.237762 0.785818 0.194901
O O2 0.990527 0.758897 0.191556
O O3 0.240291 0.888663 0.027223
O O4 0.041783 0.971914 0.237094
O O5 0.339320 0.220275 0.044943
O O6 0.433651 0.072373 0.118919
O O7 0.223252 0.404570 0.177139
O O8 0.226807 0.422913 0.353194
O O9 0.182059 0.216909 0.291037
O O10 0.942701 0.390928 0.387166
O O11 0.487451 0.796639 0.828733
O O12 0.715306 0.365680 0.367079
O O13 0.805091 0.142701 0.317125
O O14 0.335397 0.508667 0.458213
O O15 0.151372 0.571116 0.672774
#
# Coordination Sequence:
#
# PCOD9127042 Si02
#       8
#     4   2   4   4   4   4   4   4
#     4  10  22  43  67  98 133 174 219 280 342 402
#     4   8  16  36  68  92 124 168 214 278 336 400
#     4   9  20  41  68  97 123 175 227 278 334 404
#     4   9  19  42  66  96 131 163 224 278 335 406
#     4  11  25  43  64  99 137 174 224 275 344 408
#     4  11  24  42  64  97 131 177 226 275 336 405
#     4  11  25  43  66  97 134 180 226 279 340 406
#     4   9  19  39  68  94 128 172 225 277 338 396
#
# _framework density 23.022383999999999
#
# number of rings (size 3 to 8) (size 9 to 14) (size 15 to 20)
#    0.000    2.133    0.000    2.400    3.733    3.733 
#   19.200    0.000    0.000    0.000    0.000    0.000 
#    0.000    0.000    0.000    0.000    0.000    0.000 
#
# Total GULP energy -83780.197523 kJ/mol
# GULP energy per Si atom -5585.346502 kJ/mol
# Density = 2.296998 g / cm^3
# Si number density = 23.022384 Si / 1000 Ang^3
#
#
#
# Elastic Constant Matrix: (Units=GPa)
#
#
# Indices 1 2 3 4 5 6 
#
# 1 68.4206 -2.5813 21.7217 0.0000 6.5988 0.0000
# 2 -2.5813 48.0356 13.7920 0.0000 0.0872 0.0000
# 3 21.7217 13.7920 159.9285 0.0000 31.4422 0.0000
# 4 0.0000 0.0000 0.0000 19.4420 0.0000 -2.5847
# 5 6.5988 0.0872 31.4422 0.0000 28.1454 0.0000
# 6 0.0000 0.0000 0.0000 -2.5847 0.0000 5.4891
#
#
#
# Elastic Compliance Matrix: (Units=1/GPa)
#
#
# Indices 1 2 3 4 5 6 
#
# 1 0.015421 0.001384 -0.001925 0.000000 -0.001469 0.000000
# 2 0.001384 0.021615 -0.002531 0.000000 0.002436 0.000000
# 3 -0.001925 -0.002531 0.008512 0.000000 -0.009050 0.000000
# 4 0.000000 0.000000 0.000000 0.054870 0.000000 0.025837
# 5 -0.001469 0.002436 -0.009050 0.000000 0.045976 0.000000
# 6 0.000000 0.000000 0.000000 0.025837 0.000000 0.194347
#
#
# Mechanical properties :
#
#
# Convention : Reuss Voigt Hill
#
# Bulk Modulus (GPa) = 25.37873 38.02773 31.70323
# Shear Modulus (GPa) = 13.88821 26.84543 20.36682
#
# Velocity S-wave (km/s) = 2.45878 3.41846 2.97754
# Velocity P-wave (km/s) = 4.37129 5.66875 5.06177
#
# Compressibility (1/GPa) = 0.03940308
#
# Stress axis : x y z
#
# Youngs Moduli (GPa) = 64.84865 46.26522 117.48602
#
# Poissons Ratio (x) = -0.06403 0.22615
# Poissons Ratio (y) = -0.08975 0.29734
# Poissons Ratio (z) = 0.12483 0.11709
#
# Static dielectric constant tensor:
#      x y z
#    x 1.923120 0.000000 0.029240 
#    y 0.000000 1.870780 0.000000 
#    z 0.029240 0.000000 1.876590 
# 
# From -- ./inp_files/52876.got.cif
#   From: 2010.05.17/outbox.cif.g08.bks.cpg/sg5_27_cif.got.tgz:52876.got - 2010.06.03 18:56:24.
