data_PCOD9127310
_publ_section_title
;
Structure prediction by ZEFSAII (Michael W. Deem and Ramdas Pophale) SiO2 
 PCOD9127310
Probable space group: C 2
;
_chemical_formula_sum "Si O2"
_cell_formula_units_Z 30
_cell_length_a 16.384270
_cell_length_b 9.347973
_cell_length_c 27.397712
_cell_angle_alpha 90.000000
_cell_angle_beta 158.845136
_cell_angle_gamma 90.000000
_cell_volume 1514.375899
_symmetry_space_group_name_H-M "C 2"
_symmetry_group_IT_number 5
_symmetry_cell_setting 'monoclinic'
loop_
_space_group_symop_operation_xyz
x,y,z
-x,y,-z
1/2+x,1/2+y,z
1/2-x,1/2+y,-z
loop_
_atom_site_type_symbol
_atom_site_label
_atom_site_fract_x
_atom_site_fract_y
_atom_site_fract_z
Si Si1 0.754629 0.601580 0.388527
Si Si2 0.275922 0.304716 0.578959
Si Si3 0.431975 0.556792 0.410906
Si Si4 0.000000 0.868820 0.000000
Si Si5 0.115312 0.568819 0.782573
Si Si6 0.093981 0.560796 0.882241
Si Si7 0.319067 0.738144 0.094016
Si Si8 0.760352 0.857491 0.462161
O O1 0.694207 0.440240 0.369989
O O2 0.550381 0.669166 0.243344
O O3 0.772950 0.700965 0.446740
O O4 0.000000 0.603725 0.500000
O O5 0.505021 0.211665 0.699154
O O6 0.187719 0.354111 0.477300
O O7 0.089655 0.195786 0.495716
O O8 0.500000 0.483302 0.500000
O O9 0.505914 0.444355 0.411203
O O10 0.172005 0.594009 0.263891
O O11 0.143787 0.775653 0.041051
O O12 0.176502 0.980096 0.123478
O O13 0.169741 0.603081 0.869504
O O14 0.914097 0.451744 0.666844
O O15 0.127688 0.390405 0.901098
O O16 0.214219 0.636809 0.994241
#
# Coordination Sequence:
#
# PCOD9127310 Si02
#       8
#     4   4   4   2   4   4   4   4
#     4  12  24  43  67 103 138 168 223 286 332 396
#     4  11  25  38  66 102 129 170 225 279 330 402
#     4  11  20  41  67  90 127 179 213 273 337 387
#     4  10  22  48  70  88 132 186 218 278 340 398
#     4  10  22  45  66  87 137 177 218 276 336 400
#     4  11  23  43  68  95 134 178 226 268 337 405
#     4  11  26  44  70  99 136 181 227 277 338 405
#     4  11  21  42  65  94 132 168 226 274 342 389
#
# _framework density 19.810141000000002
#
# number of rings (size 3 to 8) (size 9 to 14) (size 15 to 20)
#    0.000    1.067    5.333    3.200    3.733    1.067 
#   12.000    0.667    0.000    0.000    0.000    0.000 
#    0.000    0.000    0.000    0.000    0.000    0.000 
#
# Total GULP energy -83695.663622 kJ/mol
# GULP energy per Si atom -5579.710908 kJ/mol
# Density = 1.976505 g / cm^3
# Si number density = 19.810141 Si / 1000 Ang^3
#
#
#
# Elastic Constant Matrix: (Units=GPa)
#
#
# Indices 1 2 3 4 5 6 
#
# 1 66.9032 26.3554 41.9729 0.0013 -1.9469 0.0006
# 2 26.3554 122.6288 38.7578 -0.0008 -6.6262 0.0022
# 3 41.9729 38.7578 106.0606 0.0046 -2.9842 0.0042
# 4 0.0013 -0.0008 0.0046 -3.2788 -0.0021 13.0073
# 5 -1.9469 -6.6262 -2.9842 -0.0021 26.6798 0.0029
# 6 0.0006 0.0022 0.0042 13.0073 0.0029 15.1825
#
#
#
# Elastic Compliance Matrix: (Units=1/GPa)
#
#
# Indices 1 2 3 4 5 6 
#
# 1 0.020337 -0.002058 -0.007292 0.000001 0.000157 0.000001
# 2 -0.002058 0.009527 -0.002613 -0.000003 0.001924 0.000001
# 3 -0.007292 -0.002613 0.013278 0.000001 0.000304 -0.000004
# 4 0.000001 -0.000003 0.000001 -0.069336 -0.000012 0.059402
# 5 0.000157 0.001924 0.000304 -0.000012 0.038005 0.000003
# 6 0.000001 0.000001 -0.000004 0.059402 0.000003 0.014974
#
#
# Mechanical properties :
#
#
# Convention : Reuss Voigt Hill
#
# Bulk Modulus (GPa) = 52.03897 56.64056 54.33976
# Shear Modulus (GPa) = 87.54461 20.28380 53.91421
#
# Velocity S-wave (km/s) = 6.65490 3.20333 5.22250
# Velocity P-wave (km/s) = 9.23993 6.50658 7.99099
#
# Compressibility (1/GPa) = 0.01921637
#
# Stress axis : x y z
#
# Youngs Moduli (GPa) = 49.17203 104.96813 75.31449
#
# Poissons Ratio (x) = 0.21599 0.54918
# Poissons Ratio (y) = 0.10118 0.19679
# Poissons Ratio (z) = 0.35855 0.27427
#
# Static dielectric constant tensor:
#      x y z
#    x 1.743160 0.000000 0.048260 
#    y 0.000000 1.696480 0.000000 
#    z 0.048260 0.000000 1.721670 
# 
# From -- ./inp_files/72127.got.cif
#   From: 2010.05.17/outbox.cif.g08.bks.cpg/sg5_37_cif.got.tgz:72127.got - 2010.06.03 18:56:24.
