data_PCOD9127726
_publ_section_title
;
Structure prediction by ZEFSAII (Michael W. Deem and Ramdas Pophale) SiO2 
 PCOD9127726
Probable space group: C 2
;
_chemical_formula_sum "Si O2"
_cell_formula_units_Z 30
_cell_length_a 11.859570
_cell_length_b 17.673277
_cell_length_c 11.302018
_cell_angle_alpha 90.000000
_cell_angle_beta 141.838050
_cell_angle_gamma 90.000000
_cell_volume 1463.695168
_symmetry_space_group_name_H-M "C 2"
_symmetry_group_IT_number 5
_symmetry_cell_setting 'monoclinic'
loop_
_space_group_symop_operation_xyz
x,y,z
-x,y,-z
1/2+x,1/2+y,z
1/2-x,1/2+y,-z
loop_
_atom_site_type_symbol
_atom_site_label
_atom_site_fract_x
_atom_site_fract_y
_atom_site_fract_z
Si Si1 0.500000 0.935920 0.000000
Si Si2 0.578589 0.195740 0.695598
Si Si3 0.314902 0.508308 0.408788
Si Si4 0.793383 0.151355 0.529852
Si Si5 0.197620 0.059674 0.218922
Si Si6 0.167673 0.914763 0.337753
Si Si7 0.766266 0.840647 0.044729
Si Si8 0.513911 0.792568 0.375916
O O1 0.360273 0.986531 0.810616
O O2 0.372169 0.887959 0.984829
O O3 0.500000 0.218503 0.500000
O O4 0.407947 0.185534 0.641130
O O5 0.668377 0.112092 0.750132
O O6 0.696278 0.262790 0.850694
O O7 0.500000 0.482430 0.500000
O O8 0.326199 0.596567 0.447682
O O9 0.307957 0.465787 0.526738
O O10 0.800129 0.103191 0.654952
O O11 0.933402 0.219110 0.654990
O O12 0.220240 0.970679 0.270973
O O13 0.000000 0.065780 0.000000
O O14 0.316929 0.850004 0.477729
O O15 0.960155 0.881894 0.173921
O O16 0.660749 0.826912 0.834003
O O17 0.500000 0.767808 0.500000
#
# Coordination Sequence:
#
# PCOD9127726 Si02
#       8
#     2   4   4   4   4   4   4   4
#     4  12  26  40  76 106 130 182 236 288 358 416
#     4  10  23  42  72 104 139 179 233 297 348 413
#     4  11  23  45  67  99 137 176 226 293 350 416
#     4  10  23  46  66  98 140 180 230 289 349 417
#     4  10  23  41  71 100 136 180 235 289 354 411
#     4  11  25  45  67 102 143 180 231 290 354 424
#     4  12  26  43  76 106 139 183 239 287 359 418
#     4  12  27  46  69  98 144 188 235 282 354 429
#
# _framework density 20.496071000000001
#
# number of rings (size 3 to 8) (size 9 to 14) (size 15 to 20)
#    0.000    1.067    4.000    1.200    8.400    3.733 
#    4.800    0.000    0.000    0.000    0.000    0.000 
#    0.000    0.000    0.000    0.000    0.000    0.000 
#
# Total GULP energy -83684.070058 kJ/mol
# GULP energy per Si atom -5578.938004 kJ/mol
# Density = 2.044942 g / cm^3
# Si number density = 20.496071 Si / 1000 Ang^3
#
#
#
# Elastic Constant Matrix: (Units=GPa)
#
#
# Indices 1 2 3 4 5 6 
#
# 1 22.9439 10.0344 2.6980 0.0000 6.4251 0.0000
# 2 10.0344 96.4852 34.8463 0.0000 10.5313 0.0000
# 3 2.6980 34.8463 134.6493 0.0000 18.4835 0.0000
# 4 0.0000 0.0000 0.0000 12.3480 0.0000 3.5230
# 5 6.4251 10.5313 18.4835 0.0000 16.7982 0.0000
# 6 0.0000 0.0000 0.0000 3.5230 0.0000 11.3568
#
#
#
# Elastic Compliance Matrix: (Units=1/GPa)
#
#
# Indices 1 2 3 4 5 6 
#
# 1 0.050605 -0.004098 0.002769 0.000000 -0.019834 0.000000
# 2 -0.004098 0.012076 -0.002614 0.000000 -0.003127 0.000000
# 3 0.002769 -0.002614 0.009386 0.000000 -0.009748 0.000000
# 4 0.000000 0.000000 0.000000 0.088848 0.000000 -0.027562
# 5 -0.019834 -0.003127 -0.009748 0.000000 0.079803 0.000000
# 6 0.000000 0.000000 0.000000 -0.027562 0.000000 0.096603
#
#
# Mechanical properties :
#
#
# Convention : Reuss Voigt Hill
#
# Bulk Modulus (GPa) = 15.58080 38.80398 27.19239
# Shear Modulus (GPa) = 13.63882 21.86724 17.75303
#
# Velocity S-wave (km/s) = 2.58240 3.26989 2.94627
# Velocity P-wave (km/s) = 4.06326 5.76452 4.98697
#
# Compressibility (1/GPa) = 0.06418155
#
# Stress axis : x y z
#
# Youngs Moduli (GPa) = 19.76072 82.81026 106.54453
#
# Poissons Ratio (x) = 0.33937 -0.29504
# Poissons Ratio (y) = 0.08098 0.27848
# Poissons Ratio (z) = -0.05472 0.21644
#
# Static dielectric constant tensor:
#      x y z
#    x 1.737170 0.000000 0.009320 
#    y 0.000000 1.794410 0.000000 
#    z 0.009320 0.000000 1.712820 
# 
# From -- ./inp_files/40482.got.cif
#   From: 2010.05.17/outbox.cif.g08.bks.cpg/sg5_21_cif.got.tgz:40482.got - 2010.06.03 18:56:24.
