data_PCOD9127819
_publ_section_title
;
Structure prediction by ZEFSAII (Michael W. Deem and Ramdas Pophale) SiO2 
 PCOD9127819
Probable space group: C 2
;
_chemical_formula_sum "Si O2"
_cell_formula_units_Z 18
_cell_length_a 5.530109
_cell_length_b 18.502942
_cell_length_c 7.824084
_cell_angle_alpha 90.000000
_cell_angle_beta 62.384821
_cell_angle_gamma 90.000000
_cell_volume 709.383879
_symmetry_space_group_name_H-M "C 2"
_symmetry_group_IT_number 5
_symmetry_cell_setting 'monoclinic'
loop_
_space_group_symop_operation_xyz
x,y,z
-x,y,-z
1/2+x,1/2+y,z
1/2-x,1/2+y,-z
loop_
_atom_site_type_symbol
_atom_site_label
_atom_site_fract_x
_atom_site_fract_y
_atom_site_fract_z
Si Si1 0.328173 0.408170 0.721664
Si Si2 0.500000 0.150704 0.000000
Si Si3 0.238883 0.740378 0.209695
Si Si4 0.940776 0.106776 0.320454
Si Si5 0.674059 0.965768 0.279182
O O1 0.500000 0.433500 0.500000
O O2 0.310391 0.321920 0.721782
O O3 0.528825 0.429861 0.808848
O O4 0.031654 0.444655 0.803786
O O5 0.517713 0.202072 0.160864
O O6 0.224973 0.105725 0.121451
O O7 0.313064 0.686131 0.337799
O O8 0.500000 0.742403 0.000000
O O9 0.000000 0.091794 0.500000
O O10 0.738536 0.049586 0.296795
O O11 0.500000 0.937635 0.500000
#
# Coordination Sequence:
#
# PCOD9127819 Si02
#       5
#     4   2   4   4   4
#     4  10  23  42  72 101 139 184 241 298 359 431
#     4  10  26  46  68 114 146 186 252 310 344 452
#     4  10  25  45  67 104 147 187 247 301 359 441
#     4  11  25  44  78 102 147 193 242 302 373 428
#     4  10  23  43  69 106 139 183 242 298 357 438
#
# _framework density 25.374130000000001
#
# number of rings (size 3 to 8) (size 9 to 14) (size 15 to 20)
#    0.000    1.778    0.000    2.000   15.556    0.889 
#    2.000    0.000    0.000    0.000    0.000    0.000 
#    0.000    0.000    0.000    0.000    0.000    0.000 
#
# Total GULP energy -50380.483932 kJ/mol
# GULP energy per Si atom -5597.831548 kJ/mol
# Density = 2.531638 g / cm^3
# Si number density = 25.374130 Si / 1000 Ang^3
#
#
#
# Elastic Constant Matrix: (Units=GPa)
#
#
# Indices 1 2 3 4 5 6 
#
# 1 227.5841 91.6335 62.9547 0.0000 -8.7592 0.0000
# 2 91.6335 197.0431 22.9838 0.0000 8.3856 0.0000
# 3 62.9547 22.9838 106.4898 0.0000 16.4265 0.0000
# 4 0.0000 0.0000 0.0000 44.1045 0.0000 5.8450
# 5 -8.7592 8.3856 16.4265 0.0000 47.5162 0.0000
# 6 0.0000 0.0000 0.0000 5.8450 0.0000 48.9224
#
#
#
# Elastic Compliance Matrix: (Units=1/GPa)
#
#
# Indices 1 2 3 4 5 6 
#
# 1 0.006696 -0.002798 -0.003825 0.000000 0.003050 0.000000
# 2 -0.002798 0.006389 0.000558 0.000000 -0.001836 0.000000
# 3 -0.003825 0.000558 0.012312 0.000000 -0.005060 0.000000
# 4 0.000000 0.000000 0.000000 0.023038 0.000000 -0.002753
# 5 0.003050 -0.001836 -0.005060 0.000000 0.023681 0.000000
# 6 0.000000 0.000000 0.000000 -0.002753 0.000000 0.020769
#
#
# Mechanical properties :
#
#
# Convention : Reuss Voigt Hill
#
# Bulk Modulus (GPa) = 75.37089 98.47343 86.92216
# Shear Modulus (GPa) = 45.68817 51.67828 48.68323
#
# Velocity S-wave (km/s) = 4.24793 4.51782 4.38495
# Velocity P-wave (km/s) = 7.33677 8.13063 7.74388
#
# Compressibility (1/GPa) = 0.01326772
#
# Stress axis : x y z
#
# Youngs Moduli (GPa) = 149.34490 156.51811 81.22123
#
# Poissons Ratio (x) = 0.43786 0.31069
# Poissons Ratio (y) = 0.41779 -0.04533
# Poissons Ratio (z) = 0.57128 -0.08736
#
# Static dielectric constant tensor:
#      x y z
#    x 2.046920 0.000000 0.008260 
#    y 0.000000 1.957340 0.000000 
#    z 0.008260 0.000000 2.003880 
# 
# From -- ./inp_files/11958.got.cif
#   From: 2010.05.17/outbox.cif.g08.bks.cpg/sg5_6_cif.got.tgz:11958.got - 2010.06.03 18:56:24.
