data_PCOD9127919
_publ_section_title
;
Structure prediction by ZEFSAII (Michael W. Deem and Ramdas Pophale) SiO2 
 PCOD9127919
Probable space group: C 2
;
_chemical_formula_sum "Si O2"
_cell_formula_units_Z 28
_cell_length_a 10.207607
_cell_length_b 7.926468
_cell_length_c 28.146125
_cell_angle_alpha 90.000000
_cell_angle_beta 147.207985
_cell_angle_gamma 90.000000
_cell_volume 1233.371051
_symmetry_space_group_name_H-M "C 2"
_symmetry_group_IT_number 5
_symmetry_cell_setting 'monoclinic'
loop_
_space_group_symop_operation_xyz
x,y,z
-x,y,-z
1/2+x,1/2+y,z
1/2-x,1/2+y,-z
loop_
_atom_site_type_symbol
_atom_site_label
_atom_site_fract_x
_atom_site_fract_y
_atom_site_fract_z
Si Si1 0.451644 0.118740 0.186778
Si Si2 0.916527 0.175708 0.522594
Si Si3 0.471367 0.122552 0.902453
Si Si4 0.174695 0.927780 0.313191
Si Si5 0.005682 0.231421 0.908319
Si Si6 0.950294 0.243075 0.779603
Si Si7 0.219566 0.985223 0.425204
O O1 0.494600 0.143661 0.143964
O O2 0.538300 0.283964 0.241987
O O3 0.166295 0.111309 0.112765
O O4 0.579917 0.942489 0.240969
O O5 0.858311 0.077121 0.551399
O O6 0.707040 0.289641 0.436384
O O7 0.000000 0.078950 0.500000
O O8 0.100569 0.320228 0.597887
O O9 0.223211 0.201095 0.845438
O O10 0.463409 0.923711 0.910823
O O11 0.712251 0.193566 0.999985
O O12 0.068408 0.000727 0.330613
O O13 0.209652 0.095535 0.293017
O O14 0.935161 0.219734 0.831554
O O15 0.500000 0.040306 0.500000
#
# Coordination Sequence:
#
# PCOD9127919 Si02
#       7
#     4   4   4   4   4   4   4
#     4  11  25  42  63  95 128 168 221 264 328 377
#     4   9  21  44  67  95 133 167 208 258 317 385
#     4  11  24  41  64  91 127 171 221 273 322 385
#     4  10  23  44  65  96 136 166 208 273 315 381
#     4  11  24  41  63  93 125 171 225 267 325 389
#     4  11  25  42  63  95 128 167 222 265 325 380
#     4   9  21  44  66  97 131 166 213 252 317 393
#
# _framework density 22.702006999999998
#
# number of rings (size 3 to 8) (size 9 to 14) (size 15 to 20)
#    0.000    2.000    1.429    1.714    6.000    4.000 
#   20.571    0.000    0.000    0.000    0.000    0.000 
#    0.000    0.000    0.000    0.000    0.000    0.000 
#
# Total GULP energy -78099.744403 kJ/mol
# GULP energy per Si atom -5578.553172 kJ/mol
# Density = 2.265034 g / cm^3
# Si number density = 22.702007 Si / 1000 Ang^3
#
#
#
# Elastic Constant Matrix: (Units=GPa)
#
#
# Indices 1 2 3 4 5 6 
#
# 1 102.7189 42.4429 3.6002 0.0000 -0.5421 0.0000
# 2 42.4429 101.1052 21.0937 0.0000 -15.6984 0.0000
# 3 3.6002 21.0937 50.7172 0.0000 -7.4344 0.0000
# 4 0.0000 0.0000 0.0000 38.3573 0.0000 -8.7130
# 5 -0.5421 -15.6984 -7.4344 0.0000 37.0013 0.0000
# 6 0.0000 0.0000 0.0000 -8.7130 0.0000 35.0803
#
#
#
# Elastic Compliance Matrix: (Units=1/GPa)
#
#
# Indices 1 2 3 4 5 6 
#
# 1 0.011991 -0.005584 0.001185 0.000000 -0.001956 0.000000
# 2 -0.005584 0.013977 -0.004698 0.000000 0.004904 0.000000
# 3 0.001185 -0.004698 0.021944 0.000000 0.002433 0.000000
# 4 0.000000 0.000000 0.000000 0.027629 0.000000 0.006862
# 5 -0.001956 0.004904 0.002433 0.000000 0.029567 0.000000
# 6 0.000000 0.000000 0.000000 0.006862 0.000000 0.030210
#
#
# Mechanical properties :
#
#
# Convention : Reuss Voigt Hill
#
# Bulk Modulus (GPa) = 33.65159 43.20166 38.42662
# Shear Modulus (GPa) = 30.59638 34.58142 32.58890
#
# Velocity S-wave (km/s) = 3.67514 3.90715 3.79292
# Velocity P-wave (km/s) = 5.73273 6.27898 6.01207
#
# Compressibility (1/GPa) = 0.02971628
#
# Stress axis : x y z
#
# Youngs Moduli (GPa) = 83.39632 71.54861 45.57149
#
# Poissons Ratio (x) = 0.39956 -0.05399
# Poissons Ratio (y) = 0.46573 0.21408
# Poissons Ratio (z) = -0.09881 0.33611
#
# Static dielectric constant tensor:
#      x y z
#    x 1.914970 0.000000 0.056720 
#    y 0.000000 1.873790 0.000000 
#    z 0.056720 0.000000 1.944590 
# 
# From -- ./inp_files/70167.got.cif
#   From: 2010.05.17/outbox.cif.g08.bks.cpg/sg5_36_cif.got.tgz:70167.got - 2010.06.03 18:56:24.
