data_PCOD9127433
_publ_section_title
;
Structure prediction by ZEFSAII (Michael W. Deem and Ramdas Pophale) SiO2 
 PCOD9127433
Probable space group: C 2
;
_chemical_formula_sum "Si O2"
_cell_formula_units_Z 28
_cell_length_a 15.547203
_cell_length_b 8.969552
_cell_length_c 20.602630
_cell_angle_alpha 90.000000
_cell_angle_beta 28.305558
_cell_angle_gamma 90.000000
_cell_volume 1362.332356
_symmetry_space_group_name_H-M "C 2"
_symmetry_group_IT_number 5
_symmetry_cell_setting 'monoclinic'
loop_
_space_group_symop_operation_xyz
x,y,z
-x,y,-z
1/2+x,1/2+y,z
1/2-x,1/2+y,-z
loop_
_atom_site_type_symbol
_atom_site_label
_atom_site_fract_x
_atom_site_fract_y
_atom_site_fract_z
Si Si1 0.137658 0.110790 0.966831
Si Si2 0.830694 0.458177 0.526733
Si Si3 0.460274 0.607918 0.815329
Si Si4 0.981252 0.435667 0.284290
Si Si5 0.729038 0.969232 0.694519
Si Si6 0.000000 0.205801 0.500000
Si Si7 0.000000 0.703056 0.500000
Si Si8 0.390617 0.957213 0.011469
O O1 0.170494 0.287565 0.933577
O O2 0.326879 0.021097 0.838689
O O3 0.000000 0.063275 0.000000
O O4 0.058212 0.097265 0.093547
O O5 0.627180 0.509229 0.678184
O O6 0.953246 0.595958 0.471355
O O7 0.884996 0.424878 0.417386
O O8 0.883172 0.314542 0.533394
O O9 0.487391 0.775394 0.770608
O O10 0.276388 0.548488 0.905065
O O11 0.835379 0.514556 0.334396
O O12 0.867180 0.094993 0.627379
O O13 0.833840 0.812849 0.624540
O O14 0.546401 0.953265 0.854704
O O15 0.500000 0.021227 0.000000
#
# Coordination Sequence:
#
# PCOD9127433 Si02
#       8
#     4   4   4   4   4   2   2   4
#     4  11  25  46  72 104 136 186 235 290 361 418
#     4  11  27  44  69 103 140 188 232 287 357 415
#     4  12  25  49  69 104 145 181 234 295 348 425
#     4  12  27  42  69 105 139 184 236 289 355 417
#     4  11  23  46  69 103 137 181 236 292 348 414
#     4  10  28  42  70  98 142 182 238 286 346 416
#     4  10  22  46  72  92 142 178 230 288 350 428
#     4  11  26  43  72  97 138 185 230 285 356 418
#
# _framework density 20.552989
#
# number of rings (size 3 to 8) (size 9 to 14) (size 15 to 20)
#    0.000    0.857    4.286    0.000   14.000    2.857 
#    0.000    0.000    0.000    0.000    0.000    0.000 
#    0.000    0.000    0.000    0.000    0.000    0.000 
#
# Total GULP energy -78225.246261 kJ/mol
# GULP energy per Si atom -5587.517590 kJ/mol
# Density = 2.050621 g / cm^3
# Si number density = 20.552989 Si / 1000 Ang^3
#
#
#
# Elastic Constant Matrix: (Units=GPa)
#
#
# Indices 1 2 3 4 5 6 
#
# 1 132.6785 35.8662 52.5973 -0.0001 -5.1465 0.0000
# 2 35.8662 98.6910 37.7524 -0.0001 -18.9539 -0.0001
# 3 52.5973 37.7524 99.6890 0.0001 -12.1339 -0.0001
# 4 -0.0001 -0.0001 0.0001 29.0866 0.0000 -22.1401
# 5 -5.1465 -18.9539 -12.1339 0.0000 44.1121 0.0000
# 6 0.0000 -0.0001 -0.0001 -22.1401 0.0000 34.3083
#
#
#
# Elastic Compliance Matrix: (Units=1/GPa)
#
#
# Indices 1 2 3 4 5 6 
#
# 1 0.009850 -0.002027 -0.004548 0.000000 -0.000973 0.000000
# 2 -0.002027 0.012986 -0.003309 0.000000 0.004433 0.000000
# 3 -0.004548 -0.003309 0.013912 0.000000 0.001874 0.000000
# 4 0.000000 0.000000 0.000000 0.067572 0.000000 0.043606
# 5 -0.000973 0.004433 0.001874 0.000000 0.024976 0.000000
# 6 0.000000 0.000000 0.000000 0.043606 0.000000 0.057288
#
#
# Mechanical properties :
#
#
# Convention : Reuss Voigt Hill
#
# Bulk Modulus (GPa) = 58.88887 64.83226 61.86056
# Shear Modulus (GPa) = 23.58355 35.15759 29.37057
#
# Velocity S-wave (km/s) = 3.39108 4.14041 3.78433
# Velocity P-wave (km/s) = 6.63679 7.38036 7.01843
#
# Compressibility (1/GPa) = 0.01698114
#
# Stress axis : x y z
#
# Youngs Moduli (GPa) = 101.52206 77.00337 71.88051
#
# Poissons Ratio (x) = 0.15607 0.32690
# Poissons Ratio (y) = 0.20577 0.23785
# Poissons Ratio (z) = 0.46171 0.25480
#
# Static dielectric constant tensor:
#      x y z
#    x 1.743770 0.000000 0.004430 
#    y 0.000000 1.721290 0.000000 
#    z 0.004430 0.000000 1.707610 
# 
# From -- ./inp_files/65939.got.cif
#   From: 2010.05.17/outbox.cif.g08.bks.cpg/sg5_33_cif.got.tgz:65939.got - 2010.06.03 18:56:24.
