data_PCOD9127868
_publ_section_title
;
Structure prediction by ZEFSAII (Michael W. Deem and Ramdas Pophale) SiO2 
 PCOD9127868
Probable space group: C 2
;
_chemical_formula_sum "Si O2"
_cell_formula_units_Z 20
_cell_length_a 7.415394
_cell_length_b 12.329500
_cell_length_c 8.764397
_cell_angle_alpha 90.000000
_cell_angle_beta 91.612956
_cell_angle_gamma 90.000000
_cell_volume 800.994669
_symmetry_space_group_name_H-M "C 2"
_symmetry_group_IT_number 5
_symmetry_cell_setting 'monoclinic'
loop_
_space_group_symop_operation_xyz
x,y,z
-x,y,-z
1/2+x,1/2+y,z
1/2-x,1/2+y,-z
loop_
_atom_site_type_symbol
_atom_site_label
_atom_site_fract_x
_atom_site_fract_y
_atom_site_fract_z
Si Si1 0.709558 0.119940 0.558693
Si Si2 0.060615 0.416860 0.676176
Si Si3 0.813529 0.021626 0.254681
Si Si4 0.869925 0.786491 0.209130
Si Si5 0.237486 0.232751 0.880776
O O1 0.500000 0.130498 0.500000
O O2 0.823272 0.089768 0.412424
O O3 0.737711 0.227202 0.657890
O O4 0.707688 0.013013 0.663599
O O5 0.133082 0.315969 0.770744
O O6 0.000000 0.391505 0.500000
O O7 0.888728 0.471728 0.752437
O O8 0.841138 0.111809 0.127773
O O9 0.921153 0.910014 0.248541
O O10 0.058200 0.725630 0.181021
O O11 0.757475 0.778254 0.050959
#
# Coordination Sequence:
#
# PCOD9127868 Si02
#       5
#     4   4   4   4   4
#     4   9  19  40  66  90 129 170 223 262 319 385
#     4   9  21  43  67  93 132 174 221 270 324 389
#     4  10  23  43  68  96 128 185 219 267 337 382
#     4  11  24  41  70 100 134 178 215 275 339 389
#     4  11  24  43  66  99 142 167 221 275 334 399
#
# _framework density 24.968955000000001
#
# number of rings (size 3 to 8) (size 9 to 14) (size 15 to 20)
#    0.000    2.400    4.000    0.000    8.400    0.800 
#    3.600    1.000    0.000    0.000    0.000    0.000 
#    0.000    0.000    0.000    0.000    0.000    0.000 
#
# Total GULP energy -55951.708495 kJ/mol
# GULP energy per Si atom -5595.170849 kJ/mol
# Density = 2.491212 g / cm^3
# Si number density = 24.968955 Si / 1000 Ang^3
#
#
#
# Elastic Constant Matrix: (Units=GPa)
#
#
# Indices 1 2 3 4 5 6 
#
# 1 36.2276 27.0448 30.6943 0.0000 6.2993 0.0000
# 2 27.0448 185.8341 89.4031 0.0000 14.6735 0.0000
# 3 30.6943 89.4031 112.8391 0.0000 8.5792 0.0000
# 4 0.0000 0.0000 0.0000 35.1840 0.0000 0.0819
# 5 6.2993 14.6735 8.5792 0.0000 34.1673 0.0000
# 6 0.0000 0.0000 0.0000 0.0819 0.0000 32.3734
#
#
#
# Elastic Compliance Matrix: (Units=1/GPa)
#
#
# Indices 1 2 3 4 5 6 
#
# 1 0.036522 -0.000579 -0.009158 0.000000 -0.004185 0.000000
# 2 -0.000579 0.008847 -0.006699 0.000000 -0.002011 0.000000
# 3 -0.009158 -0.006699 0.016632 0.000000 0.000389 0.000000
# 4 0.000000 0.000000 0.000000 0.028422 0.000000 -0.000072
# 5 -0.004185 -0.002011 0.000389 0.000000 0.030805 0.000000
# 6 0.000000 0.000000 0.000000 -0.000072 0.000000 0.030890
#
#
# Mechanical properties :
#
#
# Convention : Reuss Voigt Hill
#
# Bulk Modulus (GPa) = 34.33018 69.90948 52.11983
# Shear Modulus (GPa) = 25.68057 32.86217 29.27137
#
# Velocity S-wave (km/s) = 3.21050 3.63177 3.42762
# Velocity P-wave (km/s) = 5.24615 6.75616 6.04846
#
# Compressibility (1/GPa) = 0.02912889
#
# Stress axis : x y z
#
# Youngs Moduli (GPa) = 27.38051 113.03123 60.12674
#
# Poissons Ratio (x) = 0.06544 0.55063
# Poissons Ratio (y) = 0.01585 0.40281
# Poissons Ratio (z) = 0.25075 0.75723
#
# Static dielectric constant tensor:
#      x y z
#    x 2.043370 0.000000 -0.005170 
#    y 0.000000 1.980050 0.000000 
#    z -0.005170 0.000000 1.961310 
# 
# From -- ./inp_files/14217.got.cif
#   From: 2010.05.17/outbox.cif.g08.bks.cpg/sg5_8_cif.got.tgz:14217.got - 2010.06.03 18:56:24.
