data_PCOD9127946
_publ_section_title
;
Structure prediction by ZEFSAII (Michael W. Deem and Ramdas Pophale) SiO2 
 PCOD9127946
Probable space group: C 2
;
_chemical_formula_sum "Si O2"
_cell_formula_units_Z 32
_cell_length_a 15.262596
_cell_length_b 11.807346
_cell_length_c 18.798824
_cell_angle_alpha 90.000000
_cell_angle_beta 26.721383
_cell_angle_gamma 90.000000
_cell_volume 1523.309933
_symmetry_space_group_name_H-M "C 2"
_symmetry_group_IT_number 5
_symmetry_cell_setting 'monoclinic'
loop_
_space_group_symop_operation_xyz
x,y,z
-x,y,-z
1/2+x,1/2+y,z
1/2-x,1/2+y,-z
loop_
_atom_site_type_symbol
_atom_site_label
_atom_site_fract_x
_atom_site_fract_y
_atom_site_fract_z
Si Si1 0.831559 0.530050 0.259918
Si Si2 0.467500 0.253679 0.342493
Si Si3 0.401229 0.860028 0.862854
Si Si4 0.287654 0.045898 0.837470
Si Si5 0.380565 0.628544 0.333351
Si Si6 0.042135 0.780106 0.803996
Si Si7 0.147471 0.995786 0.792345
Si Si8 0.987278 0.994877 0.625339
O O1 0.673856 0.519638 0.439014
O O2 0.704290 0.525496 0.280708
O O3 0.984367 0.427505 0.158440
O O4 0.942263 0.649511 0.185922
O O5 0.321228 0.171839 0.488632
O O6 0.373556 0.292528 0.336402
O O7 0.517081 0.361869 0.353190
O O8 0.645547 0.172138 0.192386
O O9 0.407317 0.949282 0.792480
O O10 0.503234 0.741921 0.771669
O O11 0.176180 0.830783 0.040604
O O12 0.293068 0.032494 0.748614
O O13 0.067523 0.027600 0.023315
O O14 0.339459 0.554636 0.293400
O O15 0.489921 0.560936 0.316862
O O16 0.156152 0.860971 0.775254
#
# Coordination Sequence:
#
# PCOD9127946 Si02
#       8
#     4   4   4   4   4   4   4   4
#     4  11  24  46  65 101 141 180 223 285 343 404
#     4  12  23  43  67  95 135 177 226 277 343 404
#     4  11  24  42  68  95 135 177 222 275 344 399
#     4  10  23  44  68  95 132 172 220 283 333 401
#     4  12  24  41  66  97 133 175 224 277 334 408
#     4  11  23  43  70  92 136 181 221 277 344 402
#     4  10  24  43  67 100 129 172 230 273 340 404
#     4  11  25  43  67 102 138 176 229 281 347 408
#
# _framework density 21.006888
#
# number of rings (size 3 to 8) (size 9 to 14) (size 15 to 20)
#    0.000    1.000    5.000    0.750    5.250    0.500 
#    0.000    1.250    0.000    0.000    0.000    0.000 
#    0.000    0.000    0.000    0.000    0.000    0.000 
#
# Total GULP energy -89427.078905 kJ/mol
# GULP energy per Si atom -5589.192432 kJ/mol
# Density = 2.095908 g / cm^3
# Si number density = 21.006888 Si / 1000 Ang^3
#
#
#
# Elastic Constant Matrix: (Units=GPa)
#
#
# Indices 1 2 3 4 5 6 
#
# 1 130.8184 54.5347 26.4294 -0.0090 8.2464 -0.0032
# 2 54.5347 140.9714 25.7758 -0.0200 0.9724 -0.0032
# 3 26.4294 25.7758 34.3190 -0.0106 2.1467 -0.0002
# 4 -0.0090 -0.0200 -0.0106 16.3079 0.0039 2.3085
# 5 8.2464 0.9724 2.1467 0.0039 28.1910 0.0001
# 6 -0.0032 -0.0032 -0.0002 2.3085 0.0001 33.7762
#
#
#
# Elastic Compliance Matrix: (Units=1/GPa)
#
#
# Indices 1 2 3 4 5 6 
#
# 1 0.010108 -0.002896 -0.005456 -0.000001 -0.002441 0.000001
# 2 -0.002896 0.009053 -0.004625 0.000006 0.000887 0.000000
# 3 -0.005456 -0.004625 0.036880 0.000016 -0.001053 -0.000002
# 4 -0.000001 0.000006 0.000016 0.061919 -0.000010 -0.004232
# 5 -0.002441 0.000887 -0.001053 -0.000010 0.036236 0.000000
# 6 0.000001 0.000000 -0.000002 -0.004232 0.000000 0.029896
#
#
# Mechanical properties :
#
#
# Convention : Reuss Voigt Hill
#
# Bulk Modulus (GPa) = 33.23747 57.73207 45.48477
# Shear Modulus (GPa) = 22.71947 28.94627 25.83287
#
# Velocity S-wave (km/s) = 3.29222 3.71609 3.51056
# Velocity P-wave (km/s) = 5.50529 6.77898 6.17506
#
# Compressibility (1/GPa) = 0.03008652
#
# Stress axis : x y z
#
# Youngs Moduli (GPa) = 98.93613 110.45605 27.11487
#
# Poissons Ratio (x) = 0.31983 0.14795
# Poissons Ratio (y) = 0.28648 0.12541
# Poissons Ratio (z) = 0.53984 0.51089
#
# Static dielectric constant tensor:
#      x y z
#    x 1.750820 0.000000 0.000680 
#    y 0.000000 1.727910 0.000000 
#    z 0.000680 0.000000 1.858500 
# 
# From -- ./inp_files/61680.got.cif
#   From: 2010.05.17/outbox.cif.g08.bks.cpg/sg5_31_cif.got.tgz:61680.got - 2010.06.03 18:56:24.
