data_PCOD9127281
_publ_section_title
;
Structure prediction by ZEFSAII (Michael W. Deem and Ramdas Pophale) SiO2 
 PCOD9127281
Probable space group: C 2
;
_chemical_formula_sum "Si O2"
_cell_formula_units_Z 26
_cell_length_a 8.944349
_cell_length_b 19.543193
_cell_length_c 8.253825
_cell_angle_alpha 90.000000
_cell_angle_beta 127.766288
_cell_angle_gamma 90.000000
_cell_volume 1140.538381
_symmetry_space_group_name_H-M "C 2"
_symmetry_group_IT_number 5
_symmetry_cell_setting 'monoclinic'
loop_
_space_group_symop_operation_xyz
x,y,z
-x,y,-z
1/2+x,1/2+y,z
1/2-x,1/2+y,-z
loop_
_atom_site_type_symbol
_atom_site_label
_atom_site_fract_x
_atom_site_fract_y
_atom_site_fract_z
Si Si1 0.066173 0.797550 0.859605
Si Si2 0.281555 0.687206 0.845978
Si Si3 0.140567 0.070124 0.873751
Si Si4 0.000000 0.957234 0.000000
Si Si5 0.881781 0.384179 0.162206
Si Si6 0.000000 0.494874 0.000000
Si Si7 0.500000 0.667155 0.500000
Si Si8 0.290932 0.774772 0.537469
O O1 0.140419 0.722061 0.877008
O O2 0.893499 0.816766 0.631385
O O3 0.248846 0.844058 0.946008
O O4 0.000000 0.802273 0.000000
O O5 0.234527 0.722935 0.644864
O O6 0.500000 0.709151 0.000000
O O7 0.291131 0.609321 0.916244
O O8 0.316804 0.041744 0.891100
O O9 0.032195 0.122321 0.682540
O O10 0.022938 0.005300 0.858073
O O11 0.793535 0.918591 0.851684
O O12 0.030074 0.326384 0.322805
O O13 0.993453 0.445204 0.151377
O O14 0.331469 0.720788 0.419891
#
# Coordination Sequence:
#
# PCOD9127281 Si02
#       8
#     4   4   4   2   4   2   2   4
#     4  12  25  43  71 108 144 182 231 303 363 427
#     4  12  22  43  71 100 146 180 233 302 356 420
#     4  11  23  46  69 100 141 192 241 290 354 422
#     4  10  22  44  74  96 138 206 230 290 350 418
#     4  11  22  46  70 104 141 185 243 291 356 423
#     4  10  26  44  72  94 142 198 234 294 344 418
#     4  12  24  42  68 110 140 174 242 302 356 424
#     4  12  25  43  75 111 139 191 227 305 371 417
#
# _framework density 22.796251000000002
#
# number of rings (size 3 to 8) (size 9 to 14) (size 15 to 20)
#    0.000    0.615    4.615    3.231    3.231    0.000 
#    5.538    0.000    0.000    0.000    0.000    0.000 
#    0.000    0.000    0.000    0.000    0.000    0.000 
#
# Total GULP energy -72421.956022 kJ/mol
# GULP energy per Si atom -5570.919694 kJ/mol
# Density = 2.274437 g / cm^3
# Si number density = 22.796251 Si / 1000 Ang^3
#
#
#
# Elastic Constant Matrix: (Units=GPa)
#
#
# Indices 1 2 3 4 5 6 
#
# 1 129.6059 48.3858 29.9351 0.0000 16.8275 0.0000
# 2 48.3858 104.4439 33.2994 0.0000 15.0289 0.0000
# 3 29.9351 33.2994 93.9480 0.0000 20.5070 0.0000
# 4 0.0000 0.0000 0.0000 12.0079 0.0000 -9.2181
# 5 16.8275 15.0289 20.5070 0.0000 37.3218 0.0000
# 6 0.0000 0.0000 0.0000 -9.2181 0.0000 61.8816
#
#
#
# Elastic Compliance Matrix: (Units=1/GPa)
#
#
# Indices 1 2 3 4 5 6 
#
# 1 0.009701 -0.003776 -0.001284 0.000000 -0.002148 0.000000
# 2 -0.003776 0.012482 -0.002836 0.000000 -0.001766 0.000000
# 3 -0.001284 -0.002836 0.013275 0.000000 -0.005573 0.000000
# 4 0.000000 0.000000 0.000000 0.094032 0.000000 0.014007
# 5 -0.002148 -0.001766 -0.005573 0.000000 0.031536 0.000000
# 6 0.000000 0.000000 0.000000 0.014007 0.000000 0.018246
#
#
# Mechanical properties :
#
#
# Convention : Reuss Voigt Hill
#
# Bulk Modulus (GPa) = 50.84621 61.24872 56.04746
# Shear Modulus (GPa) = 24.79944 36.66741 30.73342
#
# Velocity S-wave (km/s) = 3.30187 4.01494 3.67574
# Velocity P-wave (km/s) = 6.07367 6.95839 6.53103
#
# Compressibility (1/GPa) = 0.01966715
#
# Stress axis : x y z
#
# Youngs Moduli (GPa) = 103.08561 80.11652 75.33017
#
# Poissons Ratio (x) = 0.30249 0.09671
# Poissons Ratio (y) = 0.38921 0.21361
# Poissons Ratio (z) = 0.13235 0.22718
#
# Static dielectric constant tensor:
#      x y z
#    x 1.892720 0.000000 -0.054450 
#    y 0.000000 1.900850 0.000000 
#    z -0.054450 0.000000 1.902070 
# 
# From -- ./inp_files/17104.got.cif
#   From: 2010.05.17/outbox.cif.g08.bks.cpg/sg5_9_cif.got.tgz:17104.got - 2010.06.03 18:56:24.
