data_PCOD9127717
_publ_section_title
;
Structure prediction by ZEFSAII (Michael W. Deem and Ramdas Pophale) SiO2 
 PCOD9127717
Probable space group: C 2
;
_chemical_formula_sum "Si O2"
_cell_formula_units_Z 28
_cell_length_a 13.650771
_cell_length_b 12.258719
_cell_length_c 8.907283
_cell_angle_alpha 90.000000
_cell_angle_beta 119.261907
_cell_angle_gamma 90.000000
_cell_volume 1300.350453
_symmetry_space_group_name_H-M "C 2"
_symmetry_group_IT_number 5
_symmetry_cell_setting 'monoclinic'
loop_
_space_group_symop_operation_xyz
x,y,z
-x,y,-z
1/2+x,1/2+y,z
1/2-x,1/2+y,-z
loop_
_atom_site_type_symbol
_atom_site_label
_atom_site_fract_x
_atom_site_fract_y
_atom_site_fract_z
Si Si1 0.175995 0.523070 0.338874
Si Si2 0.606399 0.580265 0.693074
Si Si3 0.547786 0.026694 0.696792
Si Si4 0.675580 0.808894 0.883365
Si Si5 0.737222 0.593979 0.292142
Si Si6 0.607202 0.435320 0.991640
Si Si7 0.621732 0.791615 0.164828
O O1 0.272288 0.563960 0.298177
O O2 0.233455 0.518918 0.544845
O O3 0.135105 0.406585 0.251342
O O4 0.054196 0.578985 0.283965
O O5 0.500000 0.573218 0.500000
O O6 0.616421 0.702953 0.769006
O O7 0.594159 0.487005 0.814407
O O8 0.500000 0.988148 0.500000
O O9 0.649283 0.105007 0.721331
O O10 0.601268 0.919553 0.813387
O O11 0.795838 0.845729 0.913811
O O12 0.697378 0.787556 0.073811
O O13 0.675062 0.699970 0.309494
O O14 0.648060 0.539494 0.117109
O O15 0.500000 0.393839 0.000000
O O16 0.500000 0.773010 0.000000
#
# Coordination Sequence:
#
# PCOD9127717 Si02
#       7
#     4   4   4   4   4   4   4
#     4  11  24  43  68 101 131 175 224 281 324 398
#     4  12  26  43  69 102 134 171 230 278 326 394
#     4   9  20  41  65  95 137 174 216 269 332 391
#     4  11  23  42  66 100 134 175 221 272 328 403
#     4  10  23  41  69  98 136 177 219 274 337 395
#     4  11  23  44  65  97 138 181 214 278 341 391
#     4  12  23  41  73 100 130 177 226 273 334 395
#
# _framework density 21.532655999999999
#
# number of rings (size 3 to 8) (size 9 to 14) (size 15 to 20)
#    0.000    1.143    4.286    1.714    2.000    3.429 
#    2.571    2.143    0.000    0.000    0.000    0.000 
#    0.000    0.000    0.000    0.000    0.000    0.000 
#
# Total GULP energy -78017.337333 kJ/mol
# GULP energy per Si atom -5572.666952 kJ/mol
# Density = 2.148365 g / cm^3
# Si number density = 21.532656 Si / 1000 Ang^3
#
#
#
# Elastic Constant Matrix: (Units=GPa)
#
#
# Indices 1 2 3 4 5 6 
#
# 1 123.7807 22.7839 16.1911 0.0000 5.0145 0.0000
# 2 22.7839 48.6508 26.8078 0.0000 10.5075 0.0000
# 3 16.1911 26.8078 80.8682 0.0000 9.9198 0.0000
# 4 0.0000 0.0000 0.0000 20.4209 0.0000 0.1570
# 5 5.0145 10.5075 9.9198 0.0000 28.8360 0.0000
# 6 0.0000 0.0000 0.0000 0.1570 0.0000 11.4426
#
#
#
# Elastic Compliance Matrix: (Units=1/GPa)
#
#
# Indices 1 2 3 4 5 6 
#
# 1 0.008857 -0.003887 -0.000490 0.000000 0.000045 0.000000
# 2 -0.003887 0.028107 -0.007690 0.000000 -0.006920 0.000000
# 3 -0.000490 -0.007690 0.015305 0.000000 -0.002377 0.000000
# 4 0.000000 0.000000 0.000000 0.048975 0.000000 -0.000672
# 5 0.000045 -0.006920 -0.002377 0.000000 0.038011 0.000000
# 6 0.000000 0.000000 0.000000 -0.000672 0.000000 0.087402
#
#
# Mechanical properties :
#
#
# Convention : Reuss Voigt Hill
#
# Bulk Modulus (GPa) = 35.54508 42.76283 39.15396
# Shear Modulus (GPa) = 19.21824 24.64103 21.92964
#
# Velocity S-wave (km/s) = 2.99074 3.38650 3.19476
# Velocity P-wave (km/s) = 5.33567 5.93244 5.64195
#
# Compressibility (1/GPa) = 0.02813329
#
# Stress axis : x y z
#
# Youngs Moduli (GPa) = 112.90992 35.57783 65.33847
#
# Poissons Ratio (x) = 0.13830 0.03202
# Poissons Ratio (y) = 0.43892 0.50248
# Poissons Ratio (z) = 0.05534 0.27361
#
# Static dielectric constant tensor:
#      x y z
#    x 1.919780 0.000000 0.006900 
#    y 0.000000 1.812640 0.000000 
#    z 0.006900 0.000000 1.783460 
# 
# From -- ./inp_files/23942.got.cif
#   From: 2010.05.17/outbox.cif.g08.bks.cpg/sg5_12_cif.got.tgz:23942.got - 2010.06.03 18:56:24.
