data_PCOD9127216
_publ_section_title
;
Structure prediction by ZEFSAII (Michael W. Deem and Ramdas Pophale) SiO2 
 PCOD9127216
Probable space group: C 2
;
_chemical_formula_sum "Si O2"
_cell_formula_units_Z 28
_cell_length_a 13.567539
_cell_length_b 9.453249
_cell_length_c 19.406599
_cell_angle_alpha 90.000000
_cell_angle_beta 27.176561
_cell_angle_gamma 90.000000
_cell_volume 1136.828593
_symmetry_space_group_name_H-M "C 2"
_symmetry_group_IT_number 5
_symmetry_cell_setting 'monoclinic'
loop_
_space_group_symop_operation_xyz
x,y,z
-x,y,-z
1/2+x,1/2+y,z
1/2-x,1/2+y,-z
loop_
_atom_site_type_symbol
_atom_site_label
_atom_site_fract_x
_atom_site_fract_y
_atom_site_fract_z
Si Si1 0.208023 0.404530 0.446395
Si Si2 0.734798 0.069306 0.156710
Si Si3 0.863530 0.645515 0.013866
Si Si4 0.795264 0.865708 0.240560
Si Si5 0.614043 0.204719 0.559124
Si Si6 0.050266 0.342351 0.741471
Si Si7 0.423745 0.834984 0.969856
O O1 0.285426 0.438117 0.321402
O O2 0.346062 0.282683 0.394108
O O3 0.215954 0.550526 0.483044
O O4 0.963854 0.340737 0.605189
O O5 0.636079 0.170635 0.278096
O O6 0.830799 0.176796 0.039906
O O7 0.848550 0.958431 0.139689
O O8 0.552357 0.982579 0.228829
O O9 0.034878 0.736246 0.861043
O O10 0.641347 0.730939 0.156615
O O11 0.801383 0.484928 0.032460
O O12 0.000000 0.645525 0.000000
O O13 0.724952 0.302393 0.433572
O O14 0.070963 0.339629 0.810597
O O15 0.500000 0.860317 0.000000
#
# Coordination Sequence:
#
# PCOD9127216 Si02
#       7
#     4   4   4   4   4   4   4
#     4  10  23  41  75  98 142 179 242 285 355 420
#     4  11  25  47  70 101 143 186 239 285 359 424
#     4  11  23  44  71  96 144 179 241 286 352 425
#     4  10  22  44  70 102 133 198 227 289 352 431
#     4  11  23  44  66 105 135 180 233 288 340 428
#     4  12  25  45  71 103 138 193 230 290 366 422
#     4  11  29  45  67 107 139 182 236 304 353 416
#
# _framework density 24.629923000000002
#
# number of rings (size 3 to 8) (size 9 to 14) (size 15 to 20)
#    0.000    1.143    4.286    0.857   10.000    0.000 
#    0.000    0.000    0.000    1.714    0.000    0.000 
#    0.000    0.000    0.000    0.000    0.000    0.000 
#
# Total GULP energy -77978.410258 kJ/mol
# GULP energy per Si atom -5569.886447 kJ/mol
# Density = 2.457386 g / cm^3
# Si number density = 24.629923 Si / 1000 Ang^3
#
#
#
# Elastic Constant Matrix: (Units=GPa)
#
#
# Indices 1 2 3 4 5 6 
#
# 1 87.1705 23.7473 26.8490 -0.0092 34.3516 0.0050
# 2 23.7473 100.5741 30.1506 -0.0166 15.8293 0.0079
# 3 26.8490 30.1506 114.3403 -0.0280 38.7418 0.0144
# 4 -0.0092 -0.0166 -0.0280 26.5551 0.0071 6.9975
# 5 34.3516 15.8293 38.7418 0.0071 39.8235 -0.0031
# 6 0.0050 0.0079 0.0144 6.9975 -0.0031 18.4485
#
#
#
# Elastic Compliance Matrix: (Units=1/GPa)
#
#
# Indices 1 2 3 4 5 6 
#
# 1 0.017997 -0.002235 0.001973 0.000015 -0.016555 -0.000014
# 2 -0.002235 0.011213 -0.002350 0.000005 -0.000243 -0.000004
# 3 0.001973 -0.002350 0.013667 0.000023 -0.014064 -0.000021
# 4 0.000015 0.000005 0.000023 0.041839 -0.000046 -0.015870
# 5 -0.016555 -0.000243 -0.014064 -0.000046 0.053169 0.000042
# 6 -0.000014 -0.000004 -0.000021 -0.015870 0.000042 0.060224
#
#
# Mechanical properties :
#
#
# Convention : Reuss Voigt Hill
#
# Bulk Modulus (GPa) = 26.55811 51.50876 39.03344
# Shear Modulus (GPa) = 23.16038 31.72129 27.44084
#
# Velocity S-wave (km/s) = 3.06981 3.59265 3.34147
# Velocity P-wave (km/s) = 4.83439 6.17802 5.54704
#
# Compressibility (1/GPa) = 0.03765329
#
# Stress axis : x y z
#
# Youngs Moduli (GPa) = 55.56538 89.17939 73.16664
#
# Poissons Ratio (x) = 0.19934 -0.14433
# Poissons Ratio (y) = 0.12420 0.17191
# Poissons Ratio (z) = -0.10961 0.20953
#
# Static dielectric constant tensor:
#      x y z
#    x 2.051670 0.000000 -0.155760 
#    y 0.000000 1.984840 0.000000 
#    z -0.155760 0.000000 2.245900 
# 
# From -- ./inp_files/65955.got.cif
#   From: 2010.05.17/outbox.cif.g08.bks.cpg/sg5_33_cif.got.tgz:65955.got - 2010.06.03 18:56:24.
