data_PCOD9127514
_publ_section_title
;
Structure prediction by ZEFSAII (Michael W. Deem and Ramdas Pophale) SiO2 
 PCOD9127514
Probable space group: C 2
;
_chemical_formula_sum "Si O2"
_cell_formula_units_Z 20
_cell_length_a 12.403812
_cell_length_b 8.444643
_cell_length_c 7.858834
_cell_angle_alpha 90.000000
_cell_angle_beta 75.661811
_cell_angle_gamma 90.000000
_cell_volume 797.538258
_symmetry_space_group_name_H-M "C 2"
_symmetry_group_IT_number 5
_symmetry_cell_setting 'monoclinic'
loop_
_space_group_symop_operation_xyz
x,y,z
-x,y,-z
1/2+x,1/2+y,z
1/2-x,1/2+y,-z
loop_
_atom_site_type_symbol
_atom_site_label
_atom_site_fract_x
_atom_site_fract_y
_atom_site_fract_z
Si Si1 0.910711 0.272390 0.385774
Si Si2 0.812636 0.955732 0.930019
Si Si3 0.689436 0.452799 0.467440
Si Si4 0.409870 0.100819 0.886870
Si Si5 0.000000 0.694651 0.500000
Si Si6 0.000000 0.187157 0.000000
O O1 0.812823 0.395667 0.459944
O O2 0.851388 0.099963 0.408042
O O3 0.000000 0.266767 0.500000
O O4 0.964412 0.286733 0.178888
O O5 0.853259 0.775415 0.924876
O O6 0.810818 0.999702 0.731183
O O7 0.898749 0.072732 0.986384
O O8 0.689915 0.977438 0.052125
O O9 0.601153 0.309853 0.517378
O O10 0.463439 0.097751 0.679040
O O11 0.500000 0.094265 0.000000
#
# Coordination Sequence:
#
# PCOD9127514 Si02
#       6
#     4   4   4   4   2   2
#     4  12  26  51  75 110 148 194 244 307 364 436
#     4  11  24  48  75 108 145 195 240 302 366 435
#     4  11  25  50  75 106 151 191 246 300 366 436
#     4  11  25  47  74 103 148 190 237 298 362 430
#     4  10  22  48  72 104 144 190 236 298 362 434
#     4  12  22  46  82 102 150 198 236 302 376 430
#
# _framework density 25.077165999999998
#
# number of rings (size 3 to 8) (size 9 to 14) (size 15 to 20)
#    0.000    0.800    4.000    3.600    2.800    0.000 
#   12.600    0.000    0.000    1.200    0.000    0.000 
#    0.000    0.000    0.000    0.000    0.000    0.000 
#
# Total GULP energy -56226.572863 kJ/mol
# GULP energy per Si atom -5622.657286 kJ/mol
# Density = 2.502009 g / cm^3
# Si number density = 25.077166 Si / 1000 Ang^3
#
#
#
# Elastic Constant Matrix: (Units=GPa)
#
#
# Indices 1 2 3 4 5 6 
#
# 1 186.4871 42.1208 74.5922 0.0000 -13.0838 0.0000
# 2 42.1208 93.1277 62.3375 0.0000 -5.5005 0.0000
# 3 74.5922 62.3375 193.0067 0.0000 -25.0545 0.0000
# 4 0.0000 0.0000 0.0000 45.6920 0.0000 -7.6665
# 5 -13.0838 -5.5005 -25.0545 0.0000 37.8559 0.0000
# 6 0.0000 0.0000 0.0000 -7.6665 0.0000 40.6016
#
#
#
# Elastic Compliance Matrix: (Units=1/GPa)
#
#
# Indices 1 2 3 4 5 6 
#
# 1 0.006547 -0.001644 -0.001900 0.000000 0.000767 0.000000
# 2 -0.001644 0.014149 -0.004093 0.000000 -0.001221 0.000000
# 3 -0.001900 -0.004093 0.007740 0.000000 0.003871 0.000000
# 4 0.000000 0.000000 0.000000 0.022602 0.000000 0.004268
# 5 0.000767 -0.001221 0.003871 0.000000 0.029066 0.000000
# 6 0.000000 0.000000 0.000000 0.004268 0.000000 0.025435
#
#
# Mechanical properties :
#
#
# Convention : Reuss Voigt Hill
#
# Bulk Modulus (GPa) = 75.97475 92.30251 84.13863
# Shear Modulus (GPa) = 39.93579 44.40130 42.16854
#
# Velocity S-wave (km/s) = 3.99496 4.21240 4.10512
# Velocity P-wave (km/s) = 7.18622 7.78115 7.48960
#
# Compressibility (1/GPa) = 0.01316227
#
# Stress axis : x y z
#
# Youngs Moduli (GPa) = 152.73290 70.67491 129.20115
#
# Poissons Ratio (x) = 0.11622 0.24545
# Poissons Ratio (y) = 0.25115 0.52882
# Poissons Ratio (z) = 0.29016 0.28927
#
# Static dielectric constant tensor:
#      x y z
#    x 1.939640 0.000000 -0.032290 
#    y 0.000000 1.973320 0.000000 
#    z -0.032290 0.000000 1.914140 
# 
# From -- ./inp_files/18292.got.cif
#   From: 2010.05.17/outbox.cif.g08.bks.cpg/sg5_10_cif.got.tgz:18292.got - 2010.06.03 18:56:24.
