data_PCOD9127164
_publ_section_title
;
Structure prediction by ZEFSAII (Michael W. Deem and Ramdas Pophale) SiO2 
 PCOD9127164
Probable space group: C 2
;
_chemical_formula_sum "Si O2"
_cell_formula_units_Z 28
_cell_length_a 21.081995
_cell_length_b 9.555034
_cell_length_c 15.500978
_cell_angle_alpha 90.000000
_cell_angle_beta 152.562729
_cell_angle_gamma 90.000000
_cell_volume 1438.778820
_symmetry_space_group_name_H-M "C 2"
_symmetry_group_IT_number 5
_symmetry_cell_setting 'monoclinic'
loop_
_space_group_symop_operation_xyz
x,y,z
-x,y,-z
1/2+x,1/2+y,z
1/2-x,1/2+y,-z
loop_
_atom_site_type_symbol
_atom_site_label
_atom_site_fract_x
_atom_site_fract_y
_atom_site_fract_z
Si Si1 0.141523 0.735420 0.218908
Si Si2 0.454159 0.775785 0.543491
Si Si3 0.081276 0.314373 0.966193
Si Si4 0.313121 0.903465 0.734509
Si Si5 0.111726 0.076184 0.869241
Si Si6 0.924718 0.523779 0.200676
Si Si7 0.935322 0.809764 0.680669
O O1 0.288102 0.779816 0.354661
O O2 0.146828 0.566221 0.223358
O O3 0.127787 0.789311 0.300274
O O4 0.000000 0.778459 0.000000
O O5 0.500000 0.752311 0.500000
O O6 0.518454 0.655205 0.684026
O O7 0.517007 0.921395 0.655083
O O8 0.105148 0.170139 0.946846
O O9 0.076010 0.432851 0.887170
O O10 0.934158 0.316391 0.835088
O O11 0.190988 0.356045 0.171328
O O12 0.176870 0.873737 0.518259
O O13 0.268824 0.069133 0.029583
O O14 0.058321 0.921643 0.826636
O O15 0.015619 0.660333 0.294796
#
# Coordination Sequence:
#
# PCOD9127164 Si02
#       7
#     4   4   4   4   4   4   4
#     4  12  25  45  72  99 134 186 230 285 339 407
#     4  11  27  45  69 102 141 181 231 279 340 410
#     4  10  22  44  67  92 135 170 223 272 344 401
#     4  11  22  41  70  97 128 173 221 290 333 403
#     4  11  25  43  68 101 136 183 222 280 345 407
#     4  11  24  45  67  94 144 180 218 282 341 410
#     4  12  24  42  71 100 132 174 234 275 347 397
#
# _framework density 19.460947000000001
#
# number of rings (size 3 to 8) (size 9 to 14) (size 15 to 20)
#    0.000    0.857    4.286    3.429    6.000    1.143 
#    2.571    2.143    0.000    0.000    0.000    0.000 
#    0.000    0.000    0.000    0.000    0.000    0.000 
#
# Total GULP energy -78246.058229 kJ/mol
# GULP energy per Si atom -5589.004159 kJ/mol
# Density = 1.941665 g / cm^3
# Si number density = 19.460947 Si / 1000 Ang^3
#
#
#
# Elastic Constant Matrix: (Units=GPa)
#
#
# Indices 1 2 3 4 5 6 
#
# 1 94.3640 11.9751 29.8649 0.0000 -4.1334 0.0000
# 2 11.9751 67.7146 1.7898 0.0000 -8.0265 0.0000
# 3 29.8649 1.7898 103.2432 0.0000 3.4453 0.0000
# 4 0.0000 0.0000 0.0000 6.2077 0.0000 -4.1497
# 5 -4.1334 -8.0265 3.4453 0.0000 43.1487 0.0000
# 6 0.0000 0.0000 0.0000 -4.1497 0.0000 4.3130
#
#
#
# Elastic Compliance Matrix: (Units=1/GPa)
#
#
# Indices 1 2 3 4 5 6 
#
# 1 0.011983 -0.001901 -0.003469 0.000000 0.001071 0.000000
# 2 -0.001901 0.015415 0.000193 0.000000 0.002670 0.000000
# 3 -0.003469 0.000193 0.010725 0.000000 -0.001153 0.000000
# 4 0.000000 0.000000 0.000000 0.451438 0.000000 0.434346
# 5 0.001071 0.002670 -0.001153 0.000000 0.023867 0.000000
# 6 0.000000 0.000000 0.000000 0.434346 0.000000 0.649759
#
#
# Mechanical properties :
#
#
# Convention : Reuss Voigt Hill
#
# Bulk Modulus (GPa) = 36.00932 39.17571 37.59251
# Shear Modulus (GPa) = 4.22727 25.51335 14.87031
#
# Velocity S-wave (km/s) = 1.47543 3.62470 2.76725
# Velocity P-wave (km/s) = 4.63099 6.13939 5.43775
#
# Compressibility (1/GPa) = 0.02777059
#
# Stress axis : x y z
#
# Youngs Moduli (GPa) = 83.44926 64.87041 93.24438
#
# Poissons Ratio (x) = 0.12329 0.32348
# Poissons Ratio (y) = 0.15860 -0.01804
# Poissons Ratio (z) = 0.28950 -0.01255
#
# Static dielectric constant tensor:
#      x y z
#    x 1.654250 0.000000 -0.018100 
#    y 0.000000 1.655220 0.000000 
#    z -0.018100 0.000000 1.684750 
# 
# From -- ./inp_files/29162.got.cif
#   From: 2010.05.17/outbox.cif.g08.bks.cpg/sg5_15_cif.got.tgz:29162.got - 2010.06.03 18:56:24.
