data_PCOD9127931
_publ_section_title
;
Structure prediction by ZEFSAII (Michael W. Deem and Ramdas Pophale) SiO2 
 PCOD9127931
Probable space group: C 2
;
_chemical_formula_sum "Si O2"
_cell_formula_units_Z 24
_cell_length_a 16.605096
_cell_length_b 10.356283
_cell_length_c 16.754583
_cell_angle_alpha 90.000000
_cell_angle_beta 156.411390
_cell_angle_gamma 90.000000
_cell_volume 1152.975400
_symmetry_space_group_name_H-M "C 2"
_symmetry_group_IT_number 5
_symmetry_cell_setting 'monoclinic'
loop_
_space_group_symop_operation_xyz
x,y,z
-x,y,-z
1/2+x,1/2+y,z
1/2-x,1/2+y,-z
loop_
_atom_site_type_symbol
_atom_site_label
_atom_site_fract_x
_atom_site_fract_y
_atom_site_fract_z
Si Si1 0.654807 0.685910 0.889011
Si Si2 0.369556 0.826482 0.517377
Si Si3 0.000000 0.132147 0.500000
Si Si4 0.980086 0.782191 0.675825
Si Si5 0.500000 0.760785 0.000000
Si Si6 0.729470 0.479512 0.828658
Si Si7 0.213627 0.104180 0.332261
O O1 0.559186 0.804742 0.750439
O O2 0.767325 0.587339 0.930446
O O3 0.473144 0.618640 0.774180
O O4 0.816804 0.734889 0.098715
O O5 0.411324 0.721277 0.488341
O O6 0.181894 0.792697 0.402127
O O7 0.307283 0.960858 0.419356
O O8 0.821668 0.047952 0.300635
O O9 0.893894 0.689459 0.530620
O O10 0.021978 0.917349 0.671557
O O11 0.378857 0.861307 0.946804
O O12 0.363919 0.667576 0.820702
#
# Coordination Sequence:
#
# PCOD9127931 Si02
#       7
#     4   4   2   4   2   4   4
#     4  10  23  44  67 102 125 179 230 269 333 400
#     4  10  24  44  67  97 137 174 222 276 330 405
#     4  10  24  46  64 100 132 176 218 278 342 378
#     4  11  23  41  73  95 129 183 220 277 332 396
#     4  12  26  42  66 108 134 176 222 282 338 390
#     4  11  23  43  68  95 135 168 226 274 324 405
#     4  11  24  43  68  98 139 175 222 276 336 396
#
# _framework density 20.815708000000001
#
# number of rings (size 3 to 8) (size 9 to 14) (size 15 to 20)
#    0.000    1.333    3.333    1.000    4.667    1.333 
#    6.000    0.000    0.000    0.000    0.000    0.000 
#    0.000    0.000    0.000    0.000    0.000    0.000 
#
# Total GULP energy -66951.475843 kJ/mol
# GULP energy per Si atom -5579.289654 kJ/mol
# Density = 2.076833 g / cm^3
# Si number density = 20.815708 Si / 1000 Ang^3
#
#
#
# Elastic Constant Matrix: (Units=GPa)
#
#
# Indices 1 2 3 4 5 6 
#
# 1 68.9636 20.8537 39.6786 -0.0001 -12.2322 -0.0006
# 2 20.8537 107.5040 62.7790 0.0013 -23.0120 0.0006
# 3 39.6786 62.7790 129.1768 0.0004 -34.6098 -0.0001
# 4 -0.0001 0.0013 0.0004 35.4348 0.0006 11.4379
# 5 -12.2322 -23.0120 -34.6098 0.0006 33.3216 0.0004
# 6 -0.0006 0.0006 -0.0001 11.4379 0.0004 31.9372
#
#
#
# Elastic Compliance Matrix: (Units=1/GPa)
#
#
# Indices 1 2 3 4 5 6 
#
# 1 0.017652 -0.000271 -0.004994 0.000000 0.001106 0.000000
# 2 -0.000271 0.013267 -0.005454 0.000000 0.003398 0.000000
# 3 -0.004994 -0.005454 0.014446 0.000000 0.009404 0.000000
# 4 0.000000 0.000000 0.000000 0.031910 -0.000001 -0.011428
# 5 0.001106 0.003398 0.009404 -0.000001 0.042531 0.000000
# 6 0.000000 0.000000 0.000000 -0.011428 0.000000 0.035404
#
#
# Mechanical properties :
#
#
# Convention : Reuss Voigt Hill
#
# Bulk Modulus (GPa) = 41.79560 61.36300 51.57930
# Shear Modulus (GPa) = 27.08229 32.29425 29.68827
#
# Velocity S-wave (km/s) = 3.61092 3.94310 3.78066
# Velocity P-wave (km/s) = 6.12433 7.09041 6.62500
#
# Compressibility (1/GPa) = 0.02392596
#
# Stress axis : x y z
#
# Youngs Moduli (GPa) = 56.65134 75.37594 69.22548
#
# Poissons Ratio (x) = 0.02043 0.34572
# Poissons Ratio (y) = 0.01536 0.37755
# Poissons Ratio (z) = 0.28292 0.41110
#
# Static dielectric constant tensor:
#      x y z
#    x 1.757320 0.000000 0.020820 
#    y 0.000000 1.780510 0.000000 
#    z 0.020820 0.000000 1.725180 
# 
# From -- ./inp_files/62429.got.cif
#   From: 2010.05.17/outbox.cif.g08.bks.cpg/sg5_32_cif.got.tgz:62429.got - 2010.06.03 18:56:24.
