data_PCOD9127846
_publ_section_title
;
Structure prediction by ZEFSAII (Michael W. Deem and Ramdas Pophale) SiO2 
 PCOD9127846
Probable space group: C 2
;
_chemical_formula_sum "Si O2"
_cell_formula_units_Z 28
_cell_length_a 14.035554
_cell_length_b 11.990030
_cell_length_c 7.798122
_cell_angle_alpha 90.000000
_cell_angle_beta 117.865291
_cell_angle_gamma 90.000000
_cell_volume 1160.155382
_symmetry_space_group_name_H-M "C 2"
_symmetry_group_IT_number 5
_symmetry_cell_setting 'monoclinic'
loop_
_space_group_symop_operation_xyz
x,y,z
-x,y,-z
1/2+x,1/2+y,z
1/2-x,1/2+y,-z
loop_
_atom_site_type_symbol
_atom_site_label
_atom_site_fract_x
_atom_site_fract_y
_atom_site_fract_z
Si Si1 0.207566 0.947280 0.388187
Si Si2 0.511724 0.420845 0.700487
Si Si3 0.742816 0.152410 0.824851
Si Si4 0.531859 0.648996 0.842605
Si Si5 0.761920 0.904335 0.203255
Si Si6 0.069657 0.352051 0.398168
Si Si7 0.937434 0.540346 0.113327
O O1 0.215707 0.971072 0.601375
O O2 0.307899 0.865308 0.443467
O O3 0.090471 0.889133 0.270178
O O4 0.229124 0.055146 0.287951
O O5 0.500000 0.371034 0.500000
O O6 0.498158 0.554726 0.683278
O O7 0.638201 0.408365 0.846443
O O8 0.741963 0.275348 0.745523
O O9 0.631014 0.123443 0.825812
O O10 0.839838 0.161989 0.045224
O O11 0.462961 0.760518 0.768062
O O12 0.500000 0.600059 0.000000
O O13 0.653276 0.951942 0.029816
O O14 0.000000 0.315407 0.500000
O O15 0.024446 0.470833 0.295872
O O16 0.000000 0.586929 0.000000
#
# Coordination Sequence:
#
# PCOD9127846 Si02
#       7
#     4   4   4   4   4   4   4
#     4  11  24  44  68 105 143 186 245 302 360 437
#     4  10  23  43  66 101 140 187 234 301 360 435
#     4  12  25  45  74 107 145 199 241 304 377 433
#     4  12  22  40  73 102 138 189 248 294 366 439
#     4  11  24  48  71 101 153 193 241 306 369 438
#     4  12  24  42  68 107 144 187 247 307 363 441
#     4  12  24  45  72 104 147 193 245 304 368 446
#
# _framework density 24.134699999999999
#
# number of rings (size 3 to 8) (size 9 to 14) (size 15 to 20)
#    0.000    0.571    7.143    1.714    0.000    0.000 
#    7.714    5.000    0.000    0.000    0.000    0.000 
#    0.000    0.000    0.000    0.000    0.000    0.000 
#
# Total GULP energy -78192.071815 kJ/mol
# GULP energy per Si atom -5585.147987 kJ/mol
# Density = 2.407977 g / cm^3
# Si number density = 24.134700 Si / 1000 Ang^3
#
#
#
# Elastic Constant Matrix: (Units=GPa)
#
#
# Indices 1 2 3 4 5 6 
#
# 1 195.6989 20.9429 32.7496 0.0000 18.8102 0.0000
# 2 20.9429 68.1059 21.8539 0.0000 -0.3337 0.0000
# 3 32.7496 21.8539 53.0509 0.0000 0.1197 0.0000
# 4 0.0000 0.0000 0.0000 33.5335 0.0000 -0.2117
# 5 18.8102 -0.3337 0.1197 0.0000 41.8227 0.0000
# 6 0.0000 0.0000 0.0000 -0.2117 0.0000 10.9476
#
#
#
# Elastic Compliance Matrix: (Units=1/GPa)
#
#
# Indices 1 2 3 4 5 6 
#
# 1 0.006020 -0.000777 -0.003390 0.000000 -0.002704 0.000000
# 2 -0.000777 0.017021 -0.006533 0.000000 0.000504 0.000000
# 3 -0.003390 -0.006533 0.023631 0.000000 0.001405 0.000000
# 4 0.000000 0.000000 0.000000 0.029825 0.000000 0.000577
# 5 -0.002704 0.000504 0.001405 0.000000 0.025127 0.000000
# 6 0.000000 0.000000 0.000000 0.000577 0.000000 0.091356
#
#
# Mechanical properties :
#
#
# Convention : Reuss Voigt Hill
#
# Bulk Modulus (GPa) = 39.57052 51.99429 45.78240
# Shear Modulus (GPa) = 22.44131 33.34804 27.89467
#
# Velocity S-wave (km/s) = 3.05263 3.72122 3.40338
# Velocity P-wave (km/s) = 5.37178 6.32878 5.86981
#
# Compressibility (1/GPa) = 0.02527134
#
# Stress axis : x y z
#
# Youngs Moduli (GPa) = 166.10457 58.75200 42.31730
#
# Poissons Ratio (x) = 0.04563 0.14348
# Poissons Ratio (y) = 0.12899 0.27647
# Poissons Ratio (z) = 0.56317 0.38384
#
# Static dielectric constant tensor:
#      x y z
#    x 2.046770 0.000000 -0.004920 
#    y 0.000000 1.873110 0.000000 
#    z -0.004920 0.000000 2.026410 
# 
# From -- ./inp_files/23941.got.cif
#   From: 2010.05.17/outbox.cif.g08.bks.cpg/sg5_12_cif.got.tgz:23941.got - 2010.06.03 18:56:24.
