data_PCOD9127320
_publ_section_title
;
Structure prediction by ZEFSAII (Michael W. Deem and Ramdas Pophale) SiO2 
 PCOD9127320
Probable space group: C 2
;
_chemical_formula_sum "Si O2"
_cell_formula_units_Z 28
_cell_length_a 8.122913
_cell_length_b 18.445596
_cell_length_c 8.043545
_cell_angle_alpha 90.000000
_cell_angle_beta 93.954469
_cell_angle_gamma 90.000000
_cell_volume 1202.310874
_symmetry_space_group_name_H-M "C 2"
_symmetry_group_IT_number 5
_symmetry_cell_setting 'monoclinic'
loop_
_space_group_symop_operation_xyz
x,y,z
-x,y,-z
1/2+x,1/2+y,z
1/2-x,1/2+y,-z
loop_
_atom_site_type_symbol
_atom_site_label
_atom_site_fract_x
_atom_site_fract_y
_atom_site_fract_z
Si Si1 0.480510 0.120860 0.694477
Si Si2 0.856517 0.052629 0.228208
Si Si3 0.283965 0.869691 0.088783
Si Si4 0.788073 0.031227 0.833099
Si Si5 0.648847 0.803484 0.583349
Si Si6 0.256869 0.391555 0.284754
Si Si7 0.967463 0.774391 0.779215
O O1 0.500000 0.128801 0.500000
O O2 0.288125 0.103629 0.714453
O O3 0.609273 0.058823 0.762723
O O4 0.533789 0.193666 0.795717
O O5 0.054528 0.063252 0.256300
O O6 0.819919 0.973314 0.300859
O O7 0.819247 0.050698 0.027803
O O8 0.397039 0.834977 0.238968
O O9 0.143706 0.807146 0.079258
O O10 0.211001 0.943350 0.163857
O O11 0.330893 0.887902 0.904202
O O12 0.500000 0.756354 0.500000
O O13 0.672317 0.866785 0.449142
O O14 0.824583 0.767667 0.626172
O O15 0.405381 0.334520 0.271779
#
# Coordination Sequence:
#
# PCOD9127320 Si02
#       7
#     4   4   4   4   4   4   4
#     4  12  27  43  66 102 142 182 228 275 349 409
#     4  10  23  42  68  99 132 179 225 282 342 404
#     4   9  22  39  70  99 127 173 229 275 338 405
#     4  10  22  45  67  97 136 174 229 284 335 409
#     4  10  23  38  63  96 134 167 223 279 331 395
#     4  11  20  41  71  94 132 176 222 280 338 400
#     4  10  23  46  66  94 131 182 224 274 339 407
#
# _framework density 23.288485999999999
#
# number of rings (size 3 to 8) (size 9 to 14) (size 15 to 20)
#    0.857    0.857    1.429    2.143    4.000    3.429 
#    5.143    0.000    0.000    0.000    0.000    0.000 
#    0.000    0.000    0.000    0.000    0.000    0.000 
#
# Total GULP energy -78035.143941 kJ/mol
# GULP energy per Si atom -5573.938853 kJ/mol
# Density = 2.323548 g / cm^3
# Si number density = 23.288486 Si / 1000 Ang^3
#
#
#
# Elastic Constant Matrix: (Units=GPa)
#
#
# Indices 1 2 3 4 5 6 
#
# 1 76.7480 9.5276 0.7946 0.0000 1.6496 0.0000
# 2 9.5276 90.1833 -6.2082 0.0000 -13.2246 0.0000
# 3 0.7946 -6.2082 32.3385 0.0000 7.9384 0.0000
# 4 0.0000 0.0000 0.0000 17.5970 0.0000 -20.6626
# 5 1.6496 -13.2246 7.9384 0.0000 38.0190 0.0000
# 6 0.0000 0.0000 0.0000 -20.6626 0.0000 -17.6363
#
#
#
# Elastic Compliance Matrix: (Units=1/GPa)
#
#
# Indices 1 2 3 4 5 6 
#
# 1 0.013252 -0.001579 -0.000372 0.000000 -0.001047 0.000000
# 2 -0.001579 0.011926 0.001363 0.000000 0.003932 0.000000
# 3 -0.000372 0.001363 0.032752 0.000000 -0.006348 0.000000
# 4 0.000000 0.000000 0.000000 0.023920 0.000000 -0.028025
# 5 -0.001047 0.003932 -0.006348 0.000000 0.029041 0.000000
# 6 0.000000 0.000000 0.000000 -0.028025 0.000000 -0.023867
#
#
# Mechanical properties :
#
#
# Convention : Reuss Voigt Hill
#
# Bulk Modulus (GPa) = 17.61990 23.05532 20.33761
# Shear Modulus (GPa) = 46.67722 20.60632 33.64177
#
# Velocity S-wave (km/s) = 4.48180 2.97783 3.80487
# Velocity P-wave (km/s) = 5.86212 4.66312 5.29666
#
# Compressibility (1/GPa) = 0.05675400
#
# Stress axis : x y z
#
# Youngs Moduli (GPa) = 75.46014 83.85181 30.53240
#
# Poissons Ratio (x) = 0.13241 0.01135
# Poissons Ratio (y) = 0.11916 -0.04162
# Poissons Ratio (z) = 0.02806 -0.11429
#
# Static dielectric constant tensor:
#      x y z
#    x 2.075180 0.000000 0.039380 
#    y 0.000000 1.844130 0.000000 
#    z 0.039380 0.000000 1.920090 
# 
# From -- ./inp_files/16189.got.cif
#   From: 2010.05.17/outbox.cif.g08.bks.cpg/sg5_9_cif.got.tgz:16189.got - 2010.06.03 18:56:24.
