data_PCOD9127878
_publ_section_title
;
Structure prediction by ZEFSAII (Michael W. Deem and Ramdas Pophale) SiO2 
 PCOD9127878
Probable space group: C 2
;
_chemical_formula_sum "Si O2"
_cell_formula_units_Z 24
_cell_length_a 11.653131
_cell_length_b 10.988128
_cell_length_c 23.456815
_cell_angle_alpha 90.000000
_cell_angle_beta 158.023645
_cell_angle_gamma 90.000000
_cell_volume 1124.001613
_symmetry_space_group_name_H-M "C 2"
_symmetry_group_IT_number 5
_symmetry_cell_setting 'monoclinic'
loop_
_space_group_symop_operation_xyz
x,y,z
-x,y,-z
1/2+x,1/2+y,z
1/2-x,1/2+y,-z
loop_
_atom_site_type_symbol
_atom_site_label
_atom_site_fract_x
_atom_site_fract_y
_atom_site_fract_z
Si Si1 0.170957 0.570930 0.327669
Si Si2 0.787947 0.429846 0.228464
Si Si3 0.743257 0.986272 0.156624
Si Si4 0.637516 0.720358 0.321959
Si Si5 0.241354 0.346901 0.659303
Si Si6 0.430882 0.882681 0.126175
O O1 0.500000 0.521678 0.500000
O O2 0.250623 0.701261 0.337474
O O3 0.923722 0.556031 0.265288
O O4 0.028661 0.490260 0.213094
O O5 0.829737 0.413930 0.314848
O O6 0.994784 0.327820 0.293920
O O7 0.435674 0.395563 0.051426
O O8 0.597210 0.920422 0.143983
O O9 0.922702 0.883688 0.205068
O O10 0.500000 0.038921 0.000000
O O11 0.981198 0.096929 0.273059
O O12 0.541313 0.761088 0.212143
O O13 0.000000 0.714088 0.500000
O O14 0.000000 0.383989 0.500000
#
# Coordination Sequence:
#
# PCOD9127878 Si02
#       6
#     4   4   4   4   4   4
#     4  10  23  43  69  98 130 177 225 279 337 400
#     4  11  22  45  69  98 135 175 229 277 340 402
#     4  12  25  45  65 101 138 175 226 278 344 404
#     4  11  25  45  72  99 134 182 226 285 338 401
#     4  11  26  43  64 100 137 175 223 280 334 408
#     4  11  23  44  71  98 134 176 227 281 336 409
#
# _framework density 21.352283
#
# number of rings (size 3 to 8) (size 9 to 14) (size 15 to 20)
#    0.000    1.000    1.667    6.500    4.667    2.667 
#    6.000    0.000    0.000    0.000    0.000    0.000 
#    0.000    0.000    0.000    0.000    0.000    0.000 
#
# Total GULP energy -66951.397032 kJ/mol
# GULP energy per Si atom -5579.283086 kJ/mol
# Density = 2.130368 g / cm^3
# Si number density = 21.352283 Si / 1000 Ang^3
#
#
#
# Elastic Constant Matrix: (Units=GPa)
#
#
# Indices 1 2 3 4 5 6 
#
# 1 128.4645 -45.7182 55.0900 0.0059 23.6753 -0.0050
# 2 -45.7182 -94.8989 96.9443 0.0124 62.1700 -0.0062
# 3 55.0900 96.9443 35.9041 -0.0089 -43.8850 0.0046
# 4 0.0059 0.0124 -0.0089 23.9088 -0.0142 9.0368
# 5 23.6753 62.1700 -43.8850 -0.0142 6.6998 0.0018
# 6 -0.0050 -0.0062 0.0046 9.0368 0.0018 15.9606
#
#
#
# Elastic Compliance Matrix: (Units=1/GPa)
#
#
# Indices 1 2 3 4 5 6 
#
# 1 0.006725 -0.003094 -0.000582 0.000000 0.001131 0.000001
# 2 -0.003094 0.004376 0.006186 0.000010 0.010844 -0.000008
# 3 -0.000582 0.006186 0.007936 -0.000003 -0.003361 0.000002
# 4 0.000000 0.000010 -0.000003 0.053213 0.000007 -0.030129
# 5 0.001131 0.010844 -0.003361 0.000007 0.022625 -0.000001
# 6 0.000001 -0.000008 0.000002 -0.030129 -0.000001 0.079713
#
#
# Mechanical properties :
#
#
# Convention : Reuss Voigt Hill
#
# Bulk Modulus (GPa) = 41.57060 31.34464 36.45762
# Shear Modulus (GPa) = 28.15533 6.85743 17.50638
#
# Velocity S-wave (km/s) = 3.63521 1.79403 2.86647
# Velocity P-wave (km/s) = 6.09351 4.35925 5.29782
#
# Compressibility (1/GPa) = 0.02405546
#
# Stress axis : x y z
#
# Youngs Moduli (GPa) = 148.70799 228.52030 126.01134
#
# Poissons Ratio (x) = 0.70699 0.07339
# Poissons Ratio (y) = 0.46007 -0.77947
# Poissons Ratio (z) = 0.08661 -1.41356
#
# Static dielectric constant tensor:
#      x y z
#    x 1.748770 0.000000 -0.093870 
#    y 0.000000 1.863470 0.000000 
#    z -0.093870 0.000000 1.869550 
# 
# From -- ./inp_files/68410.got.cif
#   From: 2010.05.17/outbox.cif.g08.bks.cpg/sg5_35_cif.got.tgz:68410.got - 2010.06.03 18:56:24.
