data_PCOD9127616
_publ_section_title
;
Structure prediction by ZEFSAII (Michael W. Deem and Ramdas Pophale) SiO2 
 PCOD9127616
Probable space group: C 2
;
_chemical_formula_sum "Si O2"
_cell_formula_units_Z 16
_cell_length_a 5.019959
_cell_length_b 24.014870
_cell_length_c 5.177166
_cell_angle_alpha 90.000000
_cell_angle_beta 90.218601
_cell_angle_gamma 90.000000
_cell_volume 624.121782
_symmetry_space_group_name_H-M "C 2"
_symmetry_group_IT_number 5
_symmetry_cell_setting 'monoclinic'
loop_
_space_group_symop_operation_xyz
x,y,z
-x,y,-z
1/2+x,1/2+y,z
1/2-x,1/2+y,-z
loop_
_atom_site_type_symbol
_atom_site_label
_atom_site_fract_x
_atom_site_fract_y
_atom_site_fract_z
Si Si1 0.170556 0.767900 0.240905
Si Si2 0.186888 0.945211 0.251862
Si Si3 0.000000 0.660466 0.000000
Si Si4 0.184094 0.068092 0.253597
Si Si5 0.000000 0.347407 0.000000
O O1 0.448934 0.798432 0.218894
O O2 0.000000 0.772437 0.500000
O O3 0.809713 0.703928 0.849844
O O4 0.000000 0.797187 0.000000
O O5 0.382875 0.895171 0.195690
O O6 0.000000 0.936297 0.500000
O O7 0.314377 0.006749 0.269639
O O8 0.000000 0.945704 0.000000
O O9 0.876526 0.619475 0.209467
O O10 0.000000 0.074733 0.500000
O O11 0.000000 0.068038 0.000000
#
# Coordination Sequence:
#
# PCOD9127616 Si02
#       5
#     4   4   2   4   2
#     4  10  26  41  58  92 124 156 210 244 289 363
#     4  10  23  42  62  94 121 152 206 250 296 366
#     4  10  25  40  64  88 127 156 206 244 298 362
#     4  10  23  40  65  91 121 158 198 250 305 354
#     4  12  23  42  68  84 125 168 192 252 312 338
#
# _framework density 25.636023000000002
#
# number of rings (size 3 to 8) (size 9 to 14) (size 15 to 20)
#    0.750    1.000    0.000    2.250    5.250    4.000 
#    0.000    7.500    0.000    0.000    0.000    0.000 
#    0.000    0.000    0.000    0.000    0.000    0.000 
#
# Total GULP energy -44553.221168 kJ/mol
# GULP energy per Si atom -5569.152646 kJ/mol
# Density = 2.557767 g / cm^3
# Si number density = 25.636023 Si / 1000 Ang^3
#
#
#
# Elastic Constant Matrix: (Units=GPa)
#
#
# Indices 1 2 3 4 5 6 
#
# 1 46.2116 50.9303 46.9173 0.0000 -11.7389 0.0000
# 2 50.9303 284.3718 73.7602 0.0000 -62.0575 0.0000
# 3 46.9173 73.7602 243.5113 0.0000 -42.2056 0.0000
# 4 0.0000 0.0000 0.0000 44.0534 0.0000 -45.5873
# 5 -11.7389 -62.0575 -42.2056 0.0000 61.2396 0.0000
# 6 0.0000 0.0000 0.0000 -45.5873 0.0000 21.1019
#
#
#
# Elastic Compliance Matrix: (Units=1/GPa)
#
#
# Indices 1 2 3 4 5 6 
#
# 1 0.031463 -0.004846 -0.004997 0.000000 -0.002323 0.000000
# 2 -0.004846 0.005355 0.000104 0.000000 0.004569 0.000000
# 3 -0.004997 0.000104 0.005554 0.000000 0.002975 0.000000
# 4 0.000000 0.000000 0.000000 -0.018372 0.000000 -0.039690
# 5 -0.002323 0.004569 0.002975 0.000000 0.022564 0.000000
# 6 0.000000 0.000000 0.000000 -0.039690 0.000000 -0.038354
#
#
# Mechanical properties :
#
#
# Convention : Reuss Voigt Hill
#
# Bulk Modulus (GPa) = 43.68153 101.92336 72.80244
# Shear Modulus (GPa) = 141.57097 52.11142 96.84120
#
# Velocity S-wave (km/s) = 7.43931 4.51349 6.15284
# Velocity P-wave (km/s) = 9.53243 8.18573 8.88463
#
# Compressibility (1/GPa) = 0.02289297
#
# Stress axis : x y z
#
# Youngs Moduli (GPa) = 31.78296 186.75795 180.06627
#
# Poissons Ratio (x) = 0.90502 0.89977
# Poissons Ratio (y) = 0.15402 -0.01865
# Poissons Ratio (z) = 0.15882 -0.01935
#
# Static dielectric constant tensor:
#      x y z
#    x 2.026240 0.000000 0.035370 
#    y 0.000000 1.978980 0.000000 
#    z 0.035370 0.000000 1.862410 
# 
# From -- ./inp_files/753.got.cif
#   From: 2010.05.17/outbox.cif.g08.bks.cpg/sg5_1_cif.got.tgz:753.got - 2010.06.03 18:56:24.
