data_PCOD9127776
_publ_section_title
;
Structure prediction by ZEFSAII (Michael W. Deem and Ramdas Pophale) SiO2 
 PCOD9127776
Probable space group: C 2
;
_chemical_formula_sum "Si O2"
_cell_formula_units_Z 16
_cell_length_a 23.988307
_cell_length_b 5.128433
_cell_length_c 10.437746
_cell_angle_alpha 90.000000
_cell_angle_beta 31.622929
_cell_angle_gamma 90.000000
_cell_volume 673.275783
_symmetry_space_group_name_H-M "C 2"
_symmetry_group_IT_number 5
_symmetry_cell_setting 'monoclinic'
loop_
_space_group_symop_operation_xyz
x,y,z
-x,y,-z
1/2+x,1/2+y,z
1/2-x,1/2+y,-z
loop_
_atom_site_type_symbol
_atom_site_label
_atom_site_fract_x
_atom_site_fract_y
_atom_site_fract_z
Si Si1 0.370671 0.322450 0.356330
Si Si2 0.678318 0.985197 0.151312
Si Si3 0.496278 0.028609 0.303842
Si Si4 0.630447 0.817863 0.823871
O O1 0.381617 0.573504 0.245970
O O2 0.250157 0.319045 0.644501
O O3 0.453864 0.275479 0.306525
O O4 0.378422 0.075154 0.246185
O O5 0.592057 0.078018 0.214580
O O6 0.606336 0.929349 0.417689
O O7 0.760685 0.222094 0.007068
O O8 0.546196 0.835877 0.101694
#
# Coordination Sequence:
#
# PCOD9127776 Si02
#       4
#     4   4   4   4
#     4  10  23  42  67 103 143 180 224 282 345 417
#     4  11  28  49  72 104 140 185 242 301 348 406
#     4  11  25  46  76 102 141 191 236 286 356 423
#     4  10  23  42  67 103 143 180 224 282 345 417
#
# _framework density 23.764408
#
# number of rings (size 3 to 8) (size 9 to 14) (size 15 to 20)
#    0.000    1.500    0.000    2.250    0.000   22.000 
#    0.000    5.000    0.000    0.000    0.000    0.000 
#    0.000    0.000    0.000    0.000    0.000    0.000 
#
# Total GULP energy -44804.485837 kJ/mol
# GULP energy per Si atom -5600.560730 kJ/mol
# Density = 2.371032 g / cm^3
# Si number density = 23.764408 Si / 1000 Ang^3
#
#
#
# Elastic Constant Matrix: (Units=GPa)
#
#
# Indices 1 2 3 4 5 6 
#
# 1 48.0104 18.1571 78.9979 0.0004 6.2081 0.0000
# 2 18.1571 146.7314 72.8776 -0.0014 12.0671 0.0017
# 3 78.9979 72.8776 230.1423 -0.0001 5.2020 0.0000
# 4 0.0004 -0.0014 -0.0001 42.2513 -0.0004 4.1875
# 5 6.2081 12.0671 5.2020 -0.0004 40.0538 0.0002
# 6 0.0000 0.0017 0.0000 4.1875 0.0002 35.3531
#
#
#
# Elastic Compliance Matrix: (Units=1/GPa)
#
#
# Indices 1 2 3 4 5 6 
#
# 1 0.050319 0.003334 -0.018182 0.000000 -0.006442 0.000000
# 2 0.003334 0.008490 -0.003774 0.000000 -0.002584 0.000000
# 3 -0.018182 -0.003774 0.011727 0.000000 0.002432 0.000000
# 4 0.000000 0.000000 0.000000 0.023949 0.000000 -0.002837
# 5 -0.006442 -0.002584 0.002432 0.000000 0.026428 0.000000
# 6 0.000000 0.000000 0.000000 -0.002837 0.000000 0.028622
#
#
# Mechanical properties :
#
#
# Convention : Reuss Voigt Hill
#
# Bulk Modulus (GPa) = 30.03951 84.99438 57.51695
# Shear Modulus (GPa) = 25.26830 40.52173 32.89502
#
# Velocity S-wave (km/s) = 3.26434 4.13382 3.72454
# Velocity P-wave (km/s) = 5.18420 7.65687 6.53848
#
# Compressibility (1/GPa) = 0.03328949
#
# Stress axis : x y z
#
# Youngs Moduli (GPa) = 19.87324 117.78860 85.27623
#
# Poissons Ratio (x) = -0.39269 1.55053
# Poissons Ratio (y) = -0.06625 0.32186
# Poissons Ratio (z) = 0.36134 0.44458
#
# Static dielectric constant tensor:
#      x y z
#    x 1.927170 0.000000 -0.035370 
#    y 0.000000 1.850400 0.000000 
#    z -0.035370 0.000000 1.931130 
# 
# From -- ./inp_files/47666.got.cif
#   From: 2010.05.17/outbox.cif.g08.bks.cpg/sg5_24_cif.got.tgz:47666.got - 2010.06.03 18:56:24.
