data_PCOD9127145
_publ_section_title
;
Structure prediction by ZEFSAII (Michael W. Deem and Ramdas Pophale) SiO2 
 PCOD9127145
Probable space group: C 2
;
_chemical_formula_sum "Si O2"
_cell_formula_units_Z 24
_cell_length_a 22.840135
_cell_length_b 5.485352
_cell_length_c 21.676737
_cell_angle_alpha 90.000000
_cell_angle_beta 22.023907
_cell_angle_gamma 90.000000
_cell_volume 1018.405509
_symmetry_space_group_name_H-M "C 2"
_symmetry_group_IT_number 5
_symmetry_cell_setting 'monoclinic'
loop_
_space_group_symop_operation_xyz
x,y,z
-x,y,-z
1/2+x,1/2+y,z
1/2-x,1/2+y,-z
loop_
_atom_site_type_symbol
_atom_site_label
_atom_site_fract_x
_atom_site_fract_y
_atom_site_fract_z
Si Si1 0.557547 0.336870 0.169131
Si Si2 0.672793 0.842316 0.182116
Si Si3 0.073146 0.337610 0.761775
Si Si4 0.065960 0.973414 0.582221
Si Si5 0.390131 0.219131 0.654460
Si Si6 0.609138 0.001798 0.944338
O O1 0.467518 0.574571 0.228513
O O2 0.532386 0.347559 0.266595
O O3 0.494960 0.077215 0.206329
O O4 0.734635 0.366156 0.972019
O O5 0.495349 0.748946 0.348447
O O6 0.667828 0.071287 0.230568
O O7 0.781388 0.661045 0.117450
O O8 0.257408 0.392696 0.582978
O O9 0.997480 0.349771 0.903965
O O10 0.009472 0.910044 0.568681
O O11 0.500000 0.074892 0.500000
O O12 0.232929 0.342249 0.784651
O O13 0.500000 0.131311 0.000000
#
# Coordination Sequence:
#
# PCOD9127145 Si02
#       6
#     4   4   4   4   4   4
#     4  11  25  45  71 101 147 180 241 284 358 421
#     4  10  25  42  65 103 135 187 229 298 353 422
#     4  11  24  45  68 107 139 185 237 292 348 422
#     4  11  26  41  72  98 140 184 234 292 357 416
#     4  11  24  43  65 100 137 178 237 289 353 424
#     4  10  22  44  66  93 137 183 236 285 358 417
#
# _framework density 23.566251000000001
#
# number of rings (size 3 to 8) (size 9 to 14) (size 15 to 20)
#    0.000    1.333    1.667    2.000    7.000    4.667 
#    3.000    0.000    0.000    0.000    0.000    0.000 
#    0.000    0.000    0.000    0.000    0.000    0.000 
#
# Total GULP energy -66970.272422 kJ/mol
# GULP energy per Si atom -5580.856035 kJ/mol
# Density = 2.351261 g / cm^3
# Si number density = 23.566251 Si / 1000 Ang^3
#
#
#
# Elastic Constant Matrix: (Units=GPa)
#
#
# Indices 1 2 3 4 5 6 
#
# 1 86.0074 22.4791 28.8903 0.0040 -4.1825 -0.0037
# 2 22.4791 74.3723 25.6227 0.0004 -21.0403 0.0090
# 3 28.8903 25.6227 148.4935 0.0055 -0.8868 -0.0013
# 4 0.0040 0.0004 0.0055 31.5327 0.0045 -1.9360
# 5 -4.1825 -21.0403 -0.8868 0.0045 32.4039 -0.0045
# 6 -0.0037 0.0090 -0.0013 -1.9360 -0.0045 7.3776
#
#
#
# Elastic Compliance Matrix: (Units=1/GPa)
#
#
# Indices 1 2 3 4 5 6 
#
# 1 0.013166 -0.003475 -0.001965 -0.000001 -0.000611 0.000010
# 2 -0.003475 0.018621 -0.002468 -0.000002 0.011575 -0.000018
# 3 -0.001965 -0.002468 0.007533 -0.000001 -0.001650 0.000002
# 4 -0.000001 -0.000002 -0.000001 0.032232 -0.000005 0.008458
# 5 -0.000611 0.011575 -0.001650 -0.000005 0.038252 0.000007
# 6 0.000010 -0.000018 0.000002 0.008458 0.000007 0.137765
#
#
# Mechanical properties :
#
#
# Convention : Reuss Voigt Hill
#
# Bulk Modulus (GPa) = 42.54846 51.42862 46.98854
# Shear Modulus (GPa) = 18.43522 29.72156 24.07839
#
# Velocity S-wave (km/s) = 2.79995 3.55518 3.19992
# Velocity P-wave (km/s) = 5.34294 6.22276 5.79956
#
# Compressibility (1/GPa) = 0.02350261
#
# Stress axis : x y z
#
# Youngs Moduli (GPa) = 75.95518 53.70287 132.75487
#
# Poissons Ratio (x) = 0.18662 0.26093
# Poissons Ratio (y) = 0.26394 0.32762
# Poissons Ratio (z) = 0.14929 0.13253
#
# Static dielectric constant tensor:
#      x y z
#    x 1.928680 -0.000010 0.021410 
#    y -0.000010 1.974820 0.000010 
#    z 0.021410 0.000010 1.881730 
# 
# From -- ./inp_files/69855.got.cif
#   From: 2010.05.17/outbox.cif.g08.bks.cpg/sg5_35_cif.got.tgz:69855.got - 2010.06.03 18:56:24.
