data_PCOD9127473
_publ_section_title
;
Structure prediction by ZEFSAII (Michael W. Deem and Ramdas Pophale) SiO2 
 PCOD9127473
Probable space group: C 2
;
_chemical_formula_sum "Si O2"
_cell_formula_units_Z 20
_cell_length_a 8.901551
_cell_length_b 7.259616
_cell_length_c 14.050314
_cell_angle_alpha 90.000000
_cell_angle_beta 69.097049
_cell_angle_gamma 90.000000
_cell_volume 848.200969
_symmetry_space_group_name_H-M "C 2"
_symmetry_group_IT_number 5
_symmetry_cell_setting 'monoclinic'
loop_
_space_group_symop_operation_xyz
x,y,z
-x,y,-z
1/2+x,1/2+y,z
1/2-x,1/2+y,-z
loop_
_atom_site_type_symbol
_atom_site_label
_atom_site_fract_x
_atom_site_fract_y
_atom_site_fract_z
Si Si1 0.302131 0.798770 0.270093
Si Si2 0.489646 0.081693 0.892645
Si Si3 0.458144 0.303045 0.403568
Si Si4 0.871243 0.996912 0.106919
Si Si5 0.634761 0.884378 0.531704
O O1 0.393899 0.969085 0.202743
O O2 0.866124 0.120243 0.201953
O O3 0.330462 0.789090 0.376352
O O4 0.110007 0.825568 0.302122
O O5 0.307451 0.033597 0.898098
O O6 0.562532 0.291225 0.882183
O O7 0.500000 0.017033 0.000000
O O8 0.500000 0.372917 0.500000
O O9 0.285827 0.391143 0.426614
O O10 0.424433 0.085936 0.424431
O O11 0.000000 0.065445 0.000000
O O12 0.500000 0.788360 0.500000
#
# Coordination Sequence:
#
# PCOD9127473 Si02
#       5
#     4   4   4   4   4
#     4  11  24  48  78 111 153 206 270 321 407 488
#     4  11  28  52  80 118 160 214 263 338 410 486
#     4   9  21  45  65 101 144 195 248 320 392 466
#     4  11  28  52  79 117 165 207 271 334 408 488
#     4  10  22  47  69 105 150 196 258 325 401 468
#
# _framework density 23.579318000000001
#
# number of rings (size 3 to 8) (size 9 to 14) (size 15 to 20)
#    0.000    1.600    0.000    1.800   11.200    2.400 
#   46.800    0.000    0.000    0.000    0.000    0.000 
#    0.000    0.000    0.000    0.000    0.000    0.000 
#
# Total GULP energy -55862.268879 kJ/mol
# GULP energy per Si atom -5586.226888 kJ/mol
# Density = 2.352565 g / cm^3
# Si number density = 23.579318 Si / 1000 Ang^3
#
#
#
# Elastic Constant Matrix: (Units=GPa)
#
#
# Indices 1 2 3 4 5 6 
#
# 1 145.2042 68.3432 74.2764 0.0000 -27.8633 0.0000
# 2 68.3432 135.1786 69.8037 0.0000 -9.9275 0.0000
# 3 74.2764 69.8037 197.1612 0.0000 -42.0489 0.0000
# 4 0.0000 0.0000 0.0000 80.8801 0.0000 9.2206
# 5 -27.8633 -9.9275 -42.0489 0.0000 56.3090 0.0000
# 6 0.0000 0.0000 0.0000 9.2206 0.0000 25.7413
#
#
#
# Elastic Compliance Matrix: (Units=1/GPa)
#
#
# Indices 1 2 3 4 5 6 
#
# 1 0.010297 -0.004056 -0.001795 0.000000 0.003040 0.000000
# 2 -0.004056 0.010693 -0.002716 0.000000 -0.002150 0.000000
# 3 -0.001795 -0.002716 0.007634 0.000000 0.004334 0.000000
# 4 0.000000 0.000000 0.000000 0.012890 0.000000 -0.004617
# 5 0.003040 -0.002150 0.004334 0.000000 0.022121 0.000000
# 6 0.000000 0.000000 0.000000 -0.004617 0.000000 0.040502
#
#
# Mechanical properties :
#
#
# Convention : Reuss Voigt Hill
#
# Bulk Modulus (GPa) = 87.03298 100.26560 93.64929
# Shear Modulus (GPa) = 39.96730 50.26080 45.11405
#
# Velocity S-wave (km/s) = 4.12152 4.62189 4.37886
# Velocity P-wave (km/s) = 7.72270 8.43194 8.08510
#
# Compressibility (1/GPa) = 0.01148990
#
# Stress axis : x y z
#
# Youngs Moduli (GPa) = 97.11182 93.51917 130.98940
#
# Poissons Ratio (x) = 0.37931 0.23513
# Poissons Ratio (y) = 0.39388 0.35582
# Poissons Ratio (z) = 0.17432 0.25403
#
# Static dielectric constant tensor:
#      x y z
#    x 1.990270 0.000000 -0.027410 
#    y 0.000000 1.927650 0.000000 
#    z -0.027410 0.000000 1.850110 
# 
# From -- ./inp_files/59290.got.cif
#   From: 2010.05.17/outbox.cif.g08.bks.cpg/sg5_30_cif.got.tgz:59290.got - 2010.06.03 18:56:24.
