data_PCOD9127657
_publ_section_title
;
Structure prediction by ZEFSAII (Michael W. Deem and Ramdas Pophale) SiO2 
 PCOD9127657
Probable space group: C 2
;
_chemical_formula_sum "Si O2"
_cell_formula_units_Z 28
_cell_length_a 17.796482
_cell_length_b 8.624214
_cell_length_c 14.954115
_cell_angle_alpha 90.000000
_cell_angle_beta 39.337330
_cell_angle_gamma 90.000000
_cell_volume 1454.872115
_symmetry_space_group_name_H-M "C 2"
_symmetry_group_IT_number 5
_symmetry_cell_setting 'monoclinic'
loop_
_space_group_symop_operation_xyz
x,y,z
-x,y,-z
1/2+x,1/2+y,z
1/2-x,1/2+y,-z
loop_
_atom_site_type_symbol
_atom_site_label
_atom_site_fract_x
_atom_site_fract_y
_atom_site_fract_z
Si Si1 0.357638 0.943890 0.646950
Si Si2 0.637877 0.993423 0.153244
Si Si3 0.537644 0.510385 0.561803
Si Si4 0.309527 0.349234 0.849381
Si Si5 0.127075 0.449561 0.671754
Si Si6 0.259269 0.283392 0.697682
Si Si7 0.776612 0.243354 0.565316
O O1 0.500000 0.953188 0.500000
O O2 0.341487 0.922424 0.767379
O O3 0.293743 0.812845 0.647771
O O4 0.298034 0.104883 0.668643
O O5 0.505952 0.954054 0.241400
O O6 0.653762 0.177549 0.152915
O O7 0.730990 0.930679 0.996087
O O8 0.500000 0.579230 0.500000
O O9 0.427717 0.443408 0.716163
O O10 0.628541 0.374823 0.448531
O O11 0.607658 0.635882 0.554148
O O12 0.242866 0.336004 0.815185
O O13 0.151549 0.337853 0.734088
O O14 0.212686 0.380384 0.515686
O O15 0.168451 0.624990 0.655212
#
# Coordination Sequence:
#
# PCOD9127657 Si02
#       7
#     4   4   4   4   4   4   4
#     4  11  20  39  64  91 121 161 207 259 302 368
#     4  11  25  40  65  90 126 167 211 255 308 365
#     4   9  19  36  62  90 117 159 207 258 301 360
#     4  10  23  41  62  89 126 167 211 253 306 370
#     4  11  24  38  60  97 123 164 201 261 317 364
#     4   9  20  40  63  89 124 162 201 254 319 361
#     4  11  23  35  63  92 128 153 208 262 316 365
#
# _framework density 19.245678000000002
#
# number of rings (size 3 to 8) (size 9 to 14) (size 15 to 20)
#    0.000    1.714    1.429    3.429    6.000    2.857 
#    0.000    0.000    0.000    0.000    0.000    0.000 
#    0.000    0.000    0.000    0.000    0.000    0.000 
#
# Total GULP energy -78181.989105 kJ/mol
# GULP energy per Si atom -5584.427793 kJ/mol
# Density = 1.920187 g / cm^3
# Si number density = 19.245678 Si / 1000 Ang^3
#
#
#
# Elastic Constant Matrix: (Units=GPa)
#
#
# Indices 1 2 3 4 5 6 
#
# 1 131.9584 57.1270 45.8509 0.0000 15.2345 0.0000
# 2 57.1270 76.0315 40.6131 0.0000 10.6622 0.0000
# 3 45.8509 40.6131 99.2101 0.0000 28.6137 0.0000
# 4 0.0000 0.0000 0.0000 17.5809 0.0000 9.3597
# 5 15.2345 10.6622 28.6137 0.0000 16.5499 0.0000
# 6 0.0000 0.0000 0.0000 9.3597 0.0000 38.6479
#
#
#
# Elastic Compliance Matrix: (Units=1/GPa)
#
#
# Indices 1 2 3 4 5 6 
#
# 1 0.011747 -0.007652 -0.001196 0.000000 -0.003816 0.000000
# 2 -0.007652 0.021856 -0.006744 0.000000 0.004623 0.000000
# 3 -0.001196 -0.006744 0.023581 0.000000 -0.035325 0.000000
# 4 0.000000 0.000000 0.000000 0.065299 0.000000 -0.015814
# 5 -0.003816 0.004623 -0.035325 0.000000 0.122032 0.000000
# 6 0.000000 0.000000 0.000000 -0.015814 0.000000 0.029704
#
#
# Mechanical properties :
#
#
# Convention : Reuss Voigt Hill
#
# Bulk Modulus (GPa) = 38.46140 66.04244 52.25192
# Shear Modulus (GPa) = 15.92001 25.46302 20.69151
#
# Velocity S-wave (km/s) = 2.87923 3.64132 3.28247
# Velocity P-wave (km/s) = 5.57504 7.21588 6.44787
#
# Compressibility (1/GPa) = 0.02600010
#
# Stress axis : x y z
#
# Youngs Moduli (GPa) = 85.12795 45.75383 42.40661
#
# Poissons Ratio (x) = 0.35012 0.05071
# Poissons Ratio (y) = 0.65143 0.28599
# Poissons Ratio (z) = 0.10180 0.30856
#
# Static dielectric constant tensor:
#      x y z
#    x 1.705870 0.000000 0.009710 
#    y 0.000000 1.701400 0.000000 
#    z 0.009710 0.000000 1.622690 
# 
# From -- ./inp_files/45987.got.cif
#   From: 2010.05.17/outbox.cif.g08.bks.cpg/sg5_23_cif.got.tgz:45987.got - 2010.06.03 18:56:24.
