data_PCOD9127258
_publ_section_title
;
Structure prediction by ZEFSAII (Michael W. Deem and Ramdas Pophale) SiO2 
 PCOD9127258
Probable space group: C 2
;
_chemical_formula_sum "Si O2"
_cell_formula_units_Z 22
_cell_length_a 11.713355
_cell_length_b 9.684500
_cell_length_c 14.870933
_cell_angle_alpha 90.000000
_cell_angle_beta 30.437244
_cell_angle_gamma 90.000000
_cell_volume 854.588492
_symmetry_space_group_name_H-M "C 2"
_symmetry_group_IT_number 5
_symmetry_cell_setting 'monoclinic'
loop_
_space_group_symop_operation_xyz
x,y,z
-x,y,-z
1/2+x,1/2+y,z
1/2-x,1/2+y,-z
loop_
_atom_site_type_symbol
_atom_site_label
_atom_site_fract_x
_atom_site_fract_y
_atom_site_fract_z
Si Si1 0.662205 0.467480 0.620252
Si Si2 0.254334 0.663309 0.166183
Si Si3 0.557819 0.228691 0.113429
Si Si4 0.641604 0.592375 0.318786
Si Si5 0.896190 0.371240 0.744594
Si Si6 0.000000 0.666940 0.500000
O O1 0.589039 0.345906 0.736389
O O2 0.443112 0.521504 0.715737
O O3 0.798936 0.580896 0.586407
O O4 0.848146 0.424536 0.418243
O O5 0.172301 0.657455 0.120515
O O6 0.241228 0.501390 0.200694
O O7 0.110836 0.740543 0.339301
O O8 0.500000 0.722742 0.000000
O O9 0.403308 0.117630 0.166002
O O10 0.745262 0.302981 0.924688
O O11 0.500000 0.540076 0.500000
O O12 0.570422 0.751350 0.350062
#
# Coordination Sequence:
#
# PCOD9127258 Si02
#       6
#     4   4   4   4   4   2
#     4  11  25  47  76 108 149 198 254 317 379 463
#     4  11  25  45  71 102 145 196 247 311 378 462
#     4  12  26  48  72 111 153 194 258 314 389 456
#     4  12  24  48  78 110 147 206 257 313 389 461
#     4  11  25  45  78 103 145 198 249 315 378 458
#     4  10  22  44  72  96 138 190 240 300 376 438
#
# _framework density 25.743385
#
# number of rings (size 3 to 8) (size 9 to 14) (size 15 to 20)
#    0.000    0.727    1.818    7.091    6.364    0.000 
#   11.455    0.000    0.000    0.000    0.000    0.000 
#    0.000    0.000    0.000    0.000    0.000    0.000 
#
# Total GULP energy -61494.971254 kJ/mol
# GULP energy per Si atom -5590.451932 kJ/mol
# Density = 2.568479 g / cm^3
# Si number density = 25.743385 Si / 1000 Ang^3
#
#
#
# Elastic Constant Matrix: (Units=GPa)
#
#
# Indices 1 2 3 4 5 6 
#
# 1 198.9562 25.8999 64.9906 -0.0032 -8.7141 0.0006
# 2 25.8999 34.5234 25.2617 -0.0096 2.5974 0.0014
# 3 64.9906 25.2617 186.5598 -0.0016 17.1437 -0.0012
# 4 -0.0032 -0.0096 -0.0016 24.0659 0.0004 4.1208
# 5 -8.7141 2.5974 17.1437 0.0004 45.8087 0.0007
# 6 0.0006 0.0014 -0.0012 4.1208 0.0007 28.2706
#
#
#
# Elastic Compliance Matrix: (Units=1/GPa)
#
#
# Indices 1 2 3 4 5 6 
#
# 1 0.006175 -0.003413 -0.001879 -0.000001 0.002072 0.000000
# 2 -0.003413 0.034040 -0.003297 0.000014 -0.001346 -0.000004
# 3 -0.001879 -0.003297 0.006708 -0.000001 -0.002681 0.000001
# 4 -0.000001 0.000014 -0.000001 0.042616 -0.000001 -0.006212
# 5 0.002072 -0.001346 -0.002681 -0.000001 0.023304 -0.000001
# 6 0.000000 -0.000004 0.000001 -0.006212 -0.000001 0.036278
#
#
# Mechanical properties :
#
#
# Convention : Reuss Voigt Hill
#
# Bulk Modulus (GPa) = 33.61985 72.48265 53.05125
# Shear Modulus (GPa) = 28.37457 39.88819 34.13138
#
# Velocity S-wave (km/s) = 3.32355 3.94058 3.64515
# Velocity P-wave (km/s) = 5.27408 6.99437 6.19424
#
# Compressibility (1/GPa) = 0.02974433
#
# Stress axis : x y z
#
# Youngs Moduli (GPa) = 161.93712 29.37712 149.08319
#
# Poissons Ratio (x) = 0.10028 0.28019
# Poissons Ratio (y) = 0.55276 0.49146
# Poissons Ratio (z) = 0.30434 0.09684
#
# Static dielectric constant tensor:
#      x y z
#    x 2.043500 0.000000 -0.036590 
#    y 0.000000 2.052180 0.000000 
#    z -0.036590 0.000000 2.045970 
# 
# From -- ./inp_files/52848.got.cif
#   From: 2010.05.17/outbox.cif.g08.bks.cpg/sg5_27_cif.got.tgz:52848.got - 2010.06.03 18:56:24.
