data_PCOD9127804
_publ_section_title
;
Structure prediction by ZEFSAII (Michael W. Deem and Ramdas Pophale) SiO2 
 PCOD9127804
Probable space group: C 2
;
_chemical_formula_sum "Si O2"
_cell_formula_units_Z 26
_cell_length_a 13.360824
_cell_length_b 9.384290
_cell_length_c 19.588111
_cell_angle_alpha 90.000000
_cell_angle_beta 26.289005
_cell_angle_gamma 90.000000
_cell_volume 1087.757445
_symmetry_space_group_name_H-M "C 2"
_symmetry_group_IT_number 5
_symmetry_cell_setting 'monoclinic'
loop_
_space_group_symop_operation_xyz
x,y,z
-x,y,-z
1/2+x,1/2+y,z
1/2-x,1/2+y,-z
loop_
_atom_site_type_symbol
_atom_site_label
_atom_site_fract_x
_atom_site_fract_y
_atom_site_fract_z
Si Si1 0.278180 0.123740 0.705530
Si Si2 0.603350 0.554607 0.666171
Si Si3 0.101095 0.468875 0.238761
Si Si4 0.162124 0.811555 0.526927
Si Si5 0.500000 0.991962 0.000000
Si Si6 0.350086 0.221439 0.014655
Si Si7 0.285007 0.737632 0.051581
O O1 0.253207 0.073682 0.642795
O O2 0.438941 0.261407 0.622381
O O3 0.364652 0.996317 0.701615
O O4 0.028395 0.169183 0.883404
O O5 0.703911 0.662703 0.547686
O O6 0.608946 0.401357 0.627154
O O7 0.365304 0.620785 0.835314
O O8 0.289044 0.361753 0.094500
O O9 0.147829 0.621578 0.177525
O O10 0.855888 0.404862 0.370574
O O11 0.657322 0.877756 0.941621
O O12 0.445336 0.113348 0.091358
O O13 0.343443 0.266088 0.940389
#
# Coordination Sequence:
#
# PCOD9127804 Si02
#       7
#     4   4   4   4   2   4   4
#     4  11  22  43  74  96 140 193 240 289 374 433
#     4  10  23  42  69  98 139 189 239 302 357 437
#     4  11  23  43  69 102 145 188 235 313 361 430
#     4  11  22  41  70 100 138 183 245 294 362 433
#     4  12  22  40  70  98 142 186 234 294 364 428
#     4  10  25  41  65 105 142 184 246 305 356 438
#     4  11  23  44  69 103 141 193 243 289 376 440
#
# _framework density 23.902388999999999
#
# number of rings (size 3 to 8) (size 9 to 14) (size 15 to 20)
#    0.000    1.231    3.077    2.308    2.154    0.000 
#    0.000    3.077   13.538    0.000    0.000    0.000 
#    0.000    0.000    0.000    0.000    0.000    0.000 
#
# Total GULP energy -72549.717509 kJ/mol
# GULP energy per Si atom -5580.747501 kJ/mol
# Density = 2.384799 g / cm^3
# Si number density = 23.902389 Si / 1000 Ang^3
#
#
#
# Elastic Constant Matrix: (Units=GPa)
#
#
# Indices 1 2 3 4 5 6 
#
# 1 166.5441 82.4195 36.7201 -0.0016 22.9139 -0.0004
# 2 82.4195 183.8440 23.5981 -0.0009 23.0298 -0.0004
# 3 36.7201 23.5981 67.6828 -0.0051 8.9648 -0.0002
# 4 -0.0016 -0.0009 -0.0051 27.4139 0.0016 -26.1771
# 5 22.9139 23.0298 8.9648 0.0016 28.3270 0.0001
# 6 -0.0004 -0.0004 -0.0002 -26.1771 0.0001 23.1548
#
#
#
# Elastic Compliance Matrix: (Units=1/GPa)
#
#
# Indices 1 2 3 4 5 6 
#
# 1 0.008705 -0.003048 -0.003189 -0.000001 -0.003554 -0.000001
# 2 -0.003048 0.007278 -0.000445 -0.000003 -0.003310 -0.000003
# 3 -0.003189 -0.000445 0.016983 -0.000040 -0.002433 -0.000045
# 4 -0.000001 -0.000003 -0.000040 -0.458727 0.000043 -0.518602
# 5 -0.003554 -0.003310 -0.002433 0.000043 0.041638 0.000048
# 6 -0.000001 -0.000003 -0.000045 -0.518602 0.000048 -0.543105
#
#
# Mechanical properties :
#
#
# Convention : Reuss Voigt Hill
#
# Bulk Modulus (GPa) = 51.02021 78.17183 64.59602
# Shear Modulus (GPa) = -5.51067 34.13468 14.31200
#
# Velocity S-wave (km/s) = -1.52003 3.78310 2.44963
# Velocity P-wave (km/s) = 4.27913 7.20126 5.92322
#
# Compressibility (1/GPa) = 0.01960008
#
# Stress axis : x y z
#
# Youngs Moduli (GPa) = 114.87693 137.40687 58.88392
#
# Poissons Ratio (x) = 0.41881 0.18780
# Poissons Ratio (y) = 0.35014 0.02622
# Poissons Ratio (z) = 0.36637 0.06119
#
# Static dielectric constant tensor:
#      x y z
#    x 2.047930 0.000000 -0.084590 
#    y 0.000000 1.887450 0.000000 
#    z -0.084590 0.000000 2.135830 
# 
# From -- ./inp_files/65868.got.cif
#   From: 2010.05.17/outbox.cif.g08.bks.cpg/sg5_33_cif.got.tgz:65868.got - 2010.06.03 18:56:24.
