data_PCOD9127099
_publ_section_title
;
Structure prediction by ZEFSAII (Michael W. Deem and Ramdas Pophale) SiO2 
 PCOD9127099
Probable space group: C 2
;
_chemical_formula_sum "Si O2"
_cell_formula_units_Z 26
_cell_length_a 13.889953
_cell_length_b 5.057902
_cell_length_c 19.483933
_cell_angle_alpha 90.000000
_cell_angle_beta 50.999214
_cell_angle_gamma 90.000000
_cell_volume 1063.764723
_symmetry_space_group_name_H-M "C 2"
_symmetry_group_IT_number 5
_symmetry_cell_setting 'monoclinic'
loop_
_space_group_symop_operation_xyz
x,y,z
-x,y,-z
1/2+x,1/2+y,z
1/2-x,1/2+y,-z
loop_
_atom_site_type_symbol
_atom_site_label
_atom_site_fract_x
_atom_site_fract_y
_atom_site_fract_z
Si Si1 0.850366 0.686100 0.769944
Si Si2 0.760659 0.202603 0.883908
Si Si3 0.747548 0.963345 0.688534
Si Si4 0.721069 0.724700 0.555184
Si Si5 0.500775 0.741153 0.141645
Si Si6 0.500000 0.447040 0.000000
Si Si7 0.906290 0.860532 0.299176
O O1 0.788415 0.401261 0.807383
O O2 0.835850 0.835095 0.704621
O O3 0.994512 0.644601 0.722202
O O4 0.789309 0.900570 0.850166
O O5 0.857506 0.301491 0.899439
O O6 0.618292 0.262436 0.963219
O O7 0.771293 0.805851 0.607274
O O8 0.612263 0.935686 0.788000
O O9 0.726340 0.253103 0.666002
O O10 0.707551 0.995732 0.518949
O O11 0.600787 0.563394 0.634233
O O12 0.487071 0.636562 0.071399
O O13 0.465836 0.505211 0.208574
#
# Coordination Sequence:
#
# PCOD9127099 Si02
#       7
#     4   4   4   4   4   2   4
#     4  11  24  43  71 100 131 180 237 280 337 421
#     4  11  25  44  65  99 138 180 234 291 348 405
#     4  11  21  42  74  96 134 183 229 274 345 415
#     4  11  23  41  71 101 136 175 215 278 349 407
#     4  10  23  42  66  99 135 186 235 284 345 411
#     4  12  24  46  68 102 148 184 238 300 356 412
#     4  10  22  43  72  96 137 184 227 284 344 417
#
# _framework density 24.441493000000001
#
# number of rings (size 3 to 8) (size 9 to 14) (size 15 to 20)
#    0.000    1.231    4.615    0.923    2.154    3.077 
#    5.538    0.769    6.769    0.000    0.000    0.000 
#    0.000    0.000    0.000    0.000    0.000    0.000 
#
# Total GULP energy -72499.136723 kJ/mol
# GULP energy per Si atom -5576.856671 kJ/mol
# Density = 2.438586 g / cm^3
# Si number density = 24.441493 Si / 1000 Ang^3
#
#
#
# Elastic Constant Matrix: (Units=GPa)
#
#
# Indices 1 2 3 4 5 6 
#
# 1 199.9929 65.2818 127.8123 0.0088 226.6911 0.0108
# 2 65.2818 143.2441 82.4156 0.0040 120.2047 0.0182
# 3 127.8123 82.4156 214.5987 0.0050 222.8665 0.0044
# 4 0.0088 0.0040 0.0050 56.0985 0.0156 3.8387
# 5 226.6911 120.2047 222.8665 0.0156 421.9029 0.0080
# 6 0.0108 0.0182 0.0044 3.8387 0.0080 29.6750
#
#
#
# Elastic Compliance Matrix: (Units=1/GPa)
#
#
# Indices 1 2 3 4 5 6 
#
# 1 0.012901 0.000108 -0.001095 0.000000 -0.006384 -0.000003
# 2 0.000108 0.009497 -0.001864 0.000000 -0.001779 -0.000005
# 3 -0.001095 -0.001864 0.010778 0.000001 -0.004574 0.000001
# 4 0.000000 0.000000 0.000001 0.017985 -0.000001 -0.002327
# 5 -0.006384 -0.001779 -0.004574 -0.000001 0.008724 0.000002
# 6 -0.000003 -0.000005 0.000001 -0.002327 0.000002 0.033999
#
#
# Mechanical properties :
#
#
# Convention : Reuss Voigt Hill
#
# Bulk Modulus (GPa) = 36.39717 123.20613 79.80165
# Shear Modulus (GPa) = 45.97906 120.35702 83.16804
#
# Velocity S-wave (km/s) = 4.34197 7.02494 5.83963
# Velocity P-wave (km/s) = 6.32936 10.78507 8.84247
#
# Compressibility (1/GPa) = 0.02747467
#
# Stress axis : x y z
#
# Youngs Moduli (GPa) = 77.51160 105.29180 92.78065
#
# Poissons Ratio (x) = -0.01135 0.10161
# Poissons Ratio (y) = -0.00836 0.17292
# Poissons Ratio (z) = 0.08488 0.19624
#
# Static dielectric constant tensor:
#      x y z
#    x 1.972950 -0.000010 -0.020220 
#    y -0.000010 1.828040 -0.000010 
#    z -0.020220 -0.000010 1.986110 
# 
# From -- ./inp_files/53810.got.cif
#   From: 2010.05.17/outbox.cif.g08.bks.cpg/sg5_27_cif.got.tgz:53810.got - 2010.06.03 18:56:24.
