data_PCOD9127850
_publ_section_title
;
Structure prediction by ZEFSAII (Michael W. Deem and Ramdas Pophale) SiO2 
 PCOD9127850
Probable space group: C 2
;
_chemical_formula_sum "Si O2"
_cell_formula_units_Z 22
_cell_length_a 15.569222
_cell_length_b 9.337081
_cell_length_c 18.397929
_cell_angle_alpha 90.000000
_cell_angle_beta 17.948054
_cell_angle_gamma 90.000000
_cell_volume 824.167811
_symmetry_space_group_name_H-M "C 2"
_symmetry_group_IT_number 5
_symmetry_cell_setting 'monoclinic'
loop_
_space_group_symop_operation_xyz
x,y,z
-x,y,-z
1/2+x,1/2+y,z
1/2-x,1/2+y,-z
loop_
_atom_site_type_symbol
_atom_site_label
_atom_site_fract_x
_atom_site_fract_y
_atom_site_fract_z
Si Si1 0.055267 0.005070 0.535093
Si Si2 0.246390 0.058650 0.660040
Si Si3 0.867014 0.271325 0.764896
Si Si4 0.816625 0.582965 0.951847
Si Si5 0.955114 0.764015 0.361954
Si Si6 0.000000 0.028384 0.000000
O O1 0.390050 0.001982 0.276374
O O2 0.000000 0.950793 0.500000
O O3 0.927983 0.162364 0.649761
O O4 0.916673 0.905291 0.707166
O O5 0.500000 0.975691 0.500000
O O6 0.371612 0.162575 0.497708
O O7 0.971268 0.000524 0.838061
O O8 0.116889 0.120645 0.839412
O O9 0.168641 0.307366 0.553360
O O10 0.722039 0.180421 0.945601
O O11 0.710952 0.414056 0.867171
O O12 0.872196 0.684993 0.838156
#
# Coordination Sequence:
#
# PCOD9127850 Si02
#       6
#     4   4   4   4   4   2
#     4  11  23  42  68  99 136 175 222 274 332 405
#     4  11  24  41  66  97 129 172 223 274 332 386
#     4  10  24  41  64  96 131 181 223 266 337 395
#     4  10  23  44  65  95 135 174 221 274 333 395
#     4  10  23  43  66  96 134 177 224 275 332 397
#     4  12  24  42  68 100 136 172 224 282 328 398
#
# _framework density 26.693594000000001
#
# number of rings (size 3 to 8) (size 9 to 14) (size 15 to 20)
#    0.000    1.455    0.000    3.818    0.000   13.818 
#    0.000    3.636    0.000    0.000    0.000    0.000 
#    0.000    0.000    0.000    0.000    0.000    0.000 
#
# Total GULP energy -61466.435566 kJ/mol
# GULP energy per Si atom -5587.857779 kJ/mol
# Density = 2.663284 g / cm^3
# Si number density = 26.693594 Si / 1000 Ang^3
#
#
#
# Elastic Constant Matrix: (Units=GPa)
#
#
# Indices 1 2 3 4 5 6 
#
# 1 146.2613 37.5509 57.8482 -0.0217 -3.1823 0.0151
# 2 37.5509 76.4858 28.8480 -0.0417 -2.9727 0.0210
# 3 57.8482 28.8480 98.7670 -0.0216 -4.9086 0.0213
# 4 -0.0217 -0.0417 -0.0216 27.7460 -0.0258 21.4039
# 5 -3.1823 -2.9727 -4.9086 -0.0258 77.2281 -0.0016
# 6 0.0151 0.0210 0.0213 21.4039 -0.0016 40.3318
#
#
#
# Elastic Compliance Matrix: (Units=1/GPa)
#
#
# Indices 1 2 3 4 5 6 
#
# 1 0.009424 -0.002860 -0.004685 -0.000002 -0.000020 0.000001
# 2 -0.002860 0.015568 -0.002857 0.000040 0.000300 -0.000027
# 3 -0.004685 -0.002857 0.013732 0.000011 0.000570 -0.000010
# 4 -0.000002 0.000040 0.000011 0.061024 0.000022 -0.032385
# 5 -0.000020 0.000300 0.000570 0.000022 0.012996 -0.000012
# 6 0.000001 -0.000027 -0.000010 -0.032385 -0.000012 0.041981
#
#
# Mechanical properties :
#
#
# Convention : Reuss Voigt Hill
#
# Bulk Modulus (GPa) = 55.80743 63.33426 59.57085
# Shear Modulus (GPa) = 27.54784 42.21232 34.88008
#
# Velocity S-wave (km/s) = 3.21596 3.98095 3.61873
# Velocity P-wave (km/s) = 5.89423 6.70138 6.31072
#
# Compressibility (1/GPa) = 0.01791876
#
# Stress axis : x y z
#
# Youngs Moduli (GPa) = 106.11098 64.23506 72.82410
#
# Poissons Ratio (x) = 0.18374 0.34120
# Poissons Ratio (y) = 0.30352 0.20804
# Poissons Ratio (z) = 0.49715 0.18351
#
# Static dielectric constant tensor:
#      x y z
#    x 2.048950 -0.000020 -0.040630 
#    y -0.000020 2.030550 0.000060 
#    z -0.040630 0.000060 2.266140 
# 
# From -- ./inp_files/6588.got.cif
#   From: 2010.05.17/outbox.cif.g08.bks.cpg/sg5_4_cif.got.tgz:6588.got - 2010.06.03 18:56:24.
