data_PCOD9127270
_publ_section_title
;
Structure prediction by ZEFSAII (Michael W. Deem and Ramdas Pophale) SiO2 
 PCOD9127270
Probable space group: C 2
;
_chemical_formula_sum "Si O2"
_cell_formula_units_Z 32
_cell_length_a 13.984015
_cell_length_b 7.508264
_cell_length_c 19.655830
_cell_angle_alpha 90.000000
_cell_angle_beta 143.323815
_cell_angle_gamma 90.000000
_cell_volume 1232.677255
_symmetry_space_group_name_H-M "C 2"
_symmetry_group_IT_number 5
_symmetry_cell_setting 'monoclinic'
loop_
_space_group_symop_operation_xyz
x,y,z
-x,y,-z
1/2+x,1/2+y,z
1/2-x,1/2+y,-z
loop_
_atom_site_type_symbol
_atom_site_label
_atom_site_fract_x
_atom_site_fract_y
_atom_site_fract_z
Si Si1 0.135065 0.680700 0.213100
Si Si2 0.556433 0.626617 0.928312
Si Si3 0.889388 0.958991 0.278262
Si Si4 0.341908 0.324425 0.106120
Si Si5 0.866986 0.803101 0.478879
Si Si6 0.215253 0.994969 0.157968
Si Si7 0.833364 0.379879 0.441439
Si Si8 0.450747 0.830333 0.654220
O O1 0.249589 0.522704 0.250928
O O2 0.145087 0.815737 0.153789
O O3 0.210427 0.786813 0.320761
O O4 0.951547 0.671013 0.133873
O O5 0.581259 0.503325 0.878563
O O6 0.372247 0.640528 0.844077
O O7 0.659518 0.801781 0.978415
O O8 0.648275 0.528840 0.044382
O O9 0.837483 0.840642 0.184644
O O10 0.035159 0.858674 0.398319
O O11 0.962000 0.141695 0.287801
O O12 0.826416 0.593552 0.446470
O O13 0.689546 0.887253 0.374577
O O14 0.000000 0.854652 0.500000
O O15 0.405064 0.969990 0.270253
O O16 0.854093 0.305446 0.528615
O O17 0.000000 0.342342 0.500000
#
# Coordination Sequence:
#
# PCOD9127270 Si02
#       8
#     4   4   4   4   4   4   4   4
#     4  10  22  44  74 100 141 198 233 287 368 444
#     4  10  24  45  67  98 132 178 237 313 362 429
#     4  11  25  44  70 107 144 189 245 295 357 442
#     4  11  25  46  70 103 142 181 245 311 374 429
#     4  11  26  39  61 110 150 182 235 296 344 434
#     4   9  21  43  70  92 127 183 240 285 361 432
#     4  11  21  42  68 100 146 191 228 279 354 433
#     4  11  22  42  72  97 140 195 232 284 362 436
#
# _framework density 25.959755999999999
#
# number of rings (size 3 to 8) (size 9 to 14) (size 15 to 20)
#    0.000    1.500    2.500    2.250    7.000    1.000 
#    4.500    0.000    0.000    0.000    0.000    0.000 
#    0.000    0.000    0.000    0.000    0.000    0.000 
#
# Total GULP energy -89450.078162 kJ/mol
# GULP energy per Si atom -5590.629885 kJ/mol
# Density = 2.590067 g / cm^3
# Si number density = 25.959756 Si / 1000 Ang^3
#
#
#
# Elastic Constant Matrix: (Units=GPa)
#
#
# Indices 1 2 3 4 5 6 
#
# 1 175.8698 59.9726 48.5804 0.0000 37.5313 0.0000
# 2 59.9726 90.2274 62.9906 0.0000 -3.1312 0.0000
# 3 48.5804 62.9906 70.0635 0.0000 11.0866 0.0000
# 4 0.0000 0.0000 0.0000 35.9429 0.0000 -4.4212
# 5 37.5313 -3.1312 11.0866 0.0000 41.6551 0.0000
# 6 0.0000 0.0000 0.0000 -4.4212 0.0000 18.3147
#
#
#
# Elastic Compliance Matrix: (Units=1/GPa)
#
#
# Indices 1 2 3 4 5 6 
#
# 1 0.010350 -0.009218 0.002815 0.000000 -0.010767 0.000000
# 2 -0.009218 0.042346 -0.034970 0.000000 0.020796 0.000000
# 3 0.002815 -0.034970 0.046537 0.000000 -0.017551 0.000000
# 4 0.000000 0.000000 0.000000 0.028673 0.000000 0.006922
# 5 -0.010767 0.020796 -0.017551 0.000000 0.039943 0.000000
# 6 0.000000 0.000000 0.000000 0.006922 0.000000 0.056272
#
#
# Mechanical properties :
#
#
# Convention : Reuss Voigt Hill
#
# Bulk Modulus (GPa) = 60.65298 75.47198 68.06248
# Shear Modulus (GPa) = 16.00709 30.15701 23.08205
#
# Velocity S-wave (km/s) = 2.48586 3.41204 2.98509
# Velocity P-wave (km/s) = 5.62621 6.68270 6.17709
#
# Compressibility (1/GPa) = 0.01648723
#
# Stress axis : x y z
#
# Youngs Moduli (GPa) = 96.62160 23.61524 21.48812
#
# Poissons Ratio (x) = 0.21770 -0.06050
# Poissons Ratio (y) = 0.89070 0.75143
# Poissons Ratio (z) = -0.27203 0.82582
#
# Static dielectric constant tensor:
#      x y z
#    x 2.094810 0.000000 0.005240 
#    y 0.000000 2.079390 0.000000 
#    z 0.005240 0.000000 2.081280 
# 
# From -- ./inp_files/65836.got.cif
#   From: 2010.05.17/outbox.cif.g08.bks.cpg/sg5_33_cif.got.tgz:65836.got - 2010.06.03 18:56:24.
