data_PCOD9127545
_publ_section_title
;
Structure prediction by ZEFSAII (Michael W. Deem and Ramdas Pophale) SiO2 
 PCOD9127545
Probable space group: C 2
;
_chemical_formula_sum "Si O2"
_cell_formula_units_Z 18
_cell_length_a 10.747221
_cell_length_b 8.274114
_cell_length_c 9.089767
_cell_angle_alpha 90.000000
_cell_angle_beta 124.101102
_cell_angle_gamma 90.000000
_cell_volume 669.309142
_symmetry_space_group_name_H-M "C 2"
_symmetry_group_IT_number 5
_symmetry_cell_setting 'monoclinic'
loop_
_space_group_symop_operation_xyz
x,y,z
-x,y,-z
1/2+x,1/2+y,z
1/2-x,1/2+y,-z
loop_
_atom_site_type_symbol
_atom_site_label
_atom_site_fract_x
_atom_site_fract_y
_atom_site_fract_z
Si Si1 0.193689 0.157550 0.879518
Si Si2 0.000000 0.843124 0.000000
Si Si3 0.713495 0.534314 0.370918
Si Si4 0.000000 0.300260 0.000000
Si Si5 0.257067 0.402936 0.309712
Si Si6 0.000000 0.320849 0.500000
O O1 0.074043 0.234891 0.688792
O O2 0.196000 0.974462 0.818020
O O3 0.359603 0.235358 0.968257
O O4 0.124448 0.196100 0.993527
O O5 0.087047 0.949830 0.184124
O O6 0.674479 0.513835 0.517724
O O7 0.766934 0.714952 0.362494
O O8 0.861603 0.428235 0.459758
O O9 0.077749 0.413952 0.170897
#
# Coordination Sequence:
#
# PCOD9127545 Si02
#       6
#     4   2   4   2   4   2
#     4  11  26  53  85 126 173 227 281 351 422 507
#     4  10  24  50  90 128 178 220 288 355 431 512
#     4  11  24  50  80 133 170 229 284 356 428 512
#     4  12  28  54  82 130 170 228 282 353 419 520
#     4  12  27  49  88 120 178 224 289 350 432 498
#     4  10  22  50  86 118 176 216 290 344 424 510
#
# _framework density 26.893402999999999
#
# number of rings (size 3 to 8) (size 9 to 14) (size 15 to 20)
#    0.000    0.889    2.222    4.000    0.000    6.222 
#    8.000    0.000    0.000    1.333    0.000    0.000 
#    0.000    0.000    0.000    0.000    0.000    0.000 
#
# Total GULP energy -50262.287774 kJ/mol
# GULP energy per Si atom -5584.698642 kJ/mol
# Density = 2.683219 g / cm^3
# Si number density = 26.893403 Si / 1000 Ang^3
#
#
#
# Elastic Constant Matrix: (Units=GPa)
#
#
# Indices 1 2 3 4 5 6 
#
# 1 184.5370 70.0438 78.6834 0.0000 4.3743 0.0000
# 2 70.0438 161.6960 81.6547 0.0000 -9.4103 0.0000
# 3 78.6834 81.6547 195.2220 0.0000 4.5472 0.0000
# 4 0.0000 0.0000 0.0000 50.3410 0.0000 4.3858
# 5 4.3743 -9.4103 4.5472 0.0000 65.0811 0.0000
# 6 0.0000 0.0000 0.0000 4.3858 0.0000 52.6861
#
#
#
# Elastic Compliance Matrix: (Units=1/GPa)
#
#
# Indices 1 2 3 4 5 6 
#
# 1 0.007068 -0.002115 -0.001949 0.000000 -0.000645 0.000000
# 2 -0.002115 0.008596 -0.002780 0.000000 0.001579 0.000000
# 3 -0.001949 -0.002780 0.007089 0.000000 -0.000766 0.000000
# 4 0.000000 0.000000 0.000000 0.020010 0.000000 -0.001666
# 5 -0.000645 0.001579 -0.000766 0.000000 0.015691 0.000000
# 6 0.000000 0.000000 0.000000 -0.001666 0.000000 0.019119
#
#
# Mechanical properties :
#
#
# Convention : Reuss Voigt Hill
#
# Bulk Modulus (GPa) = 110.31508 111.35765 110.83636
# Shear Modulus (GPa) = 53.03236 54.35985 53.69610
#
# Velocity S-wave (km/s) = 4.44548 4.50077 4.47321
# Velocity P-wave (km/s) = 8.21329 8.27685 8.24513
#
# Compressibility (1/GPa) = 0.00906494
#
# Stress axis : x y z
#
# Youngs Moduli (GPa) = 141.48070 116.32822 141.07274
#
# Poissons Ratio (x) = 0.24604 0.27497
# Poissons Ratio (y) = 0.29923 0.39217
# Poissons Ratio (z) = 0.27576 0.32338
#
# Static dielectric constant tensor:
#      x y z
#    x 2.200900 0.000000 -0.108870 
#    y 0.000000 2.211080 0.000000 
#    z -0.108870 0.000000 2.184110 
# 
# From -- ./inp_files/18417.got.cif
#   From: 2010.05.17/outbox.cif.g08.bks.cpg/sg5_10_cif.got.tgz:18417.got - 2010.06.03 18:56:24.
