data_PCOD9127134
_publ_section_title
;
Structure prediction by ZEFSAII (Michael W. Deem and Ramdas Pophale) SiO2 
 PCOD9127134
Probable space group: C 2
;
_chemical_formula_sum "Si O2"
_cell_formula_units_Z 32
_cell_length_a 28.100997
_cell_length_b 12.035912
_cell_length_c 8.198908
_cell_angle_alpha 90.000000
_cell_angle_beta 33.543696
_cell_angle_gamma 90.000000
_cell_volume 1532.308575
_symmetry_space_group_name_H-M "C 2"
_symmetry_group_IT_number 5
_symmetry_cell_setting 'monoclinic'
loop_
_space_group_symop_operation_xyz
x,y,z
-x,y,-z
1/2+x,1/2+y,z
1/2-x,1/2+y,-z
loop_
_atom_site_type_symbol
_atom_site_label
_atom_site_fract_x
_atom_site_fract_y
_atom_site_fract_z
Si Si1 0.472040 0.604010 0.260938
Si Si2 0.598609 0.756049 0.280084
Si Si3 0.790084 0.633923 0.212061
Si Si4 0.221558 0.874638 0.880266
Si Si5 0.143706 0.492231 0.273577
Si Si6 0.049315 0.871970 0.534772
Si Si7 0.160870 0.087467 0.861869
Si Si8 0.516137 0.142828 0.258510
O O1 0.407541 0.690705 0.529755
O O2 0.440332 0.478978 0.381218
O O3 0.500000 0.633198 0.000000
O O4 0.562054 0.597892 0.097497
O O5 0.500000 0.750219 0.500000
O O6 0.618060 0.885268 0.239858
O O7 0.667082 0.690146 0.971917
O O8 0.763581 0.762577 0.262192
O O9 0.717904 0.588155 0.537802
O O10 0.803312 0.573688 0.999224
O O11 0.882443 0.619130 0.040656
O O12 0.299763 0.936203 0.746217
O O13 0.178708 0.971774 0.897681
O O14 0.146497 0.836378 0.217795
O O15 0.057458 0.555430 0.584329
O O16 0.000000 0.894803 0.500000
O O17 0.001890 0.767428 0.751232
O O18 0.500000 0.149568 0.500000
#
# Coordination Sequence:
#
# PCOD9127134 Si02
#       8
#     4   4   4   4   4   4   4   4
#     4  11  23  39  67  97 128 169 223 280 335 408
#     4  10  22  44  65  92 133 181 214 269 348 410
#     4  11  24  43  68  98 134 182 232 273 340 410
#     4  12  24  41  68  99 135 176 224 291 337 392
#     4  11  25  40  70  96 135 174 232 273 344 401
#     4  11  17  41  69  89 124 173 220 266 343 398
#     4  11  25  40  65  97 139 171 226 280 339 402
#     4   9  18  42  68  89 125 180 223 266 333 403
#
# _framework density 20.883523
#
# number of rings (size 3 to 8) (size 9 to 14) (size 15 to 20)
#    0.000    1.250    6.250    1.500    7.000    0.000 
#    0.000    3.125    0.000    0.000    0.000    0.000 
#    0.000    0.000    0.000    0.000    0.000    0.000 
#
# Total GULP energy -89204.269602 kJ/mol
# GULP energy per Si atom -5575.266850 kJ/mol
# Density = 2.083599 g / cm^3
# Si number density = 20.883523 Si / 1000 Ang^3
#
#
#
# Elastic Constant Matrix: (Units=GPa)
#
#
# Indices 1 2 3 4 5 6 
#
# 1 53.6286 22.8570 1.7121 0.0000 -11.9488 0.0000
# 2 22.8570 116.3932 9.1324 0.0000 -1.1229 0.0000
# 3 1.7121 9.1324 34.6025 0.0000 -11.2660 0.0000
# 4 0.0000 0.0000 0.0000 17.5495 0.0000 -17.1573
# 5 -11.9488 -1.1229 -11.2660 0.0000 20.7094 0.0000
# 6 0.0000 0.0000 0.0000 -17.1573 0.0000 2.5608
#
#
#
# Elastic Compliance Matrix: (Units=1/GPa)
#
#
# Indices 1 2 3 4 5 6 
#
# 1 0.024380 -0.005066 0.005616 0.000000 0.016847 0.000000
# 2 -0.005066 0.009841 -0.003797 0.000000 -0.004455 0.000000
# 3 0.005616 -0.003797 0.037201 0.000000 0.023272 0.000000
# 4 0.000000 0.000000 0.000000 -0.010267 0.000000 -0.068785
# 5 0.016847 -0.004455 0.023272 0.000000 0.070426 0.000000
# 6 0.000000 0.000000 0.000000 -0.068785 0.000000 -0.070358
#
#
# Mechanical properties :
#
#
# Convention : Reuss Voigt Hill
#
# Bulk Modulus (GPa) = 15.40165 30.22525 22.81345
# Shear Modulus (GPa) = 55.95258 19.55878 37.75568
#
# Velocity S-wave (km/s) = 5.18178 3.06366 4.25657
# Velocity P-wave (km/s) = 6.57208 5.19801 5.92501
#
# Compressibility (1/GPa) = 0.06492810
#
# Stress axis : x y z
#
# Youngs Moduli (GPa) = 41.01676 101.61220 26.88115
#
# Poissons Ratio (x) = 0.51475 -0.15096
# Poissons Ratio (y) = 0.20778 0.10207
# Poissons Ratio (z) = -0.23034 0.38584
#
# Static dielectric constant tensor:
#      x y z
#    x 1.832190 0.000000 -0.029580 
#    y 0.000000 1.796080 0.000000 
#    z -0.029580 0.000000 1.724380 
# 
# From -- ./inp_files/32625.got.cif
#   From: 2010.05.17/outbox.cif.g08.bks.cpg/sg5_17_cif.got.tgz:32625.got - 2010.06.03 18:56:24.
