data_PCOD9127089
_publ_section_title
;
Structure prediction by ZEFSAII (Michael W. Deem and Ramdas Pophale) SiO2 
 PCOD9127089
Probable space group: C 2
;
_chemical_formula_sum "Si O2"
_cell_formula_units_Z 20
_cell_length_a 13.158738
_cell_length_b 4.820120
_cell_length_c 18.556465
_cell_angle_alpha 90.000000
_cell_angle_beta 48.025501
_cell_angle_gamma 90.000000
_cell_volume 875.013514
_symmetry_space_group_name_H-M "C 2"
_symmetry_group_IT_number 5
_symmetry_cell_setting 'monoclinic'
loop_
_space_group_symop_operation_xyz
x,y,z
-x,y,-z
1/2+x,1/2+y,z
1/2-x,1/2+y,-z
loop_
_atom_site_type_symbol
_atom_site_label
_atom_site_fract_x
_atom_site_fract_y
_atom_site_fract_z
Si Si1 0.500000 0.312750 0.500000
Si Si2 0.715594 0.096538 0.182598
Si Si3 0.839326 0.596483 0.946894
Si Si4 0.000000 0.352910 0.000000
Si Si5 0.337364 0.935254 0.467743
Si Si6 0.101342 0.125939 0.315335
O O1 0.579801 0.504627 0.405326
O O2 0.401468 0.108829 0.502632
O O3 0.869029 0.175751 0.086862
O O4 0.638654 0.364504 0.249352
O O5 0.637989 0.005561 0.146208
O O6 0.712226 0.859644 0.244690
O O7 0.794338 0.916140 0.967049
O O8 0.950612 0.531450 0.954544
O O9 0.242065 0.678924 0.536210
O O10 0.458888 0.784719 0.367343
#
# Coordination Sequence:
#
# PCOD9127089 Si02
#       6
#     2   4   4   2   4   4
#     4  12  26  50  78 106 158 202 246 326 366 434
#     4  11  24  44  72 111 150 194 250 303 369 441
#     4  10  22  43  71  98 143 187 239 305 364 422
#     4  10  24  48  78 104 148 198 242 294 378 446
#     4  12  25  47  77 102 144 206 247 302 383 446
#     4  12  25  47  75 111 155 192 247 318 365 435
#
# _framework density 22.856788000000002
#
# number of rings (size 3 to 8) (size 9 to 14) (size 15 to 20)
#    0.000    0.800    4.000    3.000    0.000    7.200 
#    3.600    4.000    8.800    0.000    0.000    0.000 
#    0.000    0.000    0.000    0.000    0.000    0.000 
#
# Total GULP energy -55894.148721 kJ/mol
# GULP energy per Si atom -5589.414872 kJ/mol
# Density = 2.280476 g / cm^3
# Si number density = 22.856788 Si / 1000 Ang^3
#
#
#
# Elastic Constant Matrix: (Units=GPa)
#
#
# Indices 1 2 3 4 5 6 
#
# 1 129.1807 50.6788 56.7442 -0.0014 6.5506 0.0047
# 2 50.6788 162.6651 69.4384 -0.0046 6.3666 0.0078
# 3 56.7442 69.4384 147.9356 -0.0019 13.8763 0.0006
# 4 -0.0014 -0.0046 -0.0019 55.1408 0.0000 -0.1667
# 5 6.5506 6.3666 13.8763 0.0000 15.2522 -0.0006
# 6 0.0047 0.0078 0.0006 -0.1667 -0.0006 49.5100
#
#
#
# Elastic Compliance Matrix: (Units=1/GPa)
#
#
# Indices 1 2 3 4 5 6 
#
# 1 0.009722 -0.001798 -0.002803 0.000000 -0.000875 -0.000001
# 2 -0.001798 0.008021 -0.003098 0.000001 0.000243 -0.000001
# 3 -0.002803 -0.003098 0.009900 0.000000 -0.006510 0.000001
# 4 0.000000 0.000001 0.000000 0.018136 0.000000 0.000061
# 5 -0.000875 0.000243 -0.006510 0.000000 0.071761 0.000001
# 6 -0.000001 -0.000001 0.000001 0.000061 0.000001 0.020198
#
#
# Mechanical properties :
#
#
# Convention : Reuss Voigt Hill
#
# Bulk Modulus (GPa) = 81.67066 88.16714 84.91890
# Shear Modulus (GPa) = 31.80318 41.50859 36.65589
#
# Velocity S-wave (km/s) = 3.73421 4.26611 4.00899
# Velocity P-wave (km/s) = 7.37573 7.93245 7.65915
#
# Compressibility (1/GPa) = 0.01224430
#
# Stress axis : x y z
#
# Youngs Moduli (GPa) = 102.85757 124.67713 101.01466
#
# Poissons Ratio (x) = 0.22419 0.28315
# Poissons Ratio (y) = 0.18495 0.31293
# Poissons Ratio (z) = 0.28832 0.38623
#
# Static dielectric constant tensor:
#      x y z
#    x 1.898770 -0.000010 -0.017000 
#    y -0.000010 1.860490 0.000000 
#    z -0.017000 0.000000 1.872560 
# 
# From -- ./inp_files/51802.got.cif
#   From: 2010.05.17/outbox.cif.g08.bks.cpg/sg5_26_cif.got.tgz:51802.got - 2010.06.03 18:56:24.
