data_PCOD9127425
_publ_section_title
;
Structure prediction by ZEFSAII (Michael W. Deem and Ramdas Pophale) SiO2 
 PCOD9127425
Probable space group: C 2
;
_chemical_formula_sum "Si O2"
_cell_formula_units_Z 28
_cell_length_a 13.783257
_cell_length_b 4.710663
_cell_length_c 16.816350
_cell_angle_alpha 90.000000
_cell_angle_beta 62.672548
_cell_angle_gamma 90.000000
_cell_volume 970.002596
_symmetry_space_group_name_H-M "C 2"
_symmetry_group_IT_number 5
_symmetry_cell_setting 'monoclinic'
loop_
_space_group_symop_operation_xyz
x,y,z
-x,y,-z
1/2+x,1/2+y,z
1/2-x,1/2+y,-z
loop_
_atom_site_type_symbol
_atom_site_label
_atom_site_fract_x
_atom_site_fract_y
_atom_site_fract_z
Si Si1 0.579954 0.955400 0.404207
Si Si2 0.971096 0.040905 0.152254
Si Si3 0.452376 0.580904 0.327520
Si Si4 0.624735 0.034534 0.092015
Si Si5 0.622684 0.960218 0.924937
Si Si6 0.813940 0.811209 0.772452
Si Si7 0.759753 0.674715 0.444785
O O1 0.500000 0.103712 0.500000
O O2 0.492016 0.791514 0.382109
O O3 0.658585 0.141364 0.318536
O O4 0.663655 0.748694 0.419745
O O5 0.905943 0.140439 0.098748
O O6 0.911958 0.158085 0.254047
O O7 0.082634 0.215172 0.104539
O O8 0.010192 0.718060 0.141182
O O9 0.572992 0.473219 0.261006
O O10 0.374139 0.320354 0.380307
O O11 0.687597 0.115292 0.147777
O O12 0.680622 0.061654 0.985093
O O13 0.711885 0.024069 0.821996
O O14 0.500000 0.046770 0.000000
O O15 0.733624 0.842533 0.537925
#
# Coordination Sequence:
#
# PCOD9127425 Si02
#       7
#     4   4   4   4   4   4   4
#     4  12  25  49  81 119 165 221 276 346 415 496
#     4  10  22  46  71 104 150 195 258 321 391 482
#     4  11  25  48  75 116 163 215 274 348 410 497
#     4  10  23  45  70 104 148 200 254 327 394 476
#     4  10  24  46  71 111 149 207 261 329 410 487
#     4  11  25  48  76 114 160 211 275 334 413 499
#     4  12  28  49  79 118 161 214 278 346 416 496
#
# _framework density 28.865898999999999
#
# number of rings (size 3 to 8) (size 9 to 14) (size 15 to 20)
#    0.000    1.143    2.857    1.714    2.000   10.286 
#   20.571    0.000    0.000    0.000    0.000    0.000 
#    0.000    0.000    0.000    0.000    0.000    0.000 
#
# Total GULP energy -78100.014141 kJ/mol
# GULP energy per Si atom -5578.572439 kJ/mol
# Density = 2.880020 g / cm^3
# Si number density = 28.865899 Si / 1000 Ang^3
#
#
#
# Elastic Constant Matrix: (Units=GPa)
#
#
# Indices 1 2 3 4 5 6 
#
# 1 160.8654 34.1000 65.4111 0.0012 -18.0641 0.0048
# 2 34.1000 61.3919 22.5885 0.0049 11.0711 0.0127
# 3 65.4111 22.5885 194.0351 -0.0009 10.9857 0.0015
# 4 0.0012 0.0049 -0.0009 47.8061 -0.0001 9.8432
# 5 -18.0641 11.0711 10.9857 -0.0001 71.2251 0.0006
# 6 0.0048 0.0127 0.0015 9.8432 0.0006 31.5696
#
#
#
# Elastic Compliance Matrix: (Units=1/GPa)
#
#
# Indices 1 2 3 4 5 6 
#
# 1 0.008551 -0.004395 -0.002555 0.000000 0.003246 0.000001
# 2 -0.004395 0.019679 -0.000578 0.000000 -0.004084 -0.000007
# 3 -0.002555 -0.000578 0.006168 0.000000 -0.001509 0.000000
# 4 0.000000 0.000000 0.000000 0.022353 0.000000 -0.006969
# 5 0.003246 -0.004084 -0.001509 0.000000 0.015731 0.000001
# 6 0.000001 -0.000007 0.000000 -0.006969 0.000001 0.033849
#
#
# Mechanical properties :
#
#
# Convention : Reuss Voigt Hill
#
# Bulk Modulus (GPa) = 51.70029 73.38795 62.54412
# Shear Modulus (GPa) = 39.11289 49.73302 44.42295
#
# Velocity S-wave (km/s) = 3.68501 4.15528 3.92719
# Velocity P-wave (km/s) = 6.00459 6.96425 6.50215
#
# Compressibility (1/GPa) = 0.01934225
#
# Stress axis : x y z
#
# Youngs Moduli (GPa) = 116.93922 50.81467 162.13403
#
# Poissons Ratio (x) = 0.22334 0.41424
# Poissons Ratio (y) = 0.51397 0.09372
# Poissons Ratio (z) = 0.29877 0.02937
#
# Static dielectric constant tensor:
#      x y z
#    x 2.454510 0.000000 0.185250 
#    y 0.000000 2.321480 0.000000 
#    z 0.185250 0.000000 2.471630 
# 
# From -- ./inp_files/61175.got.cif
#   From: 2010.05.17/outbox.cif.g08.bks.cpg/sg5_31_cif.got.tgz:61175.got - 2010.06.03 18:56:24.
