data_PCOD9127471
_publ_section_title
;
Structure prediction by ZEFSAII (Michael W. Deem and Ramdas Pophale) SiO2 
 PCOD9127471
Probable space group: C 2
;
_chemical_formula_sum "Si O2"
_cell_formula_units_Z 28
_cell_length_a 28.077105
_cell_length_b 5.641092
_cell_length_c 9.161767
_cell_angle_alpha 90.000000
_cell_angle_beta 55.488819
_cell_angle_gamma 90.000000
_cell_volume 1195.721965
_symmetry_space_group_name_H-M "C 2"
_symmetry_group_IT_number 5
_symmetry_cell_setting 'monoclinic'
loop_
_space_group_symop_operation_xyz
x,y,z
-x,y,-z
1/2+x,1/2+y,z
1/2-x,1/2+y,-z
loop_
_atom_site_type_symbol
_atom_site_label
_atom_site_fract_x
_atom_site_fract_y
_atom_site_fract_z
Si Si1 0.571799 0.860390 0.694099
Si Si2 0.000000 0.995111 0.500000
Si Si3 0.024373 0.703520 0.212237
Si Si4 0.218190 0.975158 0.710620
Si Si5 0.592237 0.870124 0.308081
Si Si6 0.181859 0.477889 0.696744
Si Si7 0.000000 0.002741 0.000000
Si Si8 0.725305 0.848774 0.092256
O O1 0.584921 0.866939 0.497726
O O2 0.627256 0.954956 0.684075
O O3 0.513271 0.010208 0.804413
O O4 0.549050 0.627008 0.814857
O O5 0.019379 0.833067 0.599114
O O6 0.950583 0.155396 0.655923
O O7 0.070326 0.585850 0.243242
O O8 0.039369 0.873135 0.054079
O O9 0.179862 0.735503 0.776301
O O10 0.257144 0.984800 0.496919
O O11 0.263050 0.935683 0.763625
O O12 0.185987 0.229049 0.778188
O O13 0.658742 0.829259 0.166973
O O14 0.749788 0.579924 0.036649
#
# Coordination Sequence:
#
# PCOD9127471 Si02
#       8
#     4   2   4   4   4   4   2   4
#     4  12  24  48  74 112 151 206 257 312 406 490
#     4  12  22  46  80 114 152 208 262 322 402 488
#     4  12  25  47  76 115 157 199 258 327 397 484
#     4  10  22  47  67 109 140 181 256 307 370 441
#     4  12  25  49  79 113 158 211 266 318 400 500
#     4  10  23  42  78 100 139 193 245 310 366 456
#     4  12  28  46  72 116 164 186 256 334 392 478
#     4  12  29  51  75 114 155 207 267 327 389 468
#
# _framework density 23.416815
#
# number of rings (size 3 to 8) (size 9 to 14) (size 15 to 20)
#    0.000    0.571    5.714    1.286    4.000    1.143 
#   12.857    0.000    0.000    0.000    0.000    0.000 
#    0.000    0.000    0.000    0.000    0.000    0.000 
#
# Total GULP energy -78057.324539 kJ/mol
# GULP energy per Si atom -5575.523181 kJ/mol
# Density = 2.336352 g / cm^3
# Si number density = 23.416815 Si / 1000 Ang^3
#
#
#
# Elastic Constant Matrix: (Units=GPa)
#
#
# Indices 1 2 3 4 5 6 
#
# 1 121.2778 44.8702 35.1941 0.0000 -0.3441 0.0000
# 2 44.8702 94.7955 47.8377 0.0000 9.5731 0.0000
# 3 35.1941 47.8377 83.2690 0.0000 14.4215 0.0000
# 4 0.0000 0.0000 0.0000 28.7764 0.0000 18.3803
# 5 -0.3441 9.5731 14.4215 0.0000 39.1114 0.0000
# 6 0.0000 0.0000 0.0000 18.3803 0.0000 11.1726
#
#
#
# Elastic Compliance Matrix: (Units=1/GPa)
#
#
# Indices 1 2 3 4 5 6 
#
# 1 0.010409 -0.003850 -0.002528 0.000000 0.001966 0.000000
# 2 -0.003850 0.016290 -0.007515 0.000000 -0.001250 0.000000
# 3 -0.002528 -0.007515 0.018246 0.000000 -0.004911 0.000000
# 4 0.000000 0.000000 0.000000 -0.684145 0.000000 1.125508
# 5 0.001966 -0.001250 -0.004911 0.000000 0.027702 0.000000
# 6 0.000000 0.000000 0.000000 1.125508 0.000000 -1.762103
#
#
# Mechanical properties :
#
#
# Convention : Reuss Voigt Hill
#
# Bulk Modulus (GPa) = 58.27919 61.68293 59.98106
# Shear Modulus (GPa) = -2.13666 27.24142 12.55238
#
# Velocity S-wave (km/s) = -0.95626 3.41446 2.31777
# Velocity P-wave (km/s) = 4.87058 6.47636 5.73000
#
# Compressibility (1/GPa) = 0.01715878
#
# Stress axis : x y z
#
# Youngs Moduli (GPa) = 96.06964 61.38843 54.80785
#
# Poissons Ratio (x) = 0.23632 0.13857
# Poissons Ratio (y) = 0.36983 0.41187
# Poissons Ratio (z) = 0.24290 0.46132
#
# Static dielectric constant tensor:
#      x y z
#    x 1.836240 0.000000 -0.000630 
#    y 0.000000 2.044250 0.000000 
#    z -0.000630 0.000000 1.920070 
# 
# From -- ./inp_files/32237.got.cif
#   From: 2010.05.17/outbox.cif.g08.bks.cpg/sg5_17_cif.got.tgz:32237.got - 2010.06.03 18:56:24.
