data_PCOD9127553
_publ_section_title
;
Structure prediction by ZEFSAII (Michael W. Deem and Ramdas Pophale) SiO2 
 PCOD9127553
Probable space group: C 2
;
_chemical_formula_sum "Si O2"
_cell_formula_units_Z 22
_cell_length_a 10.147243
_cell_length_b 20.317734
_cell_length_c 9.996091
_cell_angle_alpha 90.000000
_cell_angle_beta 150.198904
_cell_angle_gamma 90.000000
_cell_volume 1024.239857
_symmetry_space_group_name_H-M "C 2"
_symmetry_group_IT_number 5
_symmetry_cell_setting 'monoclinic'
loop_
_space_group_symop_operation_xyz
x,y,z
-x,y,-z
1/2+x,1/2+y,z
1/2-x,1/2+y,-z
loop_
_atom_site_type_symbol
_atom_site_label
_atom_site_fract_x
_atom_site_fract_y
_atom_site_fract_z
Si Si1 0.500000 0.209301 0.000000
Si Si2 0.204626 0.378716 0.301298
Si Si3 0.595102 0.029382 0.236254
Si Si4 0.280554 0.060591 0.204778
Si Si5 0.000000 0.930755 0.000000
Si Si6 0.746684 0.319906 0.378549
Si Si7 0.000000 0.122408 0.500000
O O1 0.435583 0.257429 0.818666
O O2 0.767276 0.166201 0.230225
O O3 0.500000 0.376473 0.500000
O O4 0.153577 0.452768 0.312899
O O5 0.173015 0.328830 0.397432
O O6 0.000000 0.367307 0.000000
O O7 0.382999 0.063154 0.145466
O O8 0.857746 0.073401 0.478468
O O9 0.500000 0.031932 0.000000
O O10 0.500000 0.084562 0.500000
O O11 0.000000 0.090163 0.000000
O O12 0.237166 0.981676 0.186222
O O13 0.929452 0.883381 0.816131
O O14 0.000000 0.318624 0.500000
#
# Coordination Sequence:
#
# PCOD9127553 Si02
#       7
#     2   4   4   4   2   4   2
#     4  11  26  44  72 100 130 182 255 292 320 385
#     4  11  26  39  62 107 149 174 210 277 377 420
#     4  11  24  40  67 102 144 185 218 280 344 424
#     4  10  23  37  59  94 142 177 217 266 343 420
#     4   9  20  32  64  92 138 176 223 270 338 413
#     4  11  23  42  70  97 134 181 235 290 329 406
#     4  12  24  44  68 106 134 186 236 292 330 402
#
# _framework density 21.479344000000001
#
# number of rings (size 3 to 8) (size 9 to 14) (size 15 to 20)
#    0.545    0.727    2.727    2.727   12.727    0.000 
#    0.000    0.000    0.000    1.091    9.455    0.000 
#    0.000    0.000    0.000    0.000    0.000    0.000 
#
# Total GULP energy -61407.379276 kJ/mol
# GULP energy per Si atom -5582.489025 kJ/mol
# Density = 2.143046 g / cm^3
# Si number density = 21.479344 Si / 1000 Ang^3
#
#
#
# Elastic Constant Matrix: (Units=GPa)
#
#
# Indices 1 2 3 4 5 6 
#
# 1 137.4308 0.8646 63.3401 0.0084 2.4908 0.0017
# 2 0.8646 57.6326 35.3369 -0.0029 -7.9901 -0.0005
# 3 63.3401 35.3369 168.6800 0.0143 5.6535 0.0028
# 4 0.0084 -0.0029 0.0143-4153.8847 -0.0016 -766.2572
# 5 2.4908 -7.9901 5.6535 -0.0016 38.6050 -0.0002
# 6 0.0017 -0.0005 0.0028 -766.2572 -0.0002 -138.2386
#
#
#
# Elastic Compliance Matrix: (Units=1/GPa)
#
#
# Indices 1 2 3 4 5 6 
#
# 1 0.009051 0.002321 -0.003901 0.000000 0.000468 0.000000
# 2 0.002321 0.021412 -0.005528 0.000000 0.005091 0.000000
# 3 -0.003901 -0.005528 0.008623 0.000000 -0.002155 0.000000
# 4 0.000000 0.000000 0.000000 0.010697 0.000000 -0.059296
# 5 0.000468 0.005091 -0.002155 0.000000 0.027243 0.000000
# 6 0.000000 0.000000 0.000000 -0.059296 0.000000 0.321442
#
#
# Mechanical properties :
#
#
# Convention : Reuss Voigt Hill
#
# Bulk Modulus (GPa) = 40.20773 62.53631 51.37202
# Shear Modulus (GPa) = 11.87724 -833.09023 -410.60650
#
# Velocity S-wave (km/s) = 2.35406 -19.71544 -13.84119
# Velocity P-wave (km/s) = 5.11358 22.11531 15.21411
#
# Compressibility (1/GPa) = 0.02487084
#
# Stress axis : x y z
#
# Youngs Moduli (GPa) = 110.48491 46.70384 115.96551
#
# Poissons Ratio (x) = -0.10838 0.45232
# Poissons Ratio (y) = -0.25639 0.64101
# Poissons Ratio (z) = 0.43095 0.25816
#
# Static dielectric constant tensor:
#      x y z
#    x 2.620580 0.000000 1.514290 
#    y 0.000000 1.800930 0.000000 
#    z 1.514290 0.000000 4.614150 
# 
# From -- ./inp_files/17251.got.cif
#   From: 2010.05.17/outbox.cif.g08.bks.cpg/sg5_9_cif.got.tgz:17251.got - 2010.06.03 18:56:24.
