data_PCOD9127275
_publ_section_title
;
Structure prediction by ZEFSAII (Michael W. Deem and Ramdas Pophale) SiO2 
 PCOD9127275
Probable space group: C 2
;
_chemical_formula_sum "Si O2"
_cell_formula_units_Z 20
_cell_length_a 18.130208
_cell_length_b 4.891557
_cell_length_c 9.054915
_cell_angle_alpha 90.000000
_cell_angle_beta 106.258348
_cell_angle_gamma 90.000000
_cell_volume 770.920547
_symmetry_space_group_name_H-M "C 2"
_symmetry_group_IT_number 5
_symmetry_cell_setting 'monoclinic'
loop_
_space_group_symop_operation_xyz
x,y,z
-x,y,-z
1/2+x,1/2+y,z
1/2-x,1/2+y,-z
loop_
_atom_site_type_symbol
_atom_site_label
_atom_site_fract_x
_atom_site_fract_y
_atom_site_fract_z
Si Si1 0.854835 0.786630 0.560709
Si Si2 0.350964 0.820570 0.754248
Si Si3 0.889119 0.076424 0.188475
Si Si4 0.500000 0.776630 0.000000
Si Si5 0.792309 0.601040 0.208060
Si Si6 0.500000 0.379200 0.500000
O O1 0.818156 0.595780 0.664871
O O2 0.812277 0.703319 0.386339
O O3 0.857959 0.092656 0.628169
O O4 0.943475 0.710018 0.574073
O O5 0.296969 0.679432 0.846554
O O6 0.432012 0.913185 0.868671
O O7 0.825848 0.305711 0.192204
O O8 0.941948 0.046906 0.365084
O O9 0.949892 0.118580 0.092953
O O10 0.843041 0.798811 0.135911
#
# Coordination Sequence:
#
# PCOD9127275 Si02
#       6
#     4   4   4   2   4   2
#     4  11  23  41  75 104 140 178 234 299 342 405
#     4  12  26  45  69 105 145 183 233 286 352 424
#     4  11  26  45  72 104 142 184 232 289 349 419
#     4  12  30  46  70 104 144 190 226 288 356 420
#     4  11  25  45  74 102 138 186 236 290 350 407
#     4  10  22  44  74 110 140 176 244 294 346 410
#
# _framework density 25.943010999999998
#
# number of rings (size 3 to 8) (size 9 to 14) (size 15 to 20)
#    0.000    0.800    2.000    4.800    5.600    6.400 
#    0.000    0.000    0.000    0.000    0.000    0.000 
#    0.000    0.000    0.000    0.000    0.000    0.000 
#
# Total GULP energy -55939.966947 kJ/mol
# GULP energy per Si atom -5593.996695 kJ/mol
# Density = 2.588396 g / cm^3
# Si number density = 25.943011 Si / 1000 Ang^3
#
#
#
# Elastic Constant Matrix: (Units=GPa)
#
#
# Indices 1 2 3 4 5 6 
#
# 1 148.0388 -8.3570 15.1377 0.0000 -6.4869 0.0000
# 2 -8.3570 72.2800 5.3338 0.0000 5.3839 0.0000
# 3 15.1377 5.3338 109.8108 0.0000 -5.8474 0.0000
# 4 0.0000 0.0000 0.0000 23.1588 0.0000 -11.0415
# 5 -6.4869 5.3839 -5.8474 0.0000 44.8499 0.0000
# 6 0.0000 0.0000 0.0000 -11.0415 0.0000 33.5423
#
#
#
# Elastic Compliance Matrix: (Units=1/GPa)
#
#
# Indices 1 2 3 4 5 6 
#
# 1 0.006933 0.000814 -0.000954 0.000000 0.000781 0.000000
# 2 0.000814 0.014121 -0.000888 0.000000 -0.001693 0.000000
# 3 -0.000954 -0.000888 0.009344 0.000000 0.001187 0.000000
# 4 0.000000 0.000000 0.000000 0.051219 0.000000 0.016860
# 5 0.000781 -0.001693 0.001187 0.000000 0.022768 0.000000
# 6 0.000000 0.000000 0.000000 0.016860 0.000000 0.035363
#
#
# Mechanical properties :
#
#
# Convention : Reuss Voigt Hill
#
# Bulk Modulus (GPa) = 35.28373 39.37319 37.32846
# Shear Modulus (GPa) = 33.05771 41.51121 37.28446
#
# Velocity S-wave (km/s) = 3.57353 4.00445 3.79511
# Velocity P-wave (km/s) = 5.53686 6.04902 5.79860
#
# Compressibility (1/GPa) = 0.02834168
#
# Stress axis : x y z
#
# Youngs Moduli (GPa) = 144.24506 70.81727 107.01613
#
# Poissons Ratio (x) = -0.05763 0.10205
# Poissons Ratio (y) = -0.11738 0.09506
# Poissons Ratio (z) = 0.13756 0.06290
#
# Static dielectric constant tensor:
#      x y z
#    x 2.071130 0.000000 0.057960 
#    y 0.000000 1.941950 0.000000 
#    z 0.057960 0.000000 2.148060 
# 
# From -- ./inp_files/25998.got.cif
#   From: 2010.05.17/outbox.cif.g08.bks.cpg/sg5_13_cif.got.tgz:25998.got - 2010.06.03 18:56:24.
