data_PCOD9127535
_publ_section_title
;
Structure prediction by ZEFSAII (Michael W. Deem and Ramdas Pophale) SiO2 
 PCOD9127535
Probable space group: C 2
;
_chemical_formula_sum "Si O2"
_cell_formula_units_Z 26
_cell_length_a 11.618984
_cell_length_b 7.393619
_cell_length_c 23.740531
_cell_angle_alpha 90.000000
_cell_angle_beta 32.091027
_cell_angle_gamma 90.000000
_cell_volume 1083.496707
_symmetry_space_group_name_H-M "C 2"
_symmetry_group_IT_number 5
_symmetry_cell_setting 'monoclinic'
loop_
_space_group_symop_operation_xyz
x,y,z
-x,y,-z
1/2+x,1/2+y,z
1/2-x,1/2+y,-z
loop_
_atom_site_type_symbol
_atom_site_label
_atom_site_fract_x
_atom_site_fract_y
_atom_site_fract_z
Si Si1 0.000000 0.418720 0.000000
Si Si2 0.739493 0.674370 0.192638
Si Si3 0.450406 0.781643 0.211372
Si Si4 0.585982 0.144773 0.726442
Si Si5 0.496674 0.116335 0.634828
Si Si6 0.009429 0.198674 0.596756
Si Si7 0.073947 0.906558 0.123276
O O1 0.864903 0.533468 0.101557
O O2 0.816216 0.333774 0.035641
O O3 0.555657 0.754339 0.228665
O O4 0.595819 0.604899 0.304432
O O5 0.924381 0.816313 0.137391
O O6 0.485542 0.998684 0.195395
O O7 0.564086 0.625634 0.126118
O O8 0.198207 0.730937 0.311129
O O9 0.481092 0.126572 0.709142
O O10 0.538508 0.339877 0.772207
O O11 0.846564 0.134202 0.615351
O O12 0.476823 0.910256 0.623229
O O13 0.738594 0.172410 0.517478
#
# Coordination Sequence:
#
# PCOD9127535 Si02
#       7
#     2   4   4   4   4   4   4
#     4  10  24  46  76 100 138 188 228 308 358 404
#     4  10  22  49  68 103 143 172 242 291 345 422
#     4  11  21  42  76  95 143 188 219 294 347 407
#     4  11  23  45  69 101 142 185 233 286 348 419
#     4  12  24  44  67 110 144 189 238 276 350 423
#     4  11  24  44  68 102 147 184 236 288 335 424
#     4  10  23  48  70 107 136 180 242 289 355 422
#
# _framework density 23.996382000000001
#
# number of rings (size 3 to 8) (size 9 to 14) (size 15 to 20)
#    0.000    1.231    4.615    1.385    0.000    8.000 
#   22.154    0.769    0.000    0.000    0.000    0.000 
#    0.000    0.000    0.000    0.000    0.000    0.000 
#
# Total GULP energy -72467.956597 kJ/mol
# GULP energy per Si atom -5574.458200 kJ/mol
# Density = 2.394177 g / cm^3
# Si number density = 23.996382 Si / 1000 Ang^3
#
#
#
# Elastic Constant Matrix: (Units=GPa)
#
#
# Indices 1 2 3 4 5 6 
#
# 1 161.7836 43.6244 43.2759 0.0000 -46.4724 -0.0001
# 2 43.6244 90.9560 19.7018 0.0000 1.6901 -0.0001
# 3 43.2759 19.7018 92.5323 0.0000 -28.3704 0.0000
# 4 0.0000 0.0000 0.0000 27.2805 0.0000 -6.0773
# 5 -46.4724 1.6901 -28.3704 0.0000 52.6796 0.0000
# 6 -0.0001 -0.0001 0.0000 -6.0773 0.0000 31.1245
#
#
#
# Elastic Compliance Matrix: (Units=1/GPa)
#
#
# Indices 1 2 3 4 5 6 
#
# 1 0.010255 -0.004833 -0.001133 0.000000 0.008592 0.000000
# 2 -0.004833 0.013987 -0.002590 0.000000 -0.006107 0.000000
# 3 -0.001133 -0.002590 0.013903 0.000000 0.006571 0.000000
# 4 0.000000 0.000000 0.000000 0.038323 0.000000 0.007483
# 5 0.008592 -0.006107 0.006571 0.000000 0.030297 0.000000
# 6 0.000000 0.000000 0.000000 0.007483 0.000000 0.033590
#
#
# Mechanical properties :
#
#
# Convention : Reuss Voigt Hill
#
# Bulk Modulus (GPa) = 47.54422 62.05290 54.79856
# Shear Modulus (GPa) = 30.39907 38.12826 34.26366
#
# Velocity S-wave (km/s) = 3.56310 3.99045 3.78281
# Velocity P-wave (km/s) = 6.06496 6.86636 6.47806
#
# Compressibility (1/GPa) = 0.02103305
#
# Stress axis : x y z
#
# Youngs Moduli (GPa) = 97.50999 71.49586 71.92634
#
# Poissons Ratio (x) = 0.34553 0.08149
# Poissons Ratio (y) = 0.47126 0.18630
# Poissons Ratio (z) = 0.11048 0.18519
#
# Static dielectric constant tensor:
#      x y z
#    x 1.935680 0.000000 -0.048220 
#    y 0.000000 2.004530 0.000000 
#    z -0.048220 0.000000 1.963340 
# 
# From -- ./inp_files/70351.got.cif
#   From: 2010.05.17/outbox.cif.g08.bks.cpg/sg5_36_cif.got.tgz:70351.got - 2010.06.03 18:56:24.
