data_PCOD9127127
_publ_section_title
;
Structure prediction by ZEFSAII (Michael W. Deem and Ramdas Pophale) SiO2 
 PCOD9127127
Probable space group: C 2
;
_chemical_formula_sum "Si O2"
_cell_formula_units_Z 22
_cell_length_a 10.313303
_cell_length_b 20.327938
_cell_length_c 4.996946
_cell_angle_alpha 90.000000
_cell_angle_beta 74.002565
_cell_angle_gamma 90.000000
_cell_volume 1007.031308
_symmetry_space_group_name_H-M "C 2"
_symmetry_group_IT_number 5
_symmetry_cell_setting 'monoclinic'
loop_
_space_group_symop_operation_xyz
x,y,z
-x,y,-z
1/2+x,1/2+y,z
1/2-x,1/2+y,-z
loop_
_atom_site_type_symbol
_atom_site_label
_atom_site_fract_x
_atom_site_fract_y
_atom_site_fract_z
Si Si1 0.849181 0.667480 0.143200
Si Si2 0.357823 0.861281 0.461883
Si Si3 0.000000 0.464384 0.000000
Si Si4 0.650487 0.551474 0.338555
Si Si5 0.150340 0.757205 0.357735
Si Si6 0.256770 0.981055 0.807159
O O1 0.735774 0.612667 0.179678
O O2 0.841786 0.694991 0.447408
O O3 0.832802 0.729007 0.949746
O O4 0.000000 0.642181 0.000000
O O5 0.500000 0.835029 0.500000
O O6 0.405001 0.916911 0.226614
O O7 0.265841 0.807507 0.376012
O O8 0.274122 0.904092 0.725426
O O9 0.097570 0.500924 0.150416
O O10 0.500000 0.570885 0.500000
O O11 0.720235 0.521476 0.563201
O O12 0.652280 0.497306 0.101863
O O13 0.000000 0.785243 0.500000
#
# Coordination Sequence:
#
# PCOD9127127 Si02
#       6
#     4   4   2   4   4   4
#     4  10  24  44  69  95 132 182 234 273 338 407
#     4  10  23  41  70 103 136 177 229 279 343 411
#     4  10  22  44  64 108 128 182 234 274 336 430
#     4  12  26  45  67 104 140 180 231 289 347 407
#     4  10  23  45  67  99 132 175 228 283 335 407
#     4  11  24  43  69  97 142 176 228 278 348 410
#
# _framework density 21.84639
#
# number of rings (size 3 to 8) (size 9 to 14) (size 15 to 20)
#    0.000    1.455    1.818    1.636    6.364    1.455 
#    3.273    0.000    0.000    0.000    0.000    0.000 
#    0.000    0.000    0.000    0.000    0.000    0.000 
#
# Total GULP energy -61497.278598 kJ/mol
# GULP energy per Si atom -5590.661691 kJ/mol
# Density = 2.179667 g / cm^3
# Si number density = 21.846390 Si / 1000 Ang^3
#
#
#
# Elastic Constant Matrix: (Units=GPa)
#
#
# Indices 1 2 3 4 5 6 
#
# 1 150.9833 69.2335 26.4956 0.0000 -7.0821 0.0000
# 2 69.2335 53.8766 7.4624 0.0000 -9.6409 0.0000
# 3 26.4956 7.4624 86.7512 0.0000 1.7583 0.0000
# 4 0.0000 0.0000 0.0000 15.0463 0.0000 9.8021
# 5 -7.0821 -9.6409 1.7583 0.0000 43.7896 0.0000
# 6 0.0000 0.0000 0.0000 9.8021 0.0000 38.6346
#
#
#
# Elastic Compliance Matrix: (Units=1/GPa)
#
#
# Indices 1 2 3 4 5 6 
#
# 1 0.017195 -0.021981 -0.003322 0.000000 -0.001925 0.000000
# 2 -0.021981 0.047690 0.002472 0.000000 0.006845 0.000000
# 3 -0.003322 0.002472 0.012339 0.000000 -0.000488 0.000000
# 4 0.000000 0.000000 0.000000 0.079622 0.000000 -0.020201
# 5 -0.001925 0.006845 -0.000488 0.000000 0.024052 0.000000
# 6 0.000000 0.000000 0.000000 -0.020201 0.000000 0.031009
#
#
# Mechanical properties :
#
#
# Convention : Reuss Voigt Hill
#
# Bulk Modulus (GPa) = 31.68262 55.33268 43.50765
# Shear Modulus (GPa) = 18.65052 32.05540 25.35296
#
# Velocity S-wave (km/s) = 2.92500 3.83470 3.41032
# Velocity P-wave (km/s) = 5.09328 6.70743 5.95530
#
# Compressibility (1/GPa) = 0.03156305
#
# Stress axis : x y z
#
# Youngs Moduli (GPa) = 58.15528 20.96879 81.04359
#
# Poissons Ratio (x) = 0.46092 0.26922
# Poissons Ratio (y) = 1.27831 -0.20037
# Poissons Ratio (z) = 0.19319 -0.05184
#
# Static dielectric constant tensor:
#      x y z
#    x 1.807170 0.000000 0.006200 
#    y 0.000000 1.770060 0.000000 
#    z 0.006200 0.000000 1.832240 
# 
# From -- ./inp_files/2954.got.cif
#   From: 2010.05.17/outbox.cif.g08.bks.cpg/sg5_2_cif.got.tgz:2954.got - 2010.06.03 18:56:24.
