data_PCOD9127401
_publ_section_title
;
Structure prediction by ZEFSAII (Michael W. Deem and Ramdas Pophale) SiO2 
 PCOD9127401
Probable space group: C 2
;
_chemical_formula_sum "Si O2"
_cell_formula_units_Z 26
_cell_length_a 7.594860
_cell_length_b 12.267108
_cell_length_c 13.854881
_cell_angle_alpha 90.000000
_cell_angle_beta 115.433939
_cell_angle_gamma 90.000000
_cell_volume 1165.712608
_symmetry_space_group_name_H-M "C 2"
_symmetry_group_IT_number 5
_symmetry_cell_setting 'monoclinic'
loop_
_space_group_symop_operation_xyz
x,y,z
-x,y,-z
1/2+x,1/2+y,z
1/2-x,1/2+y,-z
loop_
_atom_site_type_symbol
_atom_site_label
_atom_site_fract_x
_atom_site_fract_y
_atom_site_fract_z
Si Si1 0.056537 0.992250 0.222368
Si Si2 0.512135 0.716878 0.270056
Si Si3 0.840842 0.775056 0.681785
Si Si4 0.000000 0.930971 0.000000
Si Si5 0.938123 0.373229 0.095764
Si Si6 0.772188 0.855243 0.456603
Si Si7 0.992586 0.529313 0.709698
O O1 0.014754 0.871982 0.251891
O O2 0.993077 0.998981 0.096678
O O3 0.970309 0.089424 0.263685
O O4 0.287996 0.015427 0.277787
O O5 0.330064 0.772908 0.279567
O O6 0.523148 0.764187 0.164852
O O7 0.702181 0.756496 0.371556
O O8 0.746471 0.814433 0.559498
O O9 0.933940 0.655800 0.697910
O O10 0.202813 0.865990 0.048163
O O11 0.004150 0.471428 0.183401
O O12 0.000000 0.388859 0.000000
O O13 0.000000 0.877961 0.500000
O O14 0.650220 0.959499 0.392613
#
# Coordination Sequence:
#
# PCOD9127401 Si02
#       7
#     4   4   4   2   4   4   4
#     4  11  25  47  70 101 149 178 236 299 350 429
#     4  11  25  47  69 107 141 186 235 295 361 417
#     4  12  25  46  72 100 143 187 228 301 346 432
#     4  10  22  46  68 108 140 190 236 296 362 404
#     4  10  23  47  73 105 149 187 244 295 353 435
#     4  11  25  44  72 104 140 189 238 284 361 425
#     4  10  25  48  66 108 141 183 243 289 356 425
#
# _framework density 22.303954999999998
#
# number of rings (size 3 to 8) (size 9 to 14) (size 15 to 20)
#    0.000    1.231    4.615    1.385    7.538    2.462 
#    4.154    0.000    0.000    0.000    0.000    0.000 
#    0.000    0.000    0.000    0.000    0.000    0.000 
#
# Total GULP energy -72704.011674 kJ/mol
# GULP energy per Si atom -5592.616283 kJ/mol
# Density = 2.225319 g / cm^3
# Si number density = 22.303955 Si / 1000 Ang^3
#
#
#
# Elastic Constant Matrix: (Units=GPa)
#
#
# Indices 1 2 3 4 5 6 
#
# 1 53.5677 11.8345 28.1621 0.0000 -0.4434 0.0000
# 2 11.8345 167.0791 62.7318 0.0000 -6.6774 0.0000
# 3 28.1621 62.7318 131.1537 0.0000 -4.7616 0.0000
# 4 0.0000 0.0000 0.0000 4.9834 0.0000 -3.9444
# 5 -0.4434 -6.6774 -4.7616 0.0000 37.4822 0.0000
# 6 0.0000 0.0000 0.0000 -3.9444 0.0000 23.8764
#
#
#
# Elastic Compliance Matrix: (Units=1/GPa)
#
#
# Indices 1 2 3 4 5 6 
#
# 1 0.021055 0.000242 -0.004648 0.000000 -0.000298 0.000000
# 2 0.000242 0.007326 -0.003525 0.000000 0.000860 0.000000
# 3 -0.004648 -0.003525 0.010331 0.000000 0.000630 0.000000
# 4 0.000000 0.000000 0.000000 0.230851 0.000000 0.038136
# 5 -0.000298 0.000860 0.000630 0.000000 0.026909 0.000000
# 6 0.000000 0.000000 0.000000 0.038136 0.000000 0.048182
#
#
# Mechanical properties :
#
#
# Convention : Reuss Voigt Hill
#
# Bulk Modulus (GPa) = 43.76084 61.91749 52.83917
# Shear Modulus (GPa) = 13.58203 29.87320 21.72761
#
# Velocity S-wave (km/s) = 2.47037 3.66371 3.12454
# Velocity P-wave (km/s) = 5.27255 6.76151 6.06291
#
# Compressibility (1/GPa) = 0.02285148
#
# Stress axis : x y z
#
# Youngs Moduli (GPa) = 47.49360 136.50340 96.79302
#
# Poissons Ratio (x) = -0.03299 0.44985
# Poissons Ratio (y) = -0.01148 0.34116
# Poissons Ratio (z) = 0.22073 0.48113
#
# Static dielectric constant tensor:
#      x y z
#    x 1.832950 0.000000 -0.000690 
#    y 0.000000 1.819940 0.000000 
#    z -0.000690 0.000000 1.819690 
# 
# From -- ./inp_files/50378.got.cif
#   From: 2010.05.17/outbox.cif.g08.bks.cpg/sg5_26_cif.got.tgz:50378.got - 2010.06.03 18:56:24.
