data_PCOD9127378
_publ_section_title
;
Structure prediction by ZEFSAII (Michael W. Deem and Ramdas Pophale) SiO2 
 PCOD9127378
Probable space group: C 2
;
_chemical_formula_sum "Si O2"
_cell_formula_units_Z 22
_cell_length_a 14.456285
_cell_length_b 5.251220
_cell_length_c 14.364230
_cell_angle_alpha 90.000000
_cell_angle_beta 125.816675
_cell_angle_gamma 90.000000
_cell_volume 884.225647
_symmetry_space_group_name_H-M "C 2"
_symmetry_group_IT_number 5
_symmetry_cell_setting 'monoclinic'
loop_
_space_group_symop_operation_xyz
x,y,z
-x,y,-z
1/2+x,1/2+y,z
1/2-x,1/2+y,-z
loop_
_atom_site_type_symbol
_atom_site_label
_atom_site_fract_x
_atom_site_fract_y
_atom_site_fract_z
Si Si1 0.000000 0.518930 0.000000
Si Si2 0.435323 0.842764 0.637647
Si Si3 0.760597 0.419581 0.882871
Si Si4 0.096985 0.573827 0.872848
Si Si5 0.194212 0.680336 0.564198
Si Si6 0.649875 0.683448 0.659160
O O1 0.969530 0.678580 0.074831
O O2 0.114000 0.350496 0.082514
O O3 0.508735 0.884425 0.773410
O O4 0.396888 0.112257 0.569792
O O5 0.318460 0.700987 0.591270
O O6 0.186636 0.434987 0.626300
O O7 0.649233 0.245768 0.822657
O O8 0.723840 0.654482 0.797202
O O9 0.793232 0.457843 0.010270
O O10 0.172315 0.932662 0.611117
O O11 0.980494 0.209983 0.385224
#
# Coordination Sequence:
#
# PCOD9127378 Si02
#       6
#     2   4   4   4   4   4
#     4   8  22  40  68 104 154 196 252 312 380 454
#     4  12  28  50  79 111 161 205 259 328 379 461
#     4  10  22  45  75 113 156 198 263 313 389 466
#     4  10  22  45  75 112 155 205 255 319 389 456
#     4  12  30  51  79 117 157 206 267 312 387 464
#     4  12  28  51  82 115 158 206 255 324 388 464
#
# _framework density 24.880524999999999
#
# number of rings (size 3 to 8) (size 9 to 14) (size 15 to 20)
#    1.091    0.000    0.000    4.909    0.000   14.545 
#    0.000    0.909    0.000    0.000    0.000    0.000 
#    0.000    0.000    0.000    0.000    0.000    0.000 
#
# Total GULP energy -61445.481804 kJ/mol
# GULP energy per Si atom -5585.952891 kJ/mol
# Density = 2.482390 g / cm^3
# Si number density = 24.880525 Si / 1000 Ang^3
#
#
#
# Elastic Constant Matrix: (Units=GPa)
#
#
# Indices 1 2 3 4 5 6 
#
# 1 222.7821 68.1864 34.5484 0.0000 11.0119 0.0000
# 2 68.1864 107.3407 38.5021 0.0000 0.0895 0.0000
# 3 34.5484 38.5021 121.9709 0.0000 -3.5281 0.0000
# 4 0.0000 0.0000 0.0000 23.7480 0.0000 0.3507
# 5 11.0119 0.0895 -3.5281 0.0000 29.0127 0.0000
# 6 0.0000 0.0000 0.0000 0.3507 0.0000 44.9362
#
#
#
# Elastic Compliance Matrix: (Units=1/GPa)
#
#
# Indices 1 2 3 4 5 6 
#
# 1 0.005743 -0.003428 -0.000610 0.000000 -0.002243 0.000000
# 2 -0.003428 0.012557 -0.002967 0.000000 0.000902 0.000000
# 3 -0.000610 -0.002967 0.009348 0.000000 0.001377 0.000000
# 4 0.000000 0.000000 0.000000 0.042114 0.000000 -0.000329
# 5 -0.002243 0.000902 0.001377 0.000000 0.035484 0.000000
# 6 0.000000 0.000000 0.000000 -0.000329 0.000000 0.022256
#
#
# Mechanical properties :
#
#
# Convention : Reuss Voigt Hill
#
# Bulk Modulus (GPa) = 73.31649 81.61861 77.46755
# Shear Modulus (GPa) = 34.23327 40.26319 37.24823
#
# Velocity S-wave (km/s) = 3.71335 4.02713 3.87341
# Velocity P-wave (km/s) = 6.92218 7.38235 7.15597
#
# Compressibility (1/GPa) = 0.01363950
#
# Stress axis : x y z
#
# Youngs Moduli (GPa) = 174.11746 79.63706 106.97793
#
# Poissons Ratio (x) = 0.27298 0.06522
# Poissons Ratio (y) = 0.59683 0.31738
# Poissons Ratio (z) = 0.10615 0.23627
#
# Static dielectric constant tensor:
#      x y z
#    x 1.918180 0.000000 -0.021930 
#    y 0.000000 2.044000 0.000000 
#    z -0.021930 0.000000 2.005180 
# 
# From -- ./inp_files/53980.got.cif
#   From: 2010.05.17/outbox.cif.g08.bks.cpg/sg5_27_cif.got.tgz:53980.got - 2010.06.03 18:56:24.
