data_PCOD9127244
_publ_section_title
;
Structure prediction by ZEFSAII (Michael W. Deem and Ramdas Pophale) SiO2 
 PCOD9127244
Probable space group: C 2
;
_chemical_formula_sum "Si O2"
_cell_formula_units_Z 30
_cell_length_a 20.787335
_cell_length_b 14.532636
_cell_length_c 9.015863
_cell_angle_alpha 90.000000
_cell_angle_beta 150.598270
_cell_angle_gamma 90.000000
_cell_volume 1337.119243
_symmetry_space_group_name_H-M "C 2"
_symmetry_group_IT_number 5
_symmetry_cell_setting 'monoclinic'
loop_
_space_group_symop_operation_xyz
x,y,z
-x,y,-z
1/2+x,1/2+y,z
1/2-x,1/2+y,-z
loop_
_atom_site_type_symbol
_atom_site_label
_atom_site_fract_x
_atom_site_fract_y
_atom_site_fract_z
Si Si1 0.000000 0.976220 0.500000
Si Si2 0.555001 0.824835 0.761241
Si Si3 0.033826 0.623944 0.403049
Si Si4 0.501603 0.335108 0.737991
Si Si5 0.768519 0.609541 0.753350
Si Si6 0.208752 0.313222 0.576856
Si Si7 0.733693 0.410079 0.599517
Si Si8 0.189357 0.130289 0.945675
O O1 0.058388 0.907482 0.498339
O O2 0.904544 0.044367 0.224748
O O3 0.500000 0.868921 0.500000
O O4 0.425499 0.815294 0.601206
O O5 0.618342 0.725717 0.843579
O O6 0.668878 0.879997 0.072396
O O7 0.000000 0.590263 0.500000
O O8 0.013999 0.733617 0.356289
O O9 0.187785 0.612065 0.700940
O O10 0.924837 0.588678 0.071473
O O11 0.401885 0.351857 0.671757
O O12 0.656815 0.347599 0.073014
O O13 0.737627 0.704355 0.606755
O O14 0.704997 0.518513 0.557858
O O15 0.728841 0.628577 0.848079
O O16 0.195358 0.376852 0.406859
#
# Coordination Sequence:
#
# PCOD9127244 Si02
#       8
#     2   4   4   4   4   4   4   4
#     4  12  22  34  66 104 138 168 240 300 348 424
#     4  12  25  44  74 105 146 190 237 300 368 423
#     4   9  19  36  66  99 140 180 228 298 361 419
#     4  11  23  41  69 103 139 190 240 296 356 426
#     4  10  22  44  72 102 144 186 246 292 359 439
#     4  11  26  49  70 103 150 196 238 298 366 434
#     4  12  26  47  71 107 147 196 241 297 365 441
#     4  11  20  40  66 108 139 180 234 299 367 411
#
# _framework density 22.436294
#
# number of rings (size 3 to 8) (size 9 to 14) (size 15 to 20)
#    0.000    1.067    5.333    0.800    1.867    2.667 
#    2.400    6.667    0.000    0.000    0.000    0.000 
#    0.000    0.000    0.000    0.000    0.000    0.000 
#
# Total GULP energy -83749.135696 kJ/mol
# GULP energy per Si atom -5583.275713 kJ/mol
# Density = 2.238523 g / cm^3
# Si number density = 22.436294 Si / 1000 Ang^3
#
#
#
# Elastic Constant Matrix: (Units=GPa)
#
#
# Indices 1 2 3 4 5 6 
#
# 1 78.7905 25.2481 24.4335 0.0000 13.6915 0.0000
# 2 25.2481 105.8758 13.2906 0.0000 -1.8182 0.0000
# 3 24.4335 13.2906 99.8814 0.0000 28.0119 0.0000
# 4 0.0000 0.0000 0.0000 6.3216 0.0000 -11.5718
# 5 13.6915 -1.8182 28.0119 0.0000 32.5021 0.0000
# 6 0.0000 0.0000 0.0000 -11.5718 0.0000 9.6112
#
#
#
# Elastic Compliance Matrix: (Units=1/GPa)
#
#
# Indices 1 2 3 4 5 6 
#
# 1 0.015260 -0.003492 -0.001860 0.000000 -0.005020 0.000000
# 2 -0.003492 0.010521 -0.001481 0.000000 0.003336 0.000000
# 3 -0.001860 -0.001481 0.013804 0.000000 -0.011196 0.000000
# 4 0.000000 0.000000 0.000000 -0.131393 0.000000 -0.158196
# 5 -0.005020 0.003336 -0.011196 0.000000 0.042718 0.000000
# 6 0.000000 0.000000 0.000000 -0.158196 0.000000 -0.086421
#
#
# Mechanical properties :
#
#
# Convention : Reuss Voigt Hill
#
# Bulk Modulus (GPa) = 38.58336 45.61023 42.09679
# Shear Modulus (GPa) = -44.16794 24.45869 -9.85462
#
# Velocity S-wave (km/s) = -4.44170 3.30531 -2.09805
# Velocity P-wave (km/s) = 3.01176 5.91098 3.59645
#
# Compressibility (1/GPa) = 0.02591791
#
# Stress axis : x y z
#
# Youngs Moduli (GPa) = 65.53042 95.04842 72.44220
#
# Poissons Ratio (x) = 0.33188 0.13478
# Poissons Ratio (y) = 0.22881 0.10732
# Poissons Ratio (z) = 0.12192 0.14081
#
# Static dielectric constant tensor:
#      x y z
#    x 1.974760 0.000000 0.039630 
#    y 0.000000 1.797660 0.000000 
#    z 0.039630 0.000000 1.881000 
# 
# From -- ./inp_files/29943.got.cif
#   From: 2010.05.17/outbox.cif.g08.bks.cpg/sg5_15_cif.got.tgz:29943.got - 2010.06.03 18:56:24.
