data_PCOD9127470
_publ_section_title
;
Structure prediction by ZEFSAII (Michael W. Deem and Ramdas Pophale) SiO2 
 PCOD9127470
Probable space group: C 2
;
_chemical_formula_sum "Si O2"
_cell_formula_units_Z 22
_cell_length_a 9.144216
_cell_length_b 12.426707
_cell_length_c 8.644024
_cell_angle_alpha 90.000000
_cell_angle_beta 115.144150
_cell_angle_gamma 90.000000
_cell_volume 889.166373
_symmetry_space_group_name_H-M "C 2"
_symmetry_group_IT_number 5
_symmetry_cell_setting 'monoclinic'
loop_
_space_group_symop_operation_xyz
x,y,z
-x,y,-z
1/2+x,1/2+y,z
1/2-x,1/2+y,-z
loop_
_atom_site_type_symbol
_atom_site_label
_atom_site_fract_x
_atom_site_fract_y
_atom_site_fract_z
Si Si1 0.237285 0.641890 0.546914
Si Si2 0.734326 0.383936 0.585751
Si Si3 0.125185 0.696893 0.168600
Si Si4 0.061525 0.153814 0.864493
Si Si5 0.500000 0.974077 0.500000
Si Si6 0.535483 0.418723 0.775262
O O1 0.177311 0.761872 0.548103
O O2 0.186256 0.628267 0.344306
O O3 0.422165 0.657580 0.673622
O O4 0.140969 0.558089 0.611554
O O5 0.910249 0.404475 0.590507
O O6 0.696606 0.406460 0.745487
O O7 0.608455 0.444656 0.414541
O O8 0.283484 0.712825 0.134812
O O9 0.035687 0.809326 0.178720
O O10 0.000000 0.637690 0.000000
O O11 0.078930 0.024336 0.892729
O O12 0.000000 0.198898 0.000000
#
# Coordination Sequence:
#
# PCOD9127470 Si02
#       6
#     4   4   4   4   2   4
#     4  11  25  44  73 104 146 190 241 298 365 435
#     4  10  23  39  74 107 138 192 247 290 370 433
#     4  11  26  46  76 103 146 194 243 305 367 430
#     4  12  27  44  73 108 145 191 246 303 366 431
#     4  12  22  42  76 106 146 188 248 298 358 432
#     4  10  22  47  67 104 147 187 240 307 360 434
#
# _framework density 24.742277999999999
#
# number of rings (size 3 to 8) (size 9 to 14) (size 15 to 20)
#    0.000    1.091    1.818    4.364   12.727    0.000 
#    0.000    0.000    0.000    0.000    0.000    0.000 
#    0.000    0.000    0.000    0.000    0.000    0.000 
#
# Total GULP energy -61320.679323 kJ/mol
# GULP energy per Si atom -5574.607211 kJ/mol
# Density = 2.468596 g / cm^3
# Si number density = 24.742278 Si / 1000 Ang^3
#
#
#
# Elastic Constant Matrix: (Units=GPa)
#
#
# Indices 1 2 3 4 5 6 
#
# 1 215.3423 46.9027 55.1202 0.0000 -33.8281 0.0000
# 2 46.9027 81.4236 3.3569 0.0000 -22.5138 0.0000
# 3 55.1202 3.3569 118.9690 0.0000 -10.2009 0.0000
# 4 0.0000 0.0000 0.0000 15.7302 0.0000 -6.1598
# 5 -33.8281 -22.5138 -10.2009 0.0000 55.2500 0.0000
# 6 0.0000 0.0000 0.0000 -6.1598 0.0000 43.0337
#
#
#
# Elastic Compliance Matrix: (Units=1/GPa)
#
#
# Indices 1 2 3 4 5 6 
#
# 1 0.006300 -0.002917 -0.002650 0.000000 0.002179 0.000000
# 2 -0.002917 0.015193 0.001321 0.000000 0.004649 0.000000
# 3 -0.002650 0.001321 0.009656 0.000000 0.000699 0.000000
# 4 0.000000 0.000000 0.000000 0.067347 0.000000 0.009640
# 5 0.002179 0.004649 0.000699 0.000000 0.021457 0.000000
# 6 0.000000 0.000000 0.000000 0.009640 0.000000 0.024617
#
#
# Mechanical properties :
#
#
# Convention : Reuss Voigt Hill
#
# Bulk Modulus (GPa) = 44.13490 69.61051 56.87271
# Shear Modulus (GPa) = 31.13081 43.49312 37.31196
#
# Velocity S-wave (km/s) = 3.55096 4.19722 3.88754
# Velocity P-wave (km/s) = 5.88974 7.18917 6.57165
#
# Compressibility (1/GPa) = 0.02265781
#
# Stress axis : x y z
#
# Youngs Moduli (GPa) = 158.73911 65.82123 103.56490
#
# Poissons Ratio (x) = 0.19200 0.27440
# Poissons Ratio (y) = 0.46304 -0.13685
# Poissons Ratio (z) = 0.42059 -0.08698
#
# Static dielectric constant tensor:
#      x y z
#    x 2.031030 0.000000 -0.008220 
#    y 0.000000 2.077360 0.000000 
#    z -0.008220 0.000000 1.999630 
# 
# From -- ./inp_files/15070.got.cif
#   From: 2010.05.17/outbox.cif.g08.bks.cpg/sg5_8_cif.got.tgz:15070.got - 2010.06.03 18:56:24.
