data_PCOD9127465
_publ_section_title
;
Structure prediction by ZEFSAII (Michael W. Deem and Ramdas Pophale) SiO2 
 PCOD9127465
Probable space group: C 2
;
_chemical_formula_sum "Si O2"
_cell_formula_units_Z 18
_cell_length_a 5.731811
_cell_length_b 24.848884
_cell_length_c 5.243578
_cell_angle_alpha 90.000000
_cell_angle_beta 92.033329
_cell_angle_gamma 90.000000
_cell_volume 746.367889
_symmetry_space_group_name_H-M "C 2"
_symmetry_group_IT_number 5
_symmetry_cell_setting 'monoclinic'
loop_
_space_group_symop_operation_xyz
x,y,z
-x,y,-z
1/2+x,1/2+y,z
1/2-x,1/2+y,-z
loop_
_atom_site_type_symbol
_atom_site_label
_atom_site_fract_x
_atom_site_fract_y
_atom_site_fract_z
Si Si1 0.758384 0.051550 0.151072
Si Si2 0.000000 0.857123 0.000000
Si Si3 0.657813 0.168898 0.259802
Si Si4 0.361339 0.783618 0.246054
Si Si5 0.845799 0.436532 0.736978
O O1 0.769795 0.109808 0.284316
O O2 0.746085 0.997260 0.316360
O O3 0.500000 0.053189 0.000000
O O4 0.000000 0.047036 0.000000
O O5 0.872822 0.816560 0.801013
O O6 0.146620 0.896070 0.820054
O O7 0.500000 0.177921 0.500000
O O8 0.827567 0.219486 0.246994
O O9 0.500000 0.170349 0.000000
O O10 0.500000 0.798949 0.500000
O O11 0.500000 0.799211 0.000000
O O12 0.000000 0.420417 0.500000
O O13 0.000000 0.439647 0.000000
#
# Coordination Sequence:
#
# PCOD9127465 Si02
#       5
#     4   2   4   4   4
#     4  10  22  46  80 116 158 208 264 334 408 489
#     4  12  28  52  78 112 166 210 270 338 400 488
#     4  11  23  46  75 113 154 202 258 329 405 480
#     4  12  28  48  77 115 153 208 271 328 402 478
#     4  11  26  50  76 115 153 210 268 326 407 483
#
# _framework density 24.116795
#
# number of rings (size 3 to 8) (size 9 to 14) (size 15 to 20)
#    0.000    0.889    2.222    3.333    0.000    8.000 
#    0.000    6.667    0.000    0.000    0.000    0.000 
#    0.000    0.000    0.000    0.000    0.000    0.000 
#
# Total GULP energy -50378.367638 kJ/mol
# GULP energy per Si atom -5597.596404 kJ/mol
# Density = 2.406190 g / cm^3
# Si number density = 24.116795 Si / 1000 Ang^3
#
#
#
# Elastic Constant Matrix: (Units=GPa)
#
#
# Indices 1 2 3 4 5 6 
#
# 1 96.7694 34.7328 45.8885 0.0000 1.2964 0.0000
# 2 34.7328 184.6414 19.8819 0.0000 15.2463 0.0000
# 3 45.8885 19.8819 166.3131 0.0000 -0.0914 0.0000
# 4 0.0000 0.0000 0.0000 -6.2193 0.0000 -36.6513
# 5 1.2964 15.2463 -0.0914 0.0000 51.0974 0.0000
# 6 0.0000 0.0000 0.0000 -36.6513 0.0000 64.9400
#
#
#
# Elastic Compliance Matrix: (Units=1/GPa)
#
#
# Indices 1 2 3 4 5 6 
#
# 1 0.012596 -0.002045 -0.003231 0.000000 0.000285 0.000000
# 2 -0.002045 0.005959 -0.000149 0.000000 -0.001726 0.000000
# 3 -0.003231 -0.000149 0.006922 0.000000 0.000139 0.000000
# 4 0.000000 0.000000 0.000000 -0.037168 0.000000 -0.020977
# 5 0.000285 -0.001726 0.000139 0.000000 0.020079 0.000000
# 6 0.000000 0.000000 0.000000 -0.020977 0.000000 0.003560
#
#
# Mechanical properties :
#
#
# Convention : Reuss Voigt Hill
#
# Bulk Modulus (GPa) = 68.36458 72.08112 70.22285
# Shear Modulus (GPa) = 180.67880 45.11167 112.89524
#
# Velocity S-wave (km/s) = 8.66492 4.32968 6.84934
# Velocity P-wave (km/s) = 11.33652 7.41269 9.57770
#
# Compressibility (1/GPa) = 0.01462746
#
# Stress axis : x y z
#
# Youngs Moduli (GPa) = 79.38941 167.80735 144.46494
#
# Poissons Ratio (x) = 0.34318 0.46674
# Poissons Ratio (y) = 0.16236 0.02154
# Poissons Ratio (z) = 0.25649 0.02502
#
# Static dielectric constant tensor:
#      x y z
#    x 1.959880 0.000000 0.026980 
#    y 0.000000 1.922780 0.000000 
#    z 0.026980 0.000000 1.840640 
# 
# From -- ./inp_files/846.got.cif
#   From: 2010.05.17/outbox.cif.g08.bks.cpg/sg5_1_cif.got.tgz:846.got - 2010.06.03 18:56:24.
