data_PCOD9127455
_publ_section_title
;
Structure prediction by ZEFSAII (Michael W. Deem and Ramdas Pophale) SiO2 
 PCOD9127455
Probable space group: C 2
;
_chemical_formula_sum "Si O2"
_cell_formula_units_Z 18
_cell_length_a 12.468555
_cell_length_b 6.325204
_cell_length_c 11.881286
_cell_angle_alpha 90.000000
_cell_angle_beta 50.976329
_cell_angle_gamma 90.000000
_cell_volume 727.966429
_symmetry_space_group_name_H-M "C 2"
_symmetry_group_IT_number 5
_symmetry_cell_setting 'monoclinic'
loop_
_space_group_symop_operation_xyz
x,y,z
-x,y,-z
1/2+x,1/2+y,z
1/2-x,1/2+y,-z
loop_
_atom_site_type_symbol
_atom_site_label
_atom_site_fract_x
_atom_site_fract_y
_atom_site_fract_z
Si Si1 0.358923 0.460280 0.309657
Si Si2 0.635126 0.927571 0.976038
Si Si3 0.500000 0.534153 0.000000
Si Si4 0.057399 0.308398 0.571654
Si Si5 0.892001 0.677957 0.781019
O O1 0.202349 0.415074 0.443931
O O2 0.405151 0.673794 0.342929
O O3 0.463470 0.290569 0.291270
O O4 0.385243 0.440254 0.157387
O O5 0.576197 0.691531 0.036463
O O6 0.778602 0.856747 0.821455
O O7 0.500000 0.018969 0.000000
O O8 0.656460 0.075470 0.068084
O O9 0.000000 0.183154 0.500000
O O10 0.938572 0.481153 0.674832
#
# Coordination Sequence:
#
# PCOD9127455 Si02
#       5
#     4   4   2   4   4
#     4  12  26  50  77 115 153 202 258 312 379 465
#     4  10  24  44  70 109 147 189 247 308 372 434
#     4  10  22  46  76 108 152 186 256 310 370 446
#     4  12  27  49  78 110 156 206 251 312 388 453
#     4  12  25  47  76 108 155 194 254 310 376 452
#
# _framework density 24.726414999999999
#
# number of rings (size 3 to 8) (size 9 to 14) (size 15 to 20)
#    0.667    0.000    4.444    2.667    1.556    2.667 
#    4.000    0.000    0.000    0.000    0.000    0.000 
#    0.000    0.000    0.000    0.000    0.000    0.000 
#
# Total GULP energy -50143.280034 kJ/mol
# GULP energy per Si atom -5571.475559 kJ/mol
# Density = 2.467014 g / cm^3
# Si number density = 24.726415 Si / 1000 Ang^3
#
#
#
# Elastic Constant Matrix: (Units=GPa)
#
#
# Indices 1 2 3 4 5 6 
#
# 1 141.4161 35.0816 67.7474 0.0000 -20.6348 0.0000
# 2 35.0816 55.8481 43.2672 0.0000 0.7368 0.0000
# 3 67.7474 43.2672 146.5889 0.0000 4.8388 0.0000
# 4 0.0000 0.0000 0.0000 38.3895 0.0000 -3.8858
# 5 -20.6348 0.7368 4.8388 0.0000 33.9913 0.0000
# 6 0.0000 0.0000 0.0000 -3.8858 0.0000 18.2568
#
#
#
# Elastic Compliance Matrix: (Units=1/GPa)
#
#
# Indices 1 2 3 4 5 6 
#
# 1 0.011150 -0.003785 -0.004282 0.000000 0.007461 0.000000
# 2 -0.003785 0.024507 -0.005416 0.000000 -0.002058 0.000000
# 3 -0.004282 -0.005416 0.010531 0.000000 -0.003981 0.000000
# 4 0.000000 0.000000 0.000000 0.026622 0.000000 0.005666
# 5 0.007461 -0.002058 -0.003981 0.000000 0.034560 0.000000
# 6 0.000000 0.000000 0.000000 0.005666 0.000000 0.055980
#
#
# Mechanical properties :
#
#
# Convention : Reuss Voigt Hill
#
# Bulk Modulus (GPa) = 52.02669 70.67172 61.34921
# Shear Modulus (GPa) = 25.41626 31.31130 28.36378
#
# Velocity S-wave (km/s) = 3.20956 3.56239 3.39057
# Velocity P-wave (km/s) = 5.90099 6.75013 6.33979
#
# Compressibility (1/GPa) = 0.01922090
#
# Stress axis : x y z
#
# Youngs Moduli (GPa) = 89.68237 40.80545 94.95792
#
# Poissons Ratio (x) = 0.15445 0.40664
# Poissons Ratio (y) = 0.33945 0.51430
# Poissons Ratio (z) = 0.38405 0.22101
#
# Static dielectric constant tensor:
#      x y z
#    x 2.051450 0.000000 -0.043920 
#    y 0.000000 2.028030 0.000000 
#    z -0.043920 0.000000 2.019120 
# 
# From -- ./inp_files/38010.got.cif
#   From: 2010.05.17/outbox.cif.g08.bks.cpg/sg5_20_cif.got.tgz:38010.got - 2010.06.03 18:56:24.
