data_PCOD9127969
_publ_section_title
;
Structure prediction by ZEFSAII (Michael W. Deem and Ramdas Pophale) SiO2 
 PCOD9127969
Probable space group: C 2
;
_chemical_formula_sum "Si O2"
_cell_formula_units_Z 18
_cell_length_a 5.037265
_cell_length_b 18.732056
_cell_length_c 8.677766
_cell_angle_alpha 90.000000
_cell_angle_beta 117.328432
_cell_angle_gamma 90.000000
_cell_volume 727.430676
_symmetry_space_group_name_H-M "C 2"
_symmetry_group_IT_number 5
_symmetry_cell_setting 'monoclinic'
loop_
_space_group_symop_operation_xyz
x,y,z
-x,y,-z
1/2+x,1/2+y,z
1/2-x,1/2+y,-z
loop_
_atom_site_type_symbol
_atom_site_label
_atom_site_fract_x
_atom_site_fract_y
_atom_site_fract_z
Si Si1 0.036792 0.331470 0.688645
Si Si2 0.000000 0.998339 0.500000
Si Si3 0.668671 0.469476 0.205875
Si Si4 0.025392 0.610451 0.682378
Si Si5 0.834034 0.760210 0.162904
O O1 0.051028 0.415513 0.731486
O O2 0.371921 0.302160 0.816720
O O3 0.000000 0.318458 0.500000
O O4 0.765417 0.293469 0.701109
O O5 0.255256 0.054651 0.621002
O O6 0.074332 0.956530 0.360700
O O7 0.707681 0.554879 0.220202
O O8 0.500000 0.454570 0.000000
O O9 0.057884 0.678485 0.797874
O O10 0.000000 0.637206 0.500000
O O11 0.500000 0.764022 0.000000
#
# Coordination Sequence:
#
# PCOD9127969 Si02
#       5
#     4   2   4   4   4
#     4  12  27  48  74 106 148 198 246 307 380 450
#     4  10  24  44  76 106 146 200 248 316 372 456
#     4  11  25  46  72 108 145 194 252 310 374 451
#     4  10  23  44  71 103 143 191 251 295 376 444
#     4  12  27  47  73 109 148 193 249 311 376 447
#
# _framework density 24.744624999999999
#
# number of rings (size 3 to 8) (size 9 to 14) (size 15 to 20)
#    0.000    0.889    0.000    6.667   14.000    0.889 
#    4.000    0.000    0.000    0.000    0.000    0.000 
#    0.000    0.000    0.000    0.000    0.000    0.000 
#
# Total GULP energy -50184.916512 kJ/mol
# GULP energy per Si atom -5576.101835 kJ/mol
# Density = 2.468831 g / cm^3
# Si number density = 24.744625 Si / 1000 Ang^3
#
#
#
# Elastic Constant Matrix: (Units=GPa)
#
#
# Indices 1 2 3 4 5 6 
#
# 1 103.3564 34.6772 22.7423 0.0000 6.4040 0.0000
# 2 34.6772 132.0460 14.4110 0.0000 -1.8625 0.0000
# 3 22.7423 14.4110 139.3359 0.0000 8.0229 0.0000
# 4 0.0000 0.0000 0.0000 21.4393 0.0000 8.5224
# 5 6.4040 -1.8625 8.0229 0.0000 27.3849 0.0000
# 6 0.0000 0.0000 0.0000 8.5224 0.0000 32.4178
#
#
#
# Elastic Compliance Matrix: (Units=1/GPa)
#
#
# Indices 1 2 3 4 5 6 
#
# 1 0.011061 -0.002788 -0.001381 0.000000 -0.002372 0.000000
# 2 -0.002788 0.008378 -0.000490 0.000000 0.001365 0.000000
# 3 -0.001381 -0.000490 0.007564 0.000000 -0.001926 0.000000
# 4 0.000000 0.000000 0.000000 0.052086 0.000000 -0.013693
# 5 -0.002372 0.001365 -0.001926 0.000000 0.037728 0.000000
# 6 0.000000 0.000000 0.000000 -0.013693 0.000000 0.034447
#
#
# Mechanical properties :
#
#
# Convention : Reuss Voigt Hill
#
# Bulk Modulus (GPa) = 56.54033 57.59993 57.07013
# Shear Modulus (GPa) = 30.03419 36.44228 33.23824
#
# Velocity S-wave (km/s) = 3.48769 3.84179 3.66901
# Velocity P-wave (km/s) = 6.25442 6.55800 6.40801
#
# Compressibility (1/GPa) = 0.01768649
#
# Stress axis : x y z
#
# Youngs Moduli (GPa) = 90.40555 119.36113 132.20789
#
# Poissons Ratio (x) = 0.33274 0.18252
# Poissons Ratio (y) = 0.25202 0.06480
# Poissons Ratio (z) = 0.12481 0.05850
#
# Static dielectric constant tensor:
#      x y z
#    x 2.090260 0.000000 0.061290 
#    y 0.000000 1.871000 0.000000 
#    z 0.061290 0.000000 2.017080 
# 
# From -- ./inp_files/12011.got.cif
#   From: 2010.05.17/outbox.cif.g08.bks.cpg/sg5_7_cif.got.tgz:12011.got - 2010.06.03 18:56:24.
