data_PCOD9127979
_publ_section_title
;
Structure prediction by ZEFSAII (Michael W. Deem and Ramdas Pophale) SiO2 
 PCOD9127979
Probable space group: C 2
;
_chemical_formula_sum "Si O2"
_cell_formula_units_Z 30
_cell_length_a 6.551291
_cell_length_b 17.436783
_cell_length_c 14.781312
_cell_angle_alpha 90.000000
_cell_angle_beta 122.751862
_cell_angle_gamma 90.000000
_cell_volume 1420.081601
_symmetry_space_group_name_H-M "C 2"
_symmetry_group_IT_number 5
_symmetry_cell_setting 'monoclinic'
loop_
_space_group_symop_operation_xyz
x,y,z
-x,y,-z
1/2+x,1/2+y,z
1/2-x,1/2+y,-z
loop_
_atom_site_type_symbol
_atom_site_label
_atom_site_fract_x
_atom_site_fract_y
_atom_site_fract_z
Si Si1 0.958042 0.639270 0.383144
Si Si2 0.350619 0.368411 0.240124
Si Si3 0.248378 0.237020 0.678477
Si Si4 0.242013 0.514956 0.916520
Si Si5 0.000000 0.400743 0.000000
Si Si6 0.090442 0.017368 0.228872
Si Si7 0.852820 0.634525 0.872809
Si Si8 0.747621 0.790289 0.384960
O O1 0.820355 0.563412 0.320959
O O2 0.777549 0.711909 0.334685
O O3 0.000000 0.632347 0.500000
O O4 0.183138 0.669060 0.376278
O O5 0.564321 0.306384 0.289166
O O6 0.465436 0.452713 0.259314
O O7 0.215593 0.356396 0.303241
O O8 0.172672 0.357111 0.111623
O O9 0.284689 0.202198 0.788001
O O10 0.980315 0.272598 0.606738
O O11 0.305185 0.477102 0.836171
O O12 0.160864 0.455698 0.973936
O O13 0.036480 0.578618 0.862654
O O14 0.500000 0.553172 0.000000
O O15 0.881474 0.081665 0.161950
O O16 0.000000 0.655565 0.000000
O O17 0.000000 0.802010 0.500000
#
# Coordination Sequence:
#
# PCOD9127979 Si02
#       8
#     4   4   4   4   2   4   4   4
#     4  10  23  44  72 101 131 178 237 294 343 417
#     4  11  26  42  66 104 140 182 227 284 343 428
#     4  11  25  45  69 100 137 184 227 293 352 415
#     4  12  20  38  68  93 137 185 221 274 338 409
#     4  12  24  42  64 102 140 188 228 274 356 412
#     4  12  23  43  68 102 138 175 234 280 345 414
#     4  12  22  39  66 101 133 180 230 280 341 416
#     4  10  24  48  71  94 138 182 234 282 357 422
#
# _framework density 21.125547000000001
#
# number of rings (size 3 to 8) (size 9 to 14) (size 15 to 20)
#    0.000    0.800    7.333    0.000    1.867    5.867 
#    3.600    0.000    0.000    0.000    0.000    0.000 
#    0.000    0.000    0.000    0.000    0.000    0.000 
#
# Total GULP energy -83672.806201 kJ/mol
# GULP energy per Si atom -5578.187080 kJ/mol
# Density = 2.107746 g / cm^3
# Si number density = 21.125547 Si / 1000 Ang^3
#
#
#
# Elastic Constant Matrix: (Units=GPa)
#
#
# Indices 1 2 3 4 5 6 
#
# 1 135.4219 25.9658 62.2843 0.0000 2.5348 0.0000
# 2 25.9658 50.1471 43.0688 0.0000 -5.4109 0.0000
# 3 62.2843 43.0688 109.6526 0.0000 -0.7976 0.0000
# 4 0.0000 0.0000 0.0000 28.2229 0.0000 -2.0230
# 5 2.5348 -5.4109 -0.7976 0.0000 38.8389 0.0000
# 6 0.0000 0.0000 0.0000 -2.0230 0.0000 24.3982
#
#
#
# Elastic Compliance Matrix: (Units=1/GPa)
#
#
# Indices 1 2 3 4 5 6 
#
# 1 0.010030 -0.000583 -0.005474 0.000000 -0.000848 0.000000
# 2 -0.000583 0.030745 -0.011715 0.000000 0.004081 0.000000
# 3 -0.005474 -0.011715 0.016824 0.000000 -0.000929 0.000000
# 4 0.000000 0.000000 0.000000 0.035644 0.000000 0.002955
# 5 -0.000848 0.004081 -0.000929 0.000000 0.026352 0.000000
# 6 0.000000 0.000000 0.000000 0.002955 0.000000 0.041232
#
#
# Mechanical properties :
#
#
# Convention : Reuss Voigt Hill
#
# Bulk Modulus (GPa) = 45.34380 61.98437 53.66408
# Shear Modulus (GPa) = 24.54325 29.21885 26.88105
#
# Velocity S-wave (km/s) = 3.41219 3.72305 3.57100
# Velocity P-wave (km/s) = 6.08561 6.91998 6.51616
#
# Compressibility (1/GPa) = 0.02205373
#
# Stress axis : x y z
#
# Youngs Moduli (GPa) = 99.70345 32.52564 59.44049
#
# Poissons Ratio (x) = 0.01898 0.32538
# Poissons Ratio (y) = 0.05818 0.69633
# Poissons Ratio (z) = 0.54578 0.38103
#
# Static dielectric constant tensor:
#      x y z
#    x 1.801590 0.000000 -0.017110 
#    y 0.000000 1.746570 0.000000 
#    z -0.017110 0.000000 1.842540 
# 
# From -- ./inp_files/49558.got.cif
#   From: 2010.05.17/outbox.cif.g08.bks.cpg/sg5_25_cif.got.tgz:49558.got - 2010.06.03 18:56:24.
