data_PCOD9127023
_publ_section_title
;
Structure prediction by ZEFSAII (Michael W. Deem and Ramdas Pophale) SiO2 
 PCOD9127023
Probable space group: C 2
;
_chemical_formula_sum "Si O2"
_cell_formula_units_Z 20
_cell_length_a 16.862925
_cell_length_b 7.161078
_cell_length_c 9.411535
_cell_angle_alpha 90.000000
_cell_angle_beta 133.197003
_cell_angle_gamma 90.000000
_cell_volume 828.517992
_symmetry_space_group_name_H-M "C 2"
_symmetry_group_IT_number 5
_symmetry_cell_setting 'monoclinic'
loop_
_space_group_symop_operation_xyz
x,y,z
-x,y,-z
1/2+x,1/2+y,z
1/2-x,1/2+y,-z
loop_
_atom_site_type_symbol
_atom_site_label
_atom_site_fract_x
_atom_site_fract_y
_atom_site_fract_z
Si Si1 0.017247 0.895660 0.361713
Si Si2 0.363178 0.842310 0.963718
Si Si3 0.398444 0.751970 0.697040
Si Si4 0.885812 0.499119 0.431578
Si Si5 0.787880 0.000611 0.032346
O O1 0.083680 0.704687 0.468109
O O2 0.000000 0.976655 0.500000
O O3 0.071590 0.045825 0.323009
O O4 0.892132 0.862931 0.157657
O O5 0.344934 0.754847 0.786274
O O6 0.341090 0.698922 0.064751
O O7 0.490774 0.873510 0.139634
O O8 0.274406 0.995415 0.893996
O O9 0.343432 0.865551 0.504214
O O10 0.797857 0.495251 0.200084
O O11 0.000000 0.435361 0.500000
#
# Coordination Sequence:
#
# PCOD9127023 Si02
#       5
#     4   4   4   4   4
#     4  10  23  43  71  99 137 184 233 284 352 426
#     4  10  22  43  66  98 135 177 234 286 352 423
#     4  10  22  43  67  97 139 179 224 296 350 407
#     4  11  21  43  70 101 138 181 234 286 353 423
#     4  11  23  43  71  99 134 186 236 285 354 434
#
# _framework density 24.139485000000001
#
# number of rings (size 3 to 8) (size 9 to 14) (size 15 to 20)
#    0.000    1.600    2.000    3.000    2.800    0.000 
#   10.800    2.000    0.000    0.000    0.000    0.000 
#    0.000    0.000    0.000    0.000    0.000    0.000 
#
# Total GULP energy -55833.967649 kJ/mol
# GULP energy per Si atom -5583.396765 kJ/mol
# Density = 2.408454 g / cm^3
# Si number density = 24.139485 Si / 1000 Ang^3
#
#
#
# Elastic Constant Matrix: (Units=GPa)
#
#
# Indices 1 2 3 4 5 6 
#
# 1 122.7538 53.4730 39.9843 0.0000 -25.7768 0.0000
# 2 53.4730 92.7123 49.1304 0.0000 -20.7323 0.0000
# 3 39.9843 49.1304 125.2078 0.0000 11.5834 0.0000
# 4 0.0000 0.0000 0.0000 34.5521 0.0000 -12.0111
# 5 -25.7768 -20.7323 11.5834 0.0000 52.7165 0.0000
# 6 0.0000 0.0000 0.0000 -12.0111 0.0000 23.0453
#
#
#
# Elastic Compliance Matrix: (Units=1/GPa)
#
#
# Indices 1 2 3 4 5 6 
#
# 1 0.011873 -0.004541 -0.002431 0.000000 0.004553 0.000000
# 2 -0.004541 0.018114 -0.006238 0.000000 0.006274 0.000000
# 3 -0.002431 -0.006238 0.011787 0.000000 -0.006232 0.000000
# 4 0.000000 0.000000 0.000000 0.035346 0.000000 0.018422
# 5 0.004553 0.006274 -0.006232 0.000000 0.025033 0.000000
# 6 0.000000 0.000000 0.000000 0.018422 0.000000 0.052994
#
#
# Mechanical properties :
#
#
# Convention : Reuss Voigt Hill
#
# Bulk Modulus (GPa) = 65.13062 69.53880 67.33471
# Shear Modulus (GPa) = 26.78320 35.26852 31.02586
#
# Velocity S-wave (km/s) = 3.33456 3.82649 3.58896
# Velocity P-wave (km/s) = 6.47033 6.95646 6.71779
#
# Compressibility (1/GPa) = 0.01535376
#
# Stress axis : x y z
#
# Youngs Moduli (GPa) = 84.22790 55.20619 84.83801
#
# Poissons Ratio (x) = 0.25071 0.20622
# Poissons Ratio (y) = 0.38251 0.52921
# Poissons Ratio (z) = 0.20473 0.34437
#
# Static dielectric constant tensor:
#      x y z
#    x 2.086930 0.000000 0.108820 
#    y 0.000000 2.126280 0.000000 
#    z 0.108820 0.000000 1.989600 
# 
# From -- ./inp_files/26831.got.cif
#   From: 2010.05.17/outbox.cif.g08.bks.cpg/sg5_14_cif.got.tgz:26831.got - 2010.06.03 18:56:24.
