data_PCOD9127084
_publ_section_title
;
Structure prediction by ZEFSAII (Michael W. Deem and Ramdas Pophale) SiO2 
 PCOD9127084
Probable space group: C 2
;
_chemical_formula_sum "Si O2"
_cell_formula_units_Z 20
_cell_length_a 10.044721
_cell_length_b 10.511166
_cell_length_c 17.138161
_cell_angle_alpha 90.000000
_cell_angle_beta 26.901250
_cell_angle_gamma 90.000000
_cell_volume 818.705263
_symmetry_space_group_name_H-M "C 2"
_symmetry_group_IT_number 5
_symmetry_cell_setting 'monoclinic'
loop_
_space_group_symop_operation_xyz
x,y,z
-x,y,-z
1/2+x,1/2+y,z
1/2-x,1/2+y,-z
loop_
_atom_site_type_symbol
_atom_site_label
_atom_site_fract_x
_atom_site_fract_y
_atom_site_fract_z
Si Si1 0.346716 0.546980 0.500340
Si Si2 0.644531 0.954933 0.842537
Si Si3 0.667338 0.508875 0.831991
Si Si4 0.838446 0.230483 0.287929
Si Si5 0.732138 0.729795 0.234823
O O1 0.500000 0.504214 0.500000
O O2 0.500105 0.473414 0.347797
O O3 0.451545 0.692417 0.434785
O O4 0.008640 0.523480 0.676123
O O5 0.594417 0.849109 0.804082
O O6 0.567595 0.102768 0.861476
O O7 0.500000 0.922954 0.000000
O O8 0.621470 0.606286 0.786084
O O9 0.619247 0.363901 0.829092
O O10 0.500000 0.534388 0.000000
O O11 0.500000 0.229604 0.500000
O O12 0.081179 0.234328 0.228871
#
# Coordination Sequence:
#
# PCOD9127084 Si02
#       5
#     4   4   4   4   4
#     4  10  23  45  75 101 146 195 243 295 371 431
#     4  10  22  43  71 104 143 192 243 291 369 437
#     4  12  26  48  73 113 148 192 252 306 367 440
#     4  12  23  45  71 102 150 192 240 303 365 437
#     4  10  25  44  72 101 148 188 244 298 366 430
#
# _framework density 24.428816000000001
#
# number of rings (size 3 to 8) (size 9 to 14) (size 15 to 20)
#    1.200    0.000    2.000    4.200    0.000    4.000 
#    3.600    0.000    0.000    0.000    0.000    0.000 
#    0.000    0.000    0.000    0.000    0.000    0.000 
#
# Total GULP energy -55867.241934 kJ/mol
# GULP energy per Si atom -5586.724193 kJ/mol
# Density = 2.437321 g / cm^3
# Si number density = 24.428816 Si / 1000 Ang^3
#
#
#
# Elastic Constant Matrix: (Units=GPa)
#
#
# Indices 1 2 3 4 5 6 
#
# 1 57.0141 64.3855 38.9926 -0.0045 5.3476 0.0001
# 2 64.3855 216.2412 53.6133 -0.0086 38.8834 0.0007
# 3 38.9926 53.6133 198.0056 -0.0203 9.9550 -0.0082
# 4 -0.0045 -0.0086 -0.0203 28.4293 0.0010 22.5771
# 5 5.3476 38.8834 9.9550 0.0010 42.8298 0.0054
# 6 0.0001 0.0007 -0.0082 22.5771 0.0054 9.4829
#
#
#
# Elastic Compliance Matrix: (Units=1/GPa)
#
#
# Indices 1 2 3 4 5 6 
#
# 1 0.029520 -0.008803 -0.003689 -0.000004 0.005164 0.000004
# 2 -0.008803 0.008481 -0.000234 0.000001 -0.006546 0.000000
# 3 -0.003689 -0.000234 0.005875 0.000001 -0.000693 0.000003
# 4 -0.000004 0.000001 0.000001 -0.039490 -0.000012 0.094018
# 5 0.005164 -0.006546 -0.000693 -0.000012 0.028807 0.000011
# 6 0.000004 0.000000 0.000003 0.094018 0.000011 -0.118388
#
#
# Mechanical properties :
#
#
# Convention : Reuss Voigt Hill
#
# Bulk Modulus (GPa) = 54.27968 87.24932 70.76450
# Shear Modulus (GPa) = -93.28013 37.09968 -28.09023
#
# Velocity S-wave (km/s) = -6.18606 3.90126 -3.39467
# Velocity P-wave (km/s) = 5.36240 7.48908 3.69669
#
# Compressibility (1/GPa) = 0.01842310
#
# Stress axis : x y z
#
# Youngs Moduli (GPa) = 33.87558 117.91659 170.21463
#
# Poissons Ratio (x) = 1.03806 0.62796
# Poissons Ratio (y) = 0.29822 0.03975
# Poissons Ratio (z) = 0.12497 0.02754
#
# Static dielectric constant tensor:
#      x y z
#    x 1.904670 -0.000010 -0.013250 
#    y -0.000010 2.034980 0.000020 
#    z -0.013250 0.000020 2.017450 
# 
# From -- ./inp_files/60361.got.cif
#   From: 2010.05.17/outbox.cif.g08.bks.cpg/sg5_31_cif.got.tgz:60361.got - 2010.06.03 18:56:24.
