data_PCOD9127026
_publ_section_title
;
Structure prediction by ZEFSAII (Michael W. Deem and Ramdas Pophale) SiO2 
 PCOD9127026
Probable space group: C 2
;
_chemical_formula_sum "Si O2"
_cell_formula_units_Z 30
_cell_length_a 13.977289
_cell_length_b 5.601222
_cell_length_c 16.671545
_cell_angle_alpha 90.000000
_cell_angle_beta 76.479657
_cell_angle_gamma 90.000000
_cell_volume 1269.042151
_symmetry_space_group_name_H-M "C 2"
_symmetry_group_IT_number 5
_symmetry_cell_setting 'monoclinic'
loop_
_space_group_symop_operation_xyz
x,y,z
-x,y,-z
1/2+x,1/2+y,z
1/2-x,1/2+y,-z
loop_
_atom_site_type_symbol
_atom_site_label
_atom_site_fract_x
_atom_site_fract_y
_atom_site_fract_z
Si Si1 0.784155 0.947930 0.535336
Si Si2 0.579664 0.376298 0.770102
Si Si3 0.941345 0.247334 0.818594
Si Si4 0.500000 0.242804 0.500000
Si Si5 0.197541 0.384844 0.022619
Si Si6 0.963229 0.552067 0.674492
Si Si7 0.623907 0.996899 0.871410
Si Si8 0.244677 0.263616 0.714725
O O1 0.742751 0.706049 0.498221
O O2 0.745865 0.928614 0.635000
O O3 0.901923 0.903348 0.514310
O O4 0.546177 0.193580 0.708406
O O5 0.624727 0.268206 0.842114
O O6 0.659374 0.563057 0.720962
O O7 0.474270 0.477845 0.819809
O O8 0.950207 0.303851 0.723005
O O9 0.027899 0.385795 0.848681
O O10 0.845173 0.331424 0.881509
O O11 0.494164 0.070274 0.577507
O O12 0.123510 0.448956 0.964777
O O13 0.240329 0.128118 0.987519
O O14 0.854399 0.664066 0.700134
O O15 0.715257 0.887482 0.804029
#
# Coordination Sequence:
#
# PCOD9127026 Si02
#       8
#     4   4   4   2   4   4   4   4
#     4  11  26  45  72 103 150 192 249 307 370 438
#     4  10  23  41  73  96 140 187 238 293 362 431
#     4  10  24  44  68 101 138 189 235 296 358 428
#     4  10  24  46  68 110 148 196 254 306 370 438
#     4  12  29  46  73 108 144 184 239 295 355 436
#     4  10  22  43  66  99 141 186 243 300 360 428
#     4  10  24  44  69  98 140 183 237 292 359 430
#     4  10  23  41  67 101 133 190 237 299 362 428
#
# _framework density 23.639880000000002
#
# number of rings (size 3 to 8) (size 9 to 14) (size 15 to 20)
#    0.000    1.600    0.000    2.000   18.667    0.533 
#    7.200    0.000    0.000    0.000    0.000    0.000 
#    0.000    0.000    0.000    0.000    0.000    0.000 
#
# Total GULP energy -83766.643190 kJ/mol
# GULP energy per Si atom -5584.442879 kJ/mol
# Density = 2.358607 g / cm^3
# Si number density = 23.639880 Si / 1000 Ang^3
#
#
#
# Elastic Constant Matrix: (Units=GPa)
#
#
# Indices 1 2 3 4 5 6 
#
# 1 84.2568 25.0001 19.0049 0.0000 -2.2682 0.0000
# 2 25.0001 66.7721 32.0021 0.0000 -4.5194 0.0000
# 3 19.0049 32.0021 84.2490 0.0000 -0.6531 0.0000
# 4 0.0000 0.0000 0.0000 15.2930 0.0000 4.2205
# 5 -2.2682 -4.5194 -0.6531 0.0000 34.2727 0.0000
# 6 0.0000 0.0000 0.0000 4.2205 0.0000 21.0059
#
#
#
# Elastic Compliance Matrix: (Units=1/GPa)
#
#
# Indices 1 2 3 4 5 6 
#
# 1 0.013483 -0.004367 -0.001381 0.000000 0.000290 0.000000
# 2 -0.004367 0.019904 -0.006558 0.000000 0.002211 0.000000
# 3 -0.001381 -0.006558 0.014667 0.000000 -0.000677 0.000000
# 4 0.000000 0.000000 0.000000 0.069228 0.000000 -0.013909
# 5 0.000290 0.002211 -0.000677 0.000000 0.029476 0.000000
# 6 0.000000 0.000000 0.000000 -0.013909 0.000000 0.050400
#
#
# Mechanical properties :
#
#
# Convention : Reuss Voigt Hill
#
# Bulk Modulus (GPa) = 42.65712 43.03245 42.84479
# Shear Modulus (GPa) = 21.77847 24.73239 23.25543
#
# Velocity S-wave (km/s) = 3.03852 3.23803 3.13986
# Velocity P-wave (km/s) = 5.51306 5.67650 5.59538
#
# Compressibility (1/GPa) = 0.02344275
#
# Stress axis : x y z
#
# Youngs Moduli (GPa) = 74.16505 50.24051 68.18039
#
# Poissons Ratio (x) = 0.21940 0.09412
# Poissons Ratio (y) = 0.32388 0.44715
# Poissons Ratio (z) = 0.10239 0.32950
#
# Static dielectric constant tensor:
#      x y z
#    x 1.918560 0.000000 -0.006100 
#    y 0.000000 1.982700 0.000000 
#    z -0.006100 0.000000 1.880920 
# 
# From -- ./inp_files/61211.got.cif
#   From: 2010.05.17/outbox.cif.g08.bks.cpg/sg5_31_cif.got.tgz:61211.got - 2010.06.03 18:56:24.
