data_PCOD9127715
_publ_section_title
;
Structure prediction by ZEFSAII (Michael W. Deem and Ramdas Pophale) SiO2 
 PCOD9127715
Probable space group: C 2
;
_chemical_formula_sum "Si O2"
_cell_formula_units_Z 24
_cell_length_a 23.402880
_cell_length_b 12.297460
_cell_length_c 11.263265
_cell_angle_alpha 90.000000
_cell_angle_beta 159.460083
_cell_angle_gamma 90.000000
_cell_volume 1137.320094
_symmetry_space_group_name_H-M "C 2"
_symmetry_group_IT_number 5
_symmetry_cell_setting 'monoclinic'
loop_
_space_group_symop_operation_xyz
x,y,z
-x,y,-z
1/2+x,1/2+y,z
1/2-x,1/2+y,-z
loop_
_atom_site_type_symbol
_atom_site_label
_atom_site_fract_x
_atom_site_fract_y
_atom_site_fract_z
Si Si1 0.426628 0.157720 0.724745
Si Si2 0.008334 0.280828 0.376900
Si Si3 0.852316 0.476707 0.936909
Si Si4 0.192143 0.327701 0.356985
Si Si5 0.984200 0.035012 0.610182
Si Si6 0.655573 0.343370 0.087074
O O1 0.254891 0.214858 0.420395
O O2 0.500000 0.144979 0.000000
O O3 0.517567 0.251948 0.828203
O O4 0.485357 0.048254 0.772580
O O5 0.000000 0.300286 0.500000
O O6 0.191457 0.299254 0.688471
O O7 0.953878 0.157366 0.248678
O O8 0.901139 0.369181 0.102123
O O9 0.780613 0.431473 0.674094
O O10 0.705919 0.534312 0.721364
O O11 0.281780 0.352568 0.655203
O O12 0.000000 0.318846 0.000000
O O13 0.000000 0.009889 0.500000
O O14 0.081993 0.949263 0.880824
#
# Coordination Sequence:
#
# PCOD9127715 Si02
#       6
#     4   4   4   4   4   4
#     4  10  23  41  69  97 139 177 221 289 340 415
#     4  11  25  45  67  98 137 182 240 286 332 410
#     4  12  23  45  70  99 139 183 224 288 342 410
#     4  11  23  44  70 103 140 181 229 283 354 411
#     4  11  25  46  71  99 141 186 229 288 340 398
#     4  11  22  46  68 101 135 180 233 282 345 415
#
# _framework density 21.102238
#
# number of rings (size 3 to 8) (size 9 to 14) (size 15 to 20)
#    0.000    1.000    5.000    1.500    0.000    1.333 
#    3.000    2.500    0.000    0.000    0.000    0.000 
#    0.000    0.000    0.000    0.000    0.000    0.000 
#
# Total GULP energy -67034.600673 kJ/mol
# GULP energy per Si atom -5586.216723 kJ/mol
# Density = 2.105421 g / cm^3
# Si number density = 21.102238 Si / 1000 Ang^3
#
#
#
# Elastic Constant Matrix: (Units=GPa)
#
#
# Indices 1 2 3 4 5 6 
#
# 1 134.6245 61.6241 26.5621 0.0000 -1.2000 0.0000
# 2 61.6241 134.7876 33.1780 0.0000 -31.7451 0.0000
# 3 26.5621 33.1780 42.4576 0.0000 -9.0681 0.0000
# 4 0.0000 0.0000 0.0000 39.8724 0.0000 1.9118
# 5 -1.2000 -31.7451 -9.0681 0.0000 23.9114 0.0000
# 6 0.0000 0.0000 0.0000 1.9118 0.0000 35.4245
#
#
#
# Elastic Compliance Matrix: (Units=1/GPa)
#
#
# Indices 1 2 3 4 5 6 
#
# 1 0.010970 -0.006200 -0.003981 0.000000 -0.009190 0.000000
# 2 -0.006200 0.015821 -0.004423 0.000000 0.019015 0.000000
# 3 -0.003981 -0.004423 0.030689 0.000000 0.005566 0.000000
# 4 0.000000 0.000000 0.000000 0.025145 0.000000 -0.001357
# 5 -0.009190 0.019015 0.005566 0.000000 0.068716 0.000000
# 6 0.000000 0.000000 0.000000 -0.001357 0.000000 0.028302
#
#
# Mechanical properties :
#
#
# Convention : Reuss Voigt Hill
#
# Bulk Modulus (GPa) = 35.37099 61.62203 48.49651
# Shear Modulus (GPa) = 22.90709 32.54203 27.72456
#
# Velocity S-wave (km/s) = 3.29831 3.93123 3.62860
# Velocity P-wave (km/s) = 5.59493 7.06195 6.37081
#
# Compressibility (1/GPa) = 0.02827176
#
# Stress axis : x y z
#
# Youngs Moduli (GPa) = 91.16180 63.20794 32.58548
#
# Poissons Ratio (x) = 0.39187 0.12971
# Poissons Ratio (y) = 0.56518 0.14413
# Poissons Ratio (z) = 0.36289 0.27957
#
# Static dielectric constant tensor:
#      x y z
#    x 1.773060 0.000000 -0.000880 
#    y 0.000000 1.768740 0.000000 
#    z -0.000880 0.000000 1.741520 
# 
# From -- ./inp_files/47532.got.cif
#   From: 2010.05.17/outbox.cif.g08.bks.cpg/sg5_24_cif.got.tgz:47532.got - 2010.06.03 18:56:24.
