data_PCOD9127400
_publ_section_title
;
Structure prediction by ZEFSAII (Michael W. Deem and Ramdas Pophale) SiO2 
 PCOD9127400
Probable space group: C 2
;
_chemical_formula_sum "Si O2"
_cell_formula_units_Z 20
_cell_length_a 5.073280
_cell_length_b 22.535378
_cell_length_c 8.205435
_cell_angle_alpha 90.000000
_cell_angle_beta 64.055398
_cell_angle_gamma 90.000000
_cell_volume 843.567867
_symmetry_space_group_name_H-M "C 2"
_symmetry_group_IT_number 5
_symmetry_cell_setting 'monoclinic'
loop_
_space_group_symop_operation_xyz
x,y,z
-x,y,-z
1/2+x,1/2+y,z
1/2-x,1/2+y,-z
loop_
_atom_site_type_symbol
_atom_site_label
_atom_site_fract_x
_atom_site_fract_y
_atom_site_fract_z
Si Si1 0.881872 0.787510 0.800900
Si Si2 0.159155 0.487903 0.127982
Si Si3 0.715702 0.115910 0.196929
Si Si4 0.500000 0.201314 0.500000
Si Si5 0.500000 0.191148 0.000000
Si Si6 0.573403 0.861282 0.289943
O O1 0.629369 0.818789 0.765436
O O2 0.075109 0.746850 0.624604
O O3 0.797762 0.739757 0.962967
O O4 0.093934 0.838438 0.808855
O O5 0.147555 0.547110 0.241076
O O6 0.033716 0.428233 0.238872
O O7 0.500000 0.477075 0.000000
O O8 0.000000 0.500964 0.000000
O O9 0.733083 0.156887 0.352259
O O10 0.453597 0.145223 0.160493
O O11 0.000000 0.119357 0.000000
O O12 0.500000 0.858969 0.500000
#
# Coordination Sequence:
#
# PCOD9127400 Si02
#       6
#     4   4   4   2   2   4
#     4  11  25  42  68 101 138 179 230 286 350 417
#     4  11  25  46  70  99 134 180 239 289 343 418
#     4  10  23  45  71 101 140 184 236 290 350 419
#     4  10  22  46  68 104 140 184 228 292 354 420
#     4  10  24  40  68 100 136 180 228 288 348 420
#     4  12  25  44  66  98 139 180 229 287 342 413
#
# _framework density 23.708822999999999
#
# number of rings (size 3 to 8) (size 9 to 14) (size 15 to 20)
#    0.000    1.200    3.000    1.200   11.200    0.000 
#    0.000    0.000    0.000    0.000    0.000    0.000 
#    0.000    0.000    0.000    0.000    0.000    0.000 
#
# Total GULP energy -55766.329432 kJ/mol
# GULP energy per Si atom -5576.632943 kJ/mol
# Density = 2.365486 g / cm^3
# Si number density = 23.708823 Si / 1000 Ang^3
#
#
#
# Elastic Constant Matrix: (Units=GPa)
#
#
# Indices 1 2 3 4 5 6 
#
# 1 110.4596 22.3918 28.8741 0.0000 14.0936 0.0000
# 2 22.3918 205.4812 55.3840 0.0000 8.7246 0.0000
# 3 28.8741 55.3840 84.9004 0.0000 2.8934 0.0000
# 4 0.0000 0.0000 0.0000 53.7797 0.0000 0.6755
# 5 14.0936 8.7246 2.8934 0.0000 22.2502 0.0000
# 6 0.0000 0.0000 0.0000 0.6755 0.0000 20.4307
#
#
#
# Elastic Compliance Matrix: (Units=1/GPa)
#
#
# Indices 1 2 3 4 5 6 
#
# 1 0.010767 0.000032 -0.003465 0.000000 -0.006382 0.000000
# 2 0.000032 0.005979 -0.003848 0.000000 -0.001864 0.000000
# 3 -0.003465 -0.003848 0.015409 0.000000 0.001700 0.000000
# 4 0.000000 0.000000 0.000000 0.018602 0.000000 -0.000615
# 5 -0.006382 -0.001864 0.001700 0.000000 0.049496 0.000000
# 6 0.000000 0.000000 0.000000 -0.000615 0.000000 0.048966
#
#
# Mechanical properties :
#
#
# Convention : Reuss Voigt Hill
#
# Bulk Modulus (GPa) = 56.84076 68.23789 62.53933
# Shear Modulus (GPa) = 29.47323 38.90486 34.18905
#
# Velocity S-wave (km/s) = 3.52963 4.05525 3.80154
# Velocity P-wave (km/s) = 6.37477 7.12537 6.76049
#
# Compressibility (1/GPa) = 0.01759301
#
# Stress axis : x y z
#
# Youngs Moduli (GPa) = 92.87986 167.23907 64.89697
#
# Poissons Ratio (x) = -0.00528 0.22485
# Poissons Ratio (y) = -0.00293 0.24971
# Poissons Ratio (z) = 0.32181 0.64351
#
# Static dielectric constant tensor:
#      x y z
#    x 1.897080 0.000000 -0.024000 
#    y 0.000000 1.873040 0.000000 
#    z -0.024000 0.000000 1.983250 
# 
# From -- ./inp_files/12246.got.cif
#   From: 2010.05.17/outbox.cif.g08.bks.cpg/sg5_7_cif.got.tgz:12246.got - 2010.06.03 18:56:24.
