data_PCOD9127265
_publ_section_title
;
Structure prediction by ZEFSAII (Michael W. Deem and Ramdas Pophale) SiO2 
 PCOD9127265
Probable space group: C 2
;
_chemical_formula_sum "Si O2"
_cell_formula_units_Z 30
_cell_length_a 22.838372
_cell_length_b 5.319716
_cell_length_c 20.910989
_cell_angle_alpha 90.000000
_cell_angle_beta 150.437928
_cell_angle_gamma 90.000000
_cell_volume 1253.422653
_symmetry_space_group_name_H-M "C 2"
_symmetry_group_IT_number 5
_symmetry_cell_setting 'monoclinic'
loop_
_space_group_symop_operation_xyz
x,y,z
-x,y,-z
1/2+x,1/2+y,z
1/2-x,1/2+y,-z
loop_
_atom_site_type_symbol
_atom_site_label
_atom_site_fract_x
_atom_site_fract_y
_atom_site_fract_z
Si Si1 0.000000 0.530340 0.500000
Si Si2 0.582692 0.277580 0.940270
Si Si3 0.328345 0.872284 0.574353
Si Si4 0.044779 0.228494 0.429106
Si Si5 0.808002 0.684094 0.077379
Si Si6 0.790665 0.891208 0.330219
Si Si7 0.555799 0.782016 0.179300
Si Si8 0.691779 0.477239 0.802711
O O1 0.964780 0.366915 0.406260
O O2 0.103875 0.692536 0.569949
O O3 0.580088 0.266870 0.859674
O O4 0.530739 0.544528 0.912039
O O5 0.504688 0.048574 0.892655
O O6 0.715088 0.187745 0.085062
O O7 0.236912 0.638783 0.477798
O O8 0.408032 0.880989 0.586216
O O9 0.401794 0.797253 0.706936
O O10 0.156321 0.113108 0.574501
O O11 0.946772 0.030374 0.313948
O O12 0.794950 0.730386 0.140159
O O13 0.785203 0.397290 0.036277
O O14 0.673037 0.772756 0.247544
O O15 0.780730 0.950400 0.245850
#
# Coordination Sequence:
#
# PCOD9127265 Si02
#       8
#     2   4   4   4   4   4   4   4
#     4  12  24  44  78 102 154 188 248 322 386 426
#     4  11  26  48  73 109 149 198 245 308 374 443
#     4  12  26  47  78 111 147 197 246 305 386 445
#     4  12  25  46  72 113 144 195 251 318 376 446
#     4  10  22  44  73 104 142 185 247 309 359 439
#     4  12  26  49  70 110 149 194 251 321 374 451
#     4  12  27  49  75 106 156 194 247 312 366 462
#     4  11  24  47  74 104 149 192 251 302 383 446
#
# _framework density 23.934463999999998
#
# number of rings (size 3 to 8) (size 9 to 14) (size 15 to 20)
#    0.000    0.533    4.000    4.000    1.867    6.933 
#    0.000    2.667    0.000    0.000    0.000    0.000 
#    0.000    0.000    0.000    0.000    0.000    0.000 
#
# Total GULP energy -83828.764557 kJ/mol
# GULP energy per Si atom -5588.584304 kJ/mol
# Density = 2.387999 g / cm^3
# Si number density = 23.934464 Si / 1000 Ang^3
#
#
#
# Elastic Constant Matrix: (Units=GPa)
#
#
# Indices 1 2 3 4 5 6 
#
# 1 125.2577 0.3091 10.0764 0.0001 13.5149 0.0000
# 2 0.3091 70.3784 8.9874 -0.0006 8.1428 -0.0005
# 3 10.0764 8.9874 67.0291 0.0000 -5.4979 -0.0001
# 4 0.0001 -0.0006 0.0000 23.4190 -0.0001 3.7103
# 5 13.5149 8.1428 -5.4979 -0.0001 38.7859 0.0000
# 6 0.0000 -0.0005 -0.0001 3.7103 0.0000 51.8686
#
#
#
# Elastic Compliance Matrix: (Units=1/GPa)
#
#
# Indices 1 2 3 4 5 6 
#
# 1 0.008468 0.000551 -0.001617 0.000000 -0.003295 0.000000
# 2 0.000551 0.014935 -0.002386 0.000000 -0.003666 0.000000
# 3 -0.001617 -0.002386 0.015752 0.000000 0.003297 0.000000
# 4 0.000000 0.000000 0.000000 0.043190 0.000000 -0.003090
# 5 -0.003295 -0.003666 0.003297 0.000000 0.028168 0.000000
# 6 0.000000 0.000000 0.000000 -0.003090 0.000000 0.019500
#
#
# Mechanical properties :
#
#
# Convention : Reuss Voigt Hill
#
# Bulk Modulus (GPa) = 31.00724 33.49010 32.24867
# Shear Modulus (GPa) = 33.85957 39.03420 36.44688
#
# Velocity S-wave (km/s) = 3.76530 4.04279 3.90651
# Velocity P-wave (km/s) = 5.64681 5.98457 5.81814
#
# Compressibility (1/GPa) = 0.03225053
#
# Stress axis : x y z
#
# Youngs Moduli (GPa) = 118.09397 66.95555 63.48259
#
# Poissons Ratio (x) = -0.03687 0.10266
# Poissons Ratio (y) = -0.06502 0.15147
# Poissons Ratio (z) = 0.19097 0.15976
#
# Static dielectric constant tensor:
#      x y z
#    x 1.890950 0.000000 -0.013830 
#    y 0.000000 2.004180 0.000000 
#    z -0.013830 0.000000 1.992040 
# 
# From -- ./inp_files/67253.got.cif
#   From: 2010.05.17/outbox.cif.g08.bks.cpg/sg5_34_cif.got.tgz:67253.got - 2010.06.03 18:56:24.
