data_PCOD9127365
_publ_section_title
;
Structure prediction by ZEFSAII (Michael W. Deem and Ramdas Pophale) SiO2 
 PCOD9127365
Probable space group: C 2
;
_chemical_formula_sum "Si O2"
_cell_formula_units_Z 26
_cell_length_a 20.033062
_cell_length_b 5.143539
_cell_length_c 16.910428
_cell_angle_alpha 90.000000
_cell_angle_beta 36.954675
_cell_angle_gamma 90.000000
_cell_volume 1047.540216
_symmetry_space_group_name_H-M "C 2"
_symmetry_group_IT_number 5
_symmetry_cell_setting 'monoclinic'
loop_
_space_group_symop_operation_xyz
x,y,z
-x,y,-z
1/2+x,1/2+y,z
1/2-x,1/2+y,-z
loop_
_atom_site_type_symbol
_atom_site_label
_atom_site_fract_x
_atom_site_fract_y
_atom_site_fract_z
Si Si1 0.683891 0.512320 0.383617
Si Si2 0.711333 0.765482 0.990837
Si Si3 0.000000 0.405316 0.500000
Si Si4 0.334729 0.142554 0.736217
Si Si5 0.639350 0.314432 0.867757
Si Si6 0.679211 0.334721 0.561845
Si Si7 0.005544 0.957272 0.862524
O O1 0.600445 0.723044 0.429231
O O2 0.663889 0.258318 0.352179
O O3 0.807183 0.609286 0.243191
O O4 0.654868 0.457900 0.500312
O O5 0.588837 0.657474 0.080787
O O6 0.779612 0.518666 0.962691
O O7 0.787469 0.842486 0.843476
O O8 0.958952 0.542677 0.620328
O O9 0.240666 0.926696 0.822716
O O10 0.590921 0.536366 0.852969
O O11 0.556332 0.248323 0.019441
O O12 0.776029 0.542182 0.495575
O O13 0.578710 0.356290 0.719955
#
# Coordination Sequence:
#
# PCOD9127365 Si02
#       7
#     4   4   2   4   4   4   4
#     4  11  23  42  73 100 147 190 245 303 358 441
#     4  11  28  47  72 106 149 186 243 299 359 438
#     4  10  24  40  68 100 134 198 244 292 360 434
#     4  10  23  43  70  98 143 186 249 294 358 435
#     4   9  20  45  68 103 138 188 243 294 360 438
#     4  12  27  47  73 112 150 186 242 311 372 431
#     4  10  22  45  73 102 145 191 239 299 369 424
#
# _framework density 24.820046999999999
#
# number of rings (size 3 to 8) (size 9 to 14) (size 15 to 20)
#    0.000    1.538    1.538    1.385   10.769    2.462 
#    5.538    1.538    0.000    0.000    0.000    0.000 
#    0.000    0.000    0.000    0.000    0.000    0.000 
#
# Total GULP energy -72382.587568 kJ/mol
# GULP energy per Si atom -5567.891351 kJ/mol
# Density = 2.476356 g / cm^3
# Si number density = 24.820047 Si / 1000 Ang^3
#
#
#
# Elastic Constant Matrix: (Units=GPa)
#
#
# Indices 1 2 3 4 5 6 
#
# 1 45.3716 6.6446 27.5371 -0.0199 10.6468 -0.0031
# 2 6.6446 70.7283 13.1722 0.0091 -8.9139 -0.0121
# 3 27.5371 13.1722 197.8287 0.0175 16.3322 -0.0015
# 4 -0.0199 0.0091 0.0175 19.7343 -0.0195 7.5698
# 5 10.6468 -8.9139 16.3322 -0.0195 44.8233 0.0034
# 6 -0.0031 -0.0121 -0.0015 7.5698 0.0034 25.0606
#
#
#
# Elastic Compliance Matrix: (Units=1/GPa)
#
#
# Indices 1 2 3 4 5 6 
#
# 1 0.025475 -0.002541 -0.002924 0.000026 -0.005491 -0.000005
# 2 -0.002541 0.015057 -0.000975 -0.000008 0.003953 0.000009
# 3 -0.002924 -0.000975 0.005656 -0.000010 -0.001560 0.000003
# 4 0.000026 -0.000008 -0.000010 0.057314 0.000022 -0.017312
# 5 -0.005491 0.003953 -0.001560 0.000022 0.024969 -0.000009
# 6 -0.000005 0.000009 0.000003 -0.017312 -0.000009 0.045133
#
#
# Mechanical properties :
#
#
# Convention : Reuss Voigt Hill
#
# Bulk Modulus (GPa) = 30.02225 45.40406 37.71316
# Shear Modulus (GPa) = 25.30550 35.69527 30.50038
#
# Velocity S-wave (km/s) = 3.19652 3.79643 3.50931
# Velocity P-wave (km/s) = 5.07404 6.12782 5.62566
#
# Compressibility (1/GPa) = 0.03330863
#
# Stress axis : x y z
#
# Youngs Moduli (GPa) = 39.25378 66.41347 176.81659
#
# Poissons Ratio (x) = 0.16875 0.51694
# Poissons Ratio (y) = 0.09974 0.17244
# Poissons Ratio (z) = 0.11476 0.06477
#
# Static dielectric constant tensor:
#      x y z
#    x 2.096110 -0.000020 -0.104350 
#    y -0.000020 2.057930 -0.000050 
#    z -0.104350 -0.000050 2.108380 
# 
# From -- ./inp_files/63150.got.cif
#   From: 2010.05.17/outbox.cif.g08.bks.cpg/sg5_32_cif.got.tgz:63150.got - 2010.06.03 18:56:24.
