data_PCOD9127903
_publ_section_title
;
Structure prediction by ZEFSAII (Michael W. Deem and Ramdas Pophale) SiO2 
 PCOD9127903
Probable space group: C 2
;
_chemical_formula_sum "Si O2"
_cell_formula_units_Z 20
_cell_length_a 21.070586
_cell_length_b 9.161842
_cell_length_c 4.960221
_cell_angle_alpha 90.000000
_cell_angle_beta 123.650297
_cell_angle_gamma 90.000000
_cell_volume 797.096379
_symmetry_space_group_name_H-M "C 2"
_symmetry_group_IT_number 5
_symmetry_cell_setting 'monoclinic'
loop_
_space_group_symop_operation_xyz
x,y,z
-x,y,-z
1/2+x,1/2+y,z
1/2-x,1/2+y,-z
loop_
_atom_site_type_symbol
_atom_site_label
_atom_site_fract_x
_atom_site_fract_y
_atom_site_fract_z
Si Si1 0.089083 0.353970 0.787403
Si Si2 0.409999 0.534471 0.294830
Si Si3 0.784977 0.041056 0.405161
Si Si4 0.183587 0.775031 0.848600
Si Si5 0.651626 0.018430 0.441513
O O1 0.108427 0.185746 0.901071
O O2 0.131321 0.400715 0.615959
O O3 0.000000 0.358517 0.500000
O O4 0.109327 0.466488 0.072414
O O5 0.500000 0.517364 0.500000
O O6 0.367419 0.172646 0.465994
O O7 0.370176 0.384419 0.108281
O O8 0.736114 0.168923 0.146683
O O9 0.741936 0.030334 0.588421
O O10 0.871953 0.056450 0.504188
O O11 0.230883 0.882073 0.765280
#
# Coordination Sequence:
#
# PCOD9127903 Si02
#       5
#     4   4   4   4   4
#     4  11  25  49  76 108 153 205 252 312 384 459
#     4   9  23  48  74 109 156 201 250 315 388 452
#     4  10  23  43  73 109 148 197 255 311 374 448
#     4  10  24  42  76 110 155 198 259 316 378 455
#     4  12  24  46  74 114 146 199 257 317 374 456
#
# _framework density 25.091069999999998
#
# number of rings (size 3 to 8) (size 9 to 14) (size 15 to 20)
#    1.200    0.400    2.000    1.800    2.800    0.800 
#    7.200    0.000    0.000    0.000    0.000    0.000 
#    0.000    0.000    0.000    0.000    0.000    0.000 
#
# Total GULP energy -55852.016182 kJ/mol
# GULP energy per Si atom -5585.201618 kJ/mol
# Density = 2.503396 g / cm^3
# Si number density = 25.091070 Si / 1000 Ang^3
#
#
#
# Elastic Constant Matrix: (Units=GPa)
#
#
# Indices 1 2 3 4 5 6 
#
# 1 140.5498 52.1003 60.7159 0.0000 9.8158 0.0000
# 2 52.1003 174.1443 38.4236 0.0000 15.3030 0.0000
# 3 60.7159 38.4236 84.7268 0.0000 -0.4240 0.0000
# 4 0.0000 0.0000 0.0000 26.1714 0.0000 2.6452
# 5 9.8158 15.3030 -0.4240 0.0000 37.9909 0.0000
# 6 0.0000 0.0000 0.0000 2.6452 0.0000 45.6170
#
#
#
# Elastic Compliance Matrix: (Units=1/GPa)
#
#
# Indices 1 2 3 4 5 6 
#
# 1 0.010921 -0.001484 -0.007165 0.000000 -0.002304 0.000000
# 2 -0.001484 0.006851 -0.002055 0.000000 -0.002399 0.000000
# 3 -0.007165 -0.002055 0.017883 0.000000 0.002879 0.000000
# 4 0.000000 0.000000 0.000000 0.038435 0.000000 -0.002229
# 5 -0.002304 -0.002399 0.002879 0.000000 0.027916 0.000000
# 6 0.000000 0.000000 0.000000 -0.002229 0.000000 0.022051
#
#
# Mechanical properties :
#
#
# Convention : Reuss Voigt Hill
#
# Bulk Modulus (GPa) = 70.18968 77.98893 74.08931
# Shear Modulus (GPa) = 33.28598 38.50126 35.89362
#
# Velocity S-wave (km/s) = 3.64621 3.92147 3.78634
# Velocity P-wave (km/s) = 6.76470 7.18705 6.97907
#
# Compressibility (1/GPa) = 0.01424711
#
# Stress axis : x y z
#
# Youngs Moduli (GPa) = 91.56728 145.97126 55.91812
#
# Poissons Ratio (x) = 0.21663 0.40063
# Poissons Ratio (y) = 0.13589 0.11493
# Poissons Ratio (z) = 0.65604 0.30001
#
# Static dielectric constant tensor:
#      x y z
#    x 1.942370 0.000000 0.012920 
#    y 0.000000 1.992680 0.000000 
#    z 0.012920 0.000000 2.060350 
# 
# From -- ./inp_files/10752.got.cif
#   From: 2010.05.17/outbox.cif.g08.bks.cpg/sg5_6_cif.got.tgz:10752.got - 2010.06.03 18:56:24.
