data_PCOD9127286
_publ_section_title
;
Structure prediction by ZEFSAII (Michael W. Deem and Ramdas Pophale) SiO2 
 PCOD9127286
Probable space group: C 2
;
_chemical_formula_sum "Si O2"
_cell_formula_units_Z 26
_cell_length_a 8.955056
_cell_length_b 19.219345
_cell_length_c 8.824050
_cell_angle_alpha 90.000000
_cell_angle_beta 131.542364
_cell_angle_gamma 90.000000
_cell_volume 1136.702153
_symmetry_space_group_name_H-M "C 2"
_symmetry_group_IT_number 5
_symmetry_cell_setting 'monoclinic'
loop_
_space_group_symop_operation_xyz
x,y,z
-x,y,-z
1/2+x,1/2+y,z
1/2-x,1/2+y,-z
loop_
_atom_site_type_symbol
_atom_site_label
_atom_site_fract_x
_atom_site_fract_y
_atom_site_fract_z
Si Si1 0.346817 0.137490 0.173801
Si Si2 0.579109 0.650621 0.279911
Si Si3 0.520830 0.794472 0.846193
Si Si4 0.677054 0.887997 0.495929
Si Si5 0.396558 0.005976 0.775484
Si Si6 0.000000 0.060916 0.500000
Si Si7 0.531163 0.288563 0.847695
O O1 0.259419 0.134886 0.286119
O O2 0.478152 0.074643 0.193470
O O3 0.450527 0.214157 0.226544
O O4 0.138549 0.135248 0.938889
O O5 0.548006 0.731051 0.304323
O O6 0.605066 0.607609 0.446926
O O7 0.371813 0.853431 0.699416
O O8 0.500000 0.765411 0.000000
O O9 0.745999 0.819966 0.994021
O O10 0.500000 0.875466 0.500000
O O11 0.872971 0.847028 0.687483
O O12 0.653246 0.966542 0.418878
O O13 0.174958 0.017962 0.690652
O O14 0.500000 0.976790 0.000000
O O15 0.500000 0.267240 0.000000
#
# Coordination Sequence:
#
# PCOD9127286 Si02
#       7
#     4   4   4   4   4   2   4
#     4  10  22  47  79 105 148 189 237 307 374 427
#     4  10  22  44  75 116 140 182 244 304 370 435
#     4  11  23  46  72 104 150 186 238 312 363 428
#     4  12  29  46  71 108 144 200 252 295 363 441
#     4  12  28  51  73 104 151 202 242 307 369 434
#     4  12  28  44  74 110 146 188 250 302 362 450
#     4  11  23  46  77 111 143 190 246 307 369 426
#
# _framework density 22.873186
#
# number of rings (size 3 to 8) (size 9 to 14) (size 15 to 20)
#    0.000    0.923    6.154    0.923    7.538    3.077 
#    0.000    0.000    0.000    0.000    0.000    0.000 
#    0.000    0.000    0.000    0.000    0.000    0.000 
#
# Total GULP energy -72385.911144 kJ/mol
# GULP energy per Si atom -5568.147011 kJ/mol
# Density = 2.282113 g / cm^3
# Si number density = 22.873186 Si / 1000 Ang^3
#
#
#
# Elastic Constant Matrix: (Units=GPa)
#
#
# Indices 1 2 3 4 5 6 
#
# 1 86.5829 14.4371 44.7534 0.0000 6.5302 0.0000
# 2 14.4371 66.0601 30.5654 0.0000 4.9740 0.0000
# 3 44.7534 30.5654 78.1510 0.0000 7.2546 0.0000
# 4 0.0000 0.0000 0.0000 24.0923 0.0000 -5.3198
# 5 6.5302 4.9740 7.2546 0.0000 37.1573 0.0000
# 6 0.0000 0.0000 0.0000 -5.3198 0.0000 19.2471
#
#
#
# Elastic Compliance Matrix: (Units=1/GPa)
#
#
# Indices 1 2 3 4 5 6 
#
# 1 0.016499 0.000980 -0.009726 0.000000 -0.001132 0.000000
# 2 0.000980 0.018583 -0.007722 0.000000 -0.001152 0.000000
# 3 -0.009726 -0.007722 0.021521 0.000000 -0.001459 0.000000
# 4 0.000000 0.000000 0.000000 0.044205 0.000000 0.012218
# 5 -0.001132 -0.001152 -0.001459 0.000000 0.027551 0.000000
# 6 0.000000 0.000000 0.000000 0.012218 0.000000 0.055333
#
#
# Mechanical properties :
#
#
# Convention : Reuss Voigt Hill
#
# Bulk Modulus (GPa) = 42.25476 45.58954 43.92215
# Shear Modulus (GPa) = 22.26992 25.50186 23.88589
#
# Velocity S-wave (km/s) = 3.12368 3.34267 3.23503
# Velocity P-wave (km/s) = 5.61458 5.90531 5.76177
#
# Compressibility (1/GPa) = 0.02366597
#
# Stress axis : x y z
#
# Youngs Moduli (GPa) = 60.60977 53.81159 46.46596
#
# Poissons Ratio (x) = -0.05272 0.45194
# Poissons Ratio (y) = -0.05938 0.35882
# Poissons Ratio (z) = 0.58951 0.41554
#
# Static dielectric constant tensor:
#      x y z
#    x 1.966870 0.000000 -0.046500 
#    y 0.000000 1.999780 0.000000 
#    z -0.046500 0.000000 1.876860 
# 
# From -- ./inp_files/17097.got.cif
#   From: 2010.05.17/outbox.cif.g08.bks.cpg/sg5_9_cif.got.tgz:17097.got - 2010.06.03 18:56:24.
