data_PCOD9127215
_publ_section_title
;
Structure prediction by ZEFSAII (Michael W. Deem and Ramdas Pophale) SiO2 
 PCOD9127215
Probable space group: C 2
;
_chemical_formula_sum "Si O2"
_cell_formula_units_Z 28
_cell_length_a 14.289033
_cell_length_b 16.641577
_cell_length_c 6.413988
_cell_angle_alpha 90.000000
_cell_angle_beta 51.910841
_cell_angle_gamma 90.000000
_cell_volume 1200.407650
_symmetry_space_group_name_H-M "C 2"
_symmetry_group_IT_number 5
_symmetry_cell_setting 'monoclinic'
loop_
_space_group_symop_operation_xyz
x,y,z
-x,y,-z
1/2+x,1/2+y,z
1/2-x,1/2+y,-z
loop_
_atom_site_type_symbol
_atom_site_label
_atom_site_fract_x
_atom_site_fract_y
_atom_site_fract_z
Si Si1 0.123640 0.894270 0.708368
Si Si2 0.122825 0.621744 0.814890
Si Si3 0.226350 0.049464 0.727983
Si Si4 0.561020 0.805748 0.198131
Si Si5 0.500000 0.312423 0.500000
Si Si6 0.899342 0.483707 0.819481
Si Si7 0.500000 0.665975 0.000000
Si Si8 0.202011 0.761185 0.926744
O O1 0.191271 0.828709 0.759843
O O2 0.086537 0.863850 0.531723
O O3 0.193934 0.977458 0.613658
O O4 0.000000 0.909861 0.000000
O O5 0.167347 0.598839 0.526431
O O6 0.220310 0.677299 0.787409
O O7 0.096437 0.548754 0.005230
O O8 0.000000 0.671113 0.000000
O O9 0.275985 0.003733 0.864755
O O10 0.112285 0.108431 0.897921
O O11 0.500000 0.820517 0.500000
O O12 0.582306 0.897238 0.093999
O O13 0.485995 0.733819 0.198951
O O14 0.692337 0.774533 0.059147
O O15 0.416086 0.263512 0.770193
O O16 0.000000 0.492091 0.500000
#
# Coordination Sequence:
#
# PCOD9127215 Si02
#       8
#     4   4   4   4   2   4   2   4
#     4  10  22  44  70 100 138 183 234 285 354 425
#     4  12  26  41  69 105 132 179 235 288 348 418
#     4  12  25  47  70 103 145 185 235 296 351 426
#     4  11  26  46  69 102 139 184 235 286 353 431
#     4  10  24  40  72 102 132 186 228 294 346 426
#     4  11  25  46  73 100 141 186 234 292 356 421
#     4  12  28  46  74 104 144 192 234 294 364 416
#     4  11  24  45  68 101 140 177 230 293 353 417
#
# _framework density 23.325409000000001
#
# number of rings (size 3 to 8) (size 9 to 14) (size 15 to 20)
#    0.000    0.857    3.571    3.000    4.000    4.571 
#    3.857    0.000    0.000    0.000    0.000    0.000 
#    0.000    0.000    0.000    0.000    0.000    0.000 
#
# Total GULP energy -78157.756774 kJ/mol
# GULP energy per Si atom -5582.696912 kJ/mol
# Density = 2.327232 g / cm^3
# Si number density = 23.325409 Si / 1000 Ang^3
#
#
#
# Elastic Constant Matrix: (Units=GPa)
#
#
# Indices 1 2 3 4 5 6 
#
# 1 81.8543 17.1576 12.5471 0.0000 5.6643 0.0000
# 2 17.1576 111.0159 19.6165 0.0000 5.4032 0.0000
# 3 12.5471 19.6165 38.4681 0.0000 4.1789 0.0000
# 4 0.0000 0.0000 0.0000 27.2156 0.0000 11.0704
# 5 5.6643 5.4032 4.1789 0.0000 36.4301 0.0000
# 6 0.0000 0.0000 0.0000 11.0704 0.0000 26.6613
#
#
#
# Elastic Compliance Matrix: (Units=1/GPa)
#
#
# Indices 1 2 3 4 5 6 
#
# 1 0.013127 -0.001351 -0.003435 0.000000 -0.001446 0.000000
# 2 -0.001351 0.010068 -0.004611 0.000000 -0.000754 0.000000
# 3 -0.003435 -0.004611 0.029706 0.000000 -0.002189 0.000000
# 4 0.000000 0.000000 0.000000 0.044211 0.000000 -0.018357
# 5 -0.001446 -0.000754 -0.002189 0.000000 0.028038 0.000000
# 6 0.000000 0.000000 0.000000 -0.018357 0.000000 0.045130
#
#
# Mechanical properties :
#
#
# Convention : Reuss Voigt Hill
#
# Bulk Modulus (GPa) = 29.32193 36.66451 32.99322
# Shear Modulus (GPa) = 24.94473 30.19586 27.57029
#
# Velocity S-wave (km/s) = 3.27375 3.60189 3.44173
# Velocity P-wave (km/s) = 5.18537 5.74899 5.47444
#
# Compressibility (1/GPa) = 0.03410417
#
# Stress axis : x y z
#
# Youngs Moduli (GPa) = 76.18024 99.32340 33.66379
#
# Poissons Ratio (x) = 0.13422 0.11565
# Poissons Ratio (y) = 0.10294 0.15524
# Poissons Ratio (z) = 0.26170 0.45803
#
# Static dielectric constant tensor:
#      x y z
#    x 1.986320 0.000000 0.045030 
#    y 0.000000 1.883390 0.000000 
#    z 0.045030 0.000000 1.885430 
# 
# From -- ./inp_files/7272.got.cif
#   From: 2010.05.17/outbox.cif.g08.bks.cpg/sg5_4_cif.got.tgz:7272.got - 2010.06.03 18:56:24.
