data_PCOD9127439
_publ_section_title
;
Structure prediction by ZEFSAII (Michael W. Deem and Ramdas Pophale) SiO2 
 PCOD9127439
Probable space group: C 2
;
_chemical_formula_sum "Si O2"
_cell_formula_units_Z 26
_cell_length_a 13.346976
_cell_length_b 7.765747
_cell_length_c 12.057120
_cell_angle_alpha 90.000000
_cell_angle_beta 117.170545
_cell_angle_gamma 90.000000
_cell_volume 1111.807222
_symmetry_space_group_name_H-M "C 2"
_symmetry_group_IT_number 5
_symmetry_cell_setting 'monoclinic'
loop_
_space_group_symop_operation_xyz
x,y,z
-x,y,-z
1/2+x,1/2+y,z
1/2-x,1/2+y,-z
loop_
_atom_site_type_symbol
_atom_site_label
_atom_site_fract_x
_atom_site_fract_y
_atom_site_fract_z
Si Si1 0.413272 0.803850 0.857508
Si Si2 0.755720 0.014235 0.101815
Si Si3 0.658932 0.348081 0.496505
Si Si4 0.110737 0.531946 0.341416
Si Si5 0.000000 0.593079 0.500000
Si Si6 0.995416 0.028504 0.268820
Si Si7 0.406316 0.316575 0.041109
O O1 0.294850 0.852437 0.855839
O O2 0.435558 0.649806 0.781329
O O3 0.440032 0.977408 0.800530
O O4 0.500000 0.777956 0.000000
O O5 0.866309 0.092960 0.219410
O O6 0.655854 0.145412 0.028071
O O7 0.965600 0.846556 0.190905
O O8 0.779745 0.413130 0.588799
O O9 0.660470 0.220678 0.390789
O O10 0.605578 0.223758 0.562378
O O11 0.570895 0.493660 0.413901
O O12 0.025232 0.495986 0.399576
O O13 0.694152 0.454016 0.991074
O O14 0.500000 0.362659 0.000000
#
# Coordination Sequence:
#
# PCOD9127439 Si02
#       7
#     4   4   4   4   2   4   4
#     4  12  25  45  70 107 155 195 244 301 364 451
#     4  10  25  40  67  97 140 198 234 305 366 425
#     4  10  22  46  73 108 138 186 247 306 371 430
#     4  10  24  46  75 104 145 192 240 311 371 433
#     4   8  24  44  74 108 134 188 238 320 358 420
#     4  10  25  42  69 106 142 193 246 303 363 438
#     4  10  23  41  64  99 139 194 249 294 361 439
#
# _framework density 23.385348
#
# number of rings (size 3 to 8) (size 9 to 14) (size 15 to 20)
#    1.846    0.000    0.000    2.769    8.615    0.000 
#    2.769    4.615    0.000    0.000    0.000    0.000 
#    0.000    0.000    0.000    0.000    0.000    0.000 
#
# Total GULP energy -72395.048344 kJ/mol
# GULP energy per Si atom -5568.849873 kJ/mol
# Density = 2.333212 g / cm^3
# Si number density = 23.385348 Si / 1000 Ang^3
#
#
#
# Elastic Constant Matrix: (Units=GPa)
#
#
# Indices 1 2 3 4 5 6 
#
# 1 158.6359 37.1117 37.2793 0.0000 -11.9303 0.0000
# 2 37.1117 54.0487 9.2790 0.0000 12.5918 0.0000
# 3 37.2793 9.2790 76.8559 0.0000 8.6886 0.0000
# 4 0.0000 0.0000 0.0000 27.4143 0.0000 -7.8206
# 5 -11.9303 12.5918 8.6886 0.0000 29.3428 0.0000
# 6 0.0000 0.0000 0.0000 -7.8206 0.0000 39.6877
#
#
#
# Elastic Compliance Matrix: (Units=1/GPa)
#
#
# Indices 1 2 3 4 5 6 
#
# 1 0.010047 -0.008162 -0.004910 0.000000 0.009041 0.000000
# 2 -0.008162 0.027365 0.002440 0.000000 -0.015784 0.000000
# 3 -0.004910 0.002440 0.015977 0.000000 -0.007774 0.000000
# 4 0.000000 0.000000 0.000000 0.038650 0.000000 0.007616
# 5 0.009041 -0.015784 -0.007774 0.000000 0.046831 0.000000
# 6 0.000000 0.000000 0.000000 0.007616 0.000000 0.026698
#
#
# Mechanical properties :
#
#
# Convention : Reuss Voigt Hill
#
# Bulk Modulus (GPa) = 31.12948 50.76449 40.94698
# Shear Modulus (GPa) = 25.31125 33.01366 29.16245
#
# Velocity S-wave (km/s) = 3.29349 3.76137 3.53518
# Velocity P-wave (km/s) = 5.27287 6.37329 5.84902
#
# Compressibility (1/GPa) = 0.03212389
#
# Stress axis : x y z
#
# Youngs Moduli (GPa) = 99.53199 36.54368 62.58864
#
# Poissons Ratio (x) = 0.29827 0.30731
# Poissons Ratio (y) = 0.81239 -0.15269
# Poissons Ratio (z) = 0.48871 -0.08915
#
# Static dielectric constant tensor:
#      x y z
#    x 1.918020 0.000000 -0.001880 
#    y 0.000000 1.979930 0.000000 
#    z -0.001880 0.000000 1.873060 
# 
# From -- ./inp_files/41817.got.cif
#   From: 2010.05.17/outbox.cif.g08.bks.cpg/sg5_21_cif.got.tgz:41817.got - 2010.06.03 18:56:24.
