data_PCOD9127078
_publ_section_title
;
Structure prediction by ZEFSAII (Michael W. Deem and Ramdas Pophale) SiO2 
 PCOD9127078
Probable space group: C 2
;
_chemical_formula_sum "Si O2"
_cell_formula_units_Z 28
_cell_length_a 13.822674
_cell_length_b 5.664731
_cell_length_c 15.262512
_cell_angle_alpha 90.000000
_cell_angle_beta 81.368059
_cell_angle_gamma 90.000000
_cell_volume 1181.544248
_symmetry_space_group_name_H-M "C 2"
_symmetry_group_IT_number 5
_symmetry_cell_setting 'monoclinic'
loop_
_space_group_symop_operation_xyz
x,y,z
-x,y,-z
1/2+x,1/2+y,z
1/2-x,1/2+y,-z
loop_
_atom_site_type_symbol
_atom_site_label
_atom_site_fract_x
_atom_site_fract_y
_atom_site_fract_z
Si Si1 0.317840 0.056480 0.288260
Si Si2 0.473490 0.747795 0.179141
Si Si3 0.549937 0.412017 0.673315
Si Si4 0.000000 0.471053 0.000000
Si Si5 0.795842 0.642746 0.960002
Si Si6 0.314227 0.872850 0.789657
Si Si7 0.644975 0.210515 0.356457
Si Si8 0.500000 0.422404 0.500000
O O1 0.358762 0.241145 0.353128
O O2 0.267204 0.176715 0.211264
O O3 0.418164 0.949018 0.239858
O O4 0.241671 0.868177 0.336265
O O5 0.431142 0.524171 0.234984
O O6 0.458139 0.798735 0.080496
O O7 0.588314 0.762608 0.183278
O O8 0.442000 0.300991 0.695682
O O9 0.534511 0.556204 0.583830
O O10 0.089516 0.622609 0.027442
O O11 0.786703 0.589340 0.856897
O O12 0.754146 0.900472 0.992841
O O13 0.332515 0.957071 0.687205
O O14 0.588701 0.255818 0.454632
#
# Coordination Sequence:
#
# PCOD9127078 Si02
#       8
#     4   4   4   2   4   4   4   2
#     4  12  23  41  71  98 131 189 225 285 365 422
#     4  11  22  45  67  97 141 184 233 287 346 424
#     4  10  22  43  70  99 135 180 229 288 357 420
#     4  10  26  44  66 106 146 194 246 302 360 428
#     4  11  27  46  69 107 148 195 250 308 361 437
#     4  11  23  42  71  96 139 185 232 298 354 425
#     4  10  22  44  69  97 136 174 230 289 354 433
#     4   8  20  48  66 104 140 170 232 302 348 442
#
# _framework density 23.697801999999999
#
# number of rings (size 3 to 8) (size 9 to 14) (size 15 to 20)
#    0.857    0.571    2.857    1.714    6.000    0.571 
#    5.143    5.000    0.000    0.000    0.000    0.000 
#    0.000    0.000    0.000    0.000    0.000    0.000 
#
# Total GULP energy -78016.082192 kJ/mol
# GULP energy per Si atom -5572.577299 kJ/mol
# Density = 2.364387 g / cm^3
# Si number density = 23.697802 Si / 1000 Ang^3
#
#
#
# Elastic Constant Matrix: (Units=GPa)
#
#
# Indices 1 2 3 4 5 6 
#
# 1 61.0618 -3.5440 1.5227 0.0000 11.2477 0.0000
# 2 -3.5440 28.1514 -6.7874 0.0000 -1.7342 0.0000
# 3 1.5227 -6.7874 77.7156 0.0000 -11.7115 0.0000
# 4 0.0000 0.0000 0.0000 -79.5445 0.0000 45.8242
# 5 11.2477 -1.7342 -11.7115 0.0000 14.4639 0.0000
# 6 0.0000 0.0000 0.0000 45.8242 0.0000 1.2942
#
#
#
# Elastic Compliance Matrix: (Units=1/GPa)
#
#
# Indices 1 2 3 4 5 6 
#
# 1 0.019752 0.000673 -0.002996 0.000000 -0.017705 0.000000
# 2 0.000673 0.037115 0.004351 0.000000 0.007449 0.000000
# 3 -0.002996 0.004351 0.015645 0.000000 0.015519 0.000000
# 4 0.000000 0.000000 0.000000 -0.000588 0.000000 0.020803
# 5 -0.017705 0.007449 0.015519 0.000000 0.096365 0.000000
# 6 0.000000 0.000000 0.000000 0.020803 0.000000 0.036111
#
#
# Mechanical properties :
#
#
# Convention : Reuss Voigt Hill
#
# Bulk Modulus (GPa) = 13.06031 16.59015 14.82523
# Shear Modulus (GPa) = 22.13693 -1.04146 10.54774
#
# Velocity S-wave (km/s) = 3.05968 -0.66365 2.11201
# Velocity P-wave (km/s) = 4.24327 2.53548 3.49528
#
# Compressibility (1/GPa) = 0.07656786
#
# Stress axis : x y z
#
# Youngs Moduli (GPa) = 50.62774 26.94331 63.91878
#
# Poissons Ratio (x) = -0.01815 0.19152
# Poissons Ratio (y) = -0.03410 -0.27810
# Poissons Ratio (z) = 0.15170 -0.11723
#
# Static dielectric constant tensor:
#      x y z
#    x 1.938410 0.000000 -0.124190 
#    y 0.000000 2.108420 0.000000 
#    z -0.124190 0.000000 2.105280 
# 
# From -- ./inp_files/61086.got.cif
#   From: 2010.05.17/outbox.cif.g08.bks.cpg/sg5_31_cif.got.tgz:61086.got - 2010.06.03 18:56:24.
