data_PCOD9127251
_publ_section_title
;
Structure prediction by ZEFSAII (Michael W. Deem and Ramdas Pophale) SiO2 
 PCOD9127251
Probable space group: C 2
;
_chemical_formula_sum "Si O2"
_cell_formula_units_Z 28
_cell_length_a 19.816466
_cell_length_b 8.228973
_cell_length_c 14.347983
_cell_angle_alpha 90.000000
_cell_angle_beta 28.923796
_cell_angle_gamma 90.000000
_cell_volume 1131.592974
_symmetry_space_group_name_H-M "C 2"
_symmetry_group_IT_number 5
_symmetry_cell_setting 'monoclinic'
loop_
_space_group_symop_operation_xyz
x,y,z
-x,y,-z
1/2+x,1/2+y,z
1/2-x,1/2+y,-z
loop_
_atom_site_type_symbol
_atom_site_label
_atom_site_fract_x
_atom_site_fract_y
_atom_site_fract_z
Si Si1 0.661288 0.074200 0.183678
Si Si2 0.000000 0.082452 0.000000
Si Si3 0.321128 0.338156 0.336791
Si Si4 0.822986 0.305219 0.081899
Si Si5 0.003775 0.299570 0.679499
Si Si6 0.806326 0.663249 0.179696
Si Si7 0.575637 0.333249 0.132973
Si Si8 0.500000 0.714815 0.500000
O O1 0.683215 0.200056 0.240599
O O2 0.618450 0.187536 0.148705
O O3 0.539166 0.942794 0.340997
O O4 0.809794 0.976317 0.994757
O O5 0.929064 0.197601 0.011166
O O6 0.880014 0.979328 0.197539
O O7 0.152531 0.335000 0.546927
O O8 0.337280 0.177680 0.251319
O O9 0.408132 0.362030 0.327719
O O10 0.801423 0.479723 0.151811
O O11 0.889505 0.316194 0.898231
O O12 0.979989 0.149766 0.635537
O O13 0.661064 0.750498 0.329631
O O14 0.908204 0.765937 0.991710
#
# Coordination Sequence:
#
# PCOD9127251 Si02
#       8
#     4   2   4   4   4   4   4   2
#     4  12  22  42  71 101 139 184 234 291 360 421
#     4  12  26  46  70 102 146 188 232 298 362 430
#     4  11  25  46  74  99 141 193 240 288 366 431
#     4  12  26  44  72 106 144 184 243 298 358 427
#     4  11  25  43  73 106 140 187 241 296 349 431
#     4  11  21  43  72  99 136 190 234 292 355 430
#     4  12  21  42  71  99 134 189 233 286 358 429
#     4  10  22  44  72 104 142 184 242 292 358 424
#
# _framework density 24.743879
#
# number of rings (size 3 to 8) (size 9 to 14) (size 15 to 20)
#    0.000    0.571    7.143    0.000    4.000    1.143 
#    2.571    0.000    0.000    0.000    0.000    0.000 
#    0.000    0.000    0.000    0.000    0.000    0.000 
#
# Total GULP energy -77973.412846 kJ/mol
# GULP energy per Si atom -5569.529489 kJ/mol
# Density = 2.468756 g / cm^3
# Si number density = 24.743879 Si / 1000 Ang^3
#
#
#
# Elastic Constant Matrix: (Units=GPa)
#
#
# Indices 1 2 3 4 5 6 
#
# 1 165.6214 27.1305 30.9022 0.0000 -43.2894 0.0000
# 2 27.1305 105.5821 15.2851 0.0001 -7.4893 0.0000
# 3 30.9022 15.2851 47.4268 0.0000 -29.9609 0.0000
# 4 0.0000 0.0001 0.0000 7.1476 0.0000 -1.5620
# 5 -43.2894 -7.4893 -29.9609 0.0000 38.7521 0.0000
# 6 0.0000 0.0000 0.0000 -1.5620 0.0000 42.1240
#
#
#
# Elastic Compliance Matrix: (Units=1/GPa)
#
#
# Indices 1 2 3 4 5 6 
#
# 1 0.008842 -0.001741 0.001617 0.000000 0.010790 0.000000
# 2 -0.001741 0.010301 -0.004215 0.000000 -0.003213 0.000000
# 3 0.001617 -0.004215 0.043036 0.000000 0.034264 0.000000
# 4 0.000000 0.000000 0.000000 0.141051 0.000000 0.005230
# 5 0.010790 -0.003213 0.034264 0.000000 0.063729 0.000000
# 6 0.000000 0.000000 0.000000 0.005230 0.000000 0.023933
#
#
# Mechanical properties :
#
#
# Convention : Reuss Voigt Hill
#
# Bulk Modulus (GPa) = 18.69152 51.69621 35.19387
# Shear Modulus (GPa) = 15.75279 33.95890 24.85585
#
# Velocity S-wave (km/s) = 2.52590 3.70863 3.17286
# Velocity P-wave (km/s) = 4.00965 6.26710 5.26088
#
# Compressibility (1/GPa) = 0.05350020
#
# Stress axis : x y z
#
# Youngs Moduli (GPa) = 113.10017 97.07869 23.23627
#
# Poissons Ratio (x) = 0.16898 -0.03756
# Poissons Ratio (y) = 0.19686 0.09795
# Poissons Ratio (z) = -0.18283 0.40921
#
# Static dielectric constant tensor:
#      x y z
#    x 2.004750 0.000000 0.019970 
#    y 0.000000 2.197070 0.000000 
#    z 0.019970 0.000000 2.157900 
# 
# From -- ./inp_files/56904.got.cif
#   From: 2010.05.17/outbox.cif.g08.bks.cpg/sg5_29_cif.got.tgz:56904.got - 2010.06.03 18:56:24.
