data_PCOD9127027
_publ_section_title
;
Structure prediction by ZEFSAII (Michael W. Deem and Ramdas Pophale) SiO2 
 PCOD9127027
Probable space group: C 2
;
_chemical_formula_sum "Si O2"
_cell_formula_units_Z 16
_cell_length_a 5.411051
_cell_length_b 27.550788
_cell_length_c 5.438255
_cell_angle_alpha 90.000000
_cell_angle_beta 53.407984
_cell_angle_gamma 90.000000
_cell_volume 650.934028
_symmetry_space_group_name_H-M "C 2"
_symmetry_group_IT_number 5
_symmetry_cell_setting 'monoclinic'
loop_
_space_group_symop_operation_xyz
x,y,z
-x,y,-z
1/2+x,1/2+y,z
1/2-x,1/2+y,-z
loop_
_atom_site_type_symbol
_atom_site_label
_atom_site_fract_x
_atom_site_fract_y
_atom_site_fract_z
Si Si1 0.000000 0.218750 0.000000
Si Si2 0.172095 0.062784 0.670137
Si Si3 0.000000 0.281124 0.500000
Si Si4 0.500000 0.150916 0.500000
Si Si5 0.000000 0.976591 0.500000
Si Si6 0.000000 0.847366 0.000000
Si Si7 0.500000 0.910140 0.000000
O O1 0.008645 0.250193 0.244235
O O2 0.701507 0.185008 0.208804
O O3 0.500000 0.036682 0.500000
O O4 0.705329 0.111834 0.536160
O O5 0.952567 0.018171 0.734472
O O6 0.000000 0.085421 0.000000
O O7 0.304233 0.314418 0.304055
O O8 0.296173 0.942724 0.306324
O O9 0.748514 0.878976 0.003428
#
# Coordination Sequence:
#
# PCOD9127027 Si02
#       7
#     2   4   2   2   2   2   2
#     4  12  25  48  77 118 146 208 261 326 379 500
#     4  10  22  43  66  99 156 197 240 315 366 458
#     4  12  28  51  83 108 164 196 265 331 422 468
#     4  10  22  44  68 110 156 198 260 310 386 450
#     4  12  26  43  73 112 142 214 251 317 380 454
#     4  12  28  54  77 117 152 207 253 344 416 466
#     4  12  29  46  84 107 156 195 274 320 387 494
#
# _framework density 24.580064
#
# number of rings (size 3 to 8) (size 9 to 14) (size 15 to 20)
#    0.750    0.000    1.250    5.250    5.250    3.000 
#    4.500    0.000    0.000    0.000    0.000    0.000 
#    0.000    0.000    0.000    0.000    0.000    0.000 
#
# Total GULP energy -44578.252641 kJ/mol
# GULP energy per Si atom -5572.281580 kJ/mol
# Density = 2.452412 g / cm^3
# Si number density = 24.580064 Si / 1000 Ang^3
#
#
#
# Elastic Constant Matrix: (Units=GPa)
#
#
# Indices 1 2 3 4 5 6 
#
# 1 118.5466 87.9318 50.2530 0.0000 -9.8863 0.0000
# 2 87.9318 195.3474 94.9539 0.0000 -9.8392 0.0000
# 3 50.2530 94.9539 166.4195 0.0000 -26.0583 0.0000
# 4 0.0000 0.0000 0.0000 75.6133 0.0000 -40.1821
# 5 -9.8863 -9.8392 -26.0583 0.0000 41.0129 0.0000
# 6 0.0000 0.0000 0.0000 -40.1821 0.0000 33.3353
#
#
#
# Elastic Compliance Matrix: (Units=1/GPa)
#
#
# Indices 1 2 3 4 5 6 
#
# 1 0.012815 -0.005431 -0.000546 0.000000 0.001440 0.000000
# 2 -0.005431 0.009420 -0.003982 0.000000 -0.001579 0.000000
# 3 -0.000546 -0.003982 0.009190 0.000000 0.004752 0.000000
# 4 0.000000 0.000000 0.000000 0.036794 0.000000 0.044351
# 5 0.001440 -0.001579 0.004752 0.000000 0.027370 0.000000
# 6 0.000000 0.000000 0.000000 0.044351 0.000000 0.083459
#
#
# Mechanical properties :
#
#
# Convention : Reuss Voigt Hill
#
# Bulk Modulus (GPa) = 86.89806 105.17676 96.03741
# Shear Modulus (GPa) = 24.65481 46.47062 35.56271
#
# Velocity S-wave (km/s) = 3.17052 4.35280 3.80782
# Velocity P-wave (km/s) = 6.98804 8.25499 7.64780
#
# Compressibility (1/GPa) = 0.01150774
#
# Stress axis : x y z
#
# Youngs Moduli (GPa) = 78.03293 106.16181 108.81681
#
# Poissons Ratio (x) = 0.57653 0.05938
# Poissons Ratio (y) = 0.42377 0.43330
# Poissons Ratio (z) = 0.04258 0.42273
#
# Static dielectric constant tensor:
#      x y z
#    x 1.423790 0.000000 -0.396670 
#    y 0.000000 1.911140 0.000000 
#    z -0.396670 0.000000 1.620320 
# 
# From -- ./inp_files/1033.got.cif
#   From: 2010.05.17/outbox.cif.g08.bks.cpg/sg5_1_cif.got.tgz:1033.got - 2010.06.03 18:56:24.
