data_PCOD9127046
_publ_section_title
;
Structure prediction by ZEFSAII (Michael W. Deem and Ramdas Pophale) SiO2 
 PCOD9127046
Probable space group: C 2
;
_chemical_formula_sum "Si O2"
_cell_formula_units_Z 32
_cell_length_a 11.314914
_cell_length_b 8.123408
_cell_length_c 27.744365
_cell_angle_alpha 90.000000
_cell_angle_beta 29.592464
_cell_angle_gamma 90.000000
_cell_volume 1259.330099
_symmetry_space_group_name_H-M "C 2"
_symmetry_group_IT_number 5
_symmetry_cell_setting 'monoclinic'
loop_
_space_group_symop_operation_xyz
x,y,z
-x,y,-z
1/2+x,1/2+y,z
1/2-x,1/2+y,-z
loop_
_atom_site_type_symbol
_atom_site_label
_atom_site_fract_x
_atom_site_fract_y
_atom_site_fract_z
Si Si1 0.000552 0.460960 0.057191
Si Si2 0.130841 0.906837 0.267936
Si Si3 0.357826 0.305094 0.004670
Si Si4 0.615035 0.594089 0.801200
Si Si5 0.979893 0.429292 0.298598
Si Si6 0.132487 0.095107 0.354691
Si Si7 0.839840 0.427046 0.458830
Si Si8 0.727158 0.577100 0.658758
O O1 0.237534 0.408376 0.004072
O O2 0.785965 0.386948 0.164339
O O3 0.971760 0.657355 0.072304
O O4 0.000000 0.418704 0.000000
O O5 0.189450 0.739463 0.273775
O O6 0.217835 0.060752 0.269801
O O7 0.862655 0.952090 0.349997
O O8 0.130665 0.192222 0.103547
O O9 0.500000 0.385944 0.000000
O O10 0.617914 0.511781 0.748102
O O11 0.738222 0.471533 0.795834
O O12 0.856577 0.565238 0.308976
O O13 0.871728 0.445322 0.390263
O O14 0.895209 0.252261 0.308821
O O15 0.982058 0.258160 0.418418
O O16 0.936580 0.950606 0.432036
O O17 0.990097 0.564749 0.435008
#
# Coordination Sequence:
#
# PCOD9127046 Si02
#       8
#     4   4   4   4   4   4   4   4
#     4  10  23  45  67  99 138 179 223 289 349 420
#     4  11  23  43  67  95 137 175 228 279 342 411
#     4  10  22  43  68 101 139 177 227 282 350 414
#     4  10  23  41  67  98 132 179 224 281 345 411
#     4  11  23  43  66  94 134 177 230 281 341 408
#     4  12  24  45  66  97 138 181 232 286 341 411
#     4  11  26  42  66  96 135 183 230 282 350 400
#     4  11  21  42  67  96 132 176 227 284 338 405
#
# _framework density 25.410335
#
# number of rings (size 3 to 8) (size 9 to 14) (size 15 to 20)
#    0.000    1.250    2.500    3.375    1.750    3.000 
#    9.000    0.000    0.000    0.000    0.000    0.000 
#    0.000    0.000    0.000    0.000    0.000    0.000 
#
# Total GULP energy -89378.694205 kJ/mol
# GULP energy per Si atom -5586.168388 kJ/mol
# Density = 2.535250 g / cm^3
# Si number density = 25.410335 Si / 1000 Ang^3
#
#
#
# Elastic Constant Matrix: (Units=GPa)
#
#
# Indices 1 2 3 4 5 6 
#
# 1 205.7733 30.3732 36.1933 0.0000 -18.6953 0.0004
# 2 30.3732 86.6682 5.0132 0.0001 -7.2141 -0.0005
# 3 36.1933 5.0132 88.1413 -0.0014 -8.8236 0.0004
# 4 0.0000 0.0001 -0.0014 24.6909 0.0016 -11.7807
# 5 -18.6953 -7.2141 -8.8236 0.0016 32.4376 0.0001
# 6 0.0004 -0.0005 0.0004 -11.7807 0.0001 46.7310
#
#
#
# Elastic Compliance Matrix: (Units=1/GPa)
#
#
# Indices 1 2 3 4 5 6 
#
# 1 0.005672 -0.001676 -0.001998 0.000000 0.002353 0.000000
# 2 -0.001676 0.012266 0.000172 0.000000 0.001809 0.000000
# 3 -0.001998 0.000172 0.012382 0.000001 0.002255 0.000000
# 4 0.000000 0.000000 0.000001 0.046038 -0.000002 0.011606
# 5 0.002353 0.001809 0.002255 -0.000002 0.033200 -0.000001
# 6 0.000000 0.000000 0.000000 0.011606 -0.000001 0.024325
#
#
# Mechanical properties :
#
#
# Convention : Reuss Voigt Hill
#
# Bulk Modulus (GPa) = 42.89156 58.19357 50.54256
# Shear Modulus (GPa) = 33.63341 41.37209 37.50275
#
# Velocity S-wave (km/s) = 3.64209 4.03942 3.84589
# Velocity P-wave (km/s) = 5.88240 6.68634 6.29722
#
# Compressibility (1/GPa) = 0.02331461
#
# Stress axis : x y z
#
# Youngs Moduli (GPa) = 176.29129 81.52359 80.76286
#
# Poissons Ratio (x) = 0.13667 0.16139
# Poissons Ratio (y) = 0.29555 -0.01387
# Poissons Ratio (z) = 0.35229 -0.01400
#
# Static dielectric constant tensor:
#      x y z
#    x 2.051130 0.000000 0.000360 
#    y 0.000000 2.029190 0.000000 
#    z 0.000360 0.000000 2.052390 
# 
# From -- ./inp_files/71736.got.cif
#   From: 2010.05.17/outbox.cif.g08.bks.cpg/sg5_36_cif.got.tgz:71736.got - 2010.06.03 18:56:24.
