data_PCOD9127312
_publ_section_title
;
Structure prediction by ZEFSAII (Michael W. Deem and Ramdas Pophale) SiO2 
 PCOD9127312
Probable space group: C 2
;
_chemical_formula_sum "Si O2"
_cell_formula_units_Z 16
_cell_length_a 11.037996
_cell_length_b 8.108938
_cell_length_c 11.074602
_cell_angle_alpha 90.000000
_cell_angle_beta 134.872549
_cell_angle_gamma 90.000000
_cell_volume 702.475623
_symmetry_space_group_name_H-M "C 2"
_symmetry_group_IT_number 5
_symmetry_cell_setting 'monoclinic'
loop_
_space_group_symop_operation_xyz
x,y,z
-x,y,-z
1/2+x,1/2+y,z
1/2-x,1/2+y,-z
loop_
_atom_site_type_symbol
_atom_site_label
_atom_site_fract_x
_atom_site_fract_y
_atom_site_fract_z
Si Si1 0.014919 0.279610 0.884950
Si Si2 0.688840 0.424019 0.040348
Si Si3 0.167962 0.625447 0.535675
Si Si4 0.854529 0.800917 0.721590
O O1 0.122051 0.390717 0.870130
O O2 0.833007 0.222037 0.706123
O O3 0.000000 0.375588 0.000000
O O4 0.129361 0.115567 0.001738
O O5 0.670971 0.318167 0.151506
O O6 0.552014 0.355510 0.848494
O O7 0.161433 0.659174 0.387897
O O8 0.218001 0.436072 0.584339
O O9 0.000000 0.661903 0.500000
#
# Coordination Sequence:
#
# PCOD9127312 Si02
#       4
#     4   4   4   4
#     4  11  22  44  67  94 127 169 211 263 312 376
#     4  10  22  45  66  90 130 168 215 256 314 377
#     4  11  24  42  66  95 132 164 210 264 317 372
#     4  10  23  44  64  94 129 169 208 264 313 375
#
# _framework density 22.776592000000001
#
# number of rings (size 3 to 8) (size 9 to 14) (size 15 to 20)
#    0.000    1.500    5.000    1.500    3.500    0.000 
#   18.000    0.000    0.000    0.000    0.000    0.000 
#    0.000    0.000    0.000    0.000    0.000    0.000 
#
# Total GULP energy -44571.613397 kJ/mol
# GULP energy per Si atom -5571.451675 kJ/mol
# Density = 2.272475 g / cm^3
# Si number density = 22.776592 Si / 1000 Ang^3
#
#
#
# Elastic Constant Matrix: (Units=GPa)
#
#
# Indices 1 2 3 4 5 6 
#
# 1 146.3160 40.3840 61.6618 0.0000 24.2688 0.0000
# 2 40.3840 28.5522 32.8219 0.0000 6.1630 0.0000
# 3 61.6618 32.8219 97.2717 0.0000 2.3994 0.0000
# 4 0.0000 0.0000 0.0000 34.0091 0.0000 6.3024
# 5 24.2688 6.1630 2.3994 0.0000 46.8166 0.0000
# 6 0.0000 0.0000 0.0000 6.3024 0.0000 19.8485
#
#
#
# Elastic Compliance Matrix: (Units=1/GPa)
#
#
# Indices 1 2 3 4 5 6 
#
# 1 0.012646 -0.012727 -0.003606 0.000000 -0.004695 0.000000
# 2 -0.012727 0.072106 -0.016211 0.000000 -0.002064 0.000000
# 3 -0.003606 -0.016211 0.017960 0.000000 0.003083 0.000000
# 4 0.000000 0.000000 0.000000 0.031242 0.000000 -0.009920
# 5 -0.004695 -0.002064 0.003083 0.000000 0.023907 0.000000
# 6 0.000000 0.000000 0.000000 -0.009920 0.000000 0.053532
#
#
# Mechanical properties :
#
#
# Convention : Reuss Voigt Hill
#
# Bulk Modulus (GPa) = 26.57967 60.20837 43.39402
# Shear Modulus (GPa) = 17.29958 29.28632 23.29295
#
# Velocity S-wave (km/s) = 2.75895 3.58971 3.20139
# Velocity P-wave (km/s) = 4.67377 6.60856 5.72351
#
# Compressibility (1/GPa) = 0.03762273
#
# Stress axis : x y z
#
# Youngs Moduli (GPa) = 79.07789 13.86842 55.67790
#
# Poissons Ratio (x) = 0.17651 0.20077
# Poissons Ratio (y) = 1.00646 0.90262
# Poissons Ratio (z) = 0.28515 0.22483
#
# Static dielectric constant tensor:
#      x y z
#    x 1.935980 0.000000 -0.003910 
#    y 0.000000 1.902470 0.000000 
#    z -0.003910 0.000000 1.867180 
# 
# From -- ./inp_files/14177.got.cif
#   From: 2010.05.17/outbox.cif.g08.bks.cpg/sg5_8_cif.got.tgz:14177.got - 2010.06.03 18:56:24.
