data_PCOD9127953
_publ_section_title
;
Structure prediction by ZEFSAII (Michael W. Deem and Ramdas Pophale) SiO2 
 PCOD9127953
Probable space group: C 2
;
_chemical_formula_sum "Si O2"
_cell_formula_units_Z 26
_cell_length_a 10.983615
_cell_length_b 9.298407
_cell_length_c 22.637308
_cell_angle_alpha 90.000000
_cell_angle_beta 149.497420
_cell_angle_gamma 90.000000
_cell_volume 1173.493546
_symmetry_space_group_name_H-M "C 2"
_symmetry_group_IT_number 5
_symmetry_cell_setting 'monoclinic'
loop_
_space_group_symop_operation_xyz
x,y,z
-x,y,-z
1/2+x,1/2+y,z
1/2-x,1/2+y,-z
loop_
_atom_site_type_symbol
_atom_site_label
_atom_site_fract_x
_atom_site_fract_y
_atom_site_fract_z
Si Si1 0.265221 0.137490 0.326775
Si Si2 0.909781 0.977097 0.093324
Si Si3 0.480829 0.716142 0.659410
Si Si4 0.130870 0.513542 0.783579
Si Si5 0.011530 0.633190 0.861923
Si Si6 0.500000 0.940251 0.500000
Si Si7 0.371267 0.250622 0.595845
O O1 0.200795 0.157352 0.367855
O O2 0.395382 0.272492 0.349861
O O3 0.041029 0.069702 0.199265
O O4 0.461005 0.013311 0.419038
O O5 0.084961 0.013586 0.111127
O O6 0.654109 0.045550 0.971741
O O7 0.913825 0.804584 0.106868
O O8 0.727383 0.631186 0.754126
O O9 0.343856 0.723071 0.540224
O O10 0.553201 0.862546 0.723120
O O11 0.073368 0.554039 0.826413
O O12 0.984256 0.625030 0.682311
O O13 0.746003 0.852701 0.591143
#
# Coordination Sequence:
#
# PCOD9127953 Si02
#       7
#     4   4   4   4   4   2   4
#     4  11  24  44  63 100 141 172 225 287 336 412
#     4  10  24  45  70  97 136 181 235 288 343 401
#     4  11  24  42  67 103 137 182 226 283 347 410
#     4  10  23  44  69  96 138 178 232 286 342 413
#     4  11  24  47  69 100 136 183 236 287 344 410
#     4  12  22  42  68  94 142 170 218 284 342 410
#     4  11  21  42  67  97 131 180 217 272 344 404
#
# _framework density 22.156064000000001
#
# number of rings (size 3 to 8) (size 9 to 14) (size 15 to 20)
#    0.000    1.231    1.538    5.077    2.154    1.846 
#   16.615    0.000    0.000    0.000    0.000    0.000 
#    0.000    0.000    0.000    0.000    0.000    0.000 
#
# Total GULP energy -72435.541509 kJ/mol
# GULP energy per Si atom -5571.964731 kJ/mol
# Density = 2.210564 g / cm^3
# Si number density = 22.156064 Si / 1000 Ang^3
#
#
#
# Elastic Constant Matrix: (Units=GPa)
#
#
# Indices 1 2 3 4 5 6 
#
# 1 68.9738 1.8472 6.7372 0.0000 -12.7251 0.0000
# 2 1.8472 33.7107 5.2645 0.0000 5.8018 0.0000
# 3 6.7372 5.2645 106.7105 0.0001 -11.0795 0.0000
# 4 0.0000 0.0000 0.0001 20.9721 0.0000 5.8405
# 5 -12.7251 5.8018 -11.0795 0.0000 24.2842 0.0000
# 6 0.0000 0.0000 0.0000 5.8405 0.0000 35.8398
#
#
#
# Elastic Compliance Matrix: (Units=1/GPa)
#
#
# Indices 1 2 3 4 5 6 
#
# 1 0.016243 -0.002466 0.000043 0.000000 0.009120 0.000000
# 2 -0.002466 0.031911 -0.002461 0.000000 -0.010039 0.000000
# 3 0.000043 -0.002461 0.010028 0.000000 0.005186 0.000000
# 4 0.000000 0.000000 0.000000 0.049949 0.000000 -0.008140
# 5 0.009120 -0.010039 0.005186 0.000000 0.050723 0.000000
# 6 0.000000 0.000000 0.000000 -0.008140 0.000000 0.029228
#
#
# Mechanical properties :
#
#
# Convention : Reuss Voigt Hill
#
# Bulk Modulus (GPa) = 20.65520 26.34363 23.49942
# Shear Modulus (GPa) = 23.36566 29.25562 26.31064
#
# Velocity S-wave (km/s) = 3.25097 3.63772 3.44977
# Velocity P-wave (km/s) = 4.84093 5.43690 5.14755
#
# Compressibility (1/GPa) = 0.04841396
#
# Stress axis : x y z
#
# Youngs Moduli (GPa) = 61.56614 31.33670 99.71794
#
# Poissons Ratio (x) = 0.07729 -0.00430
# Poissons Ratio (y) = 0.15185 0.24540
# Poissons Ratio (z) = -0.00266 0.07712
#
# Static dielectric constant tensor:
#      x y z
#    x 1.891080 0.000000 0.081600 
#    y 0.000000 2.158920 0.000000 
#    z 0.081600 0.000000 1.849890 
# 
# From -- ./inp_files/68323.got.cif
#   From: 2010.05.17/outbox.cif.g08.bks.cpg/sg5_35_cif.got.tgz:68323.got - 2010.06.03 18:56:24.
