data_PCOD9127203
_publ_section_title
;
Structure prediction by ZEFSAII (Michael W. Deem and Ramdas Pophale) SiO2 
 PCOD9127203
Probable space group: C 2
;
_chemical_formula_sum "Si O2"
_cell_formula_units_Z 20
_cell_length_a 7.357383
_cell_length_b 12.944683
_cell_length_c 17.188979
_cell_angle_alpha 90.000000
_cell_angle_beta 147.169175
_cell_angle_gamma 90.000000
_cell_volume 887.549578
_symmetry_space_group_name_H-M "C 2"
_symmetry_group_IT_number 5
_symmetry_cell_setting 'monoclinic'
loop_
_space_group_symop_operation_xyz
x,y,z
-x,y,-z
1/2+x,1/2+y,z
1/2-x,1/2+y,-z
loop_
_atom_site_type_symbol
_atom_site_label
_atom_site_fract_x
_atom_site_fract_y
_atom_site_fract_z
Si Si1 0.676540 0.185300 0.664834
Si Si2 0.565317 0.825137 0.436087
Si Si3 0.813964 0.122009 0.277482
Si Si4 0.006069 0.508454 0.706958
Si Si5 0.891925 0.146039 0.043297
O O1 0.556163 0.282610 0.432430
O O2 0.856806 0.132602 0.656428
O O3 0.969816 0.208234 0.833184
O O4 0.881802 0.041206 0.869525
O O5 0.500000 0.864744 0.500000
O O6 0.324785 0.726441 0.333211
O O7 0.506117 0.904490 0.345200
O O8 0.498882 0.125901 0.105199
O O9 0.738915 0.027210 0.308424
O O10 0.942076 0.599846 0.621533
O O11 0.000000 0.195603 0.000000
#
# Coordination Sequence:
#
# PCOD9127203 Si02
#       5
#     4   4   4   4   4
#     4  10  22  44  69 103 141 192 235 297 368 410
#     4  12  23  45  72 109 146 195 246 296 369 440
#     4  11  21  45  73  97 148 183 243 306 354 431
#     4   9  23  44  71 101 142 190 238 299 360 428
#     4   8  17  42  72  94 137 188 232 302 358 414
#
# _framework density 22.533953
#
# number of rings (size 3 to 8) (size 9 to 14) (size 15 to 20)
#    1.200    0.800    2.000    1.200    0.000    1.600 
#   14.400    6.000   17.600    0.000    0.000    0.000 
#    0.000    0.000    0.000    0.000    0.000    0.000 
#
# Total GULP energy -55781.309598 kJ/mol
# GULP energy per Si atom -5578.130960 kJ/mol
# Density = 2.248267 g / cm^3
# Si number density = 22.533953 Si / 1000 Ang^3
#
#
#
# Elastic Constant Matrix: (Units=GPa)
#
#
# Indices 1 2 3 4 5 6 
#
# 1 147.8757 24.0325 60.3880 0.0028 -0.4083 0.0002
# 2 24.0325 71.0006 37.6013 0.0038 -1.2935 0.0025
# 3 60.3880 37.6013 137.5513 0.0111 2.9119 0.0065
# 4 0.0028 0.0038 0.0111 39.1316 0.0066 -9.5137
# 5 -0.4083 -1.2935 2.9119 0.0066 43.7623 0.0026
# 6 0.0002 0.0025 0.0065 -9.5137 0.0026 24.1836
#
#
#
# Elastic Compliance Matrix: (Units=1/GPa)
#
#
# Indices 1 2 3 4 5 6 
#
# 1 0.008307 -0.001020 -0.003374 0.000001 0.000272 0.000001
# 2 -0.001020 0.016621 -0.004112 -0.000001 0.000755 -0.000001
# 3 -0.003374 -0.004112 0.009892 -0.000003 -0.000811 -0.000003
# 4 0.000001 -0.000001 -0.000003 0.028257 -0.000005 0.011116
# 5 0.000272 0.000755 -0.000811 -0.000005 0.022930 -0.000004
# 6 0.000001 -0.000001 -0.000003 0.011116 -0.000004 0.045723
#
#
# Mechanical properties :
#
#
# Convention : Reuss Voigt Hill
#
# Bulk Modulus (GPa) = 56.15137 66.71904 61.43521
# Shear Modulus (GPa) = 32.32530 37.04254 34.68392
#
# Velocity S-wave (km/s) = 3.79161 4.05885 3.92750
# Velocity P-wave (km/s) = 6.64387 7.18597 6.92023
#
# Compressibility (1/GPa) = 0.01780900
#
# Stress axis : x y z
#
# Youngs Moduli (GPa) = 120.38480 60.16505 101.08853
#
# Poissons Ratio (x) = 0.06137 0.34105
# Poissons Ratio (y) = 0.12280 0.41565
# Poissons Ratio (z) = 0.40615 0.24738
#
# Static dielectric constant tensor:
#      x y z
#    x 1.878980 0.000000 -0.018550 
#    y 0.000000 1.822040 0.000000 
#    z -0.018550 0.000000 1.914200 
# 
# From -- ./inp_files/47536.got.cif
#   From: 2010.05.17/outbox.cif.g08.bks.cpg/sg5_24_cif.got.tgz:47536.got - 2010.06.03 18:56:24.
