data_PCOD9127587
_publ_section_title
;
Structure prediction by ZEFSAII (Michael W. Deem and Ramdas Pophale) SiO2 
 PCOD9127587
Probable space group: C 2
;
_chemical_formula_sum "Si O2"
_cell_formula_units_Z 30
_cell_length_a 15.041799
_cell_length_b 18.089081
_cell_length_c 6.027045
_cell_angle_alpha 90.000000
_cell_angle_beta 61.225612
_cell_angle_gamma 90.000000
_cell_volume 1437.419431
_symmetry_space_group_name_H-M "C 2"
_symmetry_group_IT_number 5
_symmetry_cell_setting 'monoclinic'
loop_
_space_group_symop_operation_xyz
x,y,z
-x,y,-z
1/2+x,1/2+y,z
1/2-x,1/2+y,-z
loop_
_atom_site_type_symbol
_atom_site_label
_atom_site_fract_x
_atom_site_fract_y
_atom_site_fract_z
Si Si1 0.753739 0.143330 0.428952
Si Si2 0.054163 0.407446 0.184371
Si Si3 0.117582 0.047408 0.406366
Si Si4 0.712825 0.781127 0.916788
Si Si5 0.393309 0.379966 0.491839
Si Si6 0.000000 0.801028 0.000000
Si Si7 0.304134 0.046416 0.876791
Si Si8 0.351274 0.196740 0.050977
O O1 0.836664 0.111241 0.496135
O O2 0.798519 0.208202 0.222643
O O3 0.663070 0.180584 0.674394
O O4 0.707012 0.072021 0.362005
O O5 0.000000 0.403138 0.500000
O O6 0.115387 0.331273 0.073154
O O7 0.133383 0.474642 0.131240
O O8 0.000000 0.420136 0.000000
O O9 0.189108 0.043463 0.104907
O O10 0.000000 0.059536 0.500000
O O11 0.130674 0.966457 0.496118
O O12 0.801983 0.833845 0.710766
O O13 0.755386 0.744665 0.089589
O O14 0.500000 0.375032 0.500000
O O15 0.416534 0.349427 0.220234
O O16 0.947063 0.747023 0.889274
O O17 0.354480 0.118408 0.928820
#
# Coordination Sequence:
#
# PCOD9127587 Si02
#       8
#     4   4   4   4   4   2   4   4
#     4  10  23  44  72  99 144 196 235 307 374 442
#     4  12  31  51  78 110 146 205 261 315 372 447
#     4  10  23  43  69 106 141 184 243 295 380 447
#     4  11  23  48  68 100 152 190 249 307 370 445
#     4  11  22  39  66 104 141 176 228 293 372 439
#     4  12  22  34  68 108 138 180 232 290 378 452
#     4  10  24  46  71 102 143 190 242 314 370 441
#     4  10  23  39  67 104 144 190 235 304 376 443
#
# _framework density 20.870735
#
# number of rings (size 3 to 8) (size 9 to 14) (size 15 to 20)
#    0.000    1.333    4.000    0.000    6.533    3.733 
#    7.200    0.000    0.000    0.000    0.000    0.000 
#    0.000    0.000    0.000    0.000    0.000    0.000 
#
# Total GULP energy -83600.271872 kJ/mol
# GULP energy per Si atom -5573.351458 kJ/mol
# Density = 2.082323 g / cm^3
# Si number density = 20.870735 Si / 1000 Ang^3
#
#
#
# Elastic Constant Matrix: (Units=GPa)
#
#
# Indices 1 2 3 4 5 6 
#
# 1 68.8319 37.4621 36.7209 0.0000 1.6524 0.0000
# 2 37.4621 97.7352 14.8964 0.0000 -0.2960 0.0000
# 3 36.7209 14.8964 86.3819 0.0000 -2.2444 0.0000
# 4 0.0000 0.0000 0.0000 29.8159 0.0000 -1.6976
# 5 1.6524 -0.2960 -2.2444 0.0000 16.5005 0.0000
# 6 0.0000 0.0000 0.0000 -1.6976 0.0000 32.0357
#
#
#
# Elastic Compliance Matrix: (Units=1/GPa)
#
#
# Indices 1 2 3 4 5 6 
#
# 1 0.023455 -0.007669 -0.008744 0.000000 -0.003676 0.000000
# 2 -0.007669 0.013015 0.001045 0.000000 0.001144 0.000000
# 3 -0.008744 0.001045 0.015190 0.000000 0.002960 0.000000
# 4 0.000000 0.000000 0.000000 0.033641 0.000000 0.001783
# 5 -0.003676 0.001144 0.002960 0.000000 0.061396 0.000000
# 6 0.000000 0.000000 0.000000 0.001783 0.000000 0.031310
#
#
# Mechanical properties :
#
#
# Convention : Reuss Voigt Hill
#
# Bulk Modulus (GPa) = 47.78777 47.90087 47.84432
# Shear Modulus (GPa) = 23.17867 26.59507 24.88687
#
# Velocity S-wave (km/s) = 3.33616 3.57357 3.45690
# Velocity P-wave (km/s) = 6.14708 6.32679 6.23758
#
# Compressibility (1/GPa) = 0.02092586
#
# Stress axis : x y z
#
# Youngs Moduli (GPa) = 42.63532 76.83249 65.83237
#
# Poissons Ratio (x) = 0.58921 0.57562
# Poissons Ratio (y) = 0.32696 -0.06881
# Poissons Ratio (z) = 0.37279 -0.08031
#
# Static dielectric constant tensor:
#      x y z
#    x 1.770450 0.000000 0.043770 
#    y 0.000000 1.712540 0.000000 
#    z 0.043770 0.000000 1.815330 
# 
# From -- ./inp_files/7298.got.cif
#   From: 2010.05.17/outbox.cif.g08.bks.cpg/sg5_4_cif.got.tgz:7298.got - 2010.06.03 18:56:24.
