data_PCOD9127235
_publ_section_title
;
Structure prediction by ZEFSAII (Michael W. Deem and Ramdas Pophale) SiO2 
 PCOD9127235
Probable space group: C 2
;
_chemical_formula_sum "Si O2"
_cell_formula_units_Z 26
_cell_length_a 8.793355
_cell_length_b 18.860921
_cell_length_c 8.342397
_cell_angle_alpha 90.000000
_cell_angle_beta 48.559413
_cell_angle_gamma 90.000000
_cell_volume 1037.200009
_symmetry_space_group_name_H-M "C 2"
_symmetry_group_IT_number 5
_symmetry_cell_setting 'monoclinic'
loop_
_space_group_symop_operation_xyz
x,y,z
-x,y,-z
1/2+x,1/2+y,z
1/2-x,1/2+y,-z
loop_
_atom_site_type_symbol
_atom_site_label
_atom_site_fract_x
_atom_site_fract_y
_atom_site_fract_z
Si Si1 0.297956 0.383830 0.724608
Si Si2 0.716575 0.262806 0.767118
Si Si3 0.209364 0.732079 0.398462
Si Si4 0.384362 0.899761 0.817661
Si Si5 0.000000 0.148668 0.000000
Si Si6 0.369217 0.052847 0.847039
Si Si7 0.226086 0.096684 0.284972
O O1 0.500000 0.411646 0.500000
O O2 0.300840 0.298801 0.712658
O O3 0.100829 0.402528 0.757433
O O4 0.277693 0.399309 0.924801
O O5 0.850585 0.328703 0.738678
O O6 0.767524 0.180085 0.766704
O O7 0.290617 0.260504 0.420852
O O8 0.500000 0.274713 0.000000
O O9 0.418006 0.694429 0.206141
O O10 0.000000 0.691994 0.500000
O O11 0.363428 0.977960 0.759548
O O12 0.802249 0.103328 0.102129
O O13 0.597903 0.083216 0.705494
O O14 0.292865 0.049543 0.086824
O O15 0.000000 0.080800 0.500000
#
# Coordination Sequence:
#
# PCOD9127235 Si02
#       7
#     4   4   4   4   2   4   4
#     4  10  22  44  71 104 145 199 240 300 385 455
#     4  12  25  45  79 116 153 192 263 331 375 445
#     4  11  25  45  77 111 146 198 252 318 388 447
#     4  11  26  44  73 110 157 196 250 320 384 453
#     4  12  26  48  74 108 160 196 254 314 386 462
#     4  11  26  47  73 110 151 206 249 313 392 468
#     4  11  24  46  82 108 147 206 264 312 377 468
#
# _framework density 25.067488999999998
#
# number of rings (size 3 to 8) (size 9 to 14) (size 15 to 20)
#    0.000    0.923    1.538    6.462    7.538    2.462 
#    0.000    0.000    6.769    0.000    0.000    0.000 
#    0.000    0.000    0.000    0.000    0.000    0.000 
#
# Total GULP energy -72726.068477 kJ/mol
# GULP energy per Si atom -5594.312960 kJ/mol
# Density = 2.501043 g / cm^3
# Si number density = 25.067489 Si / 1000 Ang^3
#
#
#
# Elastic Constant Matrix: (Units=GPa)
#
#
# Indices 1 2 3 4 5 6 
#
# 1 104.0242 56.7429 57.6964 0.0000 2.0116 0.0000
# 2 56.7429 162.9718 38.6115 0.0000 -4.6249 0.0000
# 3 57.6964 38.6115 186.3439 0.0000 -21.3766 0.0000
# 4 0.0000 0.0000 0.0000 59.6992 0.0000 43.5921
# 5 2.0116 -4.6249 -21.3766 0.0000 40.3748 0.0000
# 6 0.0000 0.0000 0.0000 43.5921 0.0000 26.5544
#
#
#
# Elastic Compliance Matrix: (Units=1/GPa)
#
#
# Indices 1 2 3 4 5 6 
#
# 1 0.014040 -0.004062 -0.003874 0.000000 -0.003216 0.000000
# 2 -0.004062 0.007628 -0.000212 0.000000 0.000964 0.000000
# 3 -0.003874 -0.000212 0.007058 0.000000 0.003906 0.000000
# 4 0.000000 0.000000 0.000000 -0.084302 0.000000 0.138392
# 5 -0.003216 0.000964 0.003906 0.000000 0.027106 0.000000
# 6 0.000000 0.000000 0.000000 0.138392 0.000000 -0.189527
#
#
# Mechanical properties :
#
#
# Convention : Reuss Voigt Hill
#
# Bulk Modulus (GPa) = 80.45805 84.38239 82.42022
# Shear Modulus (GPa) = -25.30905 45.34498 10.01797
#
# Velocity S-wave (km/s) = -3.18092 4.25775 2.00127
# Velocity P-wave (km/s) = 4.32148 7.60963 6.18796
#
# Compressibility (1/GPa) = 0.01242884
#
# Stress axis : x y z
#
# Youngs Moduli (GPa) = 71.22616 131.09807 141.68184
#
# Poissons Ratio (x) = 0.53248 0.54893
# Poissons Ratio (y) = 0.28930 0.03009
# Poissons Ratio (z) = 0.27596 0.02785
#
# Static dielectric constant tensor:
#      x y z
#    x 2.003490 0.000000 -0.014450 
#    y 0.000000 2.038820 0.000000 
#    z -0.014450 0.000000 2.034230 
# 
# From -- ./inp_files/37295.got.cif
#   From: 2010.05.17/outbox.cif.g08.bks.cpg/sg5_19_cif.got.tgz:37295.got - 2010.06.03 18:56:24.
