data_PCOD9127991
_publ_section_title
;
Structure prediction by ZEFSAII (Michael W. Deem and Ramdas Pophale) SiO2 
 PCOD9127991
Probable space group: C 2
;
_chemical_formula_sum "Si O2"
_cell_formula_units_Z 26
_cell_length_a 13.714069
_cell_length_b 5.390466
_cell_length_c 15.607183
_cell_angle_alpha 90.000000
_cell_angle_beta 67.669915
_cell_angle_gamma 90.000000
_cell_volume 1067.244078
_symmetry_space_group_name_H-M "C 2"
_symmetry_group_IT_number 5
_symmetry_cell_setting 'monoclinic'
loop_
_space_group_symop_operation_xyz
x,y,z
-x,y,-z
1/2+x,1/2+y,z
1/2-x,1/2+y,-z
loop_
_atom_site_type_symbol
_atom_site_label
_atom_site_fract_x
_atom_site_fract_y
_atom_site_fract_z
Si Si1 0.883481 0.623180 0.230012
Si Si2 0.890714 0.576188 0.900943
Si Si3 0.513411 0.727708 0.597230
Si Si4 0.313280 0.353154 0.088863
Si Si5 0.311004 0.623429 0.343654
Si Si6 0.500000 0.710894 0.000000
Si Si7 0.069970 0.731436 0.390876
O O1 0.830708 0.642587 0.153398
O O2 0.863630 0.347607 0.271757
O O3 0.007057 0.684275 0.178490
O O4 0.833590 0.847019 0.301905
O O5 0.801962 0.469434 0.868409
O O6 0.942203 0.371780 0.947021
O O7 0.831797 0.761400 0.985654
O O8 0.500000 0.753119 0.500000
O O9 0.632046 0.659306 0.583988
O O10 0.441983 0.496666 0.650996
O O11 0.477232 0.995321 0.642873
O O12 0.408852 0.543333 0.071876
O O13 0.187575 0.672534 0.380338
O O14 0.000000 0.760495 0.500000
#
# Coordination Sequence:
#
# PCOD9127991 Si02
#       7
#     4   4   4   4   4   2   4
#     4  12  27  46  69 102 154 188 234 293 373 428
#     4  12  25  42  71  98 134 192 246 301 343 417
#     4  10  23  44  74 105 136 179 237 290 344 435
#     4  12  25  42  71  98 134 192 246 301 343 417
#     4  12  27  46  70 104 148 191 224 301 369 422
#     4  12  20  44  68 100 132 172 260 302 342 408
#     4  10  23  44  74 105 136 179 237 290 344 435
#
# _framework density 24.361809000000001
#
# number of rings (size 3 to 8) (size 9 to 14) (size 15 to 20)
#    0.000    0.615    4.615    2.769    0.000    8.615 
#    0.000    3.077    0.000    0.000    0.000    0.000 
#    0.000    0.000    0.000    0.000    0.000    0.000 
#
# Total GULP energy -72796.703161 kJ/mol
# GULP energy per Si atom -5599.746397 kJ/mol
# Density = 2.430636 g / cm^3
# Si number density = 24.361809 Si / 1000 Ang^3
#
#
#
# Elastic Constant Matrix: (Units=GPa)
#
#
# Indices 1 2 3 4 5 6 
#
# 1 104.2344 -18.0630 -5.5927 0.0001 -10.8463 0.0002
# 2 -18.0630 113.6995 -6.8175 0.0005 2.7473 0.0008
# 3 -5.5927 -6.8175 45.8303 0.0000 3.3760 0.0000
# 4 0.0001 0.0005 0.0000 32.4007 0.0000 14.2802
# 5 -10.8463 2.7473 3.3760 0.0000 28.6523 0.0001
# 6 0.0002 0.0008 0.0000 14.2802 0.0001 44.2288
#
#
#
# Elastic Compliance Matrix: (Units=1/GPa)
#
#
# Indices 1 2 3 4 5 6 
#
# 1 0.010317 0.001626 0.001235 0.000000 0.003604 0.000000
# 2 0.001626 0.009160 0.001594 0.000000 -0.000451 0.000000
# 3 0.001235 0.001594 0.022379 0.000000 -0.002322 0.000000
# 4 0.000000 0.000000 0.000000 0.035984 0.000000 -0.011618
# 5 0.003604 -0.000451 -0.002322 0.000000 0.036582 0.000000
# 6 0.000000 0.000000 0.000000 -0.011618 0.000000 0.026361
#
#
# Mechanical properties :
#
#
# Convention : Reuss Voigt Hill
#
# Bulk Modulus (GPa) = 19.69808 22.53532 21.11670
# Shear Modulus (GPa) = 33.60359 40.67219 37.13789
#
# Velocity S-wave (km/s) = 3.71800 4.09039 3.90863
# Velocity P-wave (km/s) = 5.15117 5.61950 5.39042
#
# Compressibility (1/GPa) = 0.05076638
#
# Stress axis : x y z
#
# Youngs Moduli (GPa) = 96.92903 109.17149 44.68564
#
# Poissons Ratio (x) = -0.17751 -0.05520
# Poissons Ratio (y) = -0.15761 -0.07124
# Poissons Ratio (z) = -0.11974 -0.17404
#
# Static dielectric constant tensor:
#      x y z
#    x 1.896540 0.000000 0.043160 
#    y 0.000000 1.997450 0.000000 
#    z 0.043160 0.000000 1.913040 
# 
# From -- ./inp_files/60961.got.cif
#   From: 2010.05.17/outbox.cif.g08.bks.cpg/sg5_31_cif.got.tgz:60961.got - 2010.06.03 18:56:24.
