data_PCOD9127343
_publ_section_title
;
Structure prediction by ZEFSAII (Michael W. Deem and Ramdas Pophale) SiO2 
 PCOD9127343
Probable space group: C 2
;
_chemical_formula_sum "Si O2"
_cell_formula_units_Z 26
_cell_length_a 12.676834
_cell_length_b 6.748983
_cell_length_c 17.025405
_cell_angle_alpha 90.000000
_cell_angle_beta 44.646403
_cell_angle_gamma 90.000000
_cell_volume 1023.610574
_symmetry_space_group_name_H-M "C 2"
_symmetry_group_IT_number 5
_symmetry_cell_setting 'monoclinic'
loop_
_space_group_symop_operation_xyz
x,y,z
-x,y,-z
1/2+x,1/2+y,z
1/2-x,1/2+y,-z
loop_
_atom_site_type_symbol
_atom_site_label
_atom_site_fract_x
_atom_site_fract_y
_atom_site_fract_z
Si Si1 0.628179 0.000000 0.527469
Si Si2 0.763103 0.400082 0.243684
Si Si3 0.659472 0.372898 0.902821
Si Si4 0.852744 0.950492 0.537330
Si Si5 0.000000 0.260596 0.000000
Si Si6 0.211184 0.990523 0.705689
Si Si7 0.955787 0.189118 0.732554
O O1 0.778865 0.032737 0.498934
O O2 0.524104 0.859348 0.637183
O O3 0.726128 0.970519 0.672122
O O4 0.321092 0.902862 0.582141
O O5 0.916035 0.379798 0.112990
O O6 0.713814 0.173770 0.287279
O O7 0.631895 0.516943 0.268915
O O8 0.669715 0.359965 0.801963
O O9 0.814860 0.290203 0.852017
O O10 0.500000 0.269294 0.000000
O O11 0.628244 0.595078 0.953122
O O12 0.897701 0.725727 0.487486
O O13 0.071784 0.086612 0.731562
O O14 0.000000 0.032087 0.500000
#
# Coordination Sequence:
#
# PCOD9127343 Si02
#       7
#     4   4   4   4   2   4   4
#     4  11  24  42  66 105 140 177 246 272 350 434
#     4  10  22  45  70  98 136 182 233 284 346 410
#     4   9  23  46  68 100 144 178 232 292 346 406
#     4  11  25  44  68  97 145 185 223 296 347 415
#     4   8  20  44  70  92 140 180 228 290 338 408
#     4  10  23  51  62 101 147 178 236 291 343 431
#     4  12  24  43  73 104 137 188 236 285 352 420
#
# _framework density 25.400286000000001
#
# number of rings (size 3 to 8) (size 9 to 14) (size 15 to 20)
#    0.462    1.231    3.077    0.923    7.538    1.231 
#    8.308    0.000    0.000    0.000    0.000    0.000 
#    0.000    0.000    0.000    0.000    0.000    0.000 
#
# Total GULP energy -72473.590178 kJ/mol
# GULP energy per Si atom -5574.891552 kJ/mol
# Density = 2.534247 g / cm^3
# Si number density = 25.400286 Si / 1000 Ang^3
#
#
#
# Elastic Constant Matrix: (Units=GPa)
#
#
# Indices 1 2 3 4 5 6 
#
# 1 127.9405 48.4001 61.5742 0.0000 -17.0169 0.0000
# 2 48.4001 100.3252 42.3348 0.0000 -13.5034 0.0000
# 3 61.5742 42.3348 180.0981 0.0000 -0.8383 0.0000
# 4 0.0000 0.0000 0.0000 54.8756 0.0000 -5.6244
# 5 -17.0169 -13.5034 -0.8383 0.0000 37.5528 0.0000
# 6 0.0000 0.0000 0.0000 -5.6244 0.0000 37.4047
#
#
#
# Elastic Compliance Matrix: (Units=1/GPa)
#
#
# Indices 1 2 3 4 5 6 
#
# 1 0.011076 -0.003620 -0.002919 0.000000 0.003652 0.000000
# 2 -0.003620 0.012858 -0.001771 0.000000 0.002943 0.000000
# 3 -0.002919 -0.001771 0.006958 0.000000 -0.001804 0.000000
# 4 0.000000 0.000000 0.000000 0.018508 0.000000 0.002783
# 5 0.003652 0.002943 -0.001804 0.000000 0.029302 0.000000
# 6 0.000000 0.000000 0.000000 0.002783 0.000000 0.027153
#
#
# Mechanical properties :
#
#
# Convention : Reuss Voigt Hill
#
# Bulk Modulus (GPa) = 70.06716 79.22020 74.64368
# Shear Modulus (GPa) = 39.29790 43.03692 41.16741
#
# Velocity S-wave (km/s) = 3.93764 4.12071 4.03022
# Velocity P-wave (km/s) = 6.95115 7.34144 7.14896
#
# Compressibility (1/GPa) = 0.01427202
#
# Stress axis : x y z
#
# Youngs Moduli (GPa) = 90.28353 77.77516 143.71203
#
# Poissons Ratio (x) = 0.28157 0.41948
# Poissons Ratio (y) = 0.32685 0.25450
# Poissons Ratio (z) = 0.26353 0.13773
#
# Static dielectric constant tensor:
#      x y z
#    x 1.922900 0.000000 0.006880 
#    y 0.000000 2.171380 0.000000 
#    z 0.006880 0.000000 2.152690 
# 
# From -- ./inp_files/68201.got.cif
#   From: 2010.05.17/outbox.cif.g08.bks.cpg/sg5_35_cif.got.tgz:68201.got - 2010.06.03 18:56:24.
