data_PCOD9127964
_publ_section_title
;
Structure prediction by ZEFSAII (Michael W. Deem and Ramdas Pophale) SiO2 
 PCOD9127964
Probable space group: C 2
;
_chemical_formula_sum "Si O2"
_cell_formula_units_Z 28
_cell_length_a 5.371057
_cell_length_b 18.414570
_cell_length_c 13.993230
_cell_angle_alpha 90.000000
_cell_angle_beta 121.760336
_cell_angle_gamma 90.000000
_cell_volume 1176.764821
_symmetry_space_group_name_H-M "C 2"
_symmetry_group_IT_number 5
_symmetry_cell_setting 'monoclinic'
loop_
_space_group_symop_operation_xyz
x,y,z
-x,y,-z
1/2+x,1/2+y,z
1/2-x,1/2+y,-z
loop_
_atom_site_type_symbol
_atom_site_label
_atom_site_fract_x
_atom_site_fract_y
_atom_site_fract_z
Si Si1 0.000000 0.064090 0.500000
Si Si2 0.294016 0.657947 0.615270
Si Si3 0.125931 0.802720 0.867127
Si Si4 0.956638 0.954137 0.100224
Si Si5 0.894403 0.471825 0.700339
Si Si6 0.089239 0.304906 0.273179
Si Si7 0.178973 0.081486 0.825337
Si Si8 0.500000 0.203877 0.000000
O O1 0.025629 0.120640 0.592082
O O2 0.733248 0.009287 0.421012
O O3 0.325402 0.743343 0.633730
O O4 0.368625 0.615206 0.727634
O O5 0.000000 0.639919 0.500000
O O6 0.767041 0.805044 0.799259
O O7 0.257098 0.777538 0.793553
O O8 0.217105 0.887137 0.891198
O O9 0.201800 0.757023 0.976936
O O10 0.257319 0.965068 0.219127
O O11 0.825906 0.033770 0.080031
O O12 0.000000 0.933317 0.000000
O O13 0.799266 0.386997 0.685932
O O14 0.790840 0.522271 0.769376
O O15 0.362875 0.152231 0.890718
#
# Coordination Sequence:
#
# PCOD9127964 Si02
#       8
#     2   4   4   4   4   4   4   2
#     4  10  24  46  70 100 142 180 238 296 358 416
#     4  11  25  42  70 101 139 184 230 299 354 420
#     4  11  25  47  70 106 146 189 234 294 353 425
#     4  11  22  41  69 100 136 187 233 290 344 423
#     4  10  23  44  70  98 137 184 237 290 350 424
#     4  11  25  47  76 104 145 187 241 294 354 425
#     4  11  23  44  65 104 136 183 235 290 356 415
#     4  12  24  44  68 108 142 192 230 296 352 426
#
# _framework density 23.794048
#
# number of rings (size 3 to 8) (size 9 to 14) (size 15 to 20)
#    0.000    1.143    3.571    1.714    3.000    2.857 
#    2.571    0.000    0.000    0.000    0.000    0.000 
#    0.000    0.000    0.000    0.000    0.000    0.000 
#
# Total GULP energy -78066.863249 kJ/mol
# GULP energy per Si atom -5576.204518 kJ/mol
# Density = 2.373989 g / cm^3
# Si number density = 23.794048 Si / 1000 Ang^3
#
#
#
# Elastic Constant Matrix: (Units=GPa)
#
#
# Indices 1 2 3 4 5 6 
#
# 1 64.1042 22.3787 18.1862 0.0000 2.6531 0.0000
# 2 22.3787 192.2144 52.4247 0.0000 -6.6106 0.0000
# 3 18.1862 52.4247 96.0533 0.0000 14.9346 0.0000
# 4 0.0000 0.0000 0.0000 34.6227 0.0000 -16.6112
# 5 2.6531 -6.6106 14.9346 0.0000 36.1102 0.0000
# 6 0.0000 0.0000 0.0000 -16.6112 0.0000 19.2488
#
#
#
# Elastic Compliance Matrix: (Units=1/GPa)
#
#
# Indices 1 2 3 4 5 6 
#
# 1 0.016755 -0.001320 -0.002376 0.000000 -0.000490 0.000000
# 2 -0.001320 0.006467 -0.003718 0.000000 0.002819 0.000000
# 3 -0.002376 -0.003718 0.013860 0.000000 -0.006238 0.000000
# 4 0.000000 0.000000 0.000000 0.049291 0.000000 0.042537
# 5 -0.000490 0.002819 -0.006238 0.000000 0.030825 0.000000
# 6 0.000000 0.000000 0.000000 0.042537 0.000000 0.088659
#
#
# Mechanical properties :
#
#
# Convention : Reuss Voigt Hill
#
# Bulk Modulus (GPa) = 44.93431 59.81677 52.37554
# Shear Modulus (GPa) = 21.91998 35.28850 28.60424
#
# Velocity S-wave (km/s) = 3.03848 3.85526 3.47098
# Velocity P-wave (km/s) = 5.58887 6.70905 6.17442
#
# Compressibility (1/GPa) = 0.02225471
#
# Stress axis : x y z
#
# Youngs Moduli (GPa) = 59.68533 154.62714 72.15013
#
# Poissons Ratio (x) = 0.20403 0.17142
# Poissons Ratio (y) = 0.07876 0.26826
# Poissons Ratio (z) = 0.14180 0.57492
#
# Static dielectric constant tensor:
#      x y z
#    x 2.041240 0.000000 -0.007920 
#    y 0.000000 1.880820 0.000000 
#    z -0.007920 0.000000 1.949440 
# 
# From -- ./inp_files/49270.got.cif
#   From: 2010.05.17/outbox.cif.g08.bks.cpg/sg5_25_cif.got.tgz:49270.got - 2010.06.03 18:56:24.
