data_PCOD9127887
_publ_section_title
;
Structure prediction by ZEFSAII (Michael W. Deem and Ramdas Pophale) SiO2 
 PCOD9127887
Probable space group: C 2
;
_chemical_formula_sum "Si O2"
_cell_formula_units_Z 20
_cell_length_a 7.984744
_cell_length_b 23.790000
_cell_length_c 9.366642
_cell_angle_alpha 90.000000
_cell_angle_beta 148.046141
_cell_angle_gamma 90.000000
_cell_volume 941.648591
_symmetry_space_group_name_H-M "C 2"
_symmetry_group_IT_number 5
_symmetry_cell_setting 'monoclinic'
loop_
_space_group_symop_operation_xyz
x,y,z
-x,y,-z
1/2+x,1/2+y,z
1/2-x,1/2+y,-z
loop_
_atom_site_type_symbol
_atom_site_label
_atom_site_fract_x
_atom_site_fract_y
_atom_site_fract_z
Si Si1 0.500000 0.058491 0.000000
Si Si2 0.000000 0.131763 0.500000
Si Si3 0.500000 0.909897 0.500000
Si Si4 0.824024 0.740368 0.659818
Si Si5 0.143857 0.461270 0.308912
Si Si6 0.500000 0.869948 0.000000
Si Si7 0.500000 0.289371 0.500000
Si Si8 0.000000 0.824021 0.000000
O O1 0.178585 0.094328 0.747157
O O2 0.498802 0.018527 0.859019
O O3 0.283473 0.173634 0.654198
O O4 0.637421 0.948721 0.471781
O O5 0.751268 0.867433 0.752433
O O6 0.500000 0.760464 0.500000
O O7 0.078492 0.778297 0.929952
O O8 0.835586 0.752682 0.502027
O O9 0.500000 0.457394 0.500000
O O10 0.940758 0.411567 0.088627
O O11 0.223459 0.830470 0.748947
#
# Coordination Sequence:
#
# PCOD9127887 Si02
#       8
#     2   2   2   4   4   2   2   2
#     4  11  23  44  72  88 120 172 217 271 330 360
#     4  10  23  43  70  88 122 171 215 274 322 364
#     4  12  27  38  67 100 137 162 215 252 312 392
#     4  10  25  40  67  92 130 169 214 253 316 377
#     4  11  25  43  67  95 129 170 214 259 319 381
#     4  11  24  38  63  98 135 174 200 247 318 388
#     4  12  24  39  63  98 135 165 208 256 306 390
#     4  12  23  42  63 100 137 178 195 254 316 390
#
# _framework density 21.239346000000001
#
# number of rings (size 3 to 8) (size 9 to 14) (size 15 to 20)
#    0.600    0.400    3.000    3.000    8.400    0.000 
#    0.000    1.000    4.400    0.000    0.000    0.000 
#    0.000    0.000    0.000    0.000    0.000    0.000 
#
# Total GULP energy -55727.821682 kJ/mol
# GULP energy per Si atom -5572.782168 kJ/mol
# Density = 2.119100 g / cm^3
# Si number density = 21.239346 Si / 1000 Ang^3
#
#
#
# Elastic Constant Matrix: (Units=GPa)
#
#
# Indices 1 2 3 4 5 6 
#
# 1 130.1707 47.9702 48.6541 0.0000 -36.9423 0.0000
# 2 47.9702 130.3439 62.4728 0.0000 -12.1720 0.0000
# 3 48.6541 62.4728 160.8293 0.0000 -9.1823 0.0000
# 4 0.0000 0.0000 0.0000 38.2923 0.0000 -15.8362
# 5 -36.9423 -12.1720 -9.1823 0.0000 30.8222 0.0000
# 6 0.0000 0.0000 0.0000 -15.8362 0.0000 -3.4698
#
#
#
# Elastic Compliance Matrix: (Units=1/GPa)
#
#
# Indices 1 2 3 4 5 6 
#
# 1 0.013641 -0.002549 -0.002300 0.000000 0.014658 0.000000
# 2 -0.002549 0.010126 -0.003162 0.000000 0.000001 0.000000
# 3 -0.002300 -0.003162 0.008050 0.000000 -0.001607 0.000000
# 4 0.000000 0.000000 0.000000 0.009044 0.000000 -0.041277
# 5 0.014658 0.000001 -0.001607 0.000000 0.049534 0.000000
# 6 0.000000 0.000000 0.000000 -0.041277 0.000000 -0.099810
#
#
# Mechanical properties :
#
#
# Convention : Reuss Voigt Hill
#
# Bulk Modulus (GPa) = 63.31079 82.17089 72.74084
# Shear Modulus (GPa) = 421.15892 30.61207 225.88550
#
# Velocity S-wave (km/s) = 14.09689 3.80055 10.32392
# Velocity P-wave (km/s) = 17.17079 7.61781 13.28283
#
# Compressibility (1/GPa) = 0.01579510
#
# Stress axis : x y z
#
# Youngs Moduli (GPa) = 73.30795 98.75679 124.22410
#
# Poissons Ratio (x) = 0.25176 0.28566
# Poissons Ratio (y) = 0.18689 0.39280
# Poissons Ratio (z) = 0.16858 0.31227
#
# Static dielectric constant tensor:
#      x y z
#    x 1.864500 0.000000 0.082380 
#    y 0.000000 1.806470 0.000000 
#    z 0.082380 0.000000 1.897410 
# 
# From -- ./inp_files/3166.got.cif
#   From: 2010.05.17/outbox.cif.g08.bks.cpg/sg5_2_cif.got.tgz:3166.got - 2010.06.03 18:56:24.
