data_PCOD9127742
_publ_section_title
;
Structure prediction by ZEFSAII (Michael W. Deem and Ramdas Pophale) SiO2 
 PCOD9127742
Probable space group: C 2
;
_chemical_formula_sum "Si O2"
_cell_formula_units_Z 28
_cell_length_a 5.888040
_cell_length_b 29.384424
_cell_length_c 8.161376
_cell_angle_alpha 90.000000
_cell_angle_beta 122.196073
_cell_angle_gamma 90.000000
_cell_volume 1194.922055
_symmetry_space_group_name_H-M "C 2"
_symmetry_group_IT_number 5
_symmetry_cell_setting 'monoclinic'
loop_
_space_group_symop_operation_xyz
x,y,z
-x,y,-z
1/2+x,1/2+y,z
1/2-x,1/2+y,-z
loop_
_atom_site_type_symbol
_atom_site_label
_atom_site_fract_x
_atom_site_fract_y
_atom_site_fract_z
Si Si1 0.556928 0.342460 0.830044
Si Si2 0.160056 0.630509 0.217644
Si Si3 0.552859 0.437124 0.715763
Si Si4 0.500000 0.973859 0.500000
Si Si5 0.161986 0.157521 0.220094
Si Si6 0.277784 0.762490 0.707413
Si Si7 0.000000 0.313229 0.500000
Si Si8 0.771271 0.527216 0.705523
O O1 0.680009 0.391571 0.833997
O O2 0.721983 0.299528 0.826474
O O3 0.274561 0.340865 0.621525
O O4 0.500000 0.339591 0.000000
O O5 0.474047 0.642945 0.302910
O O6 0.143369 0.575999 0.201417
O O7 0.975157 0.644572 0.303534
O O8 0.000000 0.651480 0.000000
O O9 0.500000 0.433204 0.500000
O O10 0.705141 0.485076 0.801129
O O11 0.248466 0.443771 0.655760
O O12 0.456696 0.006268 0.637780
O O13 0.152403 0.212085 0.212472
O O14 0.000000 0.138072 0.000000
O O15 0.486831 0.782390 0.656971
O O16 0.000000 0.758683 0.500000
O O17 0.500000 0.536125 0.500000
#
# Coordination Sequence:
#
# PCOD9127742 Si02
#       8
#     4   4   4   2   4   4   2   4
#     4  11  24  40  65  98 130 173 223 274 340 406
#     4  10  23  42  61  95 128 173 212 275 334 398
#     4   9  18  37  60  87 128 167 215 267 331 393
#     4   8  17  34  60  86 116 174 198 270 321 388
#     4  10  24  41  67  90 130 172 222 269 342 400
#     4  10  24  42  63  94 128 169 218 278 334 399
#     4  10  23  42  64  92 134 174 216 280 333 402
#     4   9  20  36  61  88 123 162 218 263 329 390
#
# _framework density 23.432489
#
# number of rings (size 3 to 8) (size 9 to 14) (size 15 to 20)
#    0.000    2.571    0.000    1.714   10.000    2.857 
#    2.571    0.000    0.000    0.000    0.000    0.000 
#    0.000    0.000    0.000    0.000    0.000    0.000 
#
# Total GULP energy -78100.641385 kJ/mol
# GULP energy per Si atom -5578.617242 kJ/mol
# Density = 2.337916 g / cm^3
# Si number density = 23.432489 Si / 1000 Ang^3
#
#
#
# Elastic Constant Matrix: (Units=GPa)
#
#
# Indices 1 2 3 4 5 6 
#
# 1 138.2252 60.9554 20.7796 0.0000 -8.6603 0.0000
# 2 60.9554 193.0620 15.8530 0.0000 -20.3049 0.0000
# 3 20.7796 15.8530 58.4591 0.0000 -5.5703 0.0000
# 4 0.0000 0.0000 0.0000 26.6108 0.0000 13.0447
# 5 -8.6603 -20.3049 -5.5703 0.0000 38.3141 0.0000
# 6 0.0000 0.0000 0.0000 13.0447 0.0000 70.8784
#
#
#
# Elastic Compliance Matrix: (Units=1/GPa)
#
#
# Indices 1 2 3 4 5 6 
#
# 1 0.008727 -0.002529 -0.002389 0.000000 0.000285 0.000000
# 2 -0.002529 0.006307 -0.000555 0.000000 0.002690 0.000000
# 3 -0.002389 -0.000555 0.018279 0.000000 0.001823 0.000000
# 4 0.000000 0.000000 0.000000 0.041305 0.000000 -0.007602
# 5 0.000285 0.002690 0.001823 0.000000 0.027855 0.000000
# 6 0.000000 0.000000 0.000000 -0.007602 0.000000 0.015508
#
#
# Mechanical properties :
#
#
# Convention : Reuss Voigt Hill
#
# Bulk Modulus (GPa) = 44.70925 64.99135 54.85030
# Shear Modulus (GPa) = 36.66147 46.63789 41.64968
#
# Velocity S-wave (km/s) = 3.95974 4.46613 4.22053
# Velocity P-wave (km/s) = 6.32673 7.37501 6.87089
#
# Compressibility (1/GPa) = 0.02236673
#
# Stress axis : x y z
#
# Youngs Moduli (GPa) = 114.58804 158.56131 54.70637
#
# Poissons Ratio (x) = 0.40104 0.13069
# Poissons Ratio (y) = 0.28982 0.03036
# Poissons Ratio (z) = 0.27375 0.08799
#
# Static dielectric constant tensor:
#      x y z
#    x 1.941250 0.000000 -0.020290 
#    y 0.000000 1.836020 0.000000 
#    z -0.020290 0.000000 1.898350 
# 
# From -- ./inp_files/13220.got.cif
#   From: 2010.05.17/outbox.cif.g08.bks.cpg/sg5_7_cif.got.tgz:13220.got - 2010.06.03 18:56:24.
