data_PCOD9127735
_publ_section_title
;
Structure prediction by ZEFSAII (Michael W. Deem and Ramdas Pophale) SiO2 
 PCOD9127735
Probable space group: C 2
;
_chemical_formula_sum "Si O2"
_cell_formula_units_Z 32
_cell_length_a 15.832140
_cell_length_b 21.655730
_cell_length_c 8.804613
_cell_angle_alpha 90.000000
_cell_angle_beta 31.341678
_cell_angle_gamma 90.000000
_cell_volume 1570.158200
_symmetry_space_group_name_H-M "C 2"
_symmetry_group_IT_number 5
_symmetry_cell_setting 'monoclinic'
loop_
_space_group_symop_operation_xyz
x,y,z
-x,y,-z
1/2+x,1/2+y,z
1/2-x,1/2+y,-z
loop_
_atom_site_type_symbol
_atom_site_label
_atom_site_fract_x
_atom_site_fract_y
_atom_site_fract_z
Si Si1 0.822922 0.590600 0.191826
Si Si2 0.345749 0.711163 0.635624
Si Si3 0.667615 0.034922 0.152830
Si Si4 0.084972 0.316149 0.723171
Si Si5 0.922998 0.878826 0.277438
Si Si6 0.119556 0.392028 0.172423
Si Si7 0.887048 0.789967 0.813795
Si Si8 0.517186 0.507852 0.656569
O O1 0.744231 0.658446 0.321548
O O2 0.677166 0.544542 0.466650
O O3 0.837719 0.576473 0.988980
O O4 0.000000 0.584577 0.000000
O O5 0.500000 0.689610 0.500000
O O6 0.391378 0.766997 0.449885
O O7 0.222400 0.736420 0.951559
O O8 0.500000 0.046001 0.500000
O O9 0.662627 0.963340 0.107757
O O10 0.840977 0.036447 0.976268
O O11 0.245102 0.352978 0.522618
O O12 0.971170 0.370582 0.837123
O O13 0.000000 0.286119 0.000000
O O14 0.011785 0.818635 0.204924
O O15 0.952254 0.937057 0.342062
O O16 0.000000 0.898284 0.000000
O O17 0.000000 0.381113 0.500000
O O18 0.271527 0.346882 0.946553
O O19 0.000000 0.772411 0.500000
O O20 0.500000 0.512144 0.500000
#
# Coordination Sequence:
#
# PCOD9127735 Si02
#       8
#     4   4   4   4   4   4   4   4
#     4  11  28  48  71  96 132 180 233 293 337 394
#     4  12  25  51  69  91 137 186 236 269 338 420
#     4  10  23  41  72  99 136 178 231 271 335 411
#     4  12  26  39  65 103 139 177 222 281 349 394
#     4  12  24  37  64 103 149 168 216 283 350 396
#     4  11  20  42  65 100 141 178 221 272 334 420
#     4  12  23  40  68 101 134 182 219 274 337 416
#     4  10  23  44  66  99 134 189 227 268 337 414
#
# _framework density 20.380113999999999
#
# number of rings (size 3 to 8) (size 9 to 14) (size 15 to 20)
#    0.000    0.750    5.000    2.250   10.500    0.500 
#    0.000    3.125    0.000    0.000    0.000    0.000 
#    0.000    0.000    0.000    0.000    0.000    0.000 
#
# Total GULP energy -89325.851647 kJ/mol
# GULP energy per Si atom -5582.865728 kJ/mol
# Density = 2.033373 g / cm^3
# Si number density = 20.380114 Si / 1000 Ang^3
#
#
#
# Elastic Constant Matrix: (Units=GPa)
#
#
# Indices 1 2 3 4 5 6 
#
# 1 85.2251 12.8238 30.8352 0.0011 -37.6270 -0.0007
# 2 12.8238 56.5443 23.5271 0.0010 -7.4391 -0.0005
# 3 30.8352 23.5271 115.8235 -0.0043 -22.3779 0.0023
# 4 0.0011 0.0010 -0.0043 133.3604 0.0017 -62.6090
# 5 -37.6270 -7.4391 -22.3779 0.0017 64.9369 -0.0008
# 6 -0.0007 -0.0005 0.0023 -62.6090 -0.0008 57.6718
#
#
#
# Elastic Compliance Matrix: (Units=1/GPa)
#
#
# Indices 1 2 3 4 5 6 
#
# 1 0.016673 -0.001630 -0.002440 0.000000 0.008634 0.000000
# 2 -0.001630 0.019529 -0.003517 0.000000 0.000080 0.000000
# 3 -0.002440 -0.003517 0.010335 0.000000 0.001745 0.000000
# 4 0.000000 0.000000 0.000000 0.015292 0.000000 0.016602
# 5 0.008634 0.000080 0.001745 0.000000 0.021013 0.000000
# 6 0.000000 0.000000 0.000000 0.016602 0.000000 0.035362
#
#
# Mechanical properties :
#
#
# Convention : Reuss Voigt Hill
#
# Bulk Modulus (GPa) = 31.88503 43.55168 37.71835
# Shear Modulus (GPa) = 34.76225 63.88762 49.32493
#
# Velocity S-wave (km/s) = 4.13449 5.60500 4.92494
# Velocity P-wave (km/s) = 6.20251 7.95639 7.13356
#
# Compressibility (1/GPa) = 0.03136268
#
# Stress axis : x y z
#
# Youngs Moduli (GPa) = 59.97553 51.20562 96.75931
#
# Poissons Ratio (x) = 0.08349 0.23605
# Poissons Ratio (y) = 0.09779 0.34033
# Poissons Ratio (z) = 0.14632 0.18011
#
# Static dielectric constant tensor:
#      x y z
#    x -1.110920 0.000000 2.651040 
#    y 0.000000 1.714850 0.000000 
#    z 2.651040 0.000000 -0.694440 
# 
# From -- ./inp_files/25614.got.cif
#   From: 2010.05.17/outbox.cif.g08.bks.cpg/sg5_13_cif.got.tgz:25614.got - 2010.06.03 18:56:24.
