data_PCOD9127740
_publ_section_title
;
Structure prediction by ZEFSAII (Michael W. Deem and Ramdas Pophale) SiO2 
 PCOD9127740
Probable space group: C 2
;
_chemical_formula_sum "Si O2"
_cell_formula_units_Z 22
_cell_length_a 5.340331
_cell_length_b 20.321597
_cell_length_c 8.542956
_cell_angle_alpha 90.000000
_cell_angle_beta 111.058916
_cell_angle_gamma 90.000000
_cell_volume 865.195456
_symmetry_space_group_name_H-M "C 2"
_symmetry_group_IT_number 5
_symmetry_cell_setting 'monoclinic'
loop_
_space_group_symop_operation_xyz
x,y,z
-x,y,-z
1/2+x,1/2+y,z
1/2-x,1/2+y,-z
loop_
_atom_site_type_symbol
_atom_site_label
_atom_site_fract_x
_atom_site_fract_y
_atom_site_fract_z
Si Si1 0.000000 0.296721 0.500000
Si Si2 0.000000 0.594672 0.000000
Si Si3 0.224779 0.025378 0.187640
Si Si4 0.694667 0.306389 0.898205
Si Si5 0.559032 0.406349 0.350685
Si Si6 0.780214 0.694905 0.734868
Si Si7 0.500000 0.112379 0.500000
O O1 0.248730 0.345786 0.559200
O O2 0.041617 0.247022 0.654779
O O3 0.221956 0.646641 0.116311
O O4 0.978156 0.544980 0.139880
O O5 0.278845 0.071369 0.350701
O O6 0.189310 0.954013 0.252978
O O7 0.000000 0.036605 0.000000
O O8 0.690118 0.369135 0.782430
O O9 0.542736 0.241362 0.806163
O O10 0.500000 0.325995 0.000000
O O11 0.000000 0.291376 0.000000
O O12 0.500000 0.442670 0.500000
O O13 0.836331 0.654106 0.590710
#
# Coordination Sequence:
#
# PCOD9127740 Si02
#       7
#     2   2   4   4   4   4   2
#     4  10  25  42  74 108 159 196 248 326 412 464
#     4  10  24  48  74 116 150 206 266 330 396 488
#     4  11  26  50  75 105 152 212 266 327 401 463
#     4  11  26  48  78 119 163 208 260 336 409 488
#     4  11  27  47  75 114 150 212 268 333 400 485
#     4  10  23  41  75 117 152 204 258 327 407 486
#     4  10  25  46  70 112 151 200 264 330 386 490
#
# _framework density 25.427778
#
# number of rings (size 3 to 8) (size 9 to 14) (size 15 to 20)
#    0.000    1.455    0.909    1.091   12.727    7.273 
#    6.545    0.000    0.000    0.000    0.000    0.000 
#    0.000    0.000    0.000    0.000    0.000    0.000 
#
# Total GULP energy -61402.261459 kJ/mol
# GULP energy per Si atom -5582.023769 kJ/mol
# Density = 2.536990 g / cm^3
# Si number density = 25.427778 Si / 1000 Ang^3
#
#
#
# Elastic Constant Matrix: (Units=GPa)
#
#
# Indices 1 2 3 4 5 6 
#
# 1 45.1820 39.4434 38.4547 0.0000 14.8307 0.0000
# 2 39.4434 147.4928 87.6243 0.0000 -7.5333 0.0000
# 3 38.4547 87.6243 170.4794 0.0000 -9.5090 0.0000
# 4 0.0000 0.0000 0.0000 16.5256 0.0000 -3.0507
# 5 14.8307 -7.5333 -9.5090 0.0000 52.0464 0.0000
# 6 0.0000 0.0000 0.0000 -3.0507 0.0000 19.7505
#
#
#
# Elastic Compliance Matrix: (Units=1/GPa)
#
#
# Indices 1 2 3 4 5 6 
#
# 1 0.037332 -0.007498 -0.005275 0.000000 -0.012687 0.000000
# 2 -0.007498 0.011279 -0.003936 0.000000 0.003050 0.000000
# 3 -0.005275 -0.003936 0.009225 0.000000 0.002619 0.000000
# 4 0.000000 0.000000 0.000000 0.062288 0.000000 0.009621
# 5 -0.012687 0.003050 0.002619 0.000000 0.023749 0.000000
# 6 0.000000 0.000000 0.000000 0.009621 0.000000 0.052118
#
#
# Mechanical properties :
#
#
# Convention : Reuss Voigt Hill
#
# Bulk Modulus (GPa) = 40.95215 77.13324 59.04270
# Shear Modulus (GPa) = 21.04845 30.83996 25.94421
#
# Velocity S-wave (km/s) = 2.88023 3.48637 3.19769
# Velocity P-wave (km/s) = 5.21548 6.82689 6.07485
#
# Compressibility (1/GPa) = 0.02441874
#
# Stress axis : x y z
#
# Youngs Moduli (GPa) = 26.78679 88.65863 108.40404
#
# Poissons Ratio (x) = 0.66474 0.57180
# Poissons Ratio (y) = 0.20084 0.42668
# Poissons Ratio (z) = 0.14129 0.34896
#
# Static dielectric constant tensor:
#      x y z
#    x 2.133660 0.000000 -0.010350 
#    y 0.000000 1.966680 0.000000 
#    z -0.010350 0.000000 2.121150 
# 
# From -- ./inp_files/12597.got.cif
#   From: 2010.05.17/outbox.cif.g08.bks.cpg/sg5_7_cif.got.tgz:12597.got - 2010.06.03 18:56:24.
