data_PCOD9127581
_publ_section_title
;
Structure prediction by ZEFSAII (Michael W. Deem and Ramdas Pophale) SiO2 
 PCOD9127581
Probable space group: C 2
;
_chemical_formula_sum "Si O2"
_cell_formula_units_Z 32
_cell_length_a 12.014246
_cell_length_b 14.820783
_cell_length_c 18.485194
_cell_angle_alpha 90.000000
_cell_angle_beta 30.518514
_cell_angle_gamma 90.000000
_cell_volume 1671.470467
_symmetry_space_group_name_H-M "C 2"
_symmetry_group_IT_number 5
_symmetry_cell_setting 'monoclinic'
loop_
_space_group_symop_operation_xyz
x,y,z
-x,y,-z
1/2+x,1/2+y,z
1/2-x,1/2+y,-z
loop_
_atom_site_type_symbol
_atom_site_label
_atom_site_fract_x
_atom_site_fract_y
_atom_site_fract_z
Si Si1 0.215793 0.000000 0.832862
Si Si2 0.761305 0.302635 0.836181
Si Si3 0.683212 0.677156 0.334605
Si Si4 0.035230 0.656316 0.692251
Si Si5 0.420401 0.535221 0.403578
Si Si6 0.988581 0.826922 0.393805
Si Si7 0.833522 0.263011 0.299383
Si Si8 0.745416 0.557169 0.660597
O O1 0.336414 0.906288 0.782613
O O2 0.331683 0.091868 0.791698
O O3 0.176655 0.001754 0.769036
O O4 0.000000 0.994401 0.000000
O O5 0.808016 0.248610 0.735524
O O6 0.916283 0.268244 0.814609
O O7 0.500000 0.296529 0.000000
O O8 0.500000 0.698239 0.500000
O O9 0.901489 0.667112 0.259526
O O10 0.624457 0.582764 0.328592
O O11 0.224046 0.596747 0.546174
O O12 0.015139 0.755774 0.669607
O O13 0.416730 0.429200 0.420703
O O14 0.400422 0.544451 0.328720
O O15 0.230483 0.825792 0.294877
O O16 0.814929 0.785370 0.547638
O O17 0.773475 0.162197 0.309272
O O18 0.000000 0.536782 0.500000
#
# Coordination Sequence:
#
# PCOD9127581 Si02
#       8
#     4   4   4   4   4   4   4   4
#     4  11  25  41  61  89 122 167 207 249 309 371
#     4  11  25  43  62  90 126 170 210 248 314 382
#     4  10  23  39  62  92 129 159 202 263 310 360
#     4  11  21  40  58  93 131 157 202 260 314 360
#     4  11  22  37  62  97 126 157 206 258 317 363
#     4  11  22  35  64 100 123 158 208 266 312 361
#     4  11  19  38  64  88 127 163 207 256 309 366
#     4  12  20  41  66  92 123 159 208 261 307 366
#
# _framework density 19.144819999999999
#
# number of rings (size 3 to 8) (size 9 to 14) (size 15 to 20)
#    0.000    1.000    6.250    1.500    8.750    1.500 
#    0.000    0.000    0.000    0.750    0.000    0.000 
#    0.000    0.000    0.000    0.000    0.000    0.000 
#
# Total GULP energy -89223.954189 kJ/mol
# GULP energy per Si atom -5576.497137 kJ/mol
# Density = 1.910125 g / cm^3
# Si number density = 19.144820 Si / 1000 Ang^3
#
#
#
# Elastic Constant Matrix: (Units=GPa)
#
#
# Indices 1 2 3 4 5 6 
#
# 1 116.3214 19.3654 32.1557 -0.0043 -3.6713 0.0025
# 2 19.3654 101.1674 21.4425 0.0023 4.6917 0.0034
# 3 32.1557 21.4425 48.0784 -0.0148 0.8400 0.0047
# 4 -0.0043 0.0023 -0.0148 14.4311 0.0119 -3.7660
# 5 -3.6713 4.6917 0.8400 0.0119 20.9545 -0.0021
# 6 0.0025 0.0034 0.0047 -3.7660 -0.0021 23.0746
#
#
#
# Elastic Compliance Matrix: (Units=1/GPa)
#
#
# Indices 1 2 3 4 5 6 
#
# 1 0.010686 -0.000695 -0.006878 -0.000006 0.002304 0.000000
# 2 -0.000695 0.011069 -0.004430 -0.000005 -0.002422 -0.000002
# 3 -0.006878 -0.004430 0.027398 0.000028 -0.001311 0.000000
# 4 -0.000006 -0.000005 0.000028 0.072378 -0.000041 0.011813
# 5 0.002304 -0.002422 -0.001311 -0.000041 0.048721 -0.000002
# 6 0.000000 -0.000002 0.000000 0.011813 -0.000002 0.045266
#
#
# Mechanical properties :
#
#
# Convention : Reuss Voigt Hill
#
# Bulk Modulus (GPa) = 39.76308 45.72161 42.74235
# Shear Modulus (GPa) = 20.16906 24.53228 22.35067
#
# Velocity S-wave (km/s) = 3.24929 3.58356 3.42051
# Velocity P-wave (km/s) = 5.90693 6.40752 6.16231
#
# Compressibility (1/GPa) = 0.02514895
#
# Stress axis : x y z
#
# Youngs Moduli (GPa) = 93.57604 90.34413 36.49929
#
# Poissons Ratio (x) = 0.06276 0.25103
# Poissons Ratio (y) = 0.06501 0.16168
# Poissons Ratio (z) = 0.64359 0.40019
#
# Static dielectric constant tensor:
#      x y z
#    x 1.707650 0.000000 -0.038900 
#    y 0.000000 1.674960 0.000000 
#    z -0.038900 0.000000 1.674440 
# 
# From -- ./inp_files/44962.got.cif
#   From: 2010.05.17/outbox.cif.g08.bks.cpg/sg5_23_cif.got.tgz:44962.got - 2010.06.03 18:56:24.
