data_PCOD9127339
_publ_section_title
;
Structure prediction by ZEFSAII (Michael W. Deem and Ramdas Pophale) SiO2 
 PCOD9127339
Probable space group: C 2
;
_chemical_formula_sum "Si O2"
_cell_formula_units_Z 28
_cell_length_a 21.236241
_cell_length_b 4.804297
_cell_length_c 11.399092
_cell_angle_alpha 90.000000
_cell_angle_beta 61.455070
_cell_angle_gamma 90.000000
_cell_volume 1021.624202
_symmetry_space_group_name_H-M "C 2"
_symmetry_group_IT_number 5
_symmetry_cell_setting 'monoclinic'
loop_
_space_group_symop_operation_xyz
x,y,z
-x,y,-z
1/2+x,1/2+y,z
1/2-x,1/2+y,-z
loop_
_atom_site_type_symbol
_atom_site_label
_atom_site_fract_x
_atom_site_fract_y
_atom_site_fract_z
Si Si1 0.270082 0.813250 0.444439
Si Si2 0.261188 0.861085 0.910752
Si Si3 0.092329 0.239984 0.150054
Si Si4 0.023978 0.844754 0.859066
Si Si5 0.877860 0.821528 0.430105
Si Si6 0.151781 0.174618 0.857409
Si Si7 0.532414 0.867776 0.589102
O O1 0.196594 0.582107 0.510392
O O2 0.302234 0.532705 0.484978
O O3 0.301334 0.814379 0.286519
O O4 0.339465 0.723397 0.822040
O O5 0.205499 0.925502 0.855394
O O6 0.272945 0.162816 0.959616
O O7 0.045397 0.976243 0.144807
O O8 0.033765 0.428166 0.264564
O O9 0.130118 0.333717 0.994830
O O10 0.082725 0.698684 0.724379
O O11 0.077559 0.078678 0.866483
O O12 0.000000 0.688459 0.000000
O O13 0.923671 0.115083 0.395758
O O14 0.919683 0.632417 0.488947
O O15 0.500000 0.750276 0.500000
#
# Coordination Sequence:
#
# PCOD9127339 Si02
#       7
#     4   4   4   4   4   4   4
#     4  12  26  45  70 100 144 182 234 290 354 422
#     4  10  23  44  68 103 145 179 234 290 357 422
#     4   9  22  43  70 101 139 181 233 290 349 413
#     4   9  19  43  71 102 139 182 236 293 350 416
#     4  11  24  46  67 102 138 183 233 291 351 420
#     4  10  22  45  70 106 137 187 234 292 349 420
#     4  11  25  46  71  99 140 183 237 286 352 424
#
# _framework density 27.407336000000001
#
# number of rings (size 3 to 8) (size 9 to 14) (size 15 to 20)
#    0.000    1.714    1.429    1.286    4.000    8.000 
#   12.857    0.714    0.000    0.000    0.000    0.000 
#    0.000    0.000    0.000    0.000    0.000    0.000 
#
# Total GULP energy -78029.325394 kJ/mol
# GULP energy per Si atom -5573.523242 kJ/mol
# Density = 2.734496 g / cm^3
# Si number density = 27.407336 Si / 1000 Ang^3
#
#
#
# Elastic Constant Matrix: (Units=GPa)
#
#
# Indices 1 2 3 4 5 6 
#
# 1 203.8277 52.7931 43.7185 0.0000 -39.3446 0.0000
# 2 52.7931 179.2460 27.2569 -0.0002 -4.9305 0.0005
# 3 43.7185 27.2569 130.4434 0.0000 -33.3423 0.0000
# 4 0.0000 -0.0002 0.0000 20.8895 0.0000 6.9905
# 5 -39.3446 -4.9305 -33.3423 0.0000 44.7511 0.0000
# 6 0.0000 0.0005 0.0000 6.9905 0.0000 49.0981
#
#
#
# Elastic Compliance Matrix: (Units=1/GPa)
#
#
# Indices 1 2 3 4 5 6 
#
# 1 0.006432 -0.001678 -0.000503 0.000000 0.005096 0.000000
# 2 -0.001678 0.006203 -0.001157 0.000000 -0.001653 0.000000
# 3 -0.000503 -0.001157 0.009796 0.000000 0.006730 0.000000
# 4 0.000000 0.000000 0.000000 0.050266 0.000000 -0.007157
# 5 0.005096 -0.001653 0.006730 0.000000 0.031658 0.000000
# 6 0.000000 0.000000 0.000000 -0.007157 0.000000 0.021386
#
#
# Mechanical properties :
#
#
# Convention : Reuss Voigt Hill
#
# Bulk Modulus (GPa) = 63.45997 84.56158 74.01078
# Shear Modulus (GPa) = 36.31908 48.93096 42.62502
#
# Velocity S-wave (km/s) = 3.64422 4.22989 3.94793
# Velocity P-wave (km/s) = 6.39623 7.40112 6.91695
#
# Compressibility (1/GPa) = 0.01575797
#
# Stress axis : x y z
#
# Youngs Moduli (GPa) = 155.47030 161.19977 102.07807
#
# Poissons Ratio (x) = 0.27047 0.05131
# Poissons Ratio (y) = 0.26085 0.11806
# Poissons Ratio (z) = 0.07815 0.18643
#
# Static dielectric constant tensor:
#      x y z
#    x 2.270160 0.000000 0.016930 
#    y 0.000000 2.095930 0.000000 
#    z 0.016930 0.000000 2.157250 
# 
# From -- ./inp_files/45643.got.cif
#   From: 2010.05.17/outbox.cif.g08.bks.cpg/sg5_23_cif.got.tgz:45643.got - 2010.06.03 18:56:24.
