data_PCOD9127487
_publ_section_title
;
Structure prediction by ZEFSAII (Michael W. Deem and Ramdas Pophale) SiO2 
 PCOD9127487
Probable space group: C 2
;
_chemical_formula_sum "Si O2"
_cell_formula_units_Z 30
_cell_length_a 29.006706
_cell_length_b 5.129988
_cell_length_c 9.080049
_cell_angle_alpha 90.000000
_cell_angle_beta 114.764321
_cell_angle_gamma 90.000000
_cell_volume 1226.894496
_symmetry_space_group_name_H-M "C 2"
_symmetry_group_IT_number 5
_symmetry_cell_setting 'monoclinic'
loop_
_space_group_symop_operation_xyz
x,y,z
-x,y,-z
1/2+x,1/2+y,z
1/2-x,1/2+y,-z
loop_
_atom_site_type_symbol
_atom_site_label
_atom_site_fract_x
_atom_site_fract_y
_atom_site_fract_z
Si Si1 0.327074 0.806970 0.794672
Si Si2 0.235851 0.558745 0.741664
Si Si3 0.569523 0.602918 0.360763
Si Si4 0.635394 0.091157 0.429957
Si Si5 0.069914 0.628330 0.839454
Si Si6 0.812239 0.685258 0.018629
Si Si7 0.000000 0.818371 0.500000
Si Si8 0.067412 0.104439 0.027539
O O1 0.271717 0.713438 0.675262
O O2 0.350184 0.027182 0.720303
O O3 0.371393 0.596270 0.859714
O O4 0.316284 0.903554 0.945855
O O5 0.184539 0.500963 0.586654
O O6 0.214033 0.697911 0.858721
O O7 0.275082 0.344269 0.859042
O O8 0.591729 0.888705 0.418196
O O9 0.531041 0.501166 0.430140
O O10 0.546380 0.627838 0.164752
O O11 0.614563 0.383025 0.421252
O O12 0.127363 0.730106 0.882046
O O13 0.037361 0.645907 0.649088
O O14 0.064937 0.351403 0.914532
O O15 0.050432 0.841366 0.929013
#
# Coordination Sequence:
#
# PCOD9127487 Si02
#       8
#     4   4   4   4   4   4   2   4
#     4  10  23  40  66  99 144 198 240 295 348 452
#     4  12  24  39  67 105 145 200 243 301 359 446
#     4  11  26  52  73 115 148 202 245 324 380 460
#     4  11  28  44  74 107 158 193 252 309 375 433
#     4  11  25  47  75 107 142 199 244 319 368 458
#     4  11  23  41  63 100 146 188 249 292 368 429
#     4  12  30  50  86 112 154 188 268 320 414 456
#     4  10  22  47  75 101 151 190 246 300 378 443
#
# _framework density 24.451982999999998
#
# number of rings (size 3 to 8) (size 9 to 14) (size 15 to 20)
#    0.000    1.067    2.667    3.200    5.600    6.933 
#    0.000    2.667    0.000    0.000    0.000    0.000 
#    0.000    0.000    0.000    0.000    0.000    0.000 
#
# Total GULP energy -83826.184718 kJ/mol
# GULP energy per Si atom -5588.412315 kJ/mol
# Density = 2.439633 g / cm^3
# Si number density = 24.451983 Si / 1000 Ang^3
#
#
#
# Elastic Constant Matrix: (Units=GPa)
#
#
# Indices 1 2 3 4 5 6 
#
# 1 116.6073 10.4588 37.5845 0.0000 -17.8134 0.0000
# 2 10.4588 81.3233 25.8233 0.0000 -0.4950 0.0000
# 3 37.5845 25.8233 131.4671 0.0000 8.8685 0.0000
# 4 0.0000 0.0000 0.0000 32.2889 0.0000 -6.7138
# 5 -17.8134 -0.4950 8.8685 0.0000 43.7052 0.0000
# 6 0.0000 0.0000 0.0000 -6.7138 0.0000 39.9067
#
#
#
# Elastic Compliance Matrix: (Units=1/GPa)
#
#
# Indices 1 2 3 4 5 6 
#
# 1 0.010395 -0.000276 -0.003248 0.000000 0.004893 0.000000
# 2 -0.000276 0.013142 -0.002540 0.000000 0.000552 0.000000
# 3 -0.003248 -0.002540 0.009252 0.000000 -0.003230 0.000000
# 4 0.000000 0.000000 0.000000 0.032093 0.000000 0.005399
# 5 0.004893 0.000552 -0.003230 0.000000 0.025536 0.000000
# 6 0.000000 0.000000 0.000000 0.005399 0.000000 0.025967
#
#
# Mechanical properties :
#
#
# Convention : Reuss Voigt Hill
#
# Bulk Modulus (GPa) = 48.39817 53.01455 50.70636
# Shear Modulus (GPa) = 36.92817 40.21556 38.57187
#
# Velocity S-wave (km/s) = 3.89039 4.05986 3.97603
# Velocity P-wave (km/s) = 6.32584 6.61096 6.46997
#
# Compressibility (1/GPa) = 0.02066194
#
# Stress axis : x y z
#
# Youngs Moduli (GPa) = 96.20316 76.09250 108.08908
#
# Poissons Ratio (x) = 0.02099 0.35102
# Poissons Ratio (y) = 0.02654 0.27452
# Poissons Ratio (z) = 0.31242 0.19326
#
# Static dielectric constant tensor:
#      x y z
#    x 2.009710 0.000000 0.040560 
#    y 0.000000 1.962460 0.000000 
#    z 0.040560 0.000000 1.962360 
# 
# From -- ./inp_files/32300.got.cif
#   From: 2010.05.17/outbox.cif.g08.bks.cpg/sg5_17_cif.got.tgz:32300.got - 2010.06.03 18:56:24.
