data_PCOD9127072
_publ_section_title
;
Structure prediction by ZEFSAII (Michael W. Deem and Ramdas Pophale) SiO2 
 PCOD9127072
Probable space group: C 2
;
_chemical_formula_sum "Si O2"
_cell_formula_units_Z 32
_cell_length_a 23.458945
_cell_length_b 5.249560
_cell_length_c 10.990935
_cell_angle_alpha 90.000000
_cell_angle_beta 69.314716
_cell_angle_gamma 90.000000
_cell_volume 1266.268961
_symmetry_space_group_name_H-M "C 2"
_symmetry_group_IT_number 5
_symmetry_cell_setting 'monoclinic'
loop_
_space_group_symop_operation_xyz
x,y,z
-x,y,-z
1/2+x,1/2+y,z
1/2-x,1/2+y,-z
loop_
_atom_site_type_symbol
_atom_site_label
_atom_site_fract_x
_atom_site_fract_y
_atom_site_fract_z
Si Si1 0.750083 0.774210 0.061995
Si Si2 0.945004 0.189399 0.959888
Si Si3 0.020504 0.833302 0.278118
Si Si4 0.109842 0.792310 0.598985
Si Si5 0.334015 0.455121 0.194146
Si Si6 0.946621 0.192218 0.524633
Si Si7 0.735025 0.181171 0.434153
Si Si8 0.120006 0.456149 0.218401
O O1 0.801648 0.764211 0.125220
O O2 0.690786 0.938512 0.143342
O O3 0.726158 0.490964 0.050868
O O4 0.974846 0.960612 0.857821
O O5 0.915561 0.360213 0.876296
O O6 0.889102 0.098453 0.085735
O O7 0.000000 0.300468 0.000000
O O8 0.013118 0.040265 0.392074
O O9 0.085869 0.720575 0.260819
O O10 0.957472 0.673975 0.331636
O O11 0.138599 0.816803 0.709558
O O12 0.094042 0.067960 0.553054
O O13 0.161709 0.672164 0.474909
O O14 0.279433 0.633466 0.286753
O O15 0.000000 0.416316 0.500000
O O16 0.893811 0.288663 0.654641
O O17 0.750865 0.954626 0.516815
#
# Coordination Sequence:
#
# PCOD9127072 Si02
#       8
#     4   4   4   4   4   4   4   4
#     4  12  28  49  75 105 150 199 244 295 364 452
#     4  11  22  45  72 105 140 187 243 306 375 429
#     4  10  22  43  70 103 142 188 239 307 365 442
#     4  10  22  45  72 104 145 192 247 306 368 438
#     4  11  24  46  74 105 149 189 246 308 368 440
#     4   9  22  43  67  99 141 185 238 296 367 436
#     4  10  25  47  70 106 148 195 241 297 372 438
#     4  11  25  43  72 103 145 190 244 297 370 446
#
# _framework density 25.271093
#
# number of rings (size 3 to 8) (size 9 to 14) (size 15 to 20)
#    0.000    1.500    2.500    0.750    3.500    9.000 
#   11.250    0.000    0.000    0.000    0.000    0.000 
#    0.000    0.000    0.000    0.000    0.000    0.000 
#
# Total GULP energy -89197.445543 kJ/mol
# GULP energy per Si atom -5574.840346 kJ/mol
# Density = 2.521357 g / cm^3
# Si number density = 25.271093 Si / 1000 Ang^3
#
#
#
# Elastic Constant Matrix: (Units=GPa)
#
#
# Indices 1 2 3 4 5 6 
#
# 1 125.5527 23.3198 31.5563 0.0000 15.4652 0.0000
# 2 23.3198 53.8441 11.0269 0.0000 16.0117 0.0000
# 3 31.5563 11.0269 106.1220 0.0000 -0.3850 0.0000
# 4 0.0000 0.0000 0.0000 -39.7647 0.0000 20.3270
# 5 15.4652 16.0117 -0.3850 0.0000 69.4393 0.0000
# 6 0.0000 0.0000 0.0000 20.3270 0.0000 27.1153
#
#
#
# Elastic Compliance Matrix: (Units=1/GPa)
#
#
# Indices 1 2 3 4 5 6 
#
# 1 0.009332 -0.003132 -0.002455 0.000000 -0.001370 0.000000
# 2 -0.003132 0.021464 -0.001315 0.000000 -0.004259 0.000000
# 3 -0.002455 -0.001315 0.010293 0.000000 0.000907 0.000000
# 4 0.000000 0.000000 0.000000 -0.018181 0.000000 0.013629
# 5 -0.001370 -0.004259 0.000907 0.000000 0.015693 0.000000
# 6 0.000000 0.000000 0.000000 0.013629 0.000000 0.026662
#
#
# Mechanical properties :
#
#
# Convention : Reuss Voigt Hill
#
# Bulk Modulus (GPa) = 36.64653 46.36941 41.50797
# Shear Modulus (GPa) = 56.71419 25.99902 41.35661
#
# Velocity S-wave (km/s) = 4.74247 3.21098 4.04978
# Velocity P-wave (km/s) = 6.67240 5.66885 6.19099
#
# Compressibility (1/GPa) = 0.02728771
#
# Stress axis : x y z
#
# Youngs Moduli (GPa) = 107.15685 46.58919 97.15456
#
# Poissons Ratio (x) = 0.14590 0.23847
# Poissons Ratio (y) = 0.33558 0.12771
# Poissons Ratio (z) = 0.26302 0.06124
#
# Static dielectric constant tensor:
#      x y z
#    x 2.156470 0.000000 -0.200120 
#    y 0.000000 2.059610 0.000000 
#    z -0.200120 0.000000 2.313480 
# 
# From -- ./inp_files/46927.got.cif
#   From: 2010.05.17/outbox.cif.g08.bks.cpg/sg5_24_cif.got.tgz:46927.got - 2010.06.03 18:56:24.
