data_PCOD9127040
_publ_section_title
;
Structure prediction by ZEFSAII (Michael W. Deem and Ramdas Pophale) SiO2 
 PCOD9127040
Probable space group: C 2
;
_chemical_formula_sum "Si O2"
_cell_formula_units_Z 26
_cell_length_a 20.475799
_cell_length_b 11.450639
_cell_length_c 6.714777
_cell_angle_alpha 90.000000
_cell_angle_beta 129.616924
_cell_angle_gamma 90.000000
_cell_volume 1212.763524
_symmetry_space_group_name_H-M "C 2"
_symmetry_group_IT_number 5
_symmetry_cell_setting 'monoclinic'
loop_
_space_group_symop_operation_xyz
x,y,z
-x,y,-z
1/2+x,1/2+y,z
1/2-x,1/2+y,-z
loop_
_atom_site_type_symbol
_atom_site_label
_atom_site_fract_x
_atom_site_fract_y
_atom_site_fract_z
Si Si1 0.824356 0.064590 0.013601
Si Si2 0.300740 0.710744 0.326023
Si Si3 0.629643 0.128478 0.576947
Si Si4 0.408405 0.751722 0.919525
Si Si5 0.000000 0.698498 0.000000
Si Si6 0.904683 0.392188 0.269035
Si Si7 0.622471 0.297632 0.915992
O O1 0.731071 0.104906 0.750442
O O2 0.894644 0.147176 0.049130
O O3 0.821753 0.094794 0.243106
O O4 0.848450 0.931478 0.027500
O O5 0.344290 0.726011 0.619360
O O6 0.336751 0.815746 0.257730
O O7 0.201251 0.723278 0.151864
O O8 0.613058 0.245969 0.674017
O O9 0.600657 0.022964 0.664006
O O10 0.572208 0.128839 0.266531
O O11 0.500000 0.757061 0.000000
O O12 0.390057 0.869176 0.008066
O O13 0.046344 0.773868 0.919161
O O14 0.000000 0.348341 0.500000
#
# Coordination Sequence:
#
# PCOD9127040 Si02
#       7
#     4   4   4   4   2   4   4
#     4  10  24  44  70  94 139 185 227 284 351 407
#     4  10  22  43  67  97 133 176 227 285 340 409
#     4  11  25  48  69 102 139 187 231 287 348 411
#     4  11  23  41  67 101 132 172 234 283 342 414
#     4  12  26  44  72 102 146 180 238 284 344 430
#     4  11  21  40  67  97 131 173 221 282 346 395
#     4  11  24  47  68 101 139 182 231 284 349 412
#
# _framework density 21.438639999999999
#
# number of rings (size 3 to 8) (size 9 to 14) (size 15 to 20)
#    0.000    1.231    3.077    2.308    1.077    3.692 
#    9.692    0.000    0.000    0.000    0.000    0.000 
#    0.000    0.000    0.000    0.000    0.000    0.000 
#
# Total GULP energy -72626.364991 kJ/mol
# GULP energy per Si atom -5586.643461 kJ/mol
# Density = 2.138984 g / cm^3
# Si number density = 21.438640 Si / 1000 Ang^3
#
#
#
# Elastic Constant Matrix: (Units=GPa)
#
#
# Indices 1 2 3 4 5 6 
#
# 1 110.7897 39.8699 9.0480 0.0000 -5.8369 0.0000
# 2 39.8699 92.7345 22.9259 0.0000 -18.7459 0.0000
# 3 9.0480 22.9259 129.2856 0.0000 -6.6647 0.0000
# 4 0.0000 0.0000 0.0000 -1.7859 0.0000 -13.5331
# 5 -5.8369 -18.7459 -6.6647 0.0000 23.3359 0.0000
# 6 0.0000 0.0000 0.0000 -13.5331 0.0000 24.8591
#
#
#
# Elastic Compliance Matrix: (Units=1/GPa)
#
#
# Indices 1 2 3 4 5 6 
#
# 1 0.010707 -0.004861 0.000050 0.000000 -0.001212 0.000000
# 2 -0.004861 0.015496 -0.001856 0.000000 0.010702 0.000000
# 3 0.000050 -0.001856 0.008104 0.000000 0.000836 0.000000
# 4 0.000000 0.000000 0.000000 -0.109252 0.000000 -0.059476
# 5 -0.001212 0.010702 0.000836 0.000000 0.051385 0.000000
# 6 0.000000 0.000000 0.000000 -0.059476 0.000000 0.007849
#
#
# Mechanical properties :
#
#
# Convention : Reuss Voigt Hill
#
# Bulk Modulus (GPa) = 47.68044 52.94416 50.31230
# Shear Modulus (GPa) = 1084.01259 26.67956 555.34607
#
# Velocity S-wave (km/s) = 22.51072 3.53152 16.11217
# Velocity P-wave (km/s) = 26.41841 6.43258 19.22642
#
# Compressibility (1/GPa) = 0.02097296
#
# Stress axis : x y z
#
# Youngs Moduli (GPa) = 93.39274 64.53473 123.40340
#
# Poissons Ratio (x) = 0.31370 -0.00619
# Poissons Ratio (y) = 0.45398 0.22902
# Poissons Ratio (z) = -0.00468 0.11977
#
# Static dielectric constant tensor:
#      x y z
#    x 1.847440 0.000000 0.004770 
#    y 0.000000 1.775620 0.000000 
#    z 0.004770 0.000000 1.824840 
# 
# From -- ./inp_files/9624.got.cif
#   From: 2010.05.17/outbox.cif.g08.bks.cpg/sg5_5_cif.got.tgz:9624.got - 2010.06.03 18:56:24.
