data_PCOD9127568
_publ_section_title
;
Structure prediction by ZEFSAII (Michael W. Deem and Ramdas Pophale) SiO2 
 PCOD9127568
Probable space group: C 2
;
_chemical_formula_sum "Si O2"
_cell_formula_units_Z 26
_cell_length_a 15.483814
_cell_length_b 15.125864
_cell_length_c 8.667884
_cell_angle_alpha 90.000000
_cell_angle_beta 35.401976
_cell_angle_gamma 90.000000
_cell_volume 1176.038978
_symmetry_space_group_name_H-M "C 2"
_symmetry_group_IT_number 5
_symmetry_cell_setting 'monoclinic'
loop_
_space_group_symop_operation_xyz
x,y,z
-x,y,-z
1/2+x,1/2+y,z
1/2-x,1/2+y,-z
loop_
_atom_site_type_symbol
_atom_site_label
_atom_site_fract_x
_atom_site_fract_y
_atom_site_fract_z
Si Si1 0.424017 0.100220 0.384426
Si Si2 0.574590 0.405230 0.165256
Si Si3 0.648704 0.954208 0.077872
Si Si4 0.000000 0.695232 0.000000
Si Si5 0.760051 0.315272 0.631140
Si Si6 0.736382 0.964061 0.596695
Si Si7 0.000000 0.744144 0.500000
Si Si8 0.500000 0.805394 0.500000
O O1 0.394597 0.175955 0.555566
O O2 0.521661 0.022005 0.311073
O O3 0.301563 0.050937 0.452620
O O4 0.540342 0.141483 0.091449
O O5 0.412828 0.445567 0.365334
O O6 0.562015 0.314436 0.284115
O O7 0.685610 0.469686 0.095967
O O8 0.660211 0.378750 0.885266
O O9 0.595378 0.864408 0.239806
O O10 0.663805 0.958536 0.871366
O O11 0.139736 0.750107 0.737005
O O12 0.826026 0.380243 0.408602
O O13 0.877733 0.263637 0.565847
#
# Coordination Sequence:
#
# PCOD9127568 Si02
#       8
#     4   4   4   2   4   4   2   2
#     4  12  25  39  66  98 137 165 222 279 347 380
#     4  11  23  42  70  93 129 177 235 259 329 410
#     4  11  22  41  64  99 127 178 222 273 327 411
#     4  12  22  42  62  96 128 178 210 282 334 392
#     4  11  22  40  65  94 129 172 229 269 322 401
#     4  12  21  40  67 100 129 174 224 277 322 406
#     4  12  23  44  66  99 130 184 216 280 335 404
#     4  10  23  38  62  93 126 168 222 270 313 386
#
# _framework density 22.108111000000001
#
# number of rings (size 3 to 8) (size 9 to 14) (size 15 to 20)
#    0.000    0.615    7.692    0.462    2.154    0.000 
#    0.000    1.538    0.000    1.846    0.000    0.000 
#    0.000    0.000    0.000    0.000    0.000    0.000 
#
# Total GULP energy -72424.305845 kJ/mol
# GULP energy per Si atom -5571.100450 kJ/mol
# Density = 2.205779 g / cm^3
# Si number density = 22.108111 Si / 1000 Ang^3
#
#
#
# Elastic Constant Matrix: (Units=GPa)
#
#
# Indices 1 2 3 4 5 6 
#
# 1 143.9507 28.7201 46.2792 0.0000 -1.0436 0.0000
# 2 28.7201 41.2960 9.9620 0.0000 2.0338 0.0000
# 3 46.2792 9.9620 72.6111 0.0000 6.0455 0.0000
# 4 0.0000 0.0000 0.0000 21.1956 0.0000 9.6374
# 5 -1.0436 2.0338 6.0455 0.0000 48.7171 0.0000
# 6 0.0000 0.0000 0.0000 9.6374 0.0000 31.7046
#
#
#
# Elastic Compliance Matrix: (Units=1/GPa)
#
#
# Indices 1 2 3 4 5 6 
#
# 1 0.009874 -0.005566 -0.005625 0.000000 0.001142 0.000000
# 2 -0.005566 0.028201 -0.000216 0.000000 -0.001270 0.000000
# 3 -0.005625 -0.000216 0.017577 0.000000 -0.002293 0.000000
# 4 0.000000 0.000000 0.000000 0.054746 0.000000 -0.016641
# 5 0.001142 -0.001270 -0.002293 0.000000 0.020889 0.000000
# 6 0.000000 0.000000 0.000000 -0.016641 0.000000 0.036600
#
#
# Mechanical properties :
#
#
# Convention : Reuss Voigt Hill
#
# Bulk Modulus (GPa) = 30.45132 47.53115 38.99123
# Shear Modulus (GPa) = 24.79582 31.84989 28.32286
#
# Velocity S-wave (km/s) = 3.35262 3.79970 3.58314
# Velocity P-wave (km/s) = 5.36568 6.38720 5.89859
#
# Compressibility (1/GPa) = 0.03283930
#
# Stress axis : x y z
#
# Youngs Moduli (GPa) = 101.27665 35.45941 56.89139
#
# Poissons Ratio (x) = 0.19738 0.31999
# Poissons Ratio (y) = 0.56375 0.01227
# Poissons Ratio (z) = 0.56964 0.00765
#
# Static dielectric constant tensor:
#      x y z
#    x 1.909580 0.000000 -0.025320 
#    y 0.000000 1.879480 0.000000 
#    z -0.025320 0.000000 1.806650 
# 
# From -- ./inp_files/20296.got.cif
#   From: 2010.05.17/outbox.cif.g08.bks.cpg/sg5_11_cif.got.tgz:20296.got - 2010.06.03 18:56:24.
