data_PCOD9127966
_publ_section_title
;
Structure prediction by ZEFSAII (Michael W. Deem and Ramdas Pophale) SiO2 
 PCOD9127966
Probable space group: C 2
;
_chemical_formula_sum "Si O2"
_cell_formula_units_Z 28
_cell_length_a 13.730141
_cell_length_b 9.437350
_cell_length_c 11.551345
_cell_angle_alpha 90.000000
_cell_angle_beta 62.251070
_cell_angle_gamma 90.000000
_cell_volume 1324.643721
_symmetry_space_group_name_H-M "C 2"
_symmetry_group_IT_number 5
_symmetry_cell_setting 'monoclinic'
loop_
_space_group_symop_operation_xyz
x,y,z
-x,y,-z
1/2+x,1/2+y,z
1/2-x,1/2+y,-z
loop_
_atom_site_type_symbol
_atom_site_label
_atom_site_fract_x
_atom_site_fract_y
_atom_site_fract_z
Si Si1 0.012184 0.283380 0.624143
Si Si2 0.626647 0.893895 0.914084
Si Si3 0.264962 0.878753 0.372009
Si Si4 0.836290 0.464591 0.850957
Si Si5 0.388295 0.553522 0.125081
Si Si6 0.074238 0.708316 0.355119
Si Si7 0.569222 0.480898 0.632876
O O1 0.131864 0.321848 0.610990
O O2 0.000000 0.336046 0.500000
O O3 0.917921 0.343544 0.759642
O O4 0.001539 0.114992 0.626934
O O5 0.681996 0.956477 0.768360
O O6 0.627160 0.722260 0.894597
O O7 0.500000 0.935304 0.000000
O O8 0.680416 0.944238 0.003283
O O9 0.185145 0.760904 0.357848
O O10 0.182261 0.965754 0.498440
O O11 0.716754 0.468821 0.861064
O O12 0.895477 0.605389 0.766904
O O13 0.403082 0.518220 0.250965
O O14 0.500000 0.510515 0.000000
O O15 0.000000 0.644771 0.500000
O O16 0.004141 0.841512 0.346833
#
# Coordination Sequence:
#
# PCOD9127966 Si02
#       7
#     4   4   4   4   4   4   4
#     4  12  23  41  70 109 137 181 241 284 349 417
#     4  11  22  46  68 100 139 189 225 285 352 414
#     4  11  22  44  70 100 146 185 228 287 354 406
#     4  12  24  43  72 101 135 187 234 286 352 419
#     4  11  24  45  72  97 141 183 232 289 356 409
#     4  10  23  44  71 102 140 184 232 292 351 413
#     4  11  24  46  72 103 141 186 232 293 353 411
#
# _framework density 21.137758999999999
#
# number of rings (size 3 to 8) (size 9 to 14) (size 15 to 20)
#    0.000    0.857    4.286    3.429    2.000    2.286 
#    2.571    3.571    0.000    0.000    0.000    0.000 
#    0.000    0.000    0.000    0.000    0.000    0.000 
#
# Total GULP energy -78234.466470 kJ/mol
# GULP energy per Si atom -5588.176176 kJ/mol
# Density = 2.108965 g / cm^3
# Si number density = 21.137759 Si / 1000 Ang^3
#
#
#
# Elastic Constant Matrix: (Units=GPa)
#
#
# Indices 1 2 3 4 5 6 
#
# 1 128.5228 35.5735 61.9037 0.0000 8.0391 0.0000
# 2 35.5735 94.6406 50.8192 0.0000 2.1440 0.0000
# 3 61.9037 50.8192 184.8801 0.0000 6.9974 0.0000
# 4 0.0000 0.0000 0.0000 41.1725 0.0000 -12.1485
# 5 8.0391 2.1440 6.9974 0.0000 59.3392 0.0000
# 6 0.0000 0.0000 0.0000 -12.1485 0.0000 60.0896
#
#
#
# Elastic Compliance Matrix: (Units=1/GPa)
#
#
# Indices 1 2 3 4 5 6 
#
# 1 0.009710 -0.002231 -0.002603 0.000000 -0.000928 0.000000
# 2 -0.002231 0.012909 -0.002808 0.000000 0.000167 0.000000
# 3 -0.002603 -0.002808 0.007066 0.000000 -0.000379 0.000000
# 4 0.000000 0.000000 0.000000 0.025829 0.000000 0.005222
# 5 -0.000928 0.000167 -0.000379 0.000000 0.017017 0.000000
# 6 0.000000 0.000000 0.000000 0.005222 0.000000 0.017698
#
#
# Mechanical properties :
#
#
# Convention : Reuss Voigt Hill
#
# Bulk Modulus (GPa) = 69.43391 78.29292 73.86341
# Shear Modulus (GPa) = 45.32601 49.43674 47.38138
#
# Velocity S-wave (km/s) = 4.63570 4.84135 4.73964
# Velocity P-wave (km/s) = 7.84682 8.26869 8.06052
#
# Compressibility (1/GPa) = 0.01440219
#
# Stress axis : x y z
#
# Youngs Moduli (GPa) = 102.98700 77.46699 141.51286
#
# Poissons Ratio (x) = 0.17284 0.36833
# Poissons Ratio (y) = 0.22978 0.39731
# Poissons Ratio (z) = 0.26805 0.21749
#
# Static dielectric constant tensor:
#      x y z
#    x 1.684140 0.000000 -0.113550 
#    y 0.000000 1.782530 0.000000 
#    z -0.113550 0.000000 1.598110 
# 
# From -- ./inp_files/41863.got.cif
#   From: 2010.05.17/outbox.cif.g08.bks.cpg/sg5_21_cif.got.tgz:41863.got - 2010.06.03 18:56:24.
