data_PCOD9127683
_publ_section_title
;
Structure prediction by ZEFSAII (Michael W. Deem and Ramdas Pophale) SiO2 
 PCOD9127683
Probable space group: C 2
;
_chemical_formula_sum "Si O2"
_cell_formula_units_Z 24
_cell_length_a 25.471519
_cell_length_b 6.991344
_cell_length_c 7.115433
_cell_angle_alpha 90.000000
_cell_angle_beta 63.991097
_cell_angle_gamma 90.000000
_cell_volume 1138.791237
_symmetry_space_group_name_H-M "C 2"
_symmetry_group_IT_number 5
_symmetry_cell_setting 'monoclinic'
loop_
_space_group_symop_operation_xyz
x,y,z
-x,y,-z
1/2+x,1/2+y,z
1/2-x,1/2+y,-z
loop_
_atom_site_type_symbol
_atom_site_label
_atom_site_fract_x
_atom_site_fract_y
_atom_site_fract_z
Si Si1 0.000000 0.402460 0.000000
Si Si2 0.927402 0.216833 0.424861
Si Si3 0.500000 0.396248 0.500000
Si Si4 0.299847 0.952595 0.991616
Si Si5 0.244718 0.630323 0.286660
Si Si6 0.070492 0.545412 0.248380
Si Si7 0.198040 0.022528 0.412179
O O1 0.947646 0.292933 0.190060
O O2 0.030255 0.505748 0.129910
O O3 0.933359 0.380810 0.580204
O O4 0.861998 0.132459 0.525055
O O5 0.971248 0.041745 0.398261
O O6 0.550245 0.250717 0.355023
O O7 0.283012 0.970916 0.800748
O O8 0.362761 0.041521 0.919766
O O9 0.249511 0.064602 0.183128
O O10 0.294475 0.744160 0.091574
O O11 0.273676 0.562312 0.430648
O O12 0.194590 0.790850 0.399766
#
# Coordination Sequence:
#
# PCOD9127683 Si02
#       7
#     2   4   2   4   4   4   4
#     4  12  24  48  70 104 132 204 228 278 368 404
#     4  12  25  50  70 101 150 184 236 297 352 417
#     4  12  24  50  68 104 136 186 238 298 340 406
#     4  10  24  43  70 101 132 189 220 287 362 410
#     4  10  23  41  66 105 138 171 234 274 363 413
#     4  12  25  48  74  98 148 183 240 299 349 420
#     4  10  25  43  69 103 136 178 229 292 345 421
#
# _framework density 21.074977000000001
#
# number of rings (size 3 to 8) (size 9 to 14) (size 15 to 20)
#    1.000    0.000    3.333    3.000    4.667    0.667 
#    6.000    0.000    0.000    0.000    0.000    0.000 
#    0.000    0.000    0.000    0.000    0.000    0.000 
#
# Total GULP energy -66915.395197 kJ/mol
# GULP energy per Si atom -5576.282933 kJ/mol
# Density = 2.102701 g / cm^3
# Si number density = 21.074977 Si / 1000 Ang^3
#
#
#
# Elastic Constant Matrix: (Units=GPa)
#
#
# Indices 1 2 3 4 5 6 
#
# 1 60.7722 -16.0063 8.4271 0.0000 2.2215 0.0000
# 2 -16.0063 74.1130 21.3749 0.0000 10.9106 0.0000
# 3 8.4271 21.3749 81.8930 0.0000 15.2257 0.0000
# 4 0.0000 0.0000 0.0000 -4.5897 0.0000 9.4282
# 5 2.2215 10.9106 15.2257 0.0000 45.4741 0.0000
# 6 0.0000 0.0000 0.0000 9.4282 0.0000 21.5712
#
#
#
# Elastic Compliance Matrix: (Units=1/GPa)
#
#
# Indices 1 2 3 4 5 6 
#
# 1 0.018208 0.004947 -0.002963 0.000000 -0.001084 0.000000
# 2 0.004947 0.016179 -0.004229 0.000000 -0.002708 0.000000
# 3 -0.002963 -0.004229 0.014294 0.000000 -0.003627 0.000000
# 4 0.000000 0.000000 0.000000 -0.114804 0.000000 0.050178
# 5 -0.001084 -0.002708 -0.003627 0.000000 0.023907 0.000000
# 6 0.000000 0.000000 0.000000 0.050178 0.000000 0.024427
#
#
# Mechanical properties :
#
#
# Convention : Reuss Voigt Hill
#
# Bulk Modulus (GPa) = 22.62878 27.15215 24.89047
# Shear Modulus (GPa) = 3490.69540 26.02330 1758.35935
#
# Velocity S-wave (km/s) = 40.74209 3.51778 28.91620
# Velocity P-wave (km/s) = 47.15914 5.42321 33.56632
#
# Compressibility (1/GPa) = 0.04419150
#
# Stress axis : x y z
#
# Youngs Moduli (GPa) = 54.91993 61.80676 69.95962
#
# Poissons Ratio (x) = -0.30574 0.20731
# Poissons Ratio (y) = -0.27167 0.29583
# Poissons Ratio (z) = 0.16274 0.26136
#
# Static dielectric constant tensor:
#      x y z
#    x 1.730260 0.000000 -0.027810 
#    y 0.000000 1.794930 0.000000 
#    z -0.027810 0.000000 1.768330 
# 
# From -- ./inp_files/10709.got.cif
#   From: 2010.05.17/outbox.cif.g08.bks.cpg/sg5_6_cif.got.tgz:10709.got - 2010.06.03 18:56:24.
