data_PCOD9127303
_publ_section_title
;
Structure prediction by ZEFSAII (Michael W. Deem and Ramdas Pophale) SiO2 
 PCOD9127303
Probable space group: C 2
;
_chemical_formula_sum "Si O2"
_cell_formula_units_Z 22
_cell_length_a 10.846269
_cell_length_b 13.955140
_cell_length_c 11.164789
_cell_angle_alpha 90.000000
_cell_angle_beta 145.457013
_cell_angle_gamma 90.000000
_cell_volume 958.223526
_symmetry_space_group_name_H-M "C 2"
_symmetry_group_IT_number 5
_symmetry_cell_setting 'monoclinic'
loop_
_space_group_symop_operation_xyz
x,y,z
-x,y,-z
1/2+x,1/2+y,z
1/2-x,1/2+y,-z
loop_
_atom_site_type_symbol
_atom_site_label
_atom_site_fract_x
_atom_site_fract_y
_atom_site_fract_z
Si Si1 0.901427 0.252000 0.168218
Si Si2 0.739272 0.369791 0.405566
Si Si3 0.219379 0.092201 0.440354
Si Si4 0.500000 0.531046 0.500000
Si Si5 0.000000 0.776386 0.000000
Si Si6 0.806002 0.859225 0.208243
Si Si7 0.000000 0.707082 0.500000
O O1 0.673199 0.225332 0.051146
O O2 0.059762 0.307248 0.387822
O O3 0.018431 0.153104 0.224335
O O4 0.855679 0.329700 0.026447
O O5 0.758929 0.483846 0.430551
O O6 0.652521 0.340008 0.207084
O O7 0.541599 0.348047 0.336504
O O8 0.430596 0.146191 0.559661
O O9 0.146560 0.088158 0.521650
O O10 0.330801 0.462179 0.291330
O O11 0.804092 0.776656 0.305427
#
# Coordination Sequence:
#
# PCOD9127303 Si02
#       7
#     4   4   4   2   2   4   2
#     4  11  23  43  72 105 142 192 239 299 358 429
#     4  10  22  45  65 104 142 190 229 301 357 432
#     4  11  25  42  74 102 144 183 243 298 353 426
#     4   9  22  46  67 100 144 188 235 292 355 430
#     4  10  24  40  74  96 146 186 236 292 376 414
#     4   9  21  45  68  92 142 191 237 285 360 428
#     4  11  22  42  67 104 136 184 247 290 351 426
#
# _framework density 22.959153000000001
#
# number of rings (size 3 to 8) (size 9 to 14) (size 15 to 20)
#    0.000    1.818    1.818    0.545    5.091    2.182 
#    6.545    0.000    0.000    0.000    0.000    0.000 
#    0.000    0.000    0.000    0.000    0.000    0.000 
#
# Total GULP energy -61351.633891 kJ/mol
# GULP energy per Si atom -5577.421263 kJ/mol
# Density = 2.290690 g / cm^3
# Si number density = 22.959153 Si / 1000 Ang^3
#
#
#
# Elastic Constant Matrix: (Units=GPa)
#
#
# Indices 1 2 3 4 5 6 
#
# 1 104.8037 17.6240 16.3877 0.0000 3.8699 0.0000
# 2 17.6240 99.0298 20.8467 0.0000 4.9441 0.0000
# 3 16.3877 20.8467 107.9325 0.0000 -12.7182 0.0000
# 4 0.0000 0.0000 0.0000 16.5207 0.0000 -7.4815
# 5 3.8699 4.9441 -12.7182 0.0000 48.2314 0.0000
# 6 0.0000 0.0000 0.0000 -7.4815 0.0000 40.1785
#
#
#
# Elastic Compliance Matrix: (Units=1/GPa)
#
#
# Indices 1 2 3 4 5 6 
#
# 1 0.010036 -0.001448 -0.001364 0.000000 -0.001016 0.000000
# 2 -0.001448 0.010866 -0.002060 0.000000 -0.001541 0.000000
# 3 -0.001364 -0.002060 0.010226 0.000000 0.003017 0.000000
# 4 0.000000 0.000000 0.000000 0.066105 0.000000 0.012309
# 5 -0.001016 -0.001541 0.003017 0.000000 0.021768 0.000000
# 6 0.000000 0.000000 0.000000 0.012309 0.000000 0.027181
#
#
# Mechanical properties :
#
#
# Convention : Reuss Voigt Hill
#
# Bulk Modulus (GPa) = 46.76643 46.83143 46.79893
# Shear Modulus (GPa) = 30.66456 38.11329 34.38893
#
# Velocity S-wave (km/s) = 3.65857 4.07879 3.87438
# Velocity P-wave (km/s) = 6.18550 6.52871 6.35942
#
# Compressibility (1/GPa) = 0.02138286
#
# Stress axis : x y z
#
# Youngs Moduli (GPa) = 99.64155 92.02686 97.79368
#
# Poissons Ratio (x) = 0.13328 0.13337
# Poissons Ratio (y) = 0.14430 0.20150
# Poissons Ratio (z) = 0.13590 0.18962
#
# Static dielectric constant tensor:
#      x y z
#    x 1.938690 0.000000 -0.027570 
#    y 0.000000 1.886070 0.000000 
#    z -0.027570 0.000000 1.873300 
# 
# From -- ./inp_files/4856.got.cif
#   From: 2010.05.17/outbox.cif.g08.bks.cpg/sg5_3_cif.got.tgz:4856.got - 2010.06.03 18:56:24.
