data_PCOD9127531
_publ_section_title
;
Structure prediction by ZEFSAII (Michael W. Deem and Ramdas Pophale) SiO2 
 PCOD9127531
Probable space group: C 2
;
_chemical_formula_sum "Si O2"
_cell_formula_units_Z 18
_cell_length_a 6.902317
_cell_length_b 12.417884
_cell_length_c 9.812166
_cell_angle_alpha 90.000000
_cell_angle_beta 49.389096
_cell_angle_gamma 90.000000
_cell_volume 638.459746
_symmetry_space_group_name_H-M "C 2"
_symmetry_group_IT_number 5
_symmetry_cell_setting 'monoclinic'
loop_
_space_group_symop_operation_xyz
x,y,z
-x,y,-z
1/2+x,1/2+y,z
1/2-x,1/2+y,-z
loop_
_atom_site_type_symbol
_atom_site_label
_atom_site_fract_x
_atom_site_fract_y
_atom_site_fract_z
Si Si1 0.384736 0.891590 0.754591
Si Si2 0.766178 0.703576 0.794391
Si Si3 0.150270 0.934898 0.153572
Si Si4 0.713468 0.166108 0.793188
Si Si5 0.000000 0.547709 0.500000
O O1 0.125069 0.921029 0.790349
O O2 0.412212 0.764668 0.713204
O O3 0.582089 0.966796 0.584826
O O4 0.330147 0.922417 0.936085
O O5 0.798963 0.831919 0.773057
O O6 0.031077 0.668069 0.746349
O O7 0.787194 0.629120 0.654016
O O8 0.500000 0.681887 0.000000
O O9 0.197349 0.048060 0.204826
O O10 0.500000 0.202572 0.000000
#
# Coordination Sequence:
#
# PCOD9127531 Si02
#       5
#     4   4   4   4   2
#     4  10  23  45  74 116 156 196 253 315 381 453
#     4  11  26  50  77 112 155 203 255 321 383 454
#     4  10  22  48  83 109 153 209 253 311 387 460
#     4  11  21  45  78 114 147 205 261 303 389 461
#     4  12  28  46  74 110 158 206 254 318 388 446
#
# _framework density 28.19285
#
# number of rings (size 3 to 8) (size 9 to 14) (size 15 to 20)
#    0.000    1.333    4.444    2.000    6.222    0.000 
#   24.000    0.000    4.889    0.000    0.000    0.000 
#    0.000    0.000    0.000    0.000    0.000    0.000 
#
# Total GULP energy -50394.718544 kJ/mol
# GULP energy per Si atom -5599.413172 kJ/mol
# Density = 2.812868 g / cm^3
# Si number density = 28.192850 Si / 1000 Ang^3
#
#
#
# Elastic Constant Matrix: (Units=GPa)
#
#
# Indices 1 2 3 4 5 6 
#
# 1 100.3304 103.6250 7.0050 -0.0013 -9.9333 0.0020
# 2 103.6250 346.7077 96.8668 0.0004 11.7118 0.0001
# 3 7.0050 96.8668 115.1866 -0.0011 10.1016 0.0025
# 4 -0.0013 0.0004 -0.0011 74.8222 0.0015 27.6938
# 5 -9.9333 11.7118 10.1016 0.0015 17.4139 -0.0015
# 6 0.0020 0.0001 0.0025 27.6938 -0.0015 78.1460
#
#
#
# Elastic Compliance Matrix: (Units=1/GPa)
#
#
# Indices 1 2 3 4 5 6 
#
# 1 0.018004 -0.006789 0.003491 0.000000 0.012811 0.000000
# 2 -0.006789 0.006339 -0.004430 0.000000 -0.005566 0.000000
# 3 0.003491 -0.004430 0.012389 0.000001 -0.002216 -0.000001
# 4 0.000000 0.000000 0.000001 0.015383 -0.000002 -0.005451
# 5 0.012811 -0.005566 -0.002216 -0.000002 0.069762 0.000002
# 6 0.000000 0.000000 -0.000001 -0.005451 0.000002 0.014728
#
#
# Mechanical properties :
#
#
# Convention : Reuss Voigt Hill
#
# Bulk Modulus (GPa) = 47.00192 108.57981 77.79087
# Shear Modulus (GPa) = 31.41632 57.72495 44.57064
#
# Velocity S-wave (km/s) = 3.34179 4.52984 3.98039
# Velocity P-wave (km/s) = 5.62120 8.12134 6.98405
#
# Compressibility (1/GPa) = 0.02127573
#
# Stress axis : x y z
#
# Youngs Moduli (GPa) = 55.54424 157.75094 80.71718
#
# Poissons Ratio (x) = 1.07098 -0.28178
# Poissons Ratio (y) = 0.37709 0.35757
# Poissons Ratio (z) = -0.19390 0.69882
#
# Static dielectric constant tensor:
#      x y z
#    x 2.310520 0.000000 -0.005140 
#    y 0.000000 2.181560 0.000000 
#    z -0.005140 0.000000 2.283760 
# 
# From -- ./inp_files/27156.got.cif
#   From: 2010.05.17/outbox.cif.g08.bks.cpg/sg5_14_cif.got.tgz:27156.got - 2010.06.03 18:56:24.
