data_PCOD9127009
_publ_section_title
;
Structure prediction by ZEFSAII (Michael W. Deem and Ramdas Pophale) SiO2 
 PCOD9127009
Probable space group: C 2
;
_chemical_formula_sum "Si O2"
_cell_formula_units_Z 26
_cell_length_a 8.869545
_cell_length_b 19.927697
_cell_length_c 9.880948
_cell_angle_alpha 90.000000
_cell_angle_beta 137.279755
_cell_angle_gamma 90.000000
_cell_volume 1184.827875
_symmetry_space_group_name_H-M "C 2"
_symmetry_group_IT_number 5
_symmetry_cell_setting 'monoclinic'
loop_
_space_group_symop_operation_xyz
x,y,z
-x,y,-z
1/2+x,1/2+y,z
1/2-x,1/2+y,-z
loop_
_atom_site_type_symbol
_atom_site_label
_atom_site_fract_x
_atom_site_fract_y
_atom_site_fract_z
Si Si1 0.178472 0.797800 0.875471
Si Si2 0.764176 0.191915 0.704099
Si Si3 0.500000 0.917940 0.000000
Si Si4 0.346766 0.797842 0.531505
Si Si5 0.757403 0.968944 0.696154
Si Si6 0.500000 0.576965 0.000000
Si Si7 0.000000 0.848137 0.000000
Si Si8 0.268268 0.437210 0.417491
O O1 0.262432 0.736564 0.840451
O O2 0.303987 0.865805 0.913059
O O3 0.176409 0.802719 0.036475
O O4 0.915231 0.794884 0.676830
O O5 0.500000 0.175749 0.500000
O O6 0.863866 0.238809 0.653000
O O7 0.922848 0.128103 0.831663
O O8 0.400518 0.961119 0.810861
O O9 0.500000 0.791812 0.500000
O O10 0.355491 0.870206 0.610421
O O11 0.500000 0.962882 0.500000
O O12 0.834879 0.981965 0.591918
O O13 0.870570 0.900361 0.818508
O O14 0.804120 0.022461 0.845618
O O15 0.500000 0.418468 0.500000
#
# Coordination Sequence:
#
# PCOD9127009 Si02
#       8
#     4   4   2   4   4   2   2   4
#     4  11  22  35  61 100 139 176 219 279 354 411
#     4  10  22  43  65  93 134 185 234 281 339 410
#     4  12  21  34  61  92 141 181 216 262 358 426
#     4  11  22  38  63 101 144 177 217 291 360 409
#     4  11  24  42  67  96 138 182 233 287 333 412
#     4  11  25  46  70  92 130 196 246 268 332 417
#     4  11  22  36  61 108 141 171 216 288 364 419
#     4  12  22  41  63 102 141 179 219 287 363 417
#
# _framework density 21.944115
#
# number of rings (size 3 to 8) (size 9 to 14) (size 15 to 20)
#    0.000    0.923    4.615    2.769    2.154    1.231 
#    0.000    0.769    0.000    5.538    0.000    0.000 
#    0.000    0.000    0.000    0.000    0.000    0.000 
#
# Total GULP energy -72403.946233 kJ/mol
# GULP energy per Si atom -5569.534326 kJ/mol
# Density = 2.189417 g / cm^3
# Si number density = 21.944115 Si / 1000 Ang^3
#
#
#
# Elastic Constant Matrix: (Units=GPa)
#
#
# Indices 1 2 3 4 5 6 
#
# 1 148.4283 22.9572 42.1832 0.0000 -2.0977 0.0000
# 2 22.9572 68.2855 34.9421 0.0000 -1.2194 0.0000
# 3 42.1832 34.9421 147.7884 0.0000 5.6538 0.0000
# 4 0.0000 0.0000 0.0000 31.9937 0.0000 -12.9760
# 5 -2.0977 -1.2194 5.6538 0.0000 37.8026 0.0000
# 6 0.0000 0.0000 0.0000 -12.9760 0.0000 -2.3595
#
#
#
# Elastic Compliance Matrix: (Units=1/GPa)
#
#
# Indices 1 2 3 4 5 6 
#
# 1 0.007501 -0.001596 -0.001788 0.000000 0.000632 0.000000
# 2 -0.001596 0.017048 -0.003614 0.000000 0.001002 0.000000
# 3 -0.001788 -0.003614 0.008186 0.000000 -0.001440 0.000000
# 4 0.000000 0.000000 0.000000 0.009675 0.000000 -0.053210
# 5 0.000632 0.001002 -0.001440 0.000000 0.026736 0.000000
# 6 0.000000 0.000000 0.000000 -0.053210 0.000000 -0.131195
#
#
# Mechanical properties :
#
#
# Convention : Reuss Voigt Hill
#
# Bulk Modulus (GPa) = 53.35938 62.74081 58.05010
# Shear Modulus (GPa) = -119.59757 31.11535 -44.24111
#
# Velocity S-wave (km/s) = -7.39049 3.76963 -4.49495
# Velocity P-wave (km/s) = 6.96110 6.89928 0.65452
#
# Compressibility (1/GPa) = 0.01874085
#
# Stress axis : x y z
#
# Youngs Moduli (GPa) = 133.31325 58.65858 122.15641
#
# Poissons Ratio (x) = 0.09360 0.21841
# Poissons Ratio (y) = 0.21272 0.44142
# Poissons Ratio (z) = 0.23836 0.21197
#
# Static dielectric constant tensor:
#      x y z
#    x 1.949830 0.000000 -0.065800 
#    y 0.000000 1.781380 0.000000 
#    z -0.065800 0.000000 2.054840 
# 
# From -- ./inp_files/17110.got.cif
#   From: 2010.05.17/outbox.cif.g08.bks.cpg/sg5_9_cif.got.tgz:17110.got - 2010.06.03 18:56:24.
