data_PCOD9127926
_publ_section_title
;
Structure prediction by ZEFSAII (Michael W. Deem and Ramdas Pophale) SiO2 
 PCOD9127926
Probable space group: C 2
;
_chemical_formula_sum "Si O2"
_cell_formula_units_Z 26
_cell_length_a 18.557610
_cell_length_b 8.962209
_cell_length_c 8.418019
_cell_angle_alpha 90.000000
_cell_angle_beta 123.182215
_cell_angle_gamma 90.000000
_cell_volume 1171.759137
_symmetry_space_group_name_H-M "C 2"
_symmetry_group_IT_number 5
_symmetry_cell_setting 'monoclinic'
loop_
_space_group_symop_operation_xyz
x,y,z
-x,y,-z
1/2+x,1/2+y,z
1/2-x,1/2+y,-z
loop_
_atom_site_type_symbol
_atom_site_label
_atom_site_fract_x
_atom_site_fract_y
_atom_site_fract_z
Si Si1 0.852571 0.536310 0.011820
Si Si2 0.708714 0.717813 0.990642
Si Si3 0.186536 0.540152 0.407436
Si Si4 0.180018 0.236071 0.309993
Si Si5 0.543154 0.511209 0.720625
Si Si6 0.000000 0.150321 0.000000
Si Si7 0.014201 0.665015 0.338527
O O1 0.795980 0.672453 0.010322
O O2 0.952759 0.568845 0.152053
O O3 0.827178 0.385299 0.076346
O O4 0.829097 0.530782 0.799207
O O5 0.732216 0.724587 0.206962
O O6 0.637753 0.590747 0.854019
O O7 0.184397 0.365945 0.445181
O O8 0.282869 0.594017 0.556004
O O9 0.112207 0.640417 0.398062
O O10 0.085828 0.242508 0.121678
O O11 0.500000 0.560546 0.500000
O O12 0.524854 0.333061 0.704502
O O13 0.501328 0.562036 0.836747
O O14 0.000000 0.607218 0.500000
#
# Coordination Sequence:
#
# PCOD9127926 Si02
#       7
#     4   4   4   4   4   2   4
#     4  11  24  42  68  97 139 180 232 284 350 417
#     4  10  23  44  66  97 136 182 225 288 345 415
#     4  11  26  41  71  99 136 178 236 285 351 413
#     4  10  25  45  66  99 137 180 230 289 347 414
#     4  10  24  42  69  99 135 177 236 282 348 413
#     4  10  24  44  72  96 144 180 228 292 350 410
#     4  11  25  43  66  99 140 179 230 289 348 420
#
# _framework density 22.188859000000001
#
# number of rings (size 3 to 8) (size 9 to 14) (size 15 to 20)
#    0.000    1.538    0.000    2.308   12.923    6.769 
#    0.000    0.000    0.000    0.000    0.000    0.000 
#    0.000    0.000    0.000    0.000    0.000    0.000 
#
# Total GULP energy -72393.029819 kJ/mol
# GULP energy per Si atom -5568.694601 kJ/mol
# Density = 2.213836 g / cm^3
# Si number density = 22.188859 Si / 1000 Ang^3
#
#
#
# Elastic Constant Matrix: (Units=GPa)
#
#
# Indices 1 2 3 4 5 6 
#
# 1 78.7571 10.3653 18.7161 0.0000 4.3900 0.0000
# 2 10.3653 71.6458 36.0874 0.0000 10.0782 0.0000
# 3 18.7161 36.0874 90.4676 0.0000 7.0282 0.0000
# 4 0.0000 0.0000 0.0000 22.7458 0.0000 -10.4076
# 5 4.3900 10.0782 7.0282 0.0000 35.7241 0.0000
# 6 0.0000 0.0000 0.0000 -10.4076 0.0000 6.2435
#
#
#
# Elastic Compliance Matrix: (Units=1/GPa)
#
#
# Indices 1 2 3 4 5 6 
#
# 1 0.013415 -0.000552 -0.002477 0.000000 -0.001006 0.000000
# 2 -0.000552 0.017961 -0.006766 0.000000 -0.003668 0.000000
# 3 -0.002477 -0.006766 0.014312 0.000000 -0.000603 0.000000
# 4 0.000000 0.000000 0.000000 0.185294 0.000000 0.308877
# 5 -0.001006 -0.003668 -0.000603 0.000000 0.029269 0.000000
# 6 0.000000 0.000000 0.000000 0.308877 0.000000 0.675052
#
#
# Mechanical properties :
#
#
# Convention : Reuss Voigt Hill
#
# Bulk Modulus (GPa) = 38.31576 41.24533 39.78055
# Shear Modulus (GPa) = 5.18892 24.65611 14.92252
#
# Velocity S-wave (km/s) = 1.53088 3.33707 2.59612
# Velocity P-wave (km/s) = 4.51999 5.78591 5.19168
#
# Compressibility (1/GPa) = 0.02609892
#
# Stress axis : x y z
#
# Youngs Moduli (GPa) = 74.54572 55.67582 69.87280
#
# Poissons Ratio (x) = 0.03071 0.17308
# Poissons Ratio (y) = 0.04112 0.47273
# Poissons Ratio (z) = 0.18466 0.37668
#
# Static dielectric constant tensor:
#      x y z
#    x 1.960680 0.000000 -0.096020 
#    y 0.000000 1.929960 0.000000 
#    z -0.096020 0.000000 1.939100 
# 
# From -- ./inp_files/29020.got.cif
#   From: 2010.05.17/outbox.cif.g08.bks.cpg/sg5_15_cif.got.tgz:29020.got - 2010.06.03 18:56:24.
