data_PCOD9127861
_publ_section_title
;
Structure prediction by ZEFSAII (Michael W. Deem and Ramdas Pophale) SiO2 
 PCOD9127861
Probable space group: C 2
;
_chemical_formula_sum "Si O2"
_cell_formula_units_Z 20
_cell_length_a 14.736527
_cell_length_b 6.851780
_cell_length_c 8.724073
_cell_angle_alpha 90.000000
_cell_angle_beta 90.147344
_cell_angle_gamma 90.000000
_cell_volume 880.879309
_symmetry_space_group_name_H-M "C 2"
_symmetry_group_IT_number 5
_symmetry_cell_setting 'monoclinic'
loop_
_space_group_symop_operation_xyz
x,y,z
-x,y,-z
1/2+x,1/2+y,z
1/2-x,1/2+y,-z
loop_
_atom_site_type_symbol
_atom_site_label
_atom_site_fract_x
_atom_site_fract_y
_atom_site_fract_z
Si Si1 0.321872 0.867870 0.165277
Si Si2 0.815469 0.141248 0.679426
Si Si3 0.917102 0.109532 0.386155
Si Si4 0.836516 0.541409 0.832564
Si Si5 0.972830 0.875673 0.822672
O O1 0.402979 0.777802 0.262604
O O2 0.247574 0.692587 0.154646
O O3 0.274778 0.042851 0.256914
O O4 0.347249 0.940350 0.997839
O O5 0.832797 0.095524 0.501202
O O6 0.818748 0.369783 0.713028
O O7 0.897014 0.036536 0.775510
O O8 0.000000 0.152891 0.500000
O O9 0.943144 0.918514 0.289031
O O10 0.924392 0.669894 0.795612
O O11 0.000000 0.893806 0.000000
#
# Coordination Sequence:
#
# PCOD9127861 Si02
#       5
#     4   4   4   4   4
#     4  11  23  42  72 101 140 179 237 287 340 416
#     4  10  23  44  66 105 139 181 231 283 354 407
#     4  10  24  45  67  99 148 181 224 286 343 419
#     4  11  23  42  71 104 133 184 234 290 342 404
#     4  10  23  43  68 100 141 181 230 288 339 417
#
# _framework density 22.704585999999999
#
# number of rings (size 3 to 8) (size 9 to 14) (size 15 to 20)
#    0.000    1.600    2.000    1.200    5.600    4.000 
#    0.000   19.000    0.000    0.000    0.000    0.000 
#    0.000    0.000    0.000    0.000    0.000    0.000 
#
# Total GULP energy -55971.918912 kJ/mol
# GULP energy per Si atom -5597.191891 kJ/mol
# Density = 2.265291 g / cm^3
# Si number density = 22.704586 Si / 1000 Ang^3
#
#
#
# Elastic Constant Matrix: (Units=GPa)
#
#
# Indices 1 2 3 4 5 6 
#
# 1 39.5511 48.8066 46.5841 0.0000 -8.4730 0.0000
# 2 48.8066 155.7059 70.4290 0.0000 -13.7134 0.0000
# 3 46.5841 70.4290 134.6998 0.0000 -7.8902 0.0000
# 4 0.0000 0.0000 0.0000 1.2921 0.0000 -9.1989
# 5 -8.4730 -13.7134 -7.8902 0.0000 42.9954 0.0000
# 6 0.0000 0.0000 0.0000 -9.1989 0.0000 31.2519
#
#
#
# Elastic Compliance Matrix: (Units=1/GPa)
#
#
# Indices 1 2 3 4 5 6 
#
# 1 0.055336 -0.010977 -0.013105 0.000000 0.004999 0.000000
# 2 -0.010977 0.010745 -0.001767 0.000000 0.000940 0.000000
# 3 -0.013105 -0.001767 0.012833 0.000000 -0.000791 0.000000
# 4 0.000000 0.000000 0.000000 -0.706455 0.000000 -0.207943
# 5 0.004999 0.000940 -0.000791 0.000000 0.024398 0.000000
# 6 0.000000 0.000000 0.000000 -0.207943 0.000000 -0.029209
#
#
# Mechanical properties :
#
#
# Convention : Reuss Voigt Hill
#
# Bulk Modulus (GPa) = 36.74214 73.51068 55.12641
# Shear Modulus (GPa) = -8.74766 26.05038 8.65136
#
# Velocity S-wave (km/s) = -1.96499 3.39095 1.95414
# Velocity P-wave (km/s) = 3.32710 6.91221 5.42440
#
# Compressibility (1/GPa) = 0.02721671
#
# Stress axis : x y z
#
# Youngs Moduli (GPa) = 18.07142 93.06484 77.92144
#
# Poissons Ratio (x) = 1.02162 1.02114
# Poissons Ratio (y) = 0.19838 0.13767
# Poissons Ratio (z) = 0.23682 0.16442
#
# Static dielectric constant tensor:
#      x y z
#    x 1.913940 0.000000 -0.018320 
#    y 0.000000 1.807770 0.000000 
#    z -0.018320 0.000000 1.811500 
# 
# From -- ./inp_files/25989.got.cif
#   From: 2010.05.17/outbox.cif.g08.bks.cpg/sg5_13_cif.got.tgz:25989.got - 2010.06.03 18:56:24.
