data_PCOD9127773
_publ_section_title
;
Structure prediction by ZEFSAII (Michael W. Deem and Ramdas Pophale) SiO2 
 PCOD9127773
Probable space group: C 2
;
_chemical_formula_sum "Si O2"
_cell_formula_units_Z 18
_cell_length_a 12.857335
_cell_length_b 4.843899
_cell_length_c 11.472614
_cell_angle_alpha 90.000000
_cell_angle_beta 79.430885
_cell_angle_gamma 90.000000
_cell_volume 702.388060
_symmetry_space_group_name_H-M "C 2"
_symmetry_group_IT_number 5
_symmetry_cell_setting 'monoclinic'
loop_
_space_group_symop_operation_xyz
x,y,z
-x,y,-z
1/2+x,1/2+y,z
1/2-x,1/2+y,-z
loop_
_atom_site_type_symbol
_atom_site_label
_atom_site_fract_x
_atom_site_fract_y
_atom_site_fract_z
Si Si1 0.863659 0.746140 0.322627
Si Si2 0.000000 0.724911 0.500000
Si Si3 0.044986 0.237435 0.809906
Si Si4 0.149396 0.481158 0.270650
Si Si5 0.274491 0.853160 0.068287
O O1 0.908879 0.855740 0.436574
O O2 0.886401 0.423981 0.296738
O O3 0.744584 0.817293 0.312956
O O4 0.936169 0.915314 0.216398
O O5 0.929035 0.570247 0.609958
O O6 0.105055 0.306396 0.916700
O O7 0.926521 0.319550 0.803565
O O8 0.202335 0.732126 0.187709
O O9 0.241652 0.666896 0.964833
#
# Coordination Sequence:
#
# PCOD9127773 Si02
#       5
#     4   2   4   4   4
#     4  10  23  42  66  99 136 171 214 267 324 391
#     4  10  24  42  70 102 130 174 218 264 330 390
#     4  10  23  44  68  97 130 173 221 266 328 386
#     4  10  24  45  68  97 136 171 216 272 325 387
#     4  11  24  45  69  95 131 174 220 271 324 384
#
# _framework density 25.626857999999999
#
# number of rings (size 3 to 8) (size 9 to 14) (size 15 to 20)
#    0.000    1.778    0.000    2.667    0.000   24.000 
#    0.000    8.889    0.000    0.000    0.000    0.000 
#    0.000    0.000    0.000    0.000    0.000    0.000 
#
# Total GULP energy -50322.279457 kJ/mol
# GULP energy per Si atom -5591.364384 kJ/mol
# Density = 2.556853 g / cm^3
# Si number density = 25.626858 Si / 1000 Ang^3
#
#
#
# Elastic Constant Matrix: (Units=GPa)
#
#
# Indices 1 2 3 4 5 6 
#
# 1 220.7082 14.7247 60.3454 0.0000 35.4895 0.0000
# 2 14.7247 61.8584 3.8009 0.0000 -0.8684 0.0000
# 3 60.3454 3.8009 105.6182 0.0000 13.1224 0.0000
# 4 0.0000 0.0000 0.0000 29.4379 0.0000 14.5361
# 5 35.4895 -0.8684 13.1224 0.0000 73.9219 0.0000
# 6 0.0000 0.0000 0.0000 14.5361 0.0000 36.6769
#
#
#
# Elastic Compliance Matrix: (Units=1/GPa)
#
#
# Indices 1 2 3 4 5 6 
#
# 1 0.005793 -0.001227 -0.002984 0.000000 -0.002266 0.000000
# 2 -0.001227 0.016468 0.000012 0.000000 0.000781 0.000000
# 3 -0.002984 0.000012 0.011243 0.000000 -0.000563 0.000000
# 4 0.000000 0.000000 0.000000 0.042235 0.000000 -0.016739
# 5 -0.002266 0.000781 -0.000563 0.000000 0.014725 0.000000
# 6 0.000000 0.000000 0.000000 -0.016739 0.000000 0.033899
#
#
# Mechanical properties :
#
#
# Convention : Reuss Voigt Hill
#
# Bulk Modulus (GPa) = 39.83411 60.65855 50.24633
# Shear Modulus (GPa) = 35.42795 48.62824 42.02810
#
# Velocity S-wave (km/s) = 3.72217 4.36081 4.05409
# Velocity P-wave (km/s) = 5.83527 7.00549 6.44699
#
# Compressibility (1/GPa) = 0.02510411
#
# Stress axis : x y z
#
# Youngs Moduli (GPa) = 172.62113 60.72244 88.94732
#
# Poissons Ratio (x) = 0.07453 0.26543
# Poissons Ratio (y) = 0.21188 -0.00104
# Poissons Ratio (z) = 0.51513 -0.00071
#
# Static dielectric constant tensor:
#      x y z
#    x 1.998560 0.000000 0.022860 
#    y 0.000000 1.976770 0.000000 
#    z 0.022860 0.000000 2.077100 
# 
# From -- ./inp_files/37718.got.cif
#   From: 2010.05.17/outbox.cif.g08.bks.cpg/sg5_19_cif.got.tgz:37718.got - 2010.06.03 18:56:24.
