data_PCOD9127551
_publ_section_title
;
Structure prediction by ZEFSAII (Michael W. Deem and Ramdas Pophale) SiO2 
 PCOD9127551
Probable space group: C 2
;
_chemical_formula_sum "Si O2"
_cell_formula_units_Z 16
_cell_length_a 13.120498
_cell_length_b 9.344888
_cell_length_c 5.305867
_cell_angle_alpha 90.000000
_cell_angle_beta 95.780743
_cell_angle_gamma 90.000000
_cell_volume 647.241851
_symmetry_space_group_name_H-M "C 2"
_symmetry_group_IT_number 5
_symmetry_cell_setting 'monoclinic'
loop_
_space_group_symop_operation_xyz
x,y,z
-x,y,-z
1/2+x,1/2+y,z
1/2-x,1/2+y,-z
loop_
_atom_site_type_symbol
_atom_site_label
_atom_site_fract_x
_atom_site_fract_y
_atom_site_fract_z
Si Si1 0.048885 0.936190 0.766253
Si Si2 0.571315 0.112828 0.808526
Si Si3 0.616021 0.848592 0.538507
Si Si4 0.255578 0.798838 0.923797
O O1 0.982398 0.766460 0.245545
O O2 0.170334 0.922519 0.839171
O O3 0.000000 0.993783 0.500000
O O4 0.000000 0.005328 0.000000
O O5 0.681605 0.162146 0.940135
O O6 0.600576 0.020600 0.571257
O O7 0.500000 0.034909 0.000000
O O8 0.500000 0.795174 0.500000
O O9 0.322304 0.813588 0.190867
O O10 0.675609 0.797419 0.308210
#
# Coordination Sequence:
#
# PCOD9127551 Si02
#       4
#     4   4   4   4
#     4   9  17  33  58  85 113 144 192 249 295 338
#     4   9  21  39  67  92 120 153 212 256 304 354
#     4  12  23  38  61  93 123 161 207 252 300 364
#     4  10  23  36  60  92 126 155 200 257 312 352
#
# _framework density 24.720279000000001
#
# number of rings (size 3 to 8) (size 9 to 14) (size 15 to 20)
#    1.500    0.500    0.000    4.500    0.000    4.000 
#    0.000    0.000    0.000   21.000    0.000    0.000 
#    0.000    0.000    0.000    0.000    0.000    0.000 
#
# Total GULP energy -44604.193590 kJ/mol
# GULP energy per Si atom -5575.524199 kJ/mol
# Density = 2.466401 g / cm^3
# Si number density = 24.720279 Si / 1000 Ang^3
#
#
#
# Elastic Constant Matrix: (Units=GPa)
#
#
# Indices 1 2 3 4 5 6 
#
# 1 212.3953 1.8328 123.3155 0.0000 1.5701 0.0000
# 2 1.8328 67.1704 2.8827 0.0000 -0.5460 0.0000
# 3 123.3155 2.8827 240.4914 0.0000 7.2937 0.0000
# 4 0.0000 0.0000 0.0000 -378.8228 0.0000 558.5668
# 5 1.5701 -0.5460 7.2937 0.0000 63.9814 0.0000
# 6 0.0000 0.0000 0.0000 558.5668 0.0000 -750.8185
#
#
#
# Elastic Compliance Matrix: (Units=1/GPa)
#
#
# Indices 1 2 3 4 5 6 
#
# 1 0.006707 -0.000033 -0.003446 0.000000 0.000228 0.000000
# 2 -0.000033 0.014897 -0.000166 0.000000 0.000147 0.000000
# 3 -0.003446 -0.000166 0.005945 0.000000 -0.000595 0.000000
# 4 0.000000 0.000000 0.000000 0.027233 0.000000 0.020260
# 5 0.000228 0.000147 -0.000595 0.000000 0.015693 0.000000
# 6 0.000000 0.000000 0.000000 0.020260 0.000000 0.013741
#
#
# Mechanical properties :
#
#
# Convention : Reuss Voigt Hill
#
# Bulk Modulus (GPa) = 49.36058 86.23545 67.79802
# Shear Modulus (GPa) = 50.88569 -186.99691 -68.05561
#
# Velocity S-wave (km/s) = 4.54195 -8.70686 -5.25262
# Velocity P-wave (km/s) = 6.89324 8.13135 3.04977
#
# Compressibility (1/GPa) = 0.02025908
#
# Stress axis : x y z
#
# Youngs Moduli (GPa) = 149.08804 67.12886 168.20617
#
# Poissons Ratio (x) = 0.00223 0.57961
# Poissons Ratio (y) = 0.00496 0.02791
# Poissons Ratio (z) = 0.51374 0.01114
#
# Static dielectric constant tensor:
#      x y z
#    x 3.604670 0.000000 -2.130080 
#    y 0.000000 2.072880 0.000000 
#    z -2.130080 0.000000 5.065760 
# 
# From -- ./inp_files/4294.got.cif
#   From: 2010.05.17/outbox.cif.g08.bks.cpg/sg5_3_cif.got.tgz:4294.got - 2010.06.03 18:56:24.
