data_PCOD9127092
_publ_section_title
;
Structure prediction by ZEFSAII (Michael W. Deem and Ramdas Pophale) SiO2 
 PCOD9127092
Probable space group: C 2
;
_chemical_formula_sum "Si O2"
_cell_formula_units_Z 24
_cell_length_a 10.982490
_cell_length_b 9.372472
_cell_length_c 10.018308
_cell_angle_alpha 90.000000
_cell_angle_beta 82.367229
_cell_angle_gamma 90.000000
_cell_volume 1022.078456
_symmetry_space_group_name_H-M "C 2"
_symmetry_group_IT_number 5
_symmetry_cell_setting 'monoclinic'
loop_
_space_group_symop_operation_xyz
x,y,z
-x,y,-z
1/2+x,1/2+y,z
1/2-x,1/2+y,-z
loop_
_atom_site_type_symbol
_atom_site_label
_atom_site_fract_x
_atom_site_fract_y
_atom_site_fract_z
Si Si1 0.611640 0.771790 0.075330
Si Si2 0.689155 0.473687 0.036601
Si Si3 0.941215 0.394771 0.631980
Si Si4 0.553230 0.400627 0.786609
Si Si5 0.142805 0.643500 0.617411
Si Si6 0.683593 0.438862 0.525300
O O1 0.682372 0.895550 0.987876
O O2 0.565874 0.820359 0.225701
O O3 0.500000 0.723975 0.000000
O O4 0.699732 0.636886 0.075123
O O5 0.633362 0.463203 0.895083
O O6 0.586959 0.402030 0.146414
O O7 0.804202 0.434038 0.604911
O O8 0.000000 0.307679 0.500000
O O9 0.031452 0.531373 0.627629
O O10 0.607872 0.244850 0.745745
O O11 0.574090 0.481205 0.641966
O O12 0.267000 0.548126 0.592789
O O13 0.156577 0.769918 0.501148
#
# Coordination Sequence:
#
# PCOD9127092 Si02
#       6
#     4   4   4   4   4   4
#     4  12  26  45  74 108 139 195 243 295 356 434
#     4  11  24  45  69 102 149 184 240 304 355 422
#     4  10  22  43  71  99 144 182 234 295 361 414
#     4   9  20  41  70  98 143 183 230 294 360 411
#     4   9  20  38  70  99 131 190 223 288 354 424
#     4   9  19  39  70  99 139 178 233 285 359 418
#
# _framework density 23.481563000000001
#
# number of rings (size 3 to 8) (size 9 to 14) (size 15 to 20)
#    1.000    1.000    3.333    0.000    2.333    5.333 
#    0.000    0.000   22.000    0.000    0.000    0.000 
#    0.000    0.000    0.000    0.000    0.000    0.000 
#
# Total GULP energy -66917.807481 kJ/mol
# GULP energy per Si atom -5576.483957 kJ/mol
# Density = 2.342812 g / cm^3
# Si number density = 23.481563 Si / 1000 Ang^3
#
#
#
# Elastic Constant Matrix: (Units=GPa)
#
#
# Indices 1 2 3 4 5 6 
#
# 1 36.6785 15.7784 12.6276 0.0000 -11.3501 0.0000
# 2 15.7784 134.1741 49.0017 0.0000 -15.4762 0.0000
# 3 12.6276 49.0017 99.0823 0.0000 -24.6731 0.0000
# 4 0.0000 0.0000 0.0000 45.5493 0.0000 -20.7591
# 5 -11.3501 -15.4762 -24.6731 0.0000 34.2177 0.0000
# 6 0.0000 0.0000 0.0000 -20.7591 0.0000 39.7523
#
#
#
# Elastic Compliance Matrix: (Units=1/GPa)
#
#
# Indices 1 2 3 4 5 6 
#
# 1 0.031251 -0.002446 -0.000569 0.000000 0.008849 0.000000
# 2 -0.002446 0.009319 -0.004204 0.000000 0.000372 0.000000
# 3 -0.000569 -0.004204 0.014290 0.000000 0.008213 0.000000
# 4 0.000000 0.000000 0.000000 0.028811 0.000000 0.015046
# 5 0.008849 0.000372 0.008213 0.000000 0.038250 0.000000
# 6 0.000000 0.000000 0.000000 0.015046 0.000000 0.033013
#
#
# Mechanical properties :
#
#
# Convention : Reuss Voigt Hill
#
# Bulk Modulus (GPa) = 24.74074 47.19448 35.96761
# Shear Modulus (GPa) = 27.34525 36.73902 32.04213
#
# Velocity S-wave (km/s) = 3.41624 3.95978 3.69801
# Velocity P-wave (km/s) = 5.11078 6.40692 5.79520
#
# Compressibility (1/GPa) = 0.04041917
#
# Stress axis : x y z
#
# Youngs Moduli (GPa) = 31.99935 107.30684 69.98015
#
# Poissons Ratio (x) = 0.26251 0.03984
# Poissons Ratio (y) = 0.07828 0.29423
# Poissons Ratio (z) = 0.01822 0.45117
#
# Static dielectric constant tensor:
#      x y z
#    x 1.918730 0.000000 0.011210 
#    y 0.000000 1.923780 0.000000 
#    z 0.011210 0.000000 1.912080 
# 
# From -- ./inp_files/41432.got.cif
#   From: 2010.05.17/outbox.cif.g08.bks.cpg/sg5_21_cif.got.tgz:41432.got - 2010.06.03 18:56:24.
