data_PCOD9127161
_publ_section_title
;
Structure prediction by ZEFSAII (Michael W. Deem and Ramdas Pophale) SiO2 
 PCOD9127161
Probable space group: C 2
;
_chemical_formula_sum "Si O2"
_cell_formula_units_Z 26
_cell_length_a 19.570968
_cell_length_b 8.493258
_cell_length_c 9.547758
_cell_angle_alpha 90.000000
_cell_angle_beta 139.329352
_cell_angle_gamma 90.000000
_cell_volume 1034.290100
_symmetry_space_group_name_H-M "C 2"
_symmetry_group_IT_number 5
_symmetry_cell_setting 'monoclinic'
loop_
_space_group_symop_operation_xyz
x,y,z
-x,y,-z
1/2+x,1/2+y,z
1/2-x,1/2+y,-z
loop_
_atom_site_type_symbol
_atom_site_label
_atom_site_fract_x
_atom_site_fract_y
_atom_site_fract_z
Si Si1 0.000000 0.995510 0.500000
Si Si2 0.796836 0.527276 0.179589
Si Si3 0.722527 0.658644 0.790965
Si Si4 0.000000 0.755201 0.000000
Si Si5 0.138622 0.652654 0.457581
Si Si6 0.714852 0.946762 0.357559
Si Si7 0.929537 0.005789 0.091854
Si Si8 0.000000 0.257084 0.000000
O O1 0.894655 0.091498 0.370825
O O2 0.970165 0.926947 0.299995
O O3 0.880476 0.607460 0.411964
O O4 0.788131 0.341570 0.189896
O O5 0.800322 0.577494 0.024735
O O6 0.681554 0.586402 0.049380
O O7 0.763694 0.598298 0.706195
O O8 0.951788 0.657279 0.798412
O O9 0.077204 0.873545 0.037650
O O10 0.195705 0.819735 0.534363
O O11 0.212142 0.513598 0.510282
O O12 0.605326 0.858840 0.157656
O O13 0.002820 0.141763 0.140310
#
# Coordination Sequence:
#
# PCOD9127161 Si02
#       8
#     2   4   4   2   4   4   4   2
#     4  10  24  40  72 104 144 192 240 288 372 444
#     4  11  24  46  70 103 143 191 238 298 371 433
#     4  11  25  46  73 107 147 195 239 302 366 447
#     4  11  23  42  68  98 146 182 252 298 364 424
#     4  12  25  42  67 104 138 194 238 309 355 431
#     4  12  25  43  70 104 147 191 246 299 368 427
#     4  10  22  44  67 103 143 190 235 304 368 440
#     4  11  25  42  70 104 146 192 248 308 358 444
#
# _framework density 25.138017000000001
#
# number of rings (size 3 to 8) (size 9 to 14) (size 15 to 20)
#    0.000    0.923    1.538    5.077    8.615    1.231 
#    0.000    1.538    0.000    0.923    0.000    0.000 
#    0.000    0.000    0.000    0.000    0.000    0.000 
#
# Total GULP energy -72728.561873 kJ/mol
# GULP energy per Si atom -5594.504759 kJ/mol
# Density = 2.508080 g / cm^3
# Si number density = 25.138017 Si / 1000 Ang^3
#
#
#
# Elastic Constant Matrix: (Units=GPa)
#
#
# Indices 1 2 3 4 5 6 
#
# 1 61.7598 -11.9265 10.8344 0.0000 -0.9426 0.0000
# 2 -11.9265 85.1356 10.9577 0.0000 6.1865 0.0000
# 3 10.8344 10.9577 141.9024 0.0000 -16.5927 0.0000
# 4 0.0000 0.0000 0.0000 43.1263 0.0000 -4.2177
# 5 -0.9426 6.1865 -16.5927 0.0000 33.1041 0.0000
# 6 0.0000 0.0000 0.0000 -4.2177 0.0000 24.6063
#
#
#
# Elastic Compliance Matrix: (Units=1/GPa)
#
#
# Indices 1 2 3 4 5 6 
#
# 1 0.016969 0.002641 -0.001594 0.000000 -0.000809 0.000000
# 2 0.002641 0.012532 -0.001524 0.000000 -0.003031 0.000000
# 3 -0.001594 -0.001524 0.007770 0.000000 0.004134 0.000000
# 4 0.000000 0.000000 0.000000 0.023583 0.000000 0.004042
# 5 -0.000809 -0.003031 0.004134 0.000000 0.032823 0.000000
# 6 0.000000 0.000000 0.000000 0.004042 0.000000 0.041333
#
#
# Mechanical properties :
#
#
# Convention : Reuss Voigt Hill
#
# Bulk Modulus (GPa) = 27.53480 34.28101 30.90791
# Shear Modulus (GPa) = 33.76786 38.76281 36.26533
#
# Velocity S-wave (km/s) = 3.66908 3.93109 3.80234
# Velocity P-wave (km/s) = 5.37836 5.85417 5.62130
#
# Compressibility (1/GPa) = 0.03631767
#
# Stress axis : x y z
#
# Youngs Moduli (GPa) = 58.93058 79.79370 128.70261
#
# Poissons Ratio (x) = -0.21075 0.20518
# Poissons Ratio (y) = -0.15565 0.19611
# Poissons Ratio (z) = 0.09395 0.12159
#
# Static dielectric constant tensor:
#      x y z
#    x 1.996660 0.000000 0.039770 
#    y 0.000000 1.992000 0.000000 
#    z 0.039770 0.000000 2.026930 
# 
# From -- ./inp_files/29168.got.cif
#   From: 2010.05.17/outbox.cif.g08.bks.cpg/sg5_15_cif.got.tgz:29168.got - 2010.06.03 18:56:24.
