data_PCOD9127034
_publ_section_title
;
Structure prediction by ZEFSAII (Michael W. Deem and Ramdas Pophale) SiO2 
 PCOD9127034
Probable space group: C 2
;
_chemical_formula_sum "Si O2"
_cell_formula_units_Z 26
_cell_length_a 26.837943
_cell_length_b 6.500781
_cell_length_c 23.089789
_cell_angle_alpha 90.000000
_cell_angle_beta 18.752672
_cell_angle_gamma 90.000000
_cell_volume 1295.071014
_symmetry_space_group_name_H-M "C 2"
_symmetry_group_IT_number 5
_symmetry_cell_setting 'monoclinic'
loop_
_space_group_symop_operation_xyz
x,y,z
-x,y,-z
1/2+x,1/2+y,z
1/2-x,1/2+y,-z
loop_
_atom_site_type_symbol
_atom_site_label
_atom_site_fract_x
_atom_site_fract_y
_atom_site_fract_z
Si Si1 0.723955 0.280850 0.793166
Si Si2 0.639920 0.681447 0.238015
Si Si3 0.857530 0.455986 0.533253
Si Si4 0.912872 0.788192 0.768750
Si Si5 0.025330 0.080462 0.872859
Si Si6 0.630066 0.501531 0.072431
Si Si7 0.500000 0.924965 0.000000
O O1 0.840685 0.214690 0.715140
O O2 0.807107 0.427134 0.655312
O O3 0.645158 0.078701 0.851514
O O4 0.586857 0.416282 0.972221
O O5 0.649590 0.447667 0.209468
O O6 0.477246 0.768911 0.392854
O O7 0.778394 0.813427 0.058165
O O8 0.693658 0.475917 0.682050
O O9 0.956328 0.652855 0.405529
O O10 0.766640 0.646155 0.946257
O O11 0.963680 0.910465 0.770326
O O12 0.027286 0.278482 0.913658
O O13 0.961129 0.114491 0.878760
#
# Coordination Sequence:
#
# PCOD9127034 Si02
#       7
#     4   4   4   4   4   4   2
#     4  11  22  42  63  95 134 172 212 260 326 401
#     4  10  23  40  67  91 125 174 211 267 323 379
#     4  11  23  41  59  99 137 158 211 273 320 384
#     4  11  22  43  67  93 127 171 221 268 317 382
#     4  11  23  42  65  95 133 169 214 270 322 391
#     4  10  22  43  67  91 123 172 226 261 313 390
#     4  12  20  38  70  90 128 180 210 258 330 390
#
# _framework density 20.07612
#
# number of rings (size 3 to 8) (size 9 to 14) (size 15 to 20)
#    0.000    1.231    4.615    1.385    2.154    0.000 
#    5.538    0.000    0.000    0.000    0.000    0.000 
#    0.000    0.000    0.000    0.000    0.000    0.000 
#
# Total GULP energy -72528.060814 kJ/mol
# GULP energy per Si atom -5579.081601 kJ/mol
# Density = 2.003043 g / cm^3
# Si number density = 20.076120 Si / 1000 Ang^3
#
#
#
# Elastic Constant Matrix: (Units=GPa)
#
#
# Indices 1 2 3 4 5 6 
#
# 1 134.0404 39.6585 33.7020 0.0040 8.3617 0.0003
# 2 39.6585 81.8397 35.1617 0.0288 9.7600 0.0004
# 3 33.7020 35.1617 74.0261 0.0118 0.4181 0.0000
# 4 0.0040 0.0288 0.0118 12.0668 0.0009 5.8046
# 5 8.3617 9.7600 0.4181 0.0009 9.3058 -0.0016
# 6 0.0003 0.0004 0.0000 5.8046 -0.0016 32.3462
#
#
#
# Elastic Compliance Matrix: (Units=1/GPa)
#
#
# Indices 1 2 3 4 5 6 
#
# 1 0.009318 -0.002570 -0.002991 0.000007 -0.005544 -0.000002
# 2 -0.002570 0.018788 -0.007658 -0.000038 -0.017052 0.000006
# 3 -0.002991 -0.007658 0.018452 0.000000 0.009890 0.000001
# 4 0.000007 -0.000038 0.000000 0.090701 0.000022 -0.016276
# 5 -0.005544 -0.017052 0.009890 0.000022 0.129882 0.000003
# 6 -0.000002 0.000006 0.000001 -0.016276 0.000003 0.033836
#
#
# Mechanical properties :
#
#
# Convention : Reuss Voigt Hill
#
# Bulk Modulus (GPa) = 49.69670 56.32785 53.01228
# Shear Modulus (GPa) = 14.96462 22.83602 18.90032
#
# Velocity S-wave (km/s) = 2.73315 3.37630 3.07161
# Velocity P-wave (km/s) = 5.89644 6.58159 6.24841
#
# Compressibility (1/GPa) = 0.02012206
#
# Stress axis : x y z
#
# Youngs Moduli (GPa) = 107.31379 53.22558 54.19507
#
# Poissons Ratio (x) = 0.13677 0.16208
# Poissons Ratio (y) = 0.27575 0.41502
# Poissons Ratio (z) = 0.32093 0.40760
#
# Static dielectric constant tensor:
#      x y z
#    x 1.733940 0.000000 0.004080 
#    y 0.000000 1.694760 0.000000 
#    z 0.004080 0.000000 1.710480 
# 
# From -- ./inp_files/30307.got.cif
#   From: 2010.05.17/outbox.cif.g08.bks.cpg/sg5_16_cif.got.tgz:30307.got - 2010.06.03 18:56:24.
