data_PCOD9127047
_publ_section_title
;
Structure prediction by ZEFSAII (Michael W. Deem and Ramdas Pophale) SiO2 
 PCOD9127047
Probable space group: C 2
;
_chemical_formula_sum "Si O2"
_cell_formula_units_Z 28
_cell_length_a 31.326931
_cell_length_b 5.569479
_cell_length_c 9.108596
_cell_angle_alpha 90.000000
_cell_angle_beta 127.395599
_cell_angle_gamma 90.000000
_cell_volume 1262.573275
_symmetry_space_group_name_H-M "C 2"
_symmetry_group_IT_number 5
_symmetry_cell_setting 'monoclinic'
loop_
_space_group_symop_operation_xyz
x,y,z
-x,y,-z
1/2+x,1/2+y,z
1/2-x,1/2+y,-z
loop_
_atom_site_type_symbol
_atom_site_label
_atom_site_fract_x
_atom_site_fract_y
_atom_site_fract_z
Si Si1 0.251367 0.648600 0.594747
Si Si2 0.960308 0.498617 0.178623
Si Si3 0.857929 0.529183 0.471864
Si Si4 0.407433 0.310225 0.314449
Si Si5 0.559366 0.652758 0.371951
Si Si6 0.134063 0.110602 0.037196
Si Si7 0.072580 0.813302 0.144860
O O1 0.258022 0.404827 0.508481
O O2 0.201180 0.580012 0.593418
O O3 0.305765 0.686652 0.801295
O O4 0.944244 0.648944 0.287223
O O5 0.014941 0.352681 0.308370
O O6 0.909940 0.321479 0.047160
O O7 0.964294 0.669352 0.045706
O O8 0.869767 0.651420 0.340519
O O9 0.880107 0.258636 0.505828
O O10 0.897682 0.642486 0.677244
O O11 0.442554 0.466519 0.499525
O O12 0.374032 0.480972 0.135578
O O13 0.549542 0.526761 0.196255
O O14 0.116663 0.926117 0.127824
#
# Coordination Sequence:
#
# PCOD9127047 Si02
#       7
#     4   4   4   4   4   4   4
#     4  12  26  48  80 112 148 200 254 324 388 442
#     4  11  25  45  72 104 147 195 241 307 375 452
#     4  11  24  45  72 105 146 186 249 302 373 448
#     4  10  26  47  68 106 144 196 247 298 372 454
#     4  11  25  45  72 104 147 195 241 307 375 452
#     4  11  24  45  72 105 146 186 249 302 373 448
#     4  10  22  43  68 106 138 178 241 302 364 442
#
# _framework density 22.176929999999999
#
# number of rings (size 3 to 8) (size 9 to 14) (size 15 to 20)
#    0.000    1.143    1.429    3.429    4.000   11.429 
#    5.143    4.286    0.000    0.000    0.000    0.000 
#    0.000    0.000    0.000    0.000    0.000    0.000 
#
# Total GULP energy -78400.122049 kJ/mol
# GULP energy per Si atom -5600.008718 kJ/mol
# Density = 2.212645 g / cm^3
# Si number density = 22.176930 Si / 1000 Ang^3
#
#
#
# Elastic Constant Matrix: (Units=GPa)
#
#
# Indices 1 2 3 4 5 6 
#
# 1 106.1901 15.2492 38.2154 0.0000 -17.7531 0.0000
# 2 15.2492 56.2116 7.3732 0.0000 -18.2479 0.0000
# 3 38.2154 7.3732 89.5548 0.0000 -20.3499 0.0000
# 4 0.0000 0.0000 0.0000 24.4041 0.0000 2.4796
# 5 -17.7531 -18.2479 -20.3499 0.0000 50.5226 0.0000
# 6 0.0000 0.0000 0.0000 2.4796 0.0000 29.4452
#
#
#
# Elastic Compliance Matrix: (Units=1/GPa)
#
#
# Indices 1 2 3 4 5 6 
#
# 1 0.011558 -0.002056 -0.004413 0.000000 0.001541 0.000000
# 2 -0.002056 0.020519 0.000779 0.000000 0.007002 0.000000
# 3 -0.004413 0.000779 0.013976 0.000000 0.004360 0.000000
# 4 0.000000 0.000000 0.000000 0.041330 0.000000 -0.003481
# 5 0.001541 0.007002 0.004360 0.000000 0.024620 0.000000
# 6 0.000000 0.000000 0.000000 -0.003481 0.000000 0.034255
#
#
# Mechanical properties :
#
#
# Convention : Reuss Voigt Hill
#
# Bulk Modulus (GPa) = 28.84049 41.51470 35.17759
# Shear Modulus (GPa) = 29.55175 33.61562 31.58369
#
# Velocity S-wave (km/s) = 3.65436 3.89754 3.77791
# Velocity P-wave (km/s) = 5.55327 6.24619 5.90989
#
# Compressibility (1/GPa) = 0.03467347
#
# Stress axis : x y z
#
# Youngs Moduli (GPa) = 86.51986 48.73602 71.55143
#
# Poissons Ratio (x) = 0.10022 0.31573
# Poissons Ratio (y) = 0.17791 -0.05576
# Poissons Ratio (z) = 0.38178 -0.03798
#
# Static dielectric constant tensor:
#      x y z
#    x 1.784650 0.000000 0.012690 
#    y 0.000000 1.870730 0.000000 
#    z 0.012690 0.000000 1.801150 
# 
# From -- ./inp_files/32329.got.cif
#   From: 2010.05.17/outbox.cif.g08.bks.cpg/sg5_17_cif.got.tgz:32329.got - 2010.06.03 18:56:24.
