data_PCOD9127457
_publ_section_title
;
Structure prediction by ZEFSAII (Michael W. Deem and Ramdas Pophale) SiO2 
 PCOD9127457
Probable space group: C 2
;
_chemical_formula_sum "Si O2"
_cell_formula_units_Z 28
_cell_length_a 13.266230
_cell_length_b 4.987022
_cell_length_c 15.992573
_cell_angle_alpha 90.000000
_cell_angle_beta 75.134326
_cell_angle_gamma 90.000000
_cell_volume 1022.639272
_symmetry_space_group_name_H-M "C 2"
_symmetry_group_IT_number 5
_symmetry_cell_setting 'monoclinic'
loop_
_space_group_symop_operation_xyz
x,y,z
-x,y,-z
1/2+x,1/2+y,z
1/2-x,1/2+y,-z
loop_
_atom_site_type_symbol
_atom_site_label
_atom_site_fract_x
_atom_site_fract_y
_atom_site_fract_z
Si Si1 0.094627 0.163270 0.751098
Si Si2 0.813138 0.298773 0.913077
Si Si3 0.323295 0.222590 0.490632
Si Si4 0.000919 0.127077 0.598556
Si Si5 0.574803 0.274639 0.183111
Si Si6 0.167016 0.747013 0.334211
Si Si7 0.612763 0.597254 0.933143
O O1 0.039398 0.266905 0.676676
O O2 0.213159 0.191288 0.701281
O O3 0.093512 0.250514 0.849769
O O4 0.042753 0.869654 0.777126
O O5 0.892123 0.548241 0.887029
O O6 0.697456 0.358421 0.902400
O O7 0.864662 0.046430 0.855003
O O8 0.820053 0.249935 0.010661
O O9 0.239654 0.463076 0.527368
O O10 0.416967 0.369891 0.422244
O O11 0.366467 0.126308 0.570781
O O12 0.000000 0.204423 0.500000
O O13 0.882721 0.042329 0.645375
O O14 0.617810 0.156273 0.259397
O O15 0.500000 0.531089 0.000000
#
# Coordination Sequence:
#
# PCOD9127457 Si02
#       7
#     4   4   4   4   4   4   4
#     4  11  22  49  77 117 152 216 263 320 400 476
#     4  12  27  54  74 114 158 204 267 331 391 468
#     4  11  23  44  73 111 152 202 257 316 391 466
#     4   9  21  43  75 115 162 206 259 333 388 468
#     4  11  26  51  76 111 157 203 263 331 388 463
#     4  10  22  46  76 111 157 202 267 322 387 472
#     4  12  27  50  78 113 157 213 261 327 397 467
#
# _framework density 27.380136
#
# number of rings (size 3 to 8) (size 9 to 14) (size 15 to 20)
#    0.000    1.143    4.286    0.857    0.000    2.286 
#   15.429    6.429    0.000    0.000    0.000    0.000 
#    0.000    0.000    0.000    0.000    0.000    0.000 
#
# Total GULP energy -78131.315356 kJ/mol
# GULP energy per Si atom -5580.808240 kJ/mol
# Density = 2.731782 g / cm^3
# Si number density = 27.380136 Si / 1000 Ang^3
#
#
#
# Elastic Constant Matrix: (Units=GPa)
#
#
# Indices 1 2 3 4 5 6 
#
# 1 186.8949 57.8640 63.6682 0.0000 -9.6099 0.0000
# 2 57.8640 125.9243 40.4427 0.0001 -32.9195 0.0000
# 3 63.6682 40.4427 178.4524 0.0000 15.6778 0.0000
# 4 0.0000 0.0001 0.0000 -11.7539 0.0000 -26.6761
# 5 -9.6099 -32.9195 15.6778 0.0000 59.3880 0.0000
# 6 0.0000 0.0000 0.0000 -26.6761 0.0000 35.6509
#
#
#
# Elastic Compliance Matrix: (Units=1/GPa)
#
#
# Indices 1 2 3 4 5 6 
#
# 1 0.006758 -0.002440 -0.001879 0.000000 0.000237 0.000000
# 2 -0.002440 0.011539 -0.002326 0.000000 0.006615 0.000000
# 3 -0.001879 -0.002326 0.007106 0.000000 -0.003469 0.000000
# 4 0.000000 0.000000 0.000000 -0.031531 0.000000 -0.023594
# 5 0.000237 0.006615 -0.003469 0.000000 0.021459 0.000000
# 6 0.000000 0.000000 0.000000 -0.023594 0.000000 0.010396
#
#
# Mechanical properties :
#
#
# Convention : Reuss Voigt Hill
#
# Bulk Modulus (GPa) = 82.55214 90.58016 86.56615
# Shear Modulus (GPa) = 116.13177 38.61012 77.37095
#
# Velocity S-wave (km/s) = 6.51972 3.75927 5.32160
# Velocity P-wave (km/s) = 9.32156 7.21090 8.33332
#
# Compressibility (1/GPa) = 0.01211356
#
# Stress axis : x y z
#
# Youngs Moduli (GPa) = 147.96403 86.66394 140.72620
#
# Poissons Ratio (x) = 0.21147 0.26444
# Poissons Ratio (y) = 0.36105 0.32728
# Poissons Ratio (z) = 0.27804 0.20155
#
# Static dielectric constant tensor:
#      x y z
#    x 2.159130 0.000000 -0.014960 
#    y 0.000000 2.214710 0.000000 
#    z -0.014960 0.000000 2.126680 
# 
# From -- ./inp_files/61078.got.cif
#   From: 2010.05.17/outbox.cif.g08.bks.cpg/sg5_31_cif.got.tgz:61078.got - 2010.06.03 18:56:24.
