data_PCOD9127069
_publ_section_title
;
Structure prediction by ZEFSAII (Michael W. Deem and Ramdas Pophale) SiO2 
 PCOD9127069
Probable space group: C 2
;
_chemical_formula_sum "Si O2"
_cell_formula_units_Z 28
_cell_length_a 15.413063
_cell_length_b 8.656066
_cell_length_c 14.937848
_cell_angle_alpha 90.000000
_cell_angle_beta 140.345905
_cell_angle_gamma 90.000000
_cell_volume 1271.806739
_symmetry_space_group_name_H-M "C 2"
_symmetry_group_IT_number 5
_symmetry_cell_setting 'monoclinic'
loop_
_space_group_symop_operation_xyz
x,y,z
-x,y,-z
1/2+x,1/2+y,z
1/2-x,1/2+y,-z
loop_
_atom_site_type_symbol
_atom_site_label
_atom_site_fract_x
_atom_site_fract_y
_atom_site_fract_z
Si Si1 0.500000 0.031821 0.000000
Si Si2 0.843452 0.836363 0.508892
Si Si3 0.861144 0.200386 0.518596
Si Si4 0.835140 0.513323 0.033846
Si Si5 0.835914 0.810631 0.789888
Si Si6 0.110269 0.398477 0.729727
Si Si7 0.438832 0.352478 0.160068
Si Si8 0.500000 0.142321 0.500000
O O1 0.411694 0.951138 0.006411
O O2 0.603300 0.145339 0.134463
O O3 0.709585 0.764216 0.447513
O O4 0.964825 0.815299 0.678473
O O5 0.884001 0.750189 0.450319
O O6 0.833145 0.019521 0.487998
O O7 0.783452 0.287791 0.376926
O O8 0.018466 0.247231 0.640354
O O9 0.894904 0.438512 0.170818
O O10 0.864697 0.695469 0.068859
O O11 0.675989 0.474401 0.905608
O O12 0.957028 0.899858 0.836236
O O13 0.764707 0.880856 0.819617
O O14 0.048719 0.533444 0.619333
#
# Coordination Sequence:
#
# PCOD9127069 Si02
#       8
#     2   4   4   4   4   4   4   2
#     4  10  24  42  70  96 136 178 230 292 338 416
#     4  11  26  43  67 106 141 183 234 292 346 425
#     4  11  25  42  72 100 144 188 232 282 364 413
#     4  11  24  46  68  97 135 183 231 293 344 414
#     4  10  22  43  69  99 133 183 231 274 351 423
#     4  12  23  44  71 101 142 188 227 291 353 416
#     4  10  24  44  69  98 137 179 234 285 351 411
#     4  12  24  42  64 104 144 176 232 294 340 408
#
# _framework density 22.015923999999998
#
# number of rings (size 3 to 8) (size 9 to 14) (size 15 to 20)
#    0.000    1.143    2.857    2.571   12.000    0.000 
#    0.000    1.429    0.000    0.000    0.000    0.000 
#    0.000    0.000    0.000    0.000    0.000    0.000 
#
# Total GULP energy -78296.892075 kJ/mol
# GULP energy per Si atom -5592.635148 kJ/mol
# Density = 2.196581 g / cm^3
# Si number density = 22.015924 Si / 1000 Ang^3
#
#
#
# Elastic Constant Matrix: (Units=GPa)
#
#
# Indices 1 2 3 4 5 6 
#
# 1 177.9403 30.0124 31.9870 0.0000 -0.7052 0.0000
# 2 30.0124 63.5639 -8.1361 0.0000 10.1722 0.0000
# 3 31.9870 -8.1361 62.1642 0.0000 5.1092 0.0000
# 4 0.0000 0.0000 0.0000 24.5504 0.0000 2.1861
# 5 -0.7052 10.1722 5.1092 0.0000 36.3353 0.0000
# 6 0.0000 0.0000 0.0000 2.1861 0.0000 34.4572
#
#
#
# Elastic Compliance Matrix: (Units=1/GPa)
#
#
# Indices 1 2 3 4 5 6 
#
# 1 0.007130 -0.004238 -0.004383 0.000000 0.001941 0.000000
# 2 -0.004238 0.019404 0.005234 0.000000 -0.006250 0.000000
# 3 -0.004383 0.005234 0.019378 0.000000 -0.004275 0.000000
# 4 0.000000 0.000000 0.000000 0.040964 0.000000 -0.002599
# 5 0.001941 -0.006250 -0.004275 0.000000 0.029910 0.000000
# 6 0.000000 0.000000 0.000000 -0.002599 0.000000 0.029186
#
#
# Mechanical properties :
#
#
# Convention : Reuss Voigt Hill
#
# Bulk Modulus (GPa) = 25.55110 45.71056 35.63083
# Shear Modulus (GPa) = 30.15800 35.72224 32.94012
#
# Velocity S-wave (km/s) = 3.70513 4.03248 3.87226
# Velocity P-wave (km/s) = 5.47128 6.51834 6.01763
#
# Compressibility (1/GPa) = 0.03913726
#
# Stress axis : x y z
#
# Youngs Moduli (GPa) = 140.24513 51.53678 51.60421
#
# Poissons Ratio (x) = 0.21843 0.22619
# Poissons Ratio (y) = 0.59441 -0.27010
# Poissons Ratio (z) = 0.61473 -0.26975
#
# Static dielectric constant tensor:
#      x y z
#    x 1.831530 0.000000 -0.005890 
#    y 0.000000 1.780580 0.000000 
#    z -0.005890 0.000000 1.819520 
# 
# From -- ./inp_files/41793.got.cif
#   From: 2010.05.17/outbox.cif.g08.bks.cpg/sg5_21_cif.got.tgz:41793.got - 2010.06.03 18:56:24.
