data_PCOD9127943
_publ_section_title
;
Structure prediction by ZEFSAII (Michael W. Deem and Ramdas Pophale) SiO2 
 PCOD9127943
Probable space group: C 2
;
_chemical_formula_sum "Si O2"
_cell_formula_units_Z 22
_cell_length_a 15.317578
_cell_length_b 8.967712
_cell_length_c 25.212270
_cell_angle_alpha 90.000000
_cell_angle_beta 17.753235
_cell_angle_gamma 90.000000
_cell_volume 1056.007171
_symmetry_space_group_name_H-M "C 2"
_symmetry_group_IT_number 5
_symmetry_cell_setting 'monoclinic'
loop_
_space_group_symop_operation_xyz
x,y,z
-x,y,-z
1/2+x,1/2+y,z
1/2-x,1/2+y,-z
loop_
_atom_site_type_symbol
_atom_site_label
_atom_site_fract_x
_atom_site_fract_y
_atom_site_fract_z
Si Si1 0.632421 0.521990 0.260734
Si Si2 0.729663 0.039741 0.075284
Si Si3 0.257190 0.630363 0.382719
Si Si4 0.136622 0.702712 0.020803
Si Si5 0.342610 0.465221 0.539353
Si Si6 0.500000 0.759740 0.000000
O O1 0.392878 0.564340 0.356853
O O2 0.475851 0.515094 0.407669
O O3 0.902220 0.633137 0.116125
O O4 0.761656 0.370252 0.161987
O O5 0.600811 0.124124 0.098606
O O6 0.487606 0.998068 0.258526
O O7 0.923014 0.155416 0.995001
O O8 0.871137 0.882969 0.975328
O O9 0.122476 0.787348 0.478467
O O10 0.000000 0.549315 0.500000
O O11 0.537849 0.660057 0.184319
O O12 0.500000 0.529452 0.500000
#
# Coordination Sequence:
#
# PCOD9127943 Si02
#       6
#     4   4   4   4   4   2
#     4  12  24  47  74 102 146 189 245 297 352 426
#     4  11  26  43  72 105 141 189 241 295 363 424
#     4  10  24  43  70 101 141 186 232 290 363 418
#     4  11  23  47  74 100 142 191 239 294 355 431
#     4  10  23  44  68 102 142 182 232 296 360 420
#     4  12  28  42  70 108 142 192 250 296 350 428
#
# _framework density 20.833190999999999
#
# number of rings (size 3 to 8) (size 9 to 14) (size 15 to 20)
#    0.000    1.091    3.636    1.091   12.727    0.000 
#    0.000    0.909    0.000    0.000    0.000    0.000 
#    0.000    0.000    0.000    0.000    0.000    0.000 
#
# Total GULP energy -61377.420256 kJ/mol
# GULP energy per Si atom -5579.765478 kJ/mol
# Density = 2.078577 g / cm^3
# Si number density = 20.833191 Si / 1000 Ang^3
#
#
#
# Elastic Constant Matrix: (Units=GPa)
#
#
# Indices 1 2 3 4 5 6 
#
# 1 183.8280 75.6238 53.4128 0.0658 -14.1858 0.0318
# 2 75.6238 114.6336 31.0578 0.0070 -7.1695 0.0004
# 3 53.4128 31.0578 69.0070 -0.0715 0.4927 0.0634
# 4 0.0658 0.0070 -0.0715 12.6986 0.0228 -5.0310
# 5 -14.1858 -7.1695 0.4927 0.0228 46.3880 0.0127
# 6 0.0318 0.0004 0.0634 -5.0310 0.0127 29.6467
#
#
#
# Elastic Compliance Matrix: (Units=1/GPa)
#
#
# Indices 1 2 3 4 5 6 
#
# 1 0.008810 -0.004363 -0.004870 -0.000080 0.002072 -0.000013
# 2 -0.004363 0.012213 -0.002124 0.000007 0.000576 0.000010
# 3 -0.004870 -0.002124 0.019231 0.000133 -0.002022 -0.000012
# 4 -0.000080 0.000007 0.000133 0.084426 -0.000070 0.014327
# 5 0.002072 0.000576 -0.002022 -0.000070 0.022301 -0.000019
# 6 -0.000013 0.000010 -0.000012 0.014327 -0.000019 0.036162
#
#
# Mechanical properties :
#
#
# Convention : Reuss Voigt Hill
#
# Bulk Modulus (GPa) = 57.01142 76.40639 66.70890
# Shear Modulus (GPa) = 23.61792 31.57160 27.59476
#
# Velocity S-wave (km/s) = 3.37065 3.89710 3.64340
# Velocity P-wave (km/s) = 6.52483 7.55015 7.05614
#
# Compressibility (1/GPa) = 0.01754035
#
# Stress axis : x y z
#
# Youngs Moduli (GPa) = 113.51348 81.88028 51.99831
#
# Poissons Ratio (x) = 0.35721 0.25324
# Poissons Ratio (y) = 0.49522 0.11044
# Poissons Ratio (z) = 0.55283 0.17391
#
# Static dielectric constant tensor:
#      x y z
#    x 1.822860 -0.000080 -0.040920 
#    y -0.000080 1.760600 0.000020 
#    z -0.040920 0.000020 1.763290 
# 
# From -- ./inp_files/68684.got.cif
#   From: 2010.05.17/outbox.cif.g08.bks.cpg/sg5_35_cif.got.tgz:68684.got - 2010.06.03 18:56:24.
