data_PCOD9127255
_publ_section_title
;
Structure prediction by ZEFSAII (Michael W. Deem and Ramdas Pophale) SiO2 
 PCOD9127255
Probable space group: C 2
;
_chemical_formula_sum "Si O2"
_cell_formula_units_Z 20
_cell_length_a 19.571904
_cell_length_b 11.721437
_cell_length_c 5.154799
_cell_angle_alpha 90.000000
_cell_angle_beta 135.555051
_cell_angle_gamma 90.000000
_cell_volume 828.061200
_symmetry_space_group_name_H-M "C 2"
_symmetry_group_IT_number 5
_symmetry_cell_setting 'monoclinic'
loop_
_space_group_symop_operation_xyz
x,y,z
-x,y,-z
1/2+x,1/2+y,z
1/2-x,1/2+y,-z
loop_
_atom_site_type_symbol
_atom_site_label
_atom_site_fract_x
_atom_site_fract_y
_atom_site_fract_z
Si Si1 0.937324 0.712360 0.067473
Si Si2 0.697193 0.407958 0.085576
Si Si3 0.187541 0.046860 0.585389
Si Si4 0.608008 0.985115 0.905225
Si Si5 0.884727 0.299147 0.699801
O O1 0.907471 0.582754 0.913118
O O2 0.000000 0.702889 0.500000
O O3 0.851264 0.795966 0.919105
O O4 0.000000 0.759832 0.000000
O O5 0.690246 0.497651 0.301849
O O6 0.807931 0.369547 0.319168
O O7 0.645821 0.461366 0.692012
O O8 0.136310 0.168235 0.421070
O O9 0.301319 0.050917 0.983579
O O10 0.500000 0.969681 0.500000
O O11 0.640181 0.860598 0.093984
O O12 0.000000 0.319257 0.000000
#
# Coordination Sequence:
#
# PCOD9127255 Si02
#       5
#     4   4   4   4   4
#     4  11  23  42  72 104 142 189 242 297 355 428
#     4  11  25  46  68 105 144 189 233 296 359 433
#     4  11  25  43  71 102 146 184 238 291 361 428
#     4  10  22  44  72 109 141 190 241 302 356 432
#     4  11  24  45  71 106 142 189 236 297 359 429
#
# _framework density 24.152804
#
# number of rings (size 3 to 8) (size 9 to 14) (size 15 to 20)
#    0.000    1.200    2.000    3.000    0.000   12.000 
#    0.000    0.000    0.000    0.000    0.000    0.000 
#    0.000    0.000    0.000    0.000    0.000    0.000 
#
# Total GULP energy -55700.438523 kJ/mol
# GULP energy per Si atom -5570.043852 kJ/mol
# Density = 2.409783 g / cm^3
# Si number density = 24.152804 Si / 1000 Ang^3
#
#
#
# Elastic Constant Matrix: (Units=GPa)
#
#
# Indices 1 2 3 4 5 6 
#
# 1 93.0784 30.8823 33.8998 0.0000 -16.8172 0.0000
# 2 30.8823 143.7033 52.4336 0.0000 -8.4801 0.0000
# 3 33.8998 52.4336 82.4252 0.0000 -3.8198 0.0000
# 4 0.0000 0.0000 0.0000 30.6865 0.0000 -19.2865
# 5 -16.8172 -8.4801 -3.8198 0.0000 29.9762 0.0000
# 6 0.0000 0.0000 0.0000 -19.2865 0.0000 6.3668
#
#
#
# Elastic Compliance Matrix: (Units=1/GPa)
#
#
# Indices 1 2 3 4 5 6 
#
# 1 0.014088 -0.000803 -0.004957 0.000000 0.007045 0.000000
# 2 -0.000803 0.009210 -0.005461 0.000000 0.001459 0.000000
# 3 -0.004957 -0.005461 0.017548 0.000000 -0.002090 0.000000
# 4 0.000000 0.000000 0.000000 -0.036053 0.000000 -0.109214
# 5 0.007045 0.001459 -0.002090 0.000000 0.037459 0.000000
# 6 0.000000 0.000000 0.000000 -0.109214 0.000000 -0.173769
#
#
# Mechanical properties :
#
#
# Convention : Reuss Voigt Hill
#
# Bulk Modulus (GPa) = 54.33489 61.51536 57.92513
# Shear Modulus (GPa) = -48.57174 26.87197 -10.84988
#
# Velocity S-wave (km/s) = -4.48930 3.33916 -2.12178
# Velocity P-wave (km/s) = 2.08006 6.35540 4.24644
#
# Compressibility (1/GPa) = 0.01840438
#
# Stress axis : x y z
#
# Youngs Moduli (GPa) = 70.98086 108.57729 56.98716
#
# Poissons Ratio (x) = 0.08722 0.28247
# Poissons Ratio (y) = 0.05702 0.31120
# Poissons Ratio (z) = 0.35183 0.59292
#
# Static dielectric constant tensor:
#      x y z
#    x 2.059440 0.000000 0.001000 
#    y 0.000000 1.942180 0.000000 
#    z 0.001000 0.000000 1.997120 
# 
# From -- ./inp_files/6579.got.cif
#   From: 2010.05.17/outbox.cif.g08.bks.cpg/sg5_4_cif.got.tgz:6579.got - 2010.06.03 18:56:24.
