data_PCOD9127783
_publ_section_title
;
Structure prediction by ZEFSAII (Michael W. Deem and Ramdas Pophale) SiO2 
 PCOD9127783
Probable space group: C 2
;
_chemical_formula_sum "Si O2"
_cell_formula_units_Z 32
_cell_length_a 26.957095
_cell_length_b 14.192045
_cell_length_c 10.389980
_cell_angle_alpha 90.000000
_cell_angle_beta 23.230823
_cell_angle_gamma 90.000000
_cell_volume 1567.868631
_symmetry_space_group_name_H-M "C 2"
_symmetry_group_IT_number 5
_symmetry_cell_setting 'monoclinic'
loop_
_space_group_symop_operation_xyz
x,y,z
-x,y,-z
1/2+x,1/2+y,z
1/2-x,1/2+y,-z
loop_
_atom_site_type_symbol
_atom_site_label
_atom_site_fract_x
_atom_site_fract_y
_atom_site_fract_z
Si Si1 0.106684 0.554100 0.639385
Si Si2 0.165118 0.857338 0.285506
Si Si3 0.536478 0.507673 0.768057
Si Si4 0.714569 0.685199 0.380508
Si Si5 0.333955 0.878481 0.645258
Si Si6 0.427102 0.814691 0.795764
Si Si7 0.332656 0.661585 0.214615
Si Si8 0.507661 0.163929 0.630705
O O1 0.172276 0.454896 0.451896
O O2 0.198423 0.632041 0.480135
O O3 0.060807 0.592929 0.610813
O O4 0.000000 0.538661 0.000000
O O5 0.094783 0.757765 0.430608
O O6 0.073156 0.926577 0.581568
O O7 0.220265 0.891558 0.017077
O O8 0.292556 0.850620 0.067126
O O9 0.650030 0.584910 0.500306
O O10 0.500000 0.473910 0.000000
O O11 0.416813 0.568267 0.011766
O O12 0.671150 0.772118 0.396390
O O13 0.675610 0.699601 0.621123
O O14 0.864280 0.682844 0.012502
O O15 0.470034 0.886543 0.391795
O O16 0.500000 0.771009 0.500000
O O17 0.396160 0.738330 0.975063
O O18 0.500000 0.131135 0.500000
#
# Coordination Sequence:
#
# PCOD9127783 Si02
#       8
#     4   4   4   4   4   4   4   4
#     4  12  28  45  67 106 138 180 228 280 338 407
#     4  11  25  44  68 103 133 178 224 277 343 406
#     4  10  25  42  69 101 135 177 227 278 340 400
#     4  11  24  45  68  98 136 180 227 280 342 397
#     4  11  26  43  70 101 135 177 229 278 340 401
#     4  10  23  42  67  97 133 175 224 277 337 400
#     4  11  23  45  69  96 134 179 228 277 333 400
#     4  12  26  45  71  97 142 181 222 282 345 403
#
# _framework density 20.409873999999999
#
# number of rings (size 3 to 8) (size 9 to 14) (size 15 to 20)
#    0.000    1.000    5.000    0.000    7.000    3.000 
#    0.000    0.000    0.000    0.000    0.000    0.000 
#    0.000    0.000    0.000    0.000    0.000    0.000 
#
# Total GULP energy -89369.456311 kJ/mol
# GULP energy per Si atom -5585.591019 kJ/mol
# Density = 2.036342 g / cm^3
# Si number density = 20.409874 Si / 1000 Ang^3
#
#
#
# Elastic Constant Matrix: (Units=GPa)
#
#
# Indices 1 2 3 4 5 6 
#
# 1 54.1847 7.5937 20.2211 0.0000 14.8723 0.0000
# 2 7.5937 45.2751 32.8340 0.0000 24.6499 0.0000
# 3 20.2211 32.8340 117.5407 0.0000 21.8403 0.0000
# 4 0.0000 0.0000 0.0000 45.8668 0.0000 9.1389
# 5 14.8723 24.6499 21.8403 0.0000 45.5650 0.0000
# 6 0.0000 0.0000 0.0000 9.1389 0.0000 20.8722
#
#
#
# Elastic Compliance Matrix: (Units=1/GPa)
#
#
# Indices 1 2 3 4 5 6 
#
# 1 0.021097 0.002292 -0.003030 0.000000 -0.006674 0.000000
# 2 0.002292 0.036202 -0.007387 0.000000 -0.016792 0.000000
# 3 -0.003030 -0.007387 0.011160 0.000000 -0.000364 0.000000
# 4 0.000000 0.000000 0.000000 0.023886 0.000000 -0.010458
# 5 -0.006674 -0.016792 -0.000364 0.000000 0.033384 0.000000
# 6 0.000000 0.000000 0.000000 -0.010458 0.000000 0.052490
#
#
# Mechanical properties :
#
#
# Convention : Reuss Voigt Hill
#
# Bulk Modulus (GPa) = 19.15333 37.58869 28.37101
# Shear Modulus (GPa) = 23.59927 32.88426 28.24176
#
# Velocity S-wave (km/s) = 3.40408 4.01832 3.72389
# Velocity P-wave (km/s) = 4.98549 6.32346 5.69391
#
# Compressibility (1/GPa) = 0.05221025
#
# Stress axis : x y z
#
# Youngs Moduli (GPa) = 47.40119 27.62244 89.60534
#
# Poissons Ratio (x) = -0.06332 0.27147
# Poissons Ratio (y) = -0.10865 0.66191
# Poissons Ratio (z) = 0.14361 0.20405
#
# Static dielectric constant tensor:
#      x y z
#    x 1.774100 0.000000 -0.024790 
#    y 0.000000 1.711780 0.000000 
#    z -0.024790 0.000000 1.702630 
# 
# From -- ./inp_files/31068.got.cif
#   From: 2010.05.17/outbox.cif.g08.bks.cpg/sg5_16_cif.got.tgz:31068.got - 2010.06.03 18:56:24.
