data_PCOD9127758
_publ_section_title
;
Structure prediction by ZEFSAII (Michael W. Deem and Ramdas Pophale) SiO2 
 PCOD9127758
Probable space group: C 2
;
_chemical_formula_sum "Si O2"
_cell_formula_units_Z 20
_cell_length_a 33.470912
_cell_length_b 4.998181
_cell_length_c 14.126508
_cell_angle_alpha 90.000000
_cell_angle_beta 21.760480
_cell_angle_gamma 90.000000
_cell_volume 876.130778
_symmetry_space_group_name_H-M "C 2"
_symmetry_group_IT_number 5
_symmetry_cell_setting 'monoclinic'
loop_
_space_group_symop_operation_xyz
x,y,z
-x,y,-z
1/2+x,1/2+y,z
1/2-x,1/2+y,-z
loop_
_atom_site_type_symbol
_atom_site_label
_atom_site_fract_x
_atom_site_fract_y
_atom_site_fract_z
Si Si1 0.109682 0.782870 0.709148
Si Si2 0.535800 0.435723 0.122082
Si Si3 0.649022 0.940232 0.781482
Si Si4 0.678661 0.950914 0.140570
Si Si5 0.025447 0.715166 0.346096
O O1 0.224522 0.899174 0.483673
O O2 0.120168 0.487858 0.733973
O O3 0.079144 0.839008 0.668253
O O4 0.000000 0.891779 0.000000
O O5 0.536487 0.400750 0.232474
O O6 0.578469 0.716648 0.989147
O O7 0.629081 0.038101 0.147659
O O8 0.617851 0.215786 0.900499
O O9 0.774216 0.156860 0.955403
O O10 0.578112 0.018085 0.431371
O O11 0.000000 0.873311 0.500000
#
# Coordination Sequence:
#
# PCOD9127758 Si02
#       5
#     4   4   4   4   4
#     4  10  23  42  65  90 128 167 211 267 322 380
#     4  11  25  44  64 101 131 172 217 268 320 387
#     4  11  25  41  67  95 130 170 219 267 326 388
#     4   9  20  38  63  89 126 169 209 260 316 365
#     4   8  23  42  66  99 133 171 220 264 315 388
#
# _framework density 22.827642000000001
#
# number of rings (size 3 to 8) (size 9 to 14) (size 15 to 20)
#    1.200    0.800    0.000    2.400    0.000   24.800 
#    0.000    0.000    0.000    0.000    0.000    0.000 
#    0.000    0.000    0.000    0.000    0.000    0.000 
#
# Total GULP energy -55735.896375 kJ/mol
# GULP energy per Si atom -5573.589637 kJ/mol
# Density = 2.277569 g / cm^3
# Si number density = 22.827642 Si / 1000 Ang^3
#
#
#
# Elastic Constant Matrix: (Units=GPa)
#
#
# Indices 1 2 3 4 5 6 
#
# 1 122.3034 11.7224 44.1063 0.0000 -6.4686 0.0000
# 2 11.7224 49.5483 16.8989 0.0000 8.3312 0.0000
# 3 44.1063 16.8989 79.4771 0.0000 -34.6363 0.0000
# 4 0.0000 0.0000 0.0000 28.7021 0.0000 -14.1366
# 5 -6.4686 8.3312 -34.6363 0.0000 45.2370 0.0000
# 6 0.0000 0.0000 0.0000 -14.1366 0.0000 14.4997
#
#
#
# Elastic Compliance Matrix: (Units=1/GPa)
#
#
# Indices 1 2 3 4 5 6 
#
# 1 0.010876 0.001237 -0.008585 0.000000 -0.005246 0.000000
# 2 0.001237 0.026608 -0.012610 0.000000 -0.014379 0.000000
# 3 -0.008585 -0.012610 0.030773 0.000000 0.024657 0.000000
# 4 0.000000 0.000000 0.000000 0.067026 0.000000 0.065348
# 5 -0.005246 -0.014379 0.024657 0.000000 0.042882 0.000000
# 6 0.000000 0.000000 0.000000 0.065348 0.000000 0.132678
#
#
# Mechanical properties :
#
#
# Convention : Reuss Voigt Hill
#
# Bulk Modulus (GPa) = 35.28456 44.08711 39.68584
# Shear Modulus (GPa) = 13.88085 29.59451 21.73768
#
# Velocity S-wave (km/s) = 2.46859 3.60451 3.08921
# Velocity P-wave (km/s) = 4.85960 6.05626 5.49063
#
# Compressibility (1/GPa) = 0.02834101
#
# Stress axis : x y z
#
# Youngs Moduli (GPa) = 91.94200 37.58233 32.49571
#
# Poissons Ratio (x) = -0.04648 0.27898
# Poissons Ratio (y) = -0.11372 0.40978
# Poissons Ratio (z) = 0.78933 0.47392
#
# Static dielectric constant tensor:
#      x y z
#    x 1.988330 0.000000 0.022290 
#    y 0.000000 1.871200 0.000000 
#    z 0.022290 0.000000 1.857230 
# 
# From -- ./inp_files/47757.got.cif
#   From: 2010.05.17/outbox.cif.g08.bks.cpg/sg5_24_cif.got.tgz:47757.got - 2010.06.03 18:56:24.
