data_PCOD9127988
_publ_section_title
;
Structure prediction by ZEFSAII (Michael W. Deem and Ramdas Pophale) SiO2 
 PCOD9127988
Probable space group: C 2
;
_chemical_formula_sum "Si O2"
_cell_formula_units_Z 12
_cell_length_a 10.962335
_cell_length_b 8.023085
_cell_length_c 4.904331
_cell_angle_alpha 90.000000
_cell_angle_beta 95.938053
_cell_angle_gamma 90.000000
_cell_volume 429.030019
_symmetry_space_group_name_H-M "C 2"
_symmetry_group_IT_number 5
_symmetry_cell_setting 'monoclinic'
loop_
_space_group_symop_operation_xyz
x,y,z
-x,y,-z
1/2+x,1/2+y,z
1/2-x,1/2+y,-z
loop_
_atom_site_type_symbol
_atom_site_label
_atom_site_fract_x
_atom_site_fract_y
_atom_site_fract_z
Si Si1 0.373702 0.734790 0.427284
Si Si2 0.327425 0.520443 0.898933
Si Si3 0.872242 0.728529 0.313773
O O1 0.500000 0.832830 0.500000
O O2 0.356653 0.667715 0.121660
O O3 0.241016 0.789125 0.516163
O O4 0.606766 0.576051 0.361508
O O5 0.369598 0.355531 0.060712
O O6 0.181657 0.550710 0.808386
O O7 0.000000 0.718473 0.500000
#
# Coordination Sequence:
#
# PCOD9127988 Si02
#       3
#     4   4   4
#     4  10  23  44  73 109 143 195 243 298 370 440
#     4  10  24  44  75 107 146 194 246 297 373 438
#     4  10  25  47  79 105 150 191 252 298 372 436
#
# _framework density 27.970071999999998
#
# number of rings (size 3 to 8) (size 9 to 14) (size 15 to 20)
#    2.000    0.000    0.000    2.000    4.667    1.333 
#    0.000   11.667    0.000    0.000    0.000    0.000 
#    0.000    0.000    0.000    0.000    0.000    0.000 
#
# Total GULP energy -33548.708451 kJ/mol
# GULP energy per Si atom -5591.451409 kJ/mol
# Density = 2.790641 g / cm^3
# Si number density = 27.970072 Si / 1000 Ang^3
#
#
#
# Elastic Constant Matrix: (Units=GPa)
#
#
# Indices 1 2 3 4 5 6 
#
# 1 320.2089 56.5866 75.0894 0.0000 50.7864 0.0000
# 2 56.5866 88.3273 23.5796 0.0000 10.0974 0.0000
# 3 75.0894 23.5796 137.1526 0.0000 15.2504 0.0000
# 4 0.0000 0.0000 0.0000 38.3570 0.0000 18.9921
# 5 50.7864 10.0974 15.2504 0.0000 62.7826 0.0000
# 6 0.0000 0.0000 0.0000 18.9921 0.0000 33.8603
#
#
#
# Elastic Compliance Matrix: (Units=1/GPa)
#
#
# Indices 1 2 3 4 5 6 
#
# 1 0.004313 -0.001991 -0.001713 0.000000 -0.002753 0.000000
# 2 -0.001991 0.012916 -0.001108 0.000000 -0.000197 0.000000
# 3 -0.001713 -0.001108 0.008475 0.000000 -0.000495 0.000000
# 4 0.000000 0.000000 0.000000 0.036095 0.000000 -0.020246
# 5 -0.002753 -0.000197 -0.000495 0.000000 0.018307 0.000000
# 6 0.000000 0.000000 0.000000 -0.020246 0.000000 0.040889
#
#
# Mechanical properties :
#
#
# Convention : Reuss Voigt Hill
#
# Bulk Modulus (GPa) = 62.19625 95.13333 78.66479
# Shear Modulus (GPa) = 36.77047 53.02885 44.89966
#
# Velocity S-wave (km/s) = 3.62972 4.35893 4.01093
# Velocity P-wave (km/s) = 6.31281 7.70844 7.04527
#
# Compressibility (1/GPa) = 0.01607814
#
# Stress axis : x y z
#
# Youngs Moduli (GPa) = 231.85073 77.42551 118.00058
#
# Poissons Ratio (x) = 0.15417 0.20213
# Poissons Ratio (y) = 0.46167 0.13079
# Poissons Ratio (z) = 0.39715 0.08582
#
# Static dielectric constant tensor:
#      x y z
#    x 2.291070 0.000000 0.064610 
#    y 0.000000 2.291260 0.000000 
#    z 0.064610 0.000000 2.115440 
# 
# From -- ./inp_files/1534.got.cif
#   From: 2010.05.17/outbox.cif.g08.bks.cpg/sg5_1_cif.got.tgz:1534.got - 2010.06.03 18:56:24.
