data_PCOD9127789
_publ_section_title
;
Structure prediction by ZEFSAII (Michael W. Deem and Ramdas Pophale) SiO2 
 PCOD9127789
Probable space group: C 2
;
_chemical_formula_sum "Si O2"
_cell_formula_units_Z 20
_cell_length_a 7.338997
_cell_length_b 15.205942
_cell_length_c 8.586769
_cell_angle_alpha 90.000000
_cell_angle_beta 95.299723
_cell_angle_gamma 90.000000
_cell_volume 954.155799
_symmetry_space_group_name_H-M "C 2"
_symmetry_group_IT_number 5
_symmetry_cell_setting 'monoclinic'
loop_
_space_group_symop_operation_xyz
x,y,z
-x,y,-z
1/2+x,1/2+y,z
1/2-x,1/2+y,-z
loop_
_atom_site_type_symbol
_atom_site_label
_atom_site_fract_x
_atom_site_fract_y
_atom_site_fract_z
Si Si1 0.789903 0.477240 0.970189
Si Si2 0.076855 0.261320 0.350775
Si Si3 0.210945 0.172016 0.066043
Si Si4 0.695049 0.319416 0.166211
Si Si5 0.612704 0.396633 0.653959
O O1 0.697950 0.460419 0.793967
O O2 0.784916 0.576839 0.028349
O O3 0.691048 0.413745 0.083428
O O4 0.000000 0.446803 0.000000
O O5 0.191475 0.198772 0.244557
O O6 0.214395 0.341536 0.395635
O O7 0.000000 0.216680 0.500000
O O8 0.893394 0.300345 0.257213
O O9 0.308842 0.246315 0.970206
O O10 0.000000 0.170894 0.000000
O O11 0.529715 0.328049 0.275289
O O12 0.500000 0.437142 0.500000
#
# Coordination Sequence:
#
# PCOD9127789 Si02
#       5
#     4   4   4   4   4
#     4  12  24  42  69 106 140 184 244 287 336 419
#     4  11  22  43  69 104 140 181 227 293 356 406
#     4  10  23  42  68 102 136 185 240 286 338 420
#     4  11  22  43  70 100 136 182 239 285 347 415
#     4  12  24  41  73 102 140 188 225 289 362 409
#
# _framework density 20.960937000000001
#
# number of rings (size 3 to 8) (size 9 to 14) (size 15 to 20)
#    0.000    0.800    6.000    2.400    2.800    0.000 
#    0.000    9.000    0.000    2.400    0.000    0.000 
#    0.000    0.000    0.000    0.000    0.000    0.000 
#
# Total GULP energy -55796.498285 kJ/mol
# GULP energy per Si atom -5579.649829 kJ/mol
# Density = 2.091323 g / cm^3
# Si number density = 20.960937 Si / 1000 Ang^3
#
#
#
# Elastic Constant Matrix: (Units=GPa)
#
#
# Indices 1 2 3 4 5 6 
#
# 1 135.4514 4.5199 39.9583 0.0000 2.9377 0.0000
# 2 4.5199 76.3576 36.6916 0.0000 -11.2256 0.0000
# 3 39.9583 36.6916 141.0477 0.0000 7.1917 0.0000
# 4 0.0000 0.0000 0.0000 15.0220 0.0000 -3.7847
# 5 2.9377 -11.2256 7.1917 0.0000 42.4564 0.0000
# 6 0.0000 0.0000 0.0000 -3.7847 0.0000 22.4927
#
#
#
# Elastic Compliance Matrix: (Units=1/GPa)
#
#
# Indices 1 2 3 4 5 6 
#
# 1 0.008090 0.000721 -0.002482 0.000000 0.000051 0.000000
# 2 0.000721 0.016004 -0.004621 0.000000 0.004964 0.000000
# 3 -0.002482 -0.004621 0.009127 0.000000 -0.002596 0.000000
# 4 0.000000 0.000000 0.000000 0.069516 0.000000 0.011697
# 5 0.000051 0.004964 -0.002596 0.000000 0.025302 0.000000
# 6 0.000000 0.000000 0.000000 0.011697 0.000000 0.046427
#
#
# Mechanical properties :
#
#
# Convention : Reuss Voigt Hill
#
# Bulk Modulus (GPa) = 48.88026 57.24403 53.06215
# Shear Modulus (GPa) = 25.76681 34.10668 29.93674
#
# Velocity S-wave (km/s) = 3.50991 4.03818 3.78327
# Velocity P-wave (km/s) = 6.30843 7.00797 6.66738
#
# Compressibility (1/GPa) = 0.02045815
#
# Stress axis : x y z
#
# Youngs Moduli (GPa) = 123.61321 62.48553 109.56110
#
# Poissons Ratio (x) = -0.04508 0.27194
# Poissons Ratio (y) = -0.08917 0.50624
# Poissons Ratio (z) = 0.30682 0.28872
#
# Static dielectric constant tensor:
#      x y z
#    x 1.758760 0.000000 0.026140 
#    y 0.000000 1.730510 0.000000 
#    z 0.026140 0.000000 1.817140 
# 
# From -- ./inp_files/14811.got.cif
#   From: 2010.05.17/outbox.cif.g08.bks.cpg/sg5_8_cif.got.tgz:14811.got - 2010.06.03 18:56:24.
