data_PCOD9127606
_publ_section_title
;
Structure prediction by ZEFSAII (Michael W. Deem and Ramdas Pophale) SiO2 
 PCOD9127606
Probable space group: C 2
;
_chemical_formula_sum "Si O2"
_cell_formula_units_Z 24
_cell_length_a 13.804908
_cell_length_b 5.230684
_cell_length_c 15.206340
_cell_angle_alpha 90.000000
_cell_angle_beta 87.688895
_cell_angle_gamma 90.000000
_cell_volume 1097.143154
_symmetry_space_group_name_H-M "C 2"
_symmetry_group_IT_number 5
_symmetry_cell_setting 'monoclinic'
loop_
_space_group_symop_operation_xyz
x,y,z
-x,y,-z
1/2+x,1/2+y,z
1/2-x,1/2+y,-z
loop_
_atom_site_type_symbol
_atom_site_label
_atom_site_fract_x
_atom_site_fract_y
_atom_site_fract_z
Si Si1 0.545082 0.080910 0.634442
Si Si2 0.659861 0.701294 0.089427
Si Si3 0.952169 0.078891 0.628102
Si Si4 0.750035 0.231505 0.557629
Si Si5 0.776838 0.197752 0.116290
Si Si6 0.523245 0.771814 0.798916
O O1 0.473451 0.292802 0.597409
O O2 0.652669 0.180553 0.615816
O O3 0.526990 0.799725 0.593596
O O4 0.523737 0.025168 0.738157
O O5 0.702263 0.434092 0.123649
O O6 0.548703 0.759856 0.116546
O O7 0.721403 0.931895 0.129040
O O8 0.679430 0.703921 0.984348
O O9 0.845747 0.175063 0.610554
O O10 0.976213 0.077132 0.730746
O O11 0.750375 0.516963 0.519177
O O12 0.866968 0.219358 0.178409
#
# Coordination Sequence:
#
# PCOD9127606 Si02
#       6
#     4   4   4   4   4   4
#     4  10  25  42  63  95 122 160 205 257 310 366
#     4  10  23  40  62  92 128 169 209 252 303 361
#     4  10  25  42  63  95 122 160 205 257 310 366
#     4  12  26  44  68  90 124 166 204 256 312 378
#     4  10  23  40  62  92 128 169 209 252 303 361
#     4  10  25  38  69  90 130 162 208 258 305 366
#
# _framework density 21.874993
#
# number of rings (size 3 to 8) (size 9 to 14) (size 15 to 20)
#    1.000    0.667    0.000    2.500    7.000    4.000 
#    0.000    5.000    0.000    0.000    0.000    0.000 
#    0.000    0.000    0.000    0.000    0.000    0.000 
#
# Total GULP energy -66991.866279 kJ/mol
# GULP energy per Si atom -5582.655523 kJ/mol
# Density = 2.182520 g / cm^3
# Si number density = 21.874993 Si / 1000 Ang^3
#
#
#
# Elastic Constant Matrix: (Units=GPa)
#
#
# Indices 1 2 3 4 5 6 
#
# 1 66.8048 -10.9644 -0.9495 0.0000 9.3499 0.0000
# 2 -10.9644 75.8515 -4.3342 0.0000 7.3066 0.0000
# 3 -0.9495 -4.3342 29.8313 0.0000 9.8095 0.0000
# 4 0.0000 0.0000 0.0000 16.4795 0.0000 3.7727
# 5 9.3499 7.3066 9.8095 0.0000 44.4791 0.0000
# 6 0.0000 0.0000 0.0000 3.7727 0.0000 17.1045
#
#
#
# Elastic Compliance Matrix: (Units=1/GPa)
#
#
# Indices 1 2 3 4 5 6 
#
# 1 0.016089 0.002883 0.002371 0.000000 -0.004378 0.000000
# 2 0.002883 0.014145 0.003354 0.000000 -0.003669 0.000000
# 3 0.002371 0.003354 0.037122 0.000000 -0.009236 0.000000
# 4 0.000000 0.000000 0.000000 0.063909 0.000000 -0.014096
# 5 -0.004378 -0.003669 -0.009236 0.000000 0.026043 0.000000
# 6 0.000000 0.000000 0.000000 -0.014096 0.000000 0.061573
#
#
# Mechanical properties :
#
#
# Convention : Reuss Voigt Hill
#
# Bulk Modulus (GPa) = 11.82453 15.55459 13.68956
# Shear Modulus (GPa) = 21.75272 28.19498 24.97385
#
# Velocity S-wave (km/s) = 3.15685 3.59404 3.38251
# Velocity P-wave (km/s) = 4.32491 4.93446 4.63971
#
# Compressibility (1/GPa) = 0.08456993
#
# Stress axis : x y z
#
# Youngs Moduli (GPa) = 62.15575 70.69407 26.93842
#
# Poissons Ratio (x) = -0.20380 -0.06386
# Poissons Ratio (y) = -0.17919 -0.09034
# Poissons Ratio (z) = -0.14735 -0.23707
#
# Static dielectric constant tensor:
#      x y z
#    x 1.760190 0.000000 -0.032950 
#    y 0.000000 1.808640 0.000000 
#    z -0.032950 0.000000 1.897670 
# 
# From -- ./inp_files/60057.got.cif
#   From: 2010.05.17/outbox.cif.g08.bks.cpg/sg5_31_cif.got.tgz:60057.got - 2010.06.03 18:56:24.
