data_PCOD9127313
_publ_section_title
;
Structure prediction by ZEFSAII (Michael W. Deem and Ramdas Pophale) SiO2 
 PCOD9127313
Probable space group: C 2
;
_chemical_formula_sum "Si O2"
_cell_formula_units_Z 28
_cell_length_a 11.372844
_cell_length_b 8.477964
_cell_length_c 12.504311
_cell_angle_alpha 90.000000
_cell_angle_beta 116.171822
_cell_angle_gamma 90.000000
_cell_volume 1082.039131
_symmetry_space_group_name_H-M "C 2"
_symmetry_group_IT_number 5
_symmetry_cell_setting 'monoclinic'
loop_
_space_group_symop_operation_xyz
x,y,z
-x,y,-z
1/2+x,1/2+y,z
1/2-x,1/2+y,-z
loop_
_atom_site_type_symbol
_atom_site_label
_atom_site_fract_x
_atom_site_fract_y
_atom_site_fract_z
Si Si1 0.500000 0.073200 0.000000
Si Si2 0.334240 0.009265 0.297642
Si Si3 0.649697 0.756082 0.282709
Si Si4 0.770576 0.332146 0.925479
Si Si5 0.001588 0.746602 0.220663
Si Si6 0.162964 0.224483 0.826010
Si Si7 0.754571 0.099824 0.365148
Si Si8 0.000000 0.263656 0.500000
O O1 0.469029 0.173060 0.883214
O O2 0.377921 0.966723 0.985436
O O3 0.240966 0.104154 0.340983
O O4 0.423594 0.129131 0.267571
O O5 0.271827 0.892853 0.184720
O O6 0.426631 0.885742 0.394642
O O7 0.678087 0.765837 0.166706
O O8 0.495266 0.734994 0.234061
O O9 0.697612 0.922667 0.353195
O O10 0.614744 0.371644 0.850813
O O11 0.788653 0.214157 0.032510
O O12 0.144874 0.738000 0.332503
O O13 0.197712 0.110645 0.740350
O O14 0.881235 0.147539 0.485280
#
# Coordination Sequence:
#
# PCOD9127313 Si02
#       8
#     2   4   4   4   4   4   4   2
#     4  12  18  40  66  96 142 176 212 254 326 396
#     4  10  22  45  66  95 133 173 219 285 328 381
#     4  11  22  41  68  98 136 175 220 275 328 399
#     4  11  20  34  67  98 134 186 211 251 329 391
#     4  11  22  39  67  96 139 173 215 275 323 394
#     4  11  21  41  66  97 144 177 215 266 321 396
#     4  11  23  46  67  97 131 173 229 279 338 390
#     4  10  26  48  68  94 126 172 234 286 342 394
#
# _framework density 25.877067
#
# number of rings (size 3 to 8) (size 9 to 14) (size 15 to 20)
#    0.000    1.143    5.714    0.857    0.000    0.571 
#   15.429    0.000    6.286    0.000    0.000    0.000 
#    0.000    0.000    0.000    0.000    0.000    0.000 
#
# Total GULP energy -78116.060871 kJ/mol
# GULP energy per Si atom -5579.718634 kJ/mol
# Density = 2.581817 g / cm^3
# Si number density = 25.877067 Si / 1000 Ang^3
#
#
#
# Elastic Constant Matrix: (Units=GPa)
#
#
# Indices 1 2 3 4 5 6 
#
# 1 159.0483 61.5488 32.3831 0.0000 34.9811 0.0000
# 2 61.5488 91.8412 28.7752 0.0000 18.6045 0.0000
# 3 32.3831 28.7752 57.8533 0.0000 29.6010 0.0000
# 4 0.0000 0.0000 0.0000 26.1775 0.0000 3.6113
# 5 34.9811 18.6045 29.6010 0.0000 55.6729 0.0000
# 6 0.0000 0.0000 0.0000 3.6113 0.0000 51.6249
#
#
#
# Elastic Compliance Matrix: (Units=1/GPa)
#
#
# Indices 1 2 3 4 5 6 
#
# 1 0.009274 -0.005250 -0.000681 0.000000 -0.003710 0.000000
# 2 -0.005250 0.015933 -0.005426 0.000000 0.000859 0.000000
# 3 -0.000681 -0.005426 0.026400 0.000000 -0.011796 0.000000
# 4 0.000000 0.000000 0.000000 0.038573 0.000000 -0.002698
# 5 -0.003710 0.000859 -0.011796 0.000000 0.026278 0.000000
# 6 0.000000 0.000000 0.000000 -0.002698 0.000000 0.019559
#
#
# Mechanical properties :
#
#
# Convention : Reuss Voigt Hill
#
# Bulk Modulus (GPa) = 34.61015 61.57300 48.09157
# Shear Modulus (GPa) = 29.69797 39.09743 34.39770
#
# Velocity S-wave (km/s) = 3.39138 3.89123 3.64988
# Velocity P-wave (km/s) = 5.36089 6.63589 6.03217
#
# Compressibility (1/GPa) = 0.02889326
#
# Stress axis : x y z
#
# Youngs Moduli (GPa) = 107.83063 62.76475 37.87821
#
# Poissons Ratio (x) = 0.32951 0.02581
# Poissons Ratio (y) = 0.56610 0.20551
# Poissons Ratio (z) = 0.07347 0.34053
#
# Static dielectric constant tensor:
#      x y z
#    x 2.074340 0.000000 0.037800 
#    y 0.000000 2.219410 0.000000 
#    z 0.037800 0.000000 2.211650 
# 
# From -- ./inp_files/52519.got.cif
#   From: 2010.05.17/outbox.cif.g08.bks.cpg/sg5_27_cif.got.tgz:52519.got - 2010.06.03 18:56:24.
