data_PCOD9127136
_publ_section_title
;
Structure prediction by ZEFSAII (Michael W. Deem and Ramdas Pophale) SiO2 
 PCOD9127136
Probable space group: C 2
;
_chemical_formula_sum "Si O2"
_cell_formula_units_Z 24
_cell_length_a 11.502081
_cell_length_b 10.274080
_cell_length_c 20.029747
_cell_angle_alpha 90.000000
_cell_angle_beta 30.951788
_cell_angle_gamma 90.000000
_cell_volume 1217.377831
_symmetry_space_group_name_H-M "C 2"
_symmetry_group_IT_number 5
_symmetry_cell_setting 'monoclinic'
loop_
_space_group_symop_operation_xyz
x,y,z
-x,y,-z
1/2+x,1/2+y,z
1/2-x,1/2+y,-z
loop_
_atom_site_type_symbol
_atom_site_label
_atom_site_fract_x
_atom_site_fract_y
_atom_site_fract_z
Si Si1 0.627194 0.587610 0.663131
Si Si2 0.764538 0.594021 0.860054
Si Si3 0.688418 0.824238 0.218710
Si Si4 0.231575 0.478953 0.928055
Si Si5 0.146222 0.726472 0.054191
Si Si6 0.054180 0.556443 0.368498
O O1 0.487491 0.717318 0.716961
O O2 0.442827 0.477270 0.772842
O O3 0.788617 0.598609 0.647945
O O4 0.795620 0.564981 0.518333
O O5 0.778199 0.437023 0.852714
O O6 0.904121 0.654620 0.851143
O O7 0.865740 0.630651 0.738026
O O8 0.500000 0.630435 0.000000
O O9 0.924799 0.761581 0.121846
O O10 0.606675 0.907018 0.322968
O O11 0.237664 0.359737 0.977462
O O12 0.267463 0.614261 0.951172
O O13 0.000000 0.479942 0.000000
#
# Coordination Sequence:
#
# PCOD9127136 Si02
#       6
#     4   4   4   4   4   4
#     4  11  21  43  67  94 131 179 220 267 335 394
#     4  10  22  44  65  97 133 173 219 275 334 384
#     4  10  23  42  67  95 130 180 217 278 332 390
#     4  12  26  40  69 103 135 175 225 275 331 402
#     4  12  24  42  67 103 133 175 222 279 333 393
#     4   9  23  43  64  96 132 180 212 277 333 392
#
# _framework density 19.714506
#
# number of rings (size 3 to 8) (size 9 to 14) (size 15 to 20)
#    1.000    0.333    3.333    2.500    4.667    1.333 
#    0.000    5.000    0.000    0.000    0.000    0.000 
#    0.000    0.000    0.000    0.000    0.000    0.000 
#
# Total GULP energy -66907.931925 kJ/mol
# GULP energy per Si atom -5575.660994 kJ/mol
# Density = 1.966963 g / cm^3
# Si number density = 19.714506 Si / 1000 Ang^3
#
#
#
# Elastic Constant Matrix: (Units=GPa)
#
#
# Indices 1 2 3 4 5 6 
#
# 1 85.1787 38.4561 39.7161 -0.0008 2.9360 0.0001
# 2 38.4561 104.9741 23.8906 -0.0010 -3.2293 0.0003
# 3 39.7161 23.8906 117.7899 -0.0024 15.0746 0.0007
# 4 -0.0008 -0.0010 -0.0024 10.1988 0.0007 -3.2848
# 5 2.9360 -3.2293 15.0746 0.0007 30.5918 -0.0002
# 6 0.0001 0.0003 0.0007 -3.2848 -0.0002 38.0999
#
#
#
# Elastic Compliance Matrix: (Units=1/GPa)
#
#
# Indices 1 2 3 4 5 6 
#
# 1 0.015986 -0.004845 -0.004425 0.000000 0.000135 0.000000
# 2 -0.004845 0.011595 -0.000997 0.000000 0.002180 0.000000
# 3 -0.004425 -0.000997 0.010826 0.000003 -0.005015 0.000000
# 4 0.000000 0.000000 0.000003 0.100851 -0.000004 0.008695
# 5 0.000135 0.002180 -0.005015 -0.000004 0.035377 0.000000
# 6 0.000000 0.000000 0.000000 0.008695 0.000000 0.026996
#
#
# Mechanical properties :
#
#
# Convention : Reuss Voigt Hill
#
# Bulk Modulus (GPa) = 55.95058 56.89647 56.42353
# Shear Modulus (GPa) = 21.91807 29.50344 25.71075
#
# Velocity S-wave (km/s) = 3.33794 3.87270 3.61523
# Velocity P-wave (km/s) = 6.58011 6.99428 6.79035
#
# Compressibility (1/GPa) = 0.01787291
#
# Stress axis : x y z
#
# Youngs Moduli (GPa) = 62.55510 86.24312 92.37330
#
# Poissons Ratio (x) = 0.41786 0.40872
# Poissons Ratio (y) = 0.30309 0.09211
# Poissons Ratio (z) = 0.27678 0.08600
#
# Static dielectric constant tensor:
#      x y z
#    x 1.680810 0.000000 0.046610 
#    y 0.000000 1.723750 0.000000 
#    z 0.046610 0.000000 1.727420 
# 
# From -- ./inp_files/65186.got.cif
#   From: 2010.05.17/outbox.cif.g08.bks.cpg/sg5_33_cif.got.tgz:65186.got - 2010.06.03 18:56:24.
