data_PCOD9127793
_publ_section_title
;
Structure prediction by ZEFSAII (Michael W. Deem and Ramdas Pophale) SiO2 
 PCOD9127793
Probable space group: C 2
;
_chemical_formula_sum "Si O2"
_cell_formula_units_Z 26
_cell_length_a 5.391158
_cell_length_b 15.283624
_cell_length_c 14.958541
_cell_angle_alpha 90.000000
_cell_angle_beta 93.615591
_cell_angle_gamma 90.000000
_cell_volume 1230.077181
_symmetry_space_group_name_H-M "C 2"
_symmetry_group_IT_number 5
_symmetry_cell_setting 'monoclinic'
loop_
_space_group_symop_operation_xyz
x,y,z
-x,y,-z
1/2+x,1/2+y,z
1/2-x,1/2+y,-z
loop_
_atom_site_type_symbol
_atom_site_label
_atom_site_fract_x
_atom_site_fract_y
_atom_site_fract_z
Si Si1 0.906331 0.055130 0.208391
Si Si2 0.500000 0.370460 0.500000
Si Si3 0.830761 0.241852 0.163847
Si Si4 0.097243 0.578358 0.686377
Si Si5 0.477194 0.276228 0.309988
Si Si6 0.282467 0.878753 0.858703
Si Si7 0.500000 0.983247 0.500000
Si Si8 0.500000 0.276480 0.000000
O O1 0.973668 0.149653 0.167176
O O2 0.663580 0.066341 0.266810
O O3 0.163590 0.030651 0.264139
O O4 0.803356 0.978735 0.142587
O O5 0.513712 0.316091 0.408148
O O6 0.753066 0.426274 0.511474
O O7 0.728423 0.255810 0.261172
O O8 0.945307 0.336122 0.141816
O O9 0.629006 0.223403 0.082254
O O10 0.152333 0.681941 0.683711
O O11 0.055332 0.541360 0.587418
O O12 0.335302 0.338509 0.236036
O O13 0.182818 0.835577 0.946417
#
# Coordination Sequence:
#
# PCOD9127793 Si02
#       8
#     4   2   4   4   4   4   2   2
#     4  11  25  42  73  99 135 184 236 279 362 421
#     4  12  27  40  65 106 132 188 238 285 344 423
#     4  10  23  46  68  99 138 185 228 297 356 425
#     4  11  23  44  64  99 136 186 230 293 348 420
#     4  10  23  42  68  94 138 183 233 284 355 411
#     4  11  22  44  70  97 137 182 228 295 347 432
#     4  12  25  40  61  98 142 174 240 295 342 413
#     4  10  24  44  66 102 136 172 236 284 360 422
#
# _framework density 21.136883000000001
#
# number of rings (size 3 to 8) (size 9 to 14) (size 15 to 20)
#    0.000    1.231    1.538    3.692    8.615    0.000 
#    5.538    1.538    0.000    0.000    0.000    0.000 
#    0.000    0.000    0.000    0.000    0.000    0.000 
#
# Total GULP energy -72443.120613 kJ/mol
# GULP energy per Si atom -5572.547739 kJ/mol
# Density = 2.108877 g / cm^3
# Si number density = 21.136883 Si / 1000 Ang^3
#
#
#
# Elastic Constant Matrix: (Units=GPa)
#
#
# Indices 1 2 3 4 5 6 
#
# 1 86.8445 17.4724 21.0925 0.0000 6.4950 0.0000
# 2 17.4724 63.9733 25.0486 0.0000 4.9219 0.0000
# 3 21.0925 25.0486 103.8353 0.0000 -14.6267 0.0000
# 4 0.0000 0.0000 0.0000 6.3343 0.0000 11.0053
# 5 6.4950 4.9219 -14.6267 0.0000 22.6817 0.0000
# 6 0.0000 0.0000 0.0000 11.0053 0.0000 22.0349
#
#
#
# Elastic Compliance Matrix: (Units=1/GPa)
#
#
# Indices 1 2 3 4 5 6 
#
# 1 0.013006 -0.002031 -0.002876 0.000000 -0.005138 0.000000
# 2 -0.002031 0.018677 -0.005040 0.000000 -0.006721 0.000000
# 3 -0.002876 -0.005040 0.012870 0.000000 0.010216 0.000000
# 4 0.000000 0.000000 0.000000 1.193713 0.000000 -0.596200
# 5 -0.005138 -0.006721 0.010216 0.000000 0.053606 0.000000
# 6 0.000000 0.000000 0.000000 -0.596200 0.000000 0.343154
#
#
# Mechanical properties :
#
#
# Convention : Reuss Voigt Hill
#
# Bulk Modulus (GPa) = 40.55217 42.43114 41.49166
# Shear Modulus (GPa) = 3.00636 22.94614 12.97625
#
# Velocity S-wave (km/s) = 1.19391 3.29841 2.48042
# Velocity P-wave (km/s) = 4.59649 5.88422 5.27976
#
# Compressibility (1/GPa) = 0.02465959
#
# Stress axis : x y z
#
# Youngs Moduli (GPa) = 76.88637 53.54303 77.70193
#
# Poissons Ratio (x) = 0.10874 0.22346
# Poissons Ratio (y) = 0.15615 0.39159
# Poissons Ratio (z) = 0.22112 0.26984
#
# Static dielectric constant tensor:
#      x y z
#    x 1.837570 0.000000 0.026360 
#    y 0.000000 1.814870 0.000000 
#    z 0.026360 0.000000 1.719080 
# 
# From -- ./inp_files/48931.got.cif
#   From: 2010.05.17/outbox.cif.g08.bks.cpg/sg5_25_cif.got.tgz:48931.got - 2010.06.03 18:56:24.
