data_PCOD9127769
_publ_section_title
;
Structure prediction by ZEFSAII (Michael W. Deem and Ramdas Pophale) SiO2 
 PCOD9127769
Probable space group: C 2
;
_chemical_formula_sum "Si O2"
_cell_formula_units_Z 28
_cell_length_a 11.733101
_cell_length_b 11.236571
_cell_length_c 13.898226
_cell_angle_alpha 90.000000
_cell_angle_beta 46.822794
_cell_angle_gamma 90.000000
_cell_volume 1336.217020
_symmetry_space_group_name_H-M "C 2"
_symmetry_group_IT_number 5
_symmetry_cell_setting 'monoclinic'
loop_
_space_group_symop_operation_xyz
x,y,z
-x,y,-z
1/2+x,1/2+y,z
1/2-x,1/2+y,-z
loop_
_atom_site_type_symbol
_atom_site_label
_atom_site_fract_x
_atom_site_fract_y
_atom_site_fract_z
Si Si1 0.176630 0.802090 0.362423
Si Si2 0.430270 0.642271 0.319728
Si Si3 0.034492 0.810003 0.882163
Si Si4 0.896435 0.061762 0.971955
Si Si5 0.418840 0.160937 0.771093
Si Si6 0.745312 0.049543 0.592717
Si Si7 0.371135 0.779363 0.640925
O O1 0.282321 0.714245 0.364871
O O2 0.156705 0.741159 0.269494
O O3 0.000000 0.808938 0.500000
O O4 0.745243 0.434455 0.343616
O O5 0.360350 0.542494 0.433209
O O6 0.537849 0.729149 0.320379
O O7 0.533390 0.601439 0.170312
O O8 0.987206 0.745431 0.813327
O O9 0.215545 0.846646 0.763530
O O10 0.000000 0.736455 0.000000
O O11 0.923135 0.921709 0.957843
O O12 0.719357 0.089956 0.097728
O O13 0.000000 0.113644 0.000000
O O14 0.568816 0.078302 0.659149
O O15 0.810822 0.164093 0.614293
O O16 0.500000 0.843804 0.500000
#
# Coordination Sequence:
#
# PCOD9127769 Si02
#       7
#     4   4   4   4   4   4   4
#     4  12  24  42  72 104 138 186 230 295 360 406
#     4  11  22  41  67  98 137 173 227 294 338 423
#     4  10  23  42  66  91 133 184 222 287 350 413
#     4  11  24  41  61  92 135 178 224 277 351 409
#     4  11  24  46  66 103 139 178 243 288 339 438
#     4  10  24  42  71 101 136 176 234 290 352 412
#     4   9  20  40  64  97 126 168 229 285 337 415
#
# _framework density 20.954681000000001
#
# number of rings (size 3 to 8) (size 9 to 14) (size 15 to 20)
#    0.000    1.429    2.857    2.143    4.000    3.429 
#    0.000    0.714    0.000    0.000    0.000    0.000 
#    0.000    0.000    0.000    0.000    0.000    0.000 
#
# Total GULP energy -78117.509709 kJ/mol
# GULP energy per Si atom -5579.822122 kJ/mol
# Density = 2.090699 g / cm^3
# Si number density = 20.954681 Si / 1000 Ang^3
#
#
#
# Elastic Constant Matrix: (Units=GPa)
#
#
# Indices 1 2 3 4 5 6 
#
# 1 119.6928 18.2696 49.0960 0.0000 -3.8319 0.0000
# 2 18.2696 48.8975 37.3606 0.0000 -1.3816 0.0000
# 3 49.0960 37.3606 145.5889 0.0000 -8.4431 0.0000
# 4 0.0000 0.0000 0.0000 -40.8321 0.0000 0.0564
# 5 -3.8319 -1.3816 -8.4431 0.0000 44.2546 0.0000
# 6 0.0000 0.0000 0.0000 0.0564 0.0000 15.1736
#
#
#
# Elastic Compliance Matrix: (Units=1/GPa)
#
#
# Indices 1 2 3 4 5 6 
#
# 1 0.009776 -0.001415 -0.002919 0.000000 0.000245 0.000000
# 2 -0.001415 0.025653 -0.006134 0.000000 -0.000492 0.000000
# 3 -0.002919 -0.006134 0.009507 0.000000 0.001369 0.000000
# 4 0.000000 0.000000 0.000000 -0.024490 0.000000 0.000091
# 5 0.000245 -0.000492 0.001369 0.000000 0.022864 0.000000
# 6 0.000000 0.000000 0.000000 0.000091 0.000000 0.065904
#
#
# Mechanical properties :
#
#
# Convention : Reuss Voigt Hill
#
# Bulk Modulus (GPa) = 41.67010 58.18125 49.92568
# Shear Modulus (GPa) = 36.19278 17.68274 26.93776
#
# Velocity S-wave (km/s) = 4.16046 2.90807 3.58931
# Velocity P-wave (km/s) = 6.55807 6.25311 6.40740
#
# Compressibility (1/GPa) = 0.02399802
#
# Stress axis : x y z
#
# Youngs Moduli (GPa) = 102.29089 38.98224 105.18908
#
# Poissons Ratio (x) = 0.05517 0.30708
# Poissons Ratio (y) = 0.14476 0.64525
# Poissons Ratio (z) = 0.29862 0.23913
#
# Static dielectric constant tensor:
#      x y z
#    x 1.794600 0.000000 0.060750 
#    y 0.000000 1.767330 0.000000 
#    z 0.060750 0.000000 1.850360 
# 
# From -- ./inp_files/53041.got.cif
#   From: 2010.05.17/outbox.cif.g08.bks.cpg/sg5_27_cif.got.tgz:53041.got - 2010.06.03 18:56:24.
