data_PCOD9127609
_publ_section_title
;
Structure prediction by ZEFSAII (Michael W. Deem and Ramdas Pophale) SiO2 
 PCOD9127609
Probable space group: C 2
;
_chemical_formula_sum "Si O2"
_cell_formula_units_Z 26
_cell_length_a 5.422938
_cell_length_b 13.243050
_cell_length_c 19.258700
_cell_angle_alpha 90.000000
_cell_angle_beta 119.290647
_cell_angle_gamma 90.000000
_cell_volume 1206.258501
_symmetry_space_group_name_H-M "C 2"
_symmetry_group_IT_number 5
_symmetry_cell_setting 'monoclinic'
loop_
_space_group_symop_operation_xyz
x,y,z
-x,y,-z
1/2+x,1/2+y,z
1/2-x,1/2+y,-z
loop_
_atom_site_type_symbol
_atom_site_label
_atom_site_fract_x
_atom_site_fract_y
_atom_site_fract_z
Si Si1 0.525008 0.029330 0.585407
Si Si2 0.357839 0.175938 0.293088
Si Si3 0.000000 0.148084 0.500000
Si Si4 0.388348 0.794213 0.376860
Si Si5 0.841708 0.293787 0.205699
Si Si6 0.245183 0.027471 0.163418
Si Si7 0.104998 0.612329 0.092480
O O1 0.500000 0.044746 0.500000
O O2 0.738909 0.100004 0.658168
O O3 0.220426 0.072180 0.566845
O O4 0.569820 0.912039 0.605054
O O5 0.584075 0.251307 0.358316
O O6 0.429629 0.093670 0.243644
O O7 0.147794 0.252562 0.225305
O O8 0.095856 0.226004 0.452365
O O9 0.370004 0.777250 0.292215
O O10 0.778109 0.409466 0.183299
O O11 0.633849 0.218461 0.137248
O O12 0.378038 0.049521 0.106334
O O13 0.918026 0.060817 0.130805
O O14 0.000000 0.626913 0.000000
#
# Coordination Sequence:
#
# PCOD9127609 Si02
#       7
#     4   4   2   4   4   4   4
#     4  11  22  40  61  89 132 178 218 278 340 386
#     4  10  23  40  63  95 129 172 224 283 326 404
#     4  10  24  40  58  92 130 168 222 278 326 398
#     4  11  21  41  62  93 126 170 228 272 333 397
#     4  11  24  41  70  96 132 175 224 278 335 404
#     4  11  24  44  71 103 134 178 224 276 339 404
#     4  11  26  46  70 102 140 176 222 280 339 409
#
# _framework density 21.554252999999999
#
# number of rings (size 3 to 8) (size 9 to 14) (size 15 to 20)
#    0.000    1.231    3.846    1.385    2.154    2.462 
#    1.385    0.000    0.000    0.000    0.000    0.000 
#    0.000    0.000    0.000    0.000    0.000    0.000 
#
# Total GULP energy -72421.334879 kJ/mol
# GULP energy per Si atom -5570.871914 kJ/mol
# Density = 2.150519 g / cm^3
# Si number density = 21.554253 Si / 1000 Ang^3
#
#
#
# Elastic Constant Matrix: (Units=GPa)
#
#
# Indices 1 2 3 4 5 6 
#
# 1 51.1266 43.6906 18.8937 0.0000 -12.6440 0.0000
# 2 43.6906 215.5099 66.7661 0.0000 3.2548 0.0000
# 3 18.8937 66.7661 128.5358 0.0000 -29.2067 0.0000
# 4 0.0000 0.0000 0.0000 30.2398 0.0000 -1.6372
# 5 -12.6440 3.2548 -29.2067 0.0000 41.1135 0.0000
# 6 0.0000 0.0000 0.0000 -1.6372 0.0000 22.1009
#
#
#
# Elastic Compliance Matrix: (Units=1/GPa)
#
#
# Indices 1 2 3 4 5 6 
#
# 1 0.026504 -0.005943 0.001372 0.000000 0.009596 0.000000
# 2 -0.005943 0.007181 -0.004056 0.000000 -0.005277 0.000000
# 3 0.001372 -0.004056 0.011751 0.000000 0.009090 0.000000
# 4 0.000000 0.000000 0.000000 0.033202 0.000000 0.002460
# 5 0.009596 -0.005277 0.009090 0.000000 0.034150 0.000000
# 6 0.000000 0.000000 0.000000 0.002460 0.000000 0.045429
#
#
# Mechanical properties :
#
#
# Convention : Reuss Voigt Hill
#
# Bulk Modulus (GPa) = 35.48410 72.65254 54.06832
# Shear Modulus (GPa) = 27.04667 36.41229 31.72948
#
# Velocity S-wave (km/s) = 3.54618 4.11461 3.84093
# Velocity P-wave (km/s) = 5.76764 7.50689 6.69399
#
# Compressibility (1/GPa) = 0.02818164
#
# Stress axis : x y z
#
# Youngs Moduli (GPa) = 37.72969 139.25231 85.10197
#
# Poissons Ratio (x) = 0.82759 -0.11673
# Poissons Ratio (y) = 0.22423 0.34515
# Poissons Ratio (z) = -0.05175 0.56477
#
# Static dielectric constant tensor:
#      x y z
#    x 2.019540 0.000000 0.044960 
#    y 0.000000 1.709300 0.000000 
#    z 0.044960 0.000000 1.857090 
# 
# From -- ./inp_files/63920.got.cif
#   From: 2010.05.17/outbox.cif.g08.bks.cpg/sg5_32_cif.got.tgz:63920.got - 2010.06.03 18:56:24.
