data_PCOD9127818
_publ_section_title
;
Structure prediction by ZEFSAII (Michael W. Deem and Ramdas Pophale) SiO2 
 PCOD9127818
Probable space group: C 2
;
_chemical_formula_sum "Si O2"
_cell_formula_units_Z 20
_cell_length_a 9.860969
_cell_length_b 10.517263
_cell_length_c 12.604976
_cell_angle_alpha 90.000000
_cell_angle_beta 34.197542
_cell_angle_gamma 90.000000
_cell_volume 734.746755
_symmetry_space_group_name_H-M "C 2"
_symmetry_group_IT_number 5
_symmetry_cell_setting 'monoclinic'
loop_
_space_group_symop_operation_xyz
x,y,z
-x,y,-z
1/2+x,1/2+y,z
1/2-x,1/2+y,-z
loop_
_atom_site_type_symbol
_atom_site_label
_atom_site_fract_x
_atom_site_fract_y
_atom_site_fract_z
Si Si1 0.887147 0.367710 0.892140
Si Si2 0.630940 0.628465 0.670730
Si Si3 0.838146 0.527092 0.727042
Si Si4 0.687051 0.508218 0.296917
Si Si5 0.898778 0.772714 0.185771
O O1 0.035120 0.271327 0.718907
O O2 0.076293 0.424772 0.850046
O O3 0.802154 0.483022 0.870426
O O4 0.646536 0.298235 0.088671
O O5 0.659282 0.619807 0.779939
O O6 0.438861 0.540873 0.732876
O O7 0.894594 0.585916 0.458644
O O8 0.769457 0.396275 0.707477
O O9 0.500000 0.447053 0.500000
O O10 0.761609 0.644477 0.299971
O O11 0.000000 0.754998 0.000000
#
# Coordination Sequence:
#
# PCOD9127818 Si02
#       5
#     4   4   4   4   4
#     4  11  25  47  69 102 137 181 236 286 333 420
#     4  11  24  43  70 102 139 179 232 286 338 406
#     4  10  23  42  71  95 142 180 222 281 350 391
#     4  12  25  44  75 101 138 184 234 280 343 411
#     4  10  23  46  71  97 144 182 222 284 353 401
#
# _framework density 27.220262999999999
#
# number of rings (size 3 to 8) (size 9 to 14) (size 15 to 20)
#    0.000    1.200    6.000    0.000    8.400    0.000 
#    3.600    0.000    0.000    0.000    0.000    0.000 
#    0.000    0.000    0.000    0.000    0.000    0.000 
#
# Total GULP energy -55955.329994 kJ/mol
# GULP energy per Si atom -5595.532999 kJ/mol
# Density = 2.715831 g / cm^3
# Si number density = 27.220263 Si / 1000 Ang^3
#
#
#
# Elastic Constant Matrix: (Units=GPa)
#
#
# Indices 1 2 3 4 5 6 
#
# 1 178.7697 17.9116 51.1688 -0.0004 -45.6348 -0.0001
# 2 17.9116 72.6453 31.9500 -0.0025 -27.2684 0.0012
# 3 51.1688 31.9500 147.2906 -0.0077 -41.7149 0.0037
# 4 -0.0004 -0.0025 -0.0077 40.1863 0.0018 -23.2921
# 5 -45.6348 -27.2684 -41.7149 0.0018 60.3227 -0.0005
# 6 -0.0001 0.0012 0.0037 -23.2921 -0.0005 34.2217
#
#
#
# Elastic Compliance Matrix: (Units=1/GPa)
#
#
# Indices 1 2 3 4 5 6 
#
# 1 0.007113 0.000590 -0.001243 0.000000 0.004788 0.000000
# 2 0.000590 0.017035 -0.001981 0.000000 0.006777 0.000000
# 3 -0.001243 -0.001981 0.008868 0.000001 0.004297 0.000000
# 4 0.000000 0.000000 0.000001 0.041096 0.000000 0.027971
# 5 0.004788 0.006777 0.004297 0.000000 0.026235 0.000000
# 6 0.000000 0.000000 0.000000 0.027971 0.000000 0.048259
#
#
# Mechanical properties :
#
#
# Convention : Reuss Voigt Hill
#
# Bulk Modulus (GPa) = 36.03822 66.75183 51.39502
# Shear Modulus (GPa) = 30.65196 46.79115 38.72156
#
# Velocity S-wave (km/s) = 3.35934 4.15056 3.77573
# Velocity P-wave (km/s) = 5.32119 6.89533 6.15876
#
# Compressibility (1/GPa) = 0.02774832
#
# Stress axis : x y z
#
# Youngs Moduli (GPa) = 140.59405 58.70224 112.77008
#
# Poissons Ratio (x) = -0.03465 0.14016
# Poissons Ratio (y) = -0.08298 0.22338
# Poissons Ratio (z) = 0.17475 0.11628
#
# Static dielectric constant tensor:
#      x y z
#    x 2.142700 0.000000 0.021370 
#    y 0.000000 2.080700 0.000000 
#    z 0.021370 0.000000 2.068060 
# 
# From -- ./inp_files/60281.got.cif
#   From: 2010.05.17/outbox.cif.g08.bks.cpg/sg5_31_cif.got.tgz:60281.got - 2010.06.03 18:56:24.
