data_PCOD9127253
_publ_section_title
;
Structure prediction by ZEFSAII (Michael W. Deem and Ramdas Pophale) SiO2 
 PCOD9127253
Probable space group: C 2
;
_chemical_formula_sum "Si O2"
_cell_formula_units_Z 18
_cell_length_a 12.285644
_cell_length_b 6.120457
_cell_length_c 21.830021
_cell_angle_alpha 90.000000
_cell_angle_beta 23.326620
_cell_angle_gamma 90.000000
_cell_volume 649.980910
_symmetry_space_group_name_H-M "C 2"
_symmetry_group_IT_number 5
_symmetry_cell_setting 'monoclinic'
loop_
_space_group_symop_operation_xyz
x,y,z
-x,y,-z
1/2+x,1/2+y,z
1/2-x,1/2+y,-z
loop_
_atom_site_type_symbol
_atom_site_label
_atom_site_fract_x
_atom_site_fract_y
_atom_site_fract_z
Si Si1 0.487108 0.301310 0.200212
Si Si2 0.384745 0.143680 0.997214
Si Si3 0.358879 0.291497 0.750430
Si Si4 0.365962 0.121306 0.505483
Si Si5 0.000000 0.035551 0.500000
O O1 0.590527 0.271372 0.077987
O O2 0.635019 0.195841 0.183876
O O3 0.197066 0.175872 0.354524
O O4 0.576258 0.554357 0.165651
O O5 0.500000 0.247687 0.000000
O O6 0.415600 0.932240 0.114747
O O7 0.424462 0.132701 0.660136
O O8 0.616239 0.463619 0.617997
O O9 0.500000 0.041625 0.500000
O O10 0.323312 0.374112 0.547651
#
# Coordination Sequence:
#
# PCOD9127253 Si02
#       5
#     4   4   4   4   2
#     4  11  24  45  71 101 145 186 235 292 349 422
#     4  10  24  46  69  98 144 189 236 286 353 428
#     4  11  23  42  70 103 141 185 234 289 353 423
#     4  10  23  40  69 108 141 177 234 294 356 412
#     4  10  22  44  72 106 140 178 238 290 348 420
#
# _framework density 27.693123
#
# number of rings (size 3 to 8) (size 9 to 14) (size 15 to 20)
#    0.667    0.889    2.222    1.333    1.556    7.111 
#    0.000   12.222    0.000    0.000    0.000    0.000 
#    0.000    0.000    0.000    0.000    0.000    0.000 
#
# Total GULP energy -50271.520718 kJ/mol
# GULP energy per Si atom -5585.724524 kJ/mol
# Density = 2.763009 g / cm^3
# Si number density = 27.693123 Si / 1000 Ang^3
#
#
#
# Elastic Constant Matrix: (Units=GPa)
#
#
# Indices 1 2 3 4 5 6 
#
# 1 196.5197 45.1794 64.0443 -0.0053 36.2348 0.0007
# 2 45.1794 63.2855 27.4939 -0.0024 -8.9084 0.0028
# 3 64.0443 27.4939 100.6843 -0.0332 4.2230 0.0062
# 4 -0.0053 -0.0024 -0.0332 57.8247 0.0054 -6.6969
# 5 36.2348 -8.9084 4.2230 0.0054 78.0787 -0.0004
# 6 0.0007 0.0028 0.0062 -6.6969 -0.0004 45.5617
#
#
#
# Elastic Compliance Matrix: (Units=1/GPa)
#
#
# Indices 1 2 3 4 5 6 
#
# 1 0.008163 -0.004798 -0.003708 -0.000001 -0.004135 0.000000
# 2 -0.004798 0.021177 -0.002932 -0.000002 0.004801 -0.000001
# 3 -0.003708 -0.002932 0.013063 0.000007 0.000680 -0.000001
# 4 -0.000001 -0.000002 0.000007 0.017593 -0.000001 0.002586
# 5 -0.004135 0.004801 0.000680 -0.000001 0.015238 0.000000
# 6 0.000000 -0.000001 -0.000001 0.002586 0.000000 0.022328
#
#
# Mechanical properties :
#
#
# Convention : Reuss Voigt Hill
#
# Bulk Modulus (GPa) = 51.21672 70.43609 60.82640
# Shear Modulus (GPa) = 39.38650 51.21114 45.29882
#
# Velocity S-wave (km/s) = 3.77536 4.30494 4.04882
# Velocity P-wave (km/s) = 6.12691 7.08518 6.62340
#
# Compressibility (1/GPa) = 0.01952488
#
# Stress axis : x y z
#
# Youngs Moduli (GPa) = 122.50932 47.22209 76.55164
#
# Poissons Ratio (x) = 0.22658 0.28389
# Poissons Ratio (y) = 0.58783 0.22445
# Poissons Ratio (z) = 0.45432 0.13845
#
# Static dielectric constant tensor:
#      x y z
#    x 2.149500 0.000000 -0.040460 
#    y 0.000000 2.204440 0.000000 
#    z -0.040460 0.000000 2.291550 
# 
# From -- ./inp_files/68594.got.cif
#   From: 2010.05.17/outbox.cif.g08.bks.cpg/sg5_35_cif.got.tgz:68594.got - 2010.06.03 18:56:24.
