data_PCOD9127129
_publ_section_title
;
Structure prediction by ZEFSAII (Michael W. Deem and Ramdas Pophale) SiO2 
 PCOD9127129
Probable space group: C 2
;
_chemical_formula_sum "Si O2"
_cell_formula_units_Z 26
_cell_length_a 11.866699
_cell_length_b 8.158253
_cell_length_c 15.962939
_cell_angle_alpha 90.000000
_cell_angle_beta 124.939434
_cell_angle_gamma 90.000000
_cell_volume 1266.851065
_symmetry_space_group_name_H-M "C 2"
_symmetry_group_IT_number 5
_symmetry_cell_setting 'monoclinic'
loop_
_space_group_symop_operation_xyz
x,y,z
-x,y,-z
1/2+x,1/2+y,z
1/2-x,1/2+y,-z
loop_
_atom_site_type_symbol
_atom_site_label
_atom_site_fract_x
_atom_site_fract_y
_atom_site_fract_z
Si Si1 0.475646 0.494740 0.671199
Si Si2 0.000000 0.115531 0.500000
Si Si3 0.233496 0.662380 0.013098
Si Si4 0.400618 0.846812 0.221428
Si Si5 0.759787 0.335199 0.323924
Si Si6 0.438477 0.062141 0.837112
Si Si7 0.734123 0.361887 0.863492
O O1 0.467185 0.507085 0.567576
O O2 0.525736 0.676383 0.720530
O O3 0.336338 0.445370 0.658791
O O4 0.595328 0.367440 0.750389
O O5 0.871448 0.233035 0.424001
O O6 0.273211 0.704422 0.934450
O O7 0.069600 0.639446 0.939331
O O8 0.288383 0.792964 0.104086
O O9 0.293859 0.493688 0.074312
O O10 0.336448 0.921504 0.278578
O O11 0.504050 0.966343 0.218666
O O12 0.664527 0.201886 0.236411
O O13 0.356646 0.934624 0.860435
#
# Coordination Sequence:
#
# PCOD9127129 Si02
#       7
#     4   2   4   4   4   4   4
#     4  10  22  44  65  92 124 161 209 265 312 370
#     4  10  22  44  64  94 120 160 214 266 328 362
#     4  11  21  35  61  94 127 170 206 238 308 370
#     4  10  24  39  59  98 129 164 212 249 303 384
#     4  11  23  43  68  87 125 166 207 268 316 371
#     4  12  22  39  65  88 130 172 202 259 309 366
#     4  11  22  39  63  94 127 169 210 248 309 376
#
# _framework density 20.523329
#
# number of rings (size 3 to 8) (size 9 to 14) (size 15 to 20)
#    0.000    1.231    7.692    0.462    0.000    3.692 
#    0.000    1.538    0.000    0.000    0.000    0.000 
#    0.000    0.000    0.000    0.000    0.000    0.000 
#
# Total GULP energy -72596.236890 kJ/mol
# GULP energy per Si atom -5584.325915 kJ/mol
# Density = 2.047662 g / cm^3
# Si number density = 20.523329 Si / 1000 Ang^3
#
#
#
# Elastic Constant Matrix: (Units=GPa)
#
#
# Indices 1 2 3 4 5 6 
#
# 1 146.4690 33.7501 42.3285 0.0000 -39.2916 0.0000
# 2 33.7501 26.8532 9.7537 0.0000 -18.9883 0.0000
# 3 42.3285 9.7537 97.1248 0.0000 -27.1477 0.0000
# 4 0.0000 0.0000 0.0000 15.3568 0.0000 -9.4469
# 5 -39.2916 -18.9883 -27.1477 0.0000 42.5171 0.0000
# 6 0.0000 0.0000 0.0000 -9.4469 0.0000 44.2463
#
#
#
# Elastic Compliance Matrix: (Units=1/GPa)
#
#
# Indices 1 2 3 4 5 6 
#
# 1 0.010969 -0.010017 -0.002668 0.000000 0.003960 0.000000
# 2 -0.010017 0.063785 0.004059 0.000000 0.021822 0.000000
# 3 -0.002668 0.004059 0.013230 0.000000 0.007795 0.000000
# 4 0.000000 0.000000 0.000000 0.074964 0.000000 0.016005
# 5 0.003960 0.021822 0.007795 0.000000 0.041902 0.000000
# 6 0.000000 0.000000 0.000000 0.016005 0.000000 0.026018
#
#
# Mechanical properties :
#
#
# Convention : Reuss Voigt Hill
#
# Bulk Modulus (GPa) = 14.13764 49.12352 31.63058
# Shear Modulus (GPa) = 18.40296 32.73168 25.56732
#
# Velocity S-wave (km/s) = 2.99772 3.99789 3.53337
# Velocity P-wave (km/s) = 4.34572 6.73040 5.66496
#
# Compressibility (1/GPa) = 0.07073315
#
# Stress axis : x y z
#
# Youngs Moduli (GPa) = 91.16872 15.67764 75.58703
#
# Poissons Ratio (x) = 0.15704 0.20164
# Poissons Ratio (y) = 0.91324 -0.30684
# Poissons Ratio (z) = 0.24320 -0.06364
#
# Static dielectric constant tensor:
#      x y z
#    x 1.734810 0.000000 -0.014350 
#    y 0.000000 1.793020 0.000000 
#    z -0.014350 0.000000 1.740820 
# 
# From -- ./inp_files/52097.got.cif
#   From: 2010.05.17/outbox.cif.g08.bks.cpg/sg5_27_cif.got.tgz:52097.got - 2010.06.03 18:56:24.
