data_PCOD9127294
_publ_section_title
;
Structure prediction by ZEFSAII (Michael W. Deem and Ramdas Pophale) SiO2 
 PCOD9127294
Probable space group: C 2
;
_chemical_formula_sum "Si O2"
_cell_formula_units_Z 26
_cell_length_a 15.139035
_cell_length_b 7.958235
_cell_length_c 13.172625
_cell_angle_alpha 90.000000
_cell_angle_beta 42.668892
_cell_angle_gamma 90.000000
_cell_volume 1075.631649
_symmetry_space_group_name_H-M "C 2"
_symmetry_group_IT_number 5
_symmetry_cell_setting 'monoclinic'
loop_
_space_group_symop_operation_xyz
x,y,z
-x,y,-z
1/2+x,1/2+y,z
1/2-x,1/2+y,-z
loop_
_atom_site_type_symbol
_atom_site_label
_atom_site_fract_x
_atom_site_fract_y
_atom_site_fract_z
Si Si1 0.677468 0.539850 0.525448
Si Si2 0.000000 0.618845 0.000000
Si Si3 0.128788 0.416033 0.075458
Si Si4 0.597457 0.093619 0.311043
Si Si5 0.888113 0.063424 0.799781
Si Si6 0.801216 0.712935 0.599295
Si Si7 0.724130 0.754881 0.295275
O O1 0.528593 0.489309 0.663269
O O2 0.724439 0.577653 0.598381
O O3 0.744204 0.387767 0.409933
O O4 0.692801 0.697176 0.436228
O O5 0.879277 0.734954 0.141992
O O6 0.054119 0.496569 0.043170
O O7 0.101554 0.540519 0.192180
O O8 0.098165 0.227166 0.138302
O O9 0.284040 0.434424 0.930758
O O10 0.649296 0.925660 0.327162
O O11 0.451848 0.162780 0.450480
O O12 0.700345 0.220082 0.277389
O O13 0.838505 0.126308 0.732555
#
# Coordination Sequence:
#
# PCOD9127294 Si02
#       7
#     4   2   4   4   4   4   4
#     4  12  26  45  71 107 136 187 244 297 353 421
#     4  10  22  44  78 106 134 192 236 288 352 428
#     4  10  23  45  69  99 145 184 237 284 357 419
#     4  10  24  46  66 100 140 186 226 298 354 415
#     4  10  25  42  70 101 140 188 230 292 354 418
#     4  11  27  41  70 102 138 183 240 292 358 417
#     4  10  23  42  75  97 142 182 235 290 361 411
#
# _framework density 24.171844
#
# number of rings (size 3 to 8) (size 9 to 14) (size 15 to 20)
#    0.000    1.538    0.000    2.308   21.538    1.231 
#    8.308    0.000    0.000    0.000    0.000    0.000 
#    0.000    0.000    0.000    0.000    0.000    0.000 
#
# Total GULP energy -72645.404854 kJ/mol
# GULP energy per Si atom -5588.108066 kJ/mol
# Density = 2.411683 g / cm^3
# Si number density = 24.171844 Si / 1000 Ang^3
#
#
#
# Elastic Constant Matrix: (Units=GPa)
#
#
# Indices 1 2 3 4 5 6 
#
# 1 127.1275 15.1064 33.4985 0.0000 4.8298 0.0000
# 2 15.1064 98.2563 8.3832 0.0000 4.3083 0.0000
# 3 33.4985 8.3832 68.2188 0.0000 -1.7011 0.0000
# 4 0.0000 0.0000 0.0000 30.4395 0.0000 4.5757
# 5 4.8298 4.3083 -1.7011 0.0000 41.9016 0.0000
# 6 0.0000 0.0000 0.0000 4.5757 0.0000 26.2441
#
#
#
# Elastic Compliance Matrix: (Units=1/GPa)
#
#
# Indices 1 2 3 4 5 6 
#
# 1 0.009191 -0.000986 -0.004421 0.000000 -0.001138 0.000000
# 2 -0.000986 0.010443 -0.000824 0.000000 -0.000994 0.000000
# 3 -0.004421 -0.000824 0.016963 0.000000 0.001283 0.000000
# 4 0.000000 0.000000 0.000000 0.033736 0.000000 -0.005882
# 5 -0.001138 -0.000994 0.001283 0.000000 0.024151 0.000000
# 6 0.000000 0.000000 0.000000 -0.005882 0.000000 0.039129
#
#
# Mechanical properties :
#
#
# Convention : Reuss Voigt Hill
#
# Bulk Modulus (GPa) = 41.43201 45.28651 43.35926
# Shear Modulus (GPa) = 32.44234 35.49132 33.96683
#
# Velocity S-wave (km/s) = 3.66752 3.83599 3.75270
# Velocity P-wave (km/s) = 5.92554 6.19642 6.06249
#
# Compressibility (1/GPa) = 0.02413593
#
# Stress axis : x y z
#
# Youngs Moduli (GPa) = 108.79809 95.75859 58.95308
#
# Poissons Ratio (x) = 0.09443 0.26060
# Poissons Ratio (y) = 0.10728 0.04857
# Poissons Ratio (z) = 0.48095 0.07889
#
# Static dielectric constant tensor:
#      x y z
#    x 1.926140 0.000000 0.068670 
#    y 0.000000 2.010390 0.000000 
#    z 0.068670 0.000000 1.985060 
# 
# From -- ./inp_files/54300.got.cif
#   From: 2010.05.17/outbox.cif.g08.bks.cpg/sg5_28_cif.got.tgz:54300.got - 2010.06.03 18:56:24.
