data_PCOD9127375
_publ_section_title
;
Structure prediction by ZEFSAII (Michael W. Deem and Ramdas Pophale) SiO2 
 PCOD9127375
Probable space group: C 2
;
_chemical_formula_sum "Si O2"
_cell_formula_units_Z 22
_cell_length_a 37.446792
_cell_length_b 4.870294
_cell_length_c 9.095342
_cell_angle_alpha 90.000000
_cell_angle_beta 148.942209
_cell_angle_gamma 90.000000
_cell_volume 855.768644
_symmetry_space_group_name_H-M "C 2"
_symmetry_group_IT_number 5
_symmetry_cell_setting 'monoclinic'
loop_
_space_group_symop_operation_xyz
x,y,z
-x,y,-z
1/2+x,1/2+y,z
1/2-x,1/2+y,-z
loop_
_atom_site_type_symbol
_atom_site_label
_atom_site_fract_x
_atom_site_fract_y
_atom_site_fract_z
Si Si1 0.439226 0.787830 0.009653
Si Si2 0.132200 0.957716 0.828664
Si Si3 0.293100 0.106752 0.119794
Si Si4 0.424628 0.809801 0.641327
Si Si5 0.699366 0.837905 0.309911
Si Si6 0.000000 0.946605 0.500000
O O1 0.506546 0.955374 0.185267
O O2 0.470393 0.621210 0.257729
O O3 0.428295 0.649228 0.810249
O O4 0.364940 0.893607 0.804328
O O5 0.101483 0.107492 0.577311
O O6 0.068778 0.799229 0.684903
O O7 0.250443 0.830653 0.946629
O O8 0.162867 0.187960 0.043237
O O9 0.255591 0.108860 0.556818
O O10 0.364100 0.028552 0.448566
O O11 0.311712 0.251546 0.034138
#
# Coordination Sequence:
#
# PCOD9127375 Si02
#       6
#     4   4   4   4   4   2
#     4   9  21  46  72 107 141 191 240 294 356 428
#     4  10  23  45  74 105 145 191 241 297 360 425
#     4  12  26  43  72 109 144 188 236 300 362 421
#     4  10  22  45  75 106 143 188 243 304 354 424
#     4  11  27  46  71 106 150 191 239 291 360 434
#     4   8  18  46  74 106 142 194 238 296 354 442
#
# _framework density 25.707882000000001
#
# number of rings (size 3 to 8) (size 9 to 14) (size 15 to 20)
#    0.000    1.818    1.818    0.000    5.091    1.455 
#    9.818    4.545    0.000    0.000    0.000    0.000 
#    0.000    0.000    0.000    0.000    0.000    0.000 
#
# Total GULP energy -61395.862708 kJ/mol
# GULP energy per Si atom -5581.442064 kJ/mol
# Density = 2.564937 g / cm^3
# Si number density = 25.707882 Si / 1000 Ang^3
#
#
#
# Elastic Constant Matrix: (Units=GPa)
#
#
# Indices 1 2 3 4 5 6 
#
# 1 179.0368 34.5557 96.1755 0.0000 15.5707 0.0000
# 2 34.5557 81.5573 34.4170 0.0000 18.1781 0.0000
# 3 96.1755 34.4170 121.1598 0.0000 12.2786 0.0000
# 4 0.0000 0.0000 0.0000 -3.4188 0.0000 -33.5823
# 5 15.5707 18.1781 12.2786 0.0000 84.1542 0.0000
# 6 0.0000 0.0000 0.0000 -33.5823 0.0000 -7.6251
#
#
#
# Elastic Compliance Matrix: (Units=1/GPa)
#
#
# Indices 1 2 3 4 5 6 
#
# 1 0.009830 -0.000882 -0.007498 0.000000 -0.000534 0.000000
# 2 -0.000882 0.014535 -0.003174 0.000000 -0.002513 0.000000
# 3 -0.007498 -0.003174 0.015121 0.000000 -0.000133 0.000000
# 4 0.000000 0.000000 0.000000 0.006921 0.000000 -0.030482
# 5 -0.000534 -0.002513 -0.000133 0.000000 0.012544 0.000000
# 6 0.000000 0.000000 0.000000 -0.030482 0.000000 0.003103
#
#
# Mechanical properties :
#
#
# Convention : Reuss Voigt Hill
#
# Bulk Modulus (GPa) = 61.06105 79.11671 70.08888
# Shear Modulus (GPa) = 55.17440 29.06245 42.11842
#
# Velocity S-wave (km/s) = 4.63774 3.36592 4.05204
# Velocity P-wave (km/s) = 7.24442 6.77849 7.01533
#
# Compressibility (1/GPa) = 0.01637705
#
# Stress axis : x y z
#
# Youngs Moduli (GPa) = 101.72814 68.80157 66.13334
#
# Poissons Ratio (x) = 0.06065 0.49590
# Poissons Ratio (y) = 0.08968 0.20992
# Poissons Ratio (z) = 0.76281 0.21839
#
# Static dielectric constant tensor:
#      x y z
#    x 2.072690 0.000000 -0.004780 
#    y 0.000000 2.060030 0.000000 
#    z -0.004780 0.000000 2.170920 
# 
# From -- ./inp_files/32410.got.cif
#   From: 2010.05.17/outbox.cif.g08.bks.cpg/sg5_17_cif.got.tgz:32410.got - 2010.06.03 18:56:24.
