data_PCOD9127175
_publ_section_title
;
Structure prediction by ZEFSAII (Michael W. Deem and Ramdas Pophale) SiO2 
 PCOD9127175
Probable space group: C 2
;
_chemical_formula_sum "Si O2"
_cell_formula_units_Z 26
_cell_length_a 20.972764
_cell_length_b 7.972838
_cell_length_c 13.996364
_cell_angle_alpha 90.000000
_cell_angle_beta 29.753603
_cell_angle_gamma 90.000000
_cell_volume 1161.456161
_symmetry_space_group_name_H-M "C 2"
_symmetry_group_IT_number 5
_symmetry_cell_setting 'monoclinic'
loop_
_space_group_symop_operation_xyz
x,y,z
-x,y,-z
1/2+x,1/2+y,z
1/2-x,1/2+y,-z
loop_
_atom_site_type_symbol
_atom_site_label
_atom_site_fract_x
_atom_site_fract_y
_atom_site_fract_z
Si Si1 0.230621 0.529600 0.909894
Si Si2 0.500000 0.166650 0.500000
Si Si3 0.229789 0.128532 0.922954
Si Si4 0.953101 0.029341 0.247450
Si Si5 0.381035 0.445698 0.541715
Si Si6 0.474548 0.171567 0.146871
Si Si7 0.372203 0.834507 0.231005
O O1 0.210268 0.328677 0.939594
O O2 0.344047 0.548442 0.684375
O O3 0.262582 0.586287 0.974885
O O4 0.106181 0.623271 0.029881
O O5 0.365623 0.078304 0.697492
O O6 0.477134 0.294911 0.441717
O O7 0.106692 0.045613 0.033572
O O8 0.916992 0.841175 0.264492
O O9 0.930213 0.052573 0.389686
O O10 0.879270 0.169788 0.284935
O O11 0.250513 0.356429 0.675734
O O12 0.385049 0.008066 0.272658
O O13 0.500000 0.196598 0.000000
O O14 0.500000 0.829768 0.000000
#
# Coordination Sequence:
#
# PCOD9127175 Si02
#       7
#     4   2   4   4   4   4   4
#     4  11  21  42  68  95 144 178 225 284 345 396
#     4  10  22  44  68 100 140 178 228 290 348 404
#     4  11  23  43  70  99 134 186 226 288 345 412
#     4  12  25  42  72 105 136 186 233 274 350 413
#     4  11  23  41  70 101 140 184 226 285 347 403
#     4  11  22  41  69  98 138 181 226 284 334 402
#     4  11  22  45  66 100 141 187 224 285 343 401
#
# _framework density 22.385691000000001
#
# number of rings (size 3 to 8) (size 9 to 14) (size 15 to 20)
#    0.000    0.923    4.615    5.077    2.154    0.000 
#    0.000    3.077    6.769    0.923    0.000    0.000 
#    0.000    0.000    0.000    0.000    0.000    0.000 
#
# Total GULP energy -72726.264489 kJ/mol
# GULP energy per Si atom -5594.328038 kJ/mol
# Density = 2.233474 g / cm^3
# Si number density = 22.385691 Si / 1000 Ang^3
#
#
#
# Elastic Constant Matrix: (Units=GPa)
#
#
# Indices 1 2 3 4 5 6 
#
# 1 73.3710 24.9304 12.4834 0.0000 -9.2727 0.0000
# 2 24.9304 116.6048 16.4979 -0.0001 9.9769 0.0000
# 3 12.4834 16.4979 80.1447 -0.0001 -1.7611 0.0000
# 4 0.0000 -0.0001 -0.0001 19.1327 0.0000 4.3140
# 5 -9.2727 9.9769 -1.7611 0.0000 46.0827 0.0000
# 6 0.0000 0.0000 0.0000 4.3140 0.0000 46.4526
#
#
#
# Elastic Compliance Matrix: (Units=1/GPa)
#
#
# Indices 1 2 3 4 5 6 
#
# 1 0.015550 -0.003419 -0.001635 0.000000 0.003807 0.000000
# 2 -0.003419 0.009770 -0.001541 0.000000 -0.002862 0.000000
# 3 -0.001635 -0.001541 0.013060 0.000000 0.000504 0.000000
# 4 0.000000 0.000000 0.000000 0.053384 0.000000 -0.004958
# 5 0.003807 -0.002862 0.000504 0.000000 0.023105 0.000000
# 6 0.000000 0.000000 0.000000 -0.004958 0.000000 0.021988
#
#
# Mechanical properties :
#
#
# Convention : Reuss Voigt Hill
#
# Bulk Modulus (GPa) = 39.69796 41.99378 40.84587
# Shear Modulus (GPa) = 31.55663 36.74751 34.15207
#
# Velocity S-wave (km/s) = 3.75864 4.05602 3.91016
# Velocity P-wave (km/s) = 6.05051 6.38239 6.21867
#
# Compressibility (1/GPa) = 0.02519021
#
# Stress axis : x y z
#
# Youngs Moduli (GPa) = 64.30714 102.35423 76.56717
#
# Poissons Ratio (x) = 0.34997 0.12516
# Poissons Ratio (y) = 0.21988 0.11803
# Poissons Ratio (z) = 0.10512 0.15778
#
# Static dielectric constant tensor:
#      x y z
#    x 1.831470 0.000000 0.001840 
#    y 0.000000 1.807520 0.000000 
#    z 0.001840 0.000000 1.877610 
# 
# From -- ./inp_files/56797.got.cif
#   From: 2010.05.17/outbox.cif.g08.bks.cpg/sg5_29_cif.got.tgz:56797.got - 2010.06.03 18:56:24.
