data_PCOD9127986
_publ_section_title
;
Structure prediction by ZEFSAII (Michael W. Deem and Ramdas Pophale) SiO2 
 PCOD9127986
Probable space group: C 2
;
_chemical_formula_sum "Si O2"
_cell_formula_units_Z 16
_cell_length_a 20.920043
_cell_length_b 4.769128
_cell_length_c 8.668958
_cell_angle_alpha 90.000000
_cell_angle_beta 42.345943
_cell_angle_gamma 90.000000
_cell_volume 582.604714
_symmetry_space_group_name_H-M "C 2"
_symmetry_group_IT_number 5
_symmetry_cell_setting 'monoclinic'
loop_
_space_group_symop_operation_xyz
x,y,z
-x,y,-z
1/2+x,1/2+y,z
1/2-x,1/2+y,-z
loop_
_atom_site_type_symbol
_atom_site_label
_atom_site_fract_x
_atom_site_fract_y
_atom_site_fract_z
Si Si1 0.731858 0.856050 0.630435
Si Si2 0.105616 0.971863 0.257025
Si Si3 0.136761 0.459979 0.395866
Si Si4 0.458041 0.766742 0.916077
O O1 0.714273 0.632947 0.522310
O O2 0.793301 0.659577 0.632949
O O3 0.630027 0.956680 0.872674
O O4 0.169477 0.172528 0.253118
O O5 0.097578 0.047865 0.093639
O O6 0.000000 0.049718 0.500000
O O7 0.116650 0.652267 0.281922
O O8 0.043422 0.410788 0.668659
O O9 0.500000 0.643925 0.000000
#
# Coordination Sequence:
#
# PCOD9127986 Si02
#       4
#     4   4   4   4
#     4  12  27  47  74 114 154 195 258 321 373 453
#     4  10  23  44  73 107 146 195 246 308 377 449
#     4  11  24  48  73 105 153 192 249 313 374 451
#     4  11  25  50  76 114 149 207 248 316 385 450
#
# _framework density 27.462872999999998
#
# number of rings (size 3 to 8) (size 9 to 14) (size 15 to 20)
#    0.000    1.000    2.500    3.750    3.500    8.000 
#    0.000    0.000    0.000    0.000    0.000    0.000 
#    0.000    0.000    0.000    0.000    0.000    0.000 
#
# Total GULP energy -44751.544218 kJ/mol
# GULP energy per Si atom -5593.943027 kJ/mol
# Density = 2.740037 g / cm^3
# Si number density = 27.462873 Si / 1000 Ang^3
#
#
#
# Elastic Constant Matrix: (Units=GPa)
#
#
# Indices 1 2 3 4 5 6 
#
# 1 89.4072 38.3653 35.2827 -0.0006 11.8698 0.0002
# 2 38.3653 154.8576 42.7562 -0.0014 9.5397 0.0021
# 3 35.2827 42.7562 169.9616 -0.0004 -16.1953 -0.0001
# 4 -0.0006 -0.0014 -0.0004 26.0230 -0.0005 6.8128
# 5 11.8698 9.5397 -16.1953 -0.0005 37.1744 0.0003
# 6 0.0002 0.0021 -0.0001 6.8128 0.0003 35.7433
#
#
#
# Elastic Compliance Matrix: (Units=1/GPa)
#
#
# Indices 1 2 3 4 5 6 
#
# 1 0.013979 -0.002382 -0.002785 0.000000 -0.005066 0.000000
# 2 -0.002382 0.007605 -0.001599 0.000000 -0.001888 -0.000001
# 3 -0.002785 -0.001599 0.007291 0.000000 0.004476 0.000000
# 4 0.000000 0.000000 0.000000 0.040446 0.000001 -0.007709
# 5 -0.005066 -0.001888 0.004476 0.000001 0.030952 0.000000
# 6 0.000000 -0.000001 0.000000 -0.007709 0.000000 0.029447
#
#
# Mechanical properties :
#
#
# Convention : Reuss Voigt Hill
#
# Bulk Modulus (GPa) = 65.17812 71.89276 68.53544
# Shear Modulus (GPa) = 33.70069 39.64296 36.67182
#
# Velocity S-wave (km/s) = 3.50685 3.80348 3.65817
# Velocity P-wave (km/s) = 6.33893 6.74712 6.54621
#
# Compressibility (1/GPa) = 0.01534257
#
# Stress axis : x y z
#
# Youngs Moduli (GPa) = 71.53792 131.48656 137.16443
#
# Poissons Ratio (x) = 0.31321 0.38204
# Poissons Ratio (y) = 0.17041 0.21927
# Poissons Ratio (z) = 0.19925 0.21019
#
# Static dielectric constant tensor:
#      x y z
#    x 2.291770 0.000000 0.087880 
#    y 0.000000 2.040680 0.000000 
#    z 0.087880 0.000000 2.144710 
# 
# From -- ./inp_files/25785.got.cif
#   From: 2010.05.17/outbox.cif.g08.bks.cpg/sg5_13_cif.got.tgz:25785.got - 2010.06.03 18:56:24.
