data_PCOD9127095
_publ_section_title
;
Structure prediction by ZEFSAII (Michael W. Deem and Ramdas Pophale) SiO2 
 PCOD9127095
Probable space group: C 2
;
_chemical_formula_sum "Si O2"
_cell_formula_units_Z 24
_cell_length_a 13.233886
_cell_length_b 5.293690
_cell_length_c 14.877784
_cell_angle_alpha 90.000000
_cell_angle_beta 93.227109
_cell_angle_gamma 90.000000
_cell_volume 1040.626571
_symmetry_space_group_name_H-M "C 2"
_symmetry_group_IT_number 5
_symmetry_cell_setting 'monoclinic'
loop_
_space_group_symop_operation_xyz
x,y,z
-x,y,-z
1/2+x,1/2+y,z
1/2-x,1/2+y,-z
loop_
_atom_site_type_symbol
_atom_site_label
_atom_site_fract_x
_atom_site_fract_y
_atom_site_fract_z
Si Si1 0.152220 0.391970 0.079185
Si Si2 0.786826 0.537078 0.450103
Si Si3 0.455747 0.120266 0.777212
Si Si4 0.500000 0.517176 0.000000
Si Si5 0.395936 0.617029 0.669678
Si Si6 0.000000 0.320302 0.500000
Si Si7 0.145284 0.651101 0.895885
O O1 0.111804 0.624952 0.134998
O O2 0.251031 0.276551 0.128028
O O3 0.172031 0.449086 0.974964
O O4 0.060099 0.197128 0.071127
O O5 0.762525 0.789997 0.505142
O O6 0.723018 0.570787 0.355659
O O7 0.906834 0.484402 0.455038
O O8 0.442091 0.379383 0.723806
O O9 0.571107 0.068836 0.813207
O O10 0.414524 0.881612 0.720221
O O11 0.578951 0.353850 0.947972
O O12 0.451426 0.653162 0.576484
#
# Coordination Sequence:
#
# PCOD9127095 Si02
#       7
#     4   4   4   2   4   2   4
#     4  12  25  41  70  97 136 194 242 287 348 421
#     4  10  22  43  72 103 133 176 233 284 344 423
#     4  12  26  45  66 106 150 178 231 305 347 407
#     4  12  20  44  66  94 136 178 248 290 338 408
#     4  11  26  44  72 104 141 185 230 292 358 416
#     4  10  24  48  78 100 138 188 240 278 358 436
#     4  12  25  41  71  98 135 196 238 286 353 416
#
# _framework density 23.063030000000001
#
# number of rings (size 3 to 8) (size 9 to 14) (size 15 to 20)
#    0.000    0.667    5.000    3.000    0.000    8.667 
#    0.000    0.000    0.000    0.000    0.000    0.000 
#    0.000    0.000    0.000    0.000    0.000    0.000 
#
# Total GULP energy -67164.344634 kJ/mol
# GULP energy per Si atom -5597.028720 kJ/mol
# Density = 2.301054 g / cm^3
# Si number density = 23.063030 Si / 1000 Ang^3
#
#
#
# Elastic Constant Matrix: (Units=GPa)
#
#
# Indices 1 2 3 4 5 6 
#
# 1 127.9167 18.0596 40.8183 0.0000 39.6873 0.0000
# 2 18.0596 113.5306 34.4185 0.0000 10.0819 0.0000
# 3 40.8183 34.4185 102.8138 0.0000 25.0163 0.0000
# 4 0.0000 0.0000 0.0000 40.1647 0.0000 3.0699
# 5 39.6873 10.0819 25.0163 0.0000 43.8490 0.0000
# 6 0.0000 0.0000 0.0000 3.0699 0.0000 33.0281
#
#
#
# Elastic Compliance Matrix: (Units=1/GPa)
#
#
# Indices 1 2 3 4 5 6 
#
# 1 0.011341 -0.000339 -0.002218 0.000000 -0.008921 0.000000
# 2 -0.000339 0.009821 -0.003110 0.000000 -0.000177 0.000000
# 3 -0.002218 -0.003110 0.012756 0.000000 -0.004555 0.000000
# 4 0.000000 0.000000 0.000000 0.025076 0.000000 -0.002331
# 5 -0.008921 -0.000177 -0.004555 0.000000 0.033519 0.000000
# 6 0.000000 0.000000 0.000000 -0.002331 0.000000 0.030494
#
#
# Mechanical properties :
#
#
# Convention : Reuss Voigt Hill
#
# Bulk Modulus (GPa) = 44.28081 58.98377 51.63229
# Shear Modulus (GPa) = 35.24353 40.13933 37.69143
#
# Velocity S-wave (km/s) = 3.91338 4.17636 4.04701
# Velocity P-wave (km/s) = 6.29770 6.99189 6.65385
#
# Compressibility (1/GPa) = 0.02258315
#
# Stress axis : x y z
#
# Youngs Moduli (GPa) = 88.17365 101.82597 78.39222
#
# Poissons Ratio (x) = 0.03455 0.17390
# Poissons Ratio (y) = 0.02992 0.24379
# Poissons Ratio (z) = 0.19560 0.31667
#
# Static dielectric constant tensor:
#      x y z
#    x 1.850750 0.000000 -0.003790 
#    y 0.000000 1.857910 0.000000 
#    z -0.003790 0.000000 1.931860 
# 
# From -- ./inp_files/53665.got.cif
#   From: 2010.05.17/outbox.cif.g08.bks.cpg/sg5_27_cif.got.tgz:53665.got - 2010.06.03 18:56:24.
