data_PCOD9127977
_publ_section_title
;
Structure prediction by ZEFSAII (Michael W. Deem and Ramdas Pophale) SiO2 
 PCOD9127977
Probable space group: C 2
;
_chemical_formula_sum "Si O2"
_cell_formula_units_Z 24
_cell_length_a 20.071285
_cell_length_b 5.369919
_cell_length_c 13.651508
_cell_angle_alpha 90.000000
_cell_angle_beta 39.811867
_cell_angle_gamma 90.000000
_cell_volume 942.075886
_symmetry_space_group_name_H-M "C 2"
_symmetry_group_IT_number 5
_symmetry_cell_setting 'monoclinic'
loop_
_space_group_symop_operation_xyz
x,y,z
-x,y,-z
1/2+x,1/2+y,z
1/2-x,1/2+y,-z
loop_
_atom_site_type_symbol
_atom_site_label
_atom_site_fract_x
_atom_site_fract_y
_atom_site_fract_z
Si Si1 0.188172 0.985310 0.691205
Si Si2 0.160399 0.876228 0.173325
Si Si3 0.000000 0.269512 0.000000
Si Si4 0.501083 0.747685 0.653845
Si Si5 0.000000 0.631695 0.500000
Si Si6 0.801928 0.978060 0.556576
Si Si7 0.104566 0.501534 0.064305
O O1 0.233465 0.714980 0.669329
O O2 0.076551 0.078051 0.855850
O O3 0.195094 0.979143 0.565180
O O4 0.258569 0.219409 0.641908
O O5 0.116218 0.156684 0.230679
O O6 0.095409 0.752433 0.334006
O O7 0.126207 0.752222 0.106643
O O8 0.282850 0.868538 0.052992
O O9 0.934971 0.453169 0.001087
O O10 0.543995 0.945468 0.531510
O O11 0.577383 0.517466 0.555312
O O12 0.491791 0.873656 0.769072
#
# Coordination Sequence:
#
# PCOD9127977 Si02
#       7
#     4   4   2   4   2   4   4
#     4  10  24  44  67 104 147 189 246 310 382 452
#     4  11  24  47  74 106 149 195 253 316 393 461
#     4  12  26  46  72 112 152 196 262 312 384 458
#     4  11  23  45  72 104 141 198 245 321 374 466
#     4  10  26  40  74 106 134 180 266 314 376 446
#     4  10  23  44  71  97 141 198 244 309 383 451
#     4  11  25  46  71 108 151 201 244 318 384 467
#
# _framework density 25.475655
#
# number of rings (size 3 to 8) (size 9 to 14) (size 15 to 20)
#    0.000    1.333    3.333    0.500    7.000    3.333 
#    3.000    0.000    0.000    0.000    0.000    0.000 
#    0.000    0.000    0.000    0.000    0.000    0.000 
#
# Total GULP energy -67006.689199 kJ/mol
# GULP energy per Si atom -5583.890767 kJ/mol
# Density = 2.541767 g / cm^3
# Si number density = 25.475655 Si / 1000 Ang^3
#
#
#
# Elastic Constant Matrix: (Units=GPa)
#
#
# Indices 1 2 3 4 5 6 
#
# 1 104.0613 39.2396 42.9015 0.0093 -4.5364 0.0150
# 2 39.2396 99.0810 63.6256 0.0398 3.1005 0.1366
# 3 42.9015 63.6256 129.1335 -0.0350 -9.0907 -0.0605
# 4 0.0093 0.0398 -0.0350 20.9407 0.0009 -73.5999
# 5 -4.5364 3.1005 -9.0907 0.0009 34.9220 -0.0048
# 6 0.0150 0.1366 -0.0605 -73.5999 -0.0048 -120.2428
#
#
#
# Elastic Compliance Matrix: (Units=1/GPa)
#
#
# Indices 1 2 3 4 5 6 
#
# 1 0.011821 -0.003299 -0.002213 -0.000002 0.001252 0.000000
# 2 -0.003299 0.016059 -0.007077 0.000011 -0.003697 0.000015
# 3 -0.002213 -0.007077 0.012214 -0.000005 0.003520 -0.000011
# 4 -0.000002 0.000011 -0.000005 0.015154 -0.000004 -0.009275
# 5 0.001252 -0.003697 0.003520 -0.000004 0.030042 -0.000004
# 6 0.000000 0.000015 -0.000011 -0.009275 -0.000004 -0.002639
#
#
# Mechanical properties :
#
#
# Convention : Reuss Voigt Hill
#
# Bulk Modulus (GPa) = 67.04563 69.31213 68.17888
# Shear Modulus (GPa) = 44.32531 -0.44209 21.94161
#
# Velocity S-wave (km/s) = 4.17575 -0.41703 2.93794
# Velocity P-wave (km/s) = 7.04442 5.19946 6.19105
#
# Compressibility (1/GPa) = 0.01491522
#
# Stress axis : x y z
#
# Youngs Moduli (GPa) = 84.59541 62.26856 81.87375
#
# Poissons Ratio (x) = 0.20544 0.18122
# Poissons Ratio (y) = 0.27911 0.57940
# Poissons Ratio (z) = 0.18725 0.44066
#
# Static dielectric constant tensor:
#      x y z
#    x 2.517440 -0.000010 0.706350 
#    y -0.000010 2.074610 0.000000 
#    z 0.706350 0.000000 3.094980 
# 
# From -- ./inp_files/56487.got.cif
#   From: 2010.05.17/outbox.cif.g08.bks.cpg/sg5_29_cif.got.tgz:56487.got - 2010.06.03 18:56:24.
