data_PCOD9127151
_publ_section_title
;
Structure prediction by ZEFSAII (Michael W. Deem and Ramdas Pophale) SiO2 
 PCOD9127151
Probable space group: C 2
;
_chemical_formula_sum "Si O2"
_cell_formula_units_Z 26
_cell_length_a 22.347035
_cell_length_b 9.823490
_cell_length_c 15.321059
_cell_angle_alpha 90.000000
_cell_angle_beta 21.184875
_cell_angle_gamma 90.000000
_cell_volume 1215.449005
_symmetry_space_group_name_H-M "C 2"
_symmetry_group_IT_number 5
_symmetry_cell_setting 'monoclinic'
loop_
_space_group_symop_operation_xyz
x,y,z
-x,y,-z
1/2+x,1/2+y,z
1/2-x,1/2+y,-z
loop_
_atom_site_type_symbol
_atom_site_label
_atom_site_fract_x
_atom_site_fract_y
_atom_site_fract_z
Si Si1 0.339157 0.136500 0.384788
Si Si2 0.750342 0.333853 0.743922
Si Si3 0.500000 0.677669 0.500000
Si Si4 0.619068 0.462898 0.204803
Si Si5 0.500000 0.241339 0.500000
Si Si6 0.500000 0.128274 0.000000
Si Si7 0.000110 0.540885 0.342574
Si Si8 0.952269 0.940221 0.243805
O O1 0.436395 0.059536 0.173825
O O2 0.436925 0.106683 0.339855
O O3 0.354041 0.299985 0.354836
O O4 0.158991 0.070686 0.625609
O O5 0.836521 0.266830 0.710604
O O6 0.898534 0.402053 0.491080
O O7 0.653575 0.220131 0.822175
O O8 0.612214 0.438332 0.964021
O O9 0.524680 0.585209 0.381968
O O10 0.615095 0.342586 0.284124
O O11 0.517414 0.431658 0.254821
O O12 0.804499 0.509483 0.927613
O O13 0.445925 0.136795 0.497301
#
# Coordination Sequence:
#
# PCOD9127151 Si02
#       8
#     4   4   2   4   2   2   4   4
#     4  11  24  44  71  98 142 184 233 292 362 423
#     4  11  23  42  68  98 131 180 236 282 353 436
#     4  11  23  40  70 102 125 187 232 286 352 435
#     4  11  24  42  72  98 144 180 234 295 362 418
#     4  11  25  44  64 110 141 181 240 294 346 443
#     4  10  22  44  66  96 136 180 238 278 338 452
#     4  12  24  44  71 102 143 184 228 305 361 419
#     4  11  23  46  68 102 138 187 231 292 354 435
#
# _framework density 21.391271
#
# number of rings (size 3 to 8) (size 9 to 14) (size 15 to 20)
#    0.000    0.923    1.538    6.923    2.154    1.231 
#    5.538    0.000    0.000    0.000    0.000    0.000 
#    0.000    0.000    0.000    0.000    0.000    0.000 
#
# Total GULP energy -72565.865482 kJ/mol
# GULP energy per Si atom -5581.989652 kJ/mol
# Density = 2.134258 g / cm^3
# Si number density = 21.391271 Si / 1000 Ang^3
#
#
#
# Elastic Constant Matrix: (Units=GPa)
#
#
# Indices 1 2 3 4 5 6 
#
# 1 108.8711 -6.7605 28.3821 0.0000 -10.5033 0.0000
# 2 -6.7605 35.7010 32.1065 0.0000 -16.3352 0.0000
# 3 28.3821 32.1065 107.1600 0.0000 -15.8685 0.0000
# 4 0.0000 0.0000 0.0000 24.8782 0.0000 -4.8750
# 5 -10.5033 -16.3352 -15.8685 0.0000 28.0121 0.0000
# 6 0.0000 0.0000 0.0000 -4.8750 0.0000 23.0933
#
#
#
# Elastic Compliance Matrix: (Units=1/GPa)
#
#
# Indices 1 2 3 4 5 6 
#
# 1 0.011893 0.010326 -0.005121 0.000000 0.007580 0.000000
# 2 0.010326 0.056914 -0.015608 0.000000 0.028219 0.000000
# 3 -0.005121 -0.015608 0.014990 0.000000 -0.002531 0.000000
# 4 0.000000 0.000000 0.000000 0.041930 0.000000 0.008852
# 5 0.007580 0.028219 -0.002531 0.000000 0.053563 0.000000
# 6 0.000000 0.000000 0.000000 0.008852 0.000000 0.045171
#
#
# Mechanical properties :
#
#
# Convention : Reuss Voigt Hill
#
# Bulk Modulus (GPa) = 15.87570 39.90980 27.89275
# Shear Modulus (GPa) = 18.77822 28.39700 23.58761
#
# Velocity S-wave (km/s) = 2.96606 3.64745 3.32426
# Velocity P-wave (km/s) = 4.37809 6.03623 5.27275
#
# Compressibility (1/GPa) = 0.06298936
#
# Stress axis : x y z
#
# Youngs Moduli (GPa) = 84.08558 17.57022 66.71146
#
# Poissons Ratio (x) = -0.18142 0.34164
# Poissons Ratio (y) = -0.86824 1.04125
# Poissons Ratio (z) = 0.43062 0.27424
#
# Static dielectric constant tensor:
#      x y z
#    x 1.810110 0.000000 0.033840 
#    y 0.000000 1.835490 0.000000 
#    z 0.033840 0.000000 1.743900 
# 
# From -- ./inp_files/57044.got.cif
#   From: 2010.05.17/outbox.cif.g08.bks.cpg/sg5_29_cif.got.tgz:57044.got - 2010.06.03 18:56:24.
