data_PCOD9127971
_publ_section_title
;
Structure prediction by ZEFSAII (Michael W. Deem and Ramdas Pophale) SiO2 
 PCOD9127971
Probable space group: C 2
;
_chemical_formula_sum "Si O2"
_cell_formula_units_Z 20
_cell_length_a 8.884688
_cell_length_b 7.331832
_cell_length_c 15.666202
_cell_angle_alpha 90.000000
_cell_angle_beta 55.402577
_cell_angle_gamma 90.000000
_cell_volume 840.047171
_symmetry_space_group_name_H-M "C 2"
_symmetry_group_IT_number 5
_symmetry_cell_setting 'monoclinic'
loop_
_space_group_symop_operation_xyz
x,y,z
-x,y,-z
1/2+x,1/2+y,z
1/2-x,1/2+y,-z
loop_
_atom_site_type_symbol
_atom_site_label
_atom_site_fract_x
_atom_site_fract_y
_atom_site_fract_z
Si Si1 0.384108 0.755990 0.465211
Si Si2 0.499344 0.172712 0.402882
Si Si3 0.531948 0.039769 0.127105
Si Si4 0.096911 0.217730 0.734302
Si Si5 0.306555 0.440019 0.893229
O O1 0.500000 0.657876 0.500000
O O2 0.393804 0.668162 0.368779
O O3 0.184355 0.761666 0.571947
O O4 0.461140 0.957612 0.423830
O O5 0.500000 0.242989 0.500000
O O6 0.694222 0.214762 0.301229
O O7 0.489017 0.916251 0.222843
O O8 0.350400 0.003311 0.125736
O O9 0.596248 0.241326 0.134104
O O10 0.699991 0.962098 0.017088
O O11 0.971471 0.080261 0.826597
#
# Coordination Sequence:
#
# PCOD9127971 Si02
#       5
#     4   4   4   4   4
#     4  10  23  44  71 104 148 200 254 337 396 480
#     4   9  22  43  65 101 144 192 258 320 392 472
#     4  11  26  48  78 114 163 211 267 331 401 485
#     4  11  25  46  75 112 151 208 265 324 407 483
#     4  11  26  49  76 117 158 215 264 334 401 483
#
# _framework density 23.808185999999999
#
# number of rings (size 3 to 8) (size 9 to 14) (size 15 to 20)
#    0.000    1.600    2.000    0.000    5.600    8.800 
#    0.000    0.000    0.000    0.000    0.000    0.000 
#    0.000    0.000    0.000    0.000    0.000    0.000 
#
# Total GULP energy -55849.792110 kJ/mol
# GULP energy per Si atom -5584.979211 kJ/mol
# Density = 2.375400 g / cm^3
# Si number density = 23.808186 Si / 1000 Ang^3
#
#
#
# Elastic Constant Matrix: (Units=GPa)
#
#
# Indices 1 2 3 4 5 6 
#
# 1 114.8746 27.9599 65.3981 0.0000 -22.4020 0.0000
# 2 27.9599 109.9114 18.7099 0.0000 -31.4555 0.0000
# 3 65.3981 18.7099 132.4854 0.0000 -45.9895 0.0000
# 4 0.0000 0.0000 0.0000 37.7335 0.0000 -12.3053
# 5 -22.4020 -31.4555 -45.9895 0.0000 53.4277 0.0000
# 6 0.0000 0.0000 0.0000 -12.3053 0.0000 24.8824
#
#
#
# Elastic Compliance Matrix: (Units=1/GPa)
#
#
# Indices 1 2 3 4 5 6 
#
# 1 0.012716 -0.002655 -0.006551 0.000000 -0.001871 0.000000
# 2 -0.002655 0.011587 0.002361 0.000000 0.007741 0.000000
# 3 -0.006551 0.002361 0.014229 0.000000 0.010892 0.000000
# 4 0.000000 0.000000 0.000000 0.031598 0.000000 0.015626
# 5 -0.001871 0.007741 0.010892 0.000000 0.031866 0.000000
# 6 0.000000 0.000000 0.000000 0.015626 0.000000 0.047917
#
#
# Mechanical properties :
#
#
# Convention : Reuss Voigt Hill
#
# Bulk Modulus (GPa) = 40.25325 64.60081 52.42703
# Shear Modulus (GPa) = 29.08947 39.55561 34.32254
#
# Velocity S-wave (km/s) = 3.49926 4.08048 3.80100
# Velocity P-wave (km/s) = 5.76805 7.02803 6.42898
#
# Compressibility (1/GPa) = 0.02484271
#
# Stress axis : x y z
#
# Youngs Moduli (GPa) = 78.63911 86.30261 70.27773
#
# Poissons Ratio (x) = 0.22913 0.46042
# Poissons Ratio (y) = 0.20878 -0.16596
# Poissons Ratio (z) = 0.51520 -0.20380
#
# Static dielectric constant tensor:
#      x y z
#    x 2.024020 0.000000 0.001670 
#    y 0.000000 1.892400 0.000000 
#    z 0.001670 0.000000 1.880210 
# 
# From -- ./inp_files/59289.got.cif
#   From: 2010.05.17/outbox.cif.g08.bks.cpg/sg5_30_cif.got.tgz:59289.got - 2010.06.03 18:56:24.
