data_PCOD9127723
_publ_section_title
;
Structure prediction by ZEFSAII (Michael W. Deem and Ramdas Pophale) SiO2 
 PCOD9127723
Probable space group: C 2
;
_chemical_formula_sum "Si O2"
_cell_formula_units_Z 24
_cell_length_a 20.037791
_cell_length_b 5.015560
_cell_length_c 10.731743
_cell_angle_alpha 90.000000
_cell_angle_beta 63.678462
_cell_angle_gamma 90.000000
_cell_volume 966.724072
_symmetry_space_group_name_H-M "C 2"
_symmetry_group_IT_number 5
_symmetry_cell_setting 'monoclinic'
loop_
_space_group_symop_operation_xyz
x,y,z
-x,y,-z
1/2+x,1/2+y,z
1/2-x,1/2+y,-z
loop_
_atom_site_type_symbol
_atom_site_label
_atom_site_fract_x
_atom_site_fract_y
_atom_site_fract_z
Si Si1 0.701414 0.533730 0.014150
Si Si2 0.449226 0.230075 0.778053
Si Si3 0.644741 0.479519 0.809306
Si Si4 0.500000 0.990271 0.500000
Si Si5 0.911463 0.106070 0.397478
Si Si6 0.500000 0.156712 0.000000
Si Si7 0.241157 0.163171 0.427702
O O1 0.624018 0.408863 0.131852
O O2 0.759781 0.288102 0.955449
O O3 0.681138 0.632265 0.892328
O O4 0.439802 0.113028 0.646688
O O5 0.524963 0.393692 0.685876
O O6 0.471739 0.050194 0.884185
O O7 0.624064 0.658310 0.708425
O O8 0.699277 0.240171 0.724065
O O9 0.569114 0.343743 0.913185
O O10 0.452023 0.828741 0.440628
O O11 0.838290 0.033497 0.538645
O O12 0.226436 0.457002 0.498549
#
# Coordination Sequence:
#
# PCOD9127723 Si02
#       7
#     4   4   4   2   4   2   4
#     4  11  27  48  76 112 149 199 249 316 380 453
#     4  10  24  47  71 109 149 197 256 311 380 451
#     4   9  21  45  71 101 147 194 249 304 372 449
#     4  12  26  40  76 106 148 206 246 328 368 450
#     4  10  24  43  68 104 146 195 249 304 377 444
#     4   8  18  44  70  96 144 194 250 302 370 448
#     4  10  23  41  70 103 139 188 242 304 367 436
#
# _framework density 24.826114
#
# number of rings (size 3 to 8) (size 9 to 14) (size 15 to 20)
#    0.000    2.000    0.000    0.500   11.667    4.000 
#    3.000    0.833    0.000    0.000    0.000    0.000 
#    0.000    0.000    0.000    0.000    0.000    0.000 
#
# Total GULP energy -66823.862717 kJ/mol
# GULP energy per Si atom -5568.655226 kJ/mol
# Density = 2.476961 g / cm^3
# Si number density = 24.826114 Si / 1000 Ang^3
#
#
#
# Elastic Constant Matrix: (Units=GPa)
#
#
# Indices 1 2 3 4 5 6 
#
# 1 118.0109 31.0488 57.2593 0.0000 -0.9145 0.0000
# 2 31.0488 62.6649 32.0870 0.0000 11.4893 0.0000
# 3 57.2593 32.0870 126.1774 0.0000 3.6744 0.0000
# 4 0.0000 0.0000 0.0000 31.9148 0.0000 28.9648
# 5 -0.9145 11.4893 3.6744 0.0000 74.6187 0.0000
# 6 0.0000 0.0000 0.0000 28.9648 0.0000 52.0198
#
#
#
# Elastic Compliance Matrix: (Units=1/GPa)
#
#
# Indices 1 2 3 4 5 6 
#
# 1 0.011550 -0.003672 -0.004334 0.000000 0.000920 0.000000
# 2 -0.003672 0.020032 -0.003341 0.000000 -0.002965 0.000000
# 3 -0.004334 -0.003341 0.010744 0.000000 -0.000068 0.000000
# 4 0.000000 0.000000 0.000000 0.063343 0.000000 -0.035269
# 5 0.000920 -0.002965 -0.000068 0.000000 0.013873 0.000000
# 6 0.000000 0.000000 0.000000 -0.035269 0.000000 0.038861
#
#
# Mechanical properties :
#
#
# Convention : Reuss Voigt Hill
#
# Bulk Modulus (GPa) = 50.94208 60.84927 55.89567
# Shear Modulus (GPa) = 26.64648 44.14120 35.39384
#
# Velocity S-wave (km/s) = 3.27972 4.22123 3.77990
# Velocity P-wave (km/s) = 5.90814 6.95138 6.45089
#
# Compressibility (1/GPa) = 0.01963014
#
# Stress axis : x y z
#
# Youngs Moduli (GPa) = 86.57888 49.92047 93.07526
#
# Poissons Ratio (x) = 0.18332 0.40343
# Poissons Ratio (y) = 0.31793 0.31100
# Poissons Ratio (z) = 0.37527 0.16680
#
# Static dielectric constant tensor:
#      x y z
#    x 2.002260 0.000000 0.005340 
#    y 0.000000 1.987820 0.000000 
#    z 0.005340 0.000000 2.087180 
# 
# From -- ./inp_files/43743.got.cif
#   From: 2010.05.17/outbox.cif.g08.bks.cpg/sg5_22_cif.got.tgz:43743.got - 2010.06.03 18:56:24.
