data_PCOD9127081
_publ_section_title
;
Structure prediction by ZEFSAII (Michael W. Deem and Ramdas Pophale) SiO2 
 PCOD9127081
Probable space group: C 2
;
_chemical_formula_sum "Si O2"
_cell_formula_units_Z 30
_cell_length_a 8.426010
_cell_length_b 11.242183
_cell_length_c 15.234288
_cell_angle_alpha 90.000000
_cell_angle_beta 66.973401
_cell_angle_gamma 90.000000
_cell_volume 1328.113614
_symmetry_space_group_name_H-M "C 2"
_symmetry_group_IT_number 5
_symmetry_cell_setting 'monoclinic'
loop_
_space_group_symop_operation_xyz
x,y,z
-x,y,-z
1/2+x,1/2+y,z
1/2-x,1/2+y,-z
loop_
_atom_site_type_symbol
_atom_site_label
_atom_site_fract_x
_atom_site_fract_y
_atom_site_fract_z
Si Si1 0.379687 0.941580 0.270081
Si Si2 0.116151 0.369226 0.061060
Si Si3 0.709764 0.055760 0.445501
Si Si4 0.163891 0.640461 0.029283
Si Si5 0.000000 0.151105 0.500000
Si Si6 0.939993 0.705809 0.235164
Si Si7 0.906026 0.773893 0.613564
Si Si8 0.846850 0.349781 0.659515
O O1 0.485059 0.876744 0.170764
O O2 0.197501 0.886324 0.331247
O O3 0.504768 0.926112 0.326672
O O4 0.357579 0.076398 0.246824
O O5 0.214736 0.500236 0.035676
O O6 0.216413 0.243280 0.038243
O O7 0.000000 0.366739 0.000000
O O8 0.500000 0.053817 0.500000
O O9 0.732235 0.169904 0.378164
O O10 0.836459 0.077699 0.499115
O O11 0.747757 0.932458 0.391013
O O12 0.101847 0.697064 0.135731
O O13 0.000000 0.632369 0.000000
O O14 0.069553 0.238898 0.409017
O O15 0.798148 0.803959 0.242334
O O16 0.985156 0.727222 0.327559
O O17 0.000000 0.795809 0.500000
#
# Coordination Sequence:
#
# PCOD9127081 Si02
#       8
#     4   4   4   4   2   4   4   4
#     4  11  24  45  69  96 138 177 225 291 346 410
#     4  10  22  43  71 103 140 176 225 288 356 432
#     4  11  24  46  64  94 135 179 240 296 344 406
#     4  10  22  44  70 102 136 178 226 290 364 430
#     4  12  26  44  68  96 130 196 236 284 362 410
#     4  11  25  44  67  97 136 179 227 288 356 416
#     4  11  23  45  63  94 135 182 229 282 340 408
#     4  12  24  44  63  94 132 176 234 286 342 421
#
# _framework density 22.588429000000001
#
# number of rings (size 3 to 8) (size 9 to 14) (size 15 to 20)
#    0.000    1.067    3.333    3.200    0.000    1.600 
#    8.400    0.000    0.000    0.000    0.000    0.000 
#    0.000    0.000    0.000    0.000    0.000    0.000 
#
# Total GULP energy -83785.288066 kJ/mol
# GULP energy per Si atom -5585.685871 kJ/mol
# Density = 2.253702 g / cm^3
# Si number density = 22.588429 Si / 1000 Ang^3
#
#
#
# Elastic Constant Matrix: (Units=GPa)
#
#
# Indices 1 2 3 4 5 6 
#
# 1 60.1971 19.7193 4.6279 0.0000 8.6660 0.0000
# 2 19.7193 85.5789 13.9856 0.0000 -21.7635 0.0000
# 3 4.6279 13.9856 95.0910 0.0000 -1.4116 0.0000
# 4 0.0000 0.0000 0.0000 45.1562 0.0000 -4.9455
# 5 8.6660 -21.7635 -1.4116 0.0000 27.9464 0.0000
# 6 0.0000 0.0000 0.0000 -4.9455 0.0000 23.0515
#
#
#
# Elastic Compliance Matrix: (Units=1/GPa)
#
#
# Indices 1 2 3 4 5 6 
#
# 1 0.021141 -0.008149 -0.000022 0.000000 -0.012903 0.000000
# 2 -0.008149 0.018093 -0.002019 0.000000 0.016515 0.000000
# 3 -0.000022 -0.002019 0.010799 0.000000 -0.001020 0.000000
# 4 0.000000 0.000000 0.000000 0.022678 0.000000 0.004865
# 5 -0.012903 0.016515 -0.001020 0.000000 0.052593 0.000000
# 6 0.000000 0.000000 0.000000 0.004865 0.000000 0.044425
#
#
# Mechanical properties :
#
#
# Convention : Reuss Voigt Hill
#
# Bulk Modulus (GPa) = 33.72426 35.28140 34.50283
# Shear Modulus (GPa) = 25.00078 32.73309 28.86694
#
# Velocity S-wave (km/s) = 3.33046 3.81085 3.57872
# Velocity P-wave (km/s) = 5.45450 5.91748 5.69070
#
# Compressibility (1/GPa) = 0.02965224
#
# Stress axis : x y z
#
# Youngs Moduli (GPa) = 47.30207 55.27080 92.59998
#
# Poissons Ratio (x) = 0.45040 0.00203
# Poissons Ratio (y) = 0.38547 0.18698
# Poissons Ratio (z) = 0.00104 0.11160
#
# Static dielectric constant tensor:
#      x y z
#    x 1.847040 0.000000 -0.030990 
#    y 0.000000 1.886930 0.000000 
#    z -0.030990 0.000000 1.842740 
# 
# From -- ./inp_files/50475.got.cif
#   From: 2010.05.17/outbox.cif.g08.bks.cpg/sg5_26_cif.got.tgz:50475.got - 2010.06.03 18:56:24.
