data_PCOD9127086
_publ_section_title
;
Structure prediction by ZEFSAII (Michael W. Deem and Ramdas Pophale) SiO2 
 PCOD9127086
Probable space group: C 2
;
_chemical_formula_sum "Si O2"
_cell_formula_units_Z 18
_cell_length_a 7.752435
_cell_length_b 18.822254
_cell_length_c 5.586778
_cell_angle_alpha 90.000000
_cell_angle_beta 63.669065
_cell_angle_gamma 90.000000
_cell_volume 730.632405
_symmetry_space_group_name_H-M "C 2"
_symmetry_group_IT_number 5
_symmetry_cell_setting 'monoclinic'
loop_
_space_group_symop_operation_xyz
x,y,z
-x,y,-z
1/2+x,1/2+y,z
1/2-x,1/2+y,-z
loop_
_atom_site_type_symbol
_atom_site_label
_atom_site_fract_x
_atom_site_fract_y
_atom_site_fract_z
Si Si1 0.000000 0.715301 0.000000
Si Si2 0.268154 0.044883 0.672287
Si Si3 0.301667 0.685456 0.482600
Si Si4 0.268649 0.808225 0.171587
Si Si5 0.233586 0.472464 0.829075
O O1 0.873549 0.664123 0.240872
O O2 0.152872 0.764943 0.042745
O O3 0.500000 0.041885 0.500000
O O4 0.204157 0.008914 0.459377
O O5 0.196862 0.126212 0.721011
O O6 0.205384 0.007860 0.957752
O O7 0.500000 0.688085 0.500000
O O8 0.239403 0.762869 0.429540
O O9 0.208977 0.889640 0.215451
O O10 0.500000 0.804664 0.000000
O O11 0.000000 0.472915 0.000000
#
# Coordination Sequence:
#
# PCOD9127086 Si02
#       5
#     2   4   4   4   4
#     4  12  26  46  76 104 150 196 250 314 374 444
#     4  10  22  43  71 105 149 195 247 304 380 442
#     4  12  27  46  75 110 152 197 253 317 374 451
#     4  11  24  46  75 108 150 193 254 307 378 447
#     4   9  22  41  72 105 146 196 242 310 373 445
#
# _framework density 24.636192000000001
#
# number of rings (size 3 to 8) (size 9 to 14) (size 15 to 20)
#    0.000    1.333    2.222    2.000   10.889    0.889 
#    4.000    0.000    0.000    0.000    0.000    0.000 
#    0.000    0.000    0.000    0.000    0.000    0.000 
#
# Total GULP energy -50400.298049 kJ/mol
# GULP energy per Si atom -5600.033117 kJ/mol
# Density = 2.458012 g / cm^3
# Si number density = 24.636192 Si / 1000 Ang^3
#
#
#
# Elastic Constant Matrix: (Units=GPa)
#
#
# Indices 1 2 3 4 5 6 
#
# 1 152.8303 45.9391 40.6794 0.0000 20.9577 0.0000
# 2 45.9391 149.3246 51.6782 0.0000 31.5755 0.0000
# 3 40.6794 51.6782 139.5279 0.0000 21.6071 0.0000
# 4 0.0000 0.0000 0.0000 29.7404 0.0000 2.8912
# 5 20.9577 31.5755 21.6071 0.0000 39.8266 0.0000
# 6 0.0000 0.0000 0.0000 2.8912 0.0000 6.8020
#
#
#
# Elastic Compliance Matrix: (Units=1/GPa)
#
#
# Indices 1 2 3 4 5 6 
#
# 1 0.007628 -0.001420 -0.001365 0.000000 -0.002147 0.000000
# 2 -0.001420 0.008964 -0.002097 0.000000 -0.005221 0.000000
# 3 -0.001365 -0.002097 0.008704 0.000000 -0.002341 0.000000
# 4 0.000000 0.000000 0.000000 0.035074 0.000000 -0.014908
# 5 -0.002147 -0.005221 -0.002341 0.000000 0.031649 0.000000
# 6 0.000000 0.000000 0.000000 -0.014908 0.000000 0.153351
#
#
# Mechanical properties :
#
#
# Convention : Reuss Voigt Hill
#
# Bulk Modulus (GPa) = 64.38993 79.80847 72.09920
# Shear Modulus (GPa) = 19.20771 35.49956 27.35363
#
# Velocity S-wave (km/s) = 2.79526 3.80010 3.33574
# Velocity P-wave (km/s) = 6.05070 7.19163 6.64570
#
# Compressibility (1/GPa) = 0.01553038
#
# Stress axis : x y z
#
# Youngs Moduli (GPa) = 131.09630 111.56158 114.88360
#
# Poissons Ratio (x) = 0.15843 0.15687
# Poissons Ratio (y) = 0.18617 0.24095
# Poissons Ratio (z) = 0.17900 0.23398
#
# Static dielectric constant tensor:
#      x y z
#    x 1.950080 0.000000 0.002970 
#    y 0.000000 1.892470 0.000000 
#    z 0.002970 0.000000 2.048570 
# 
# From -- ./inp_files/2299.got.cif
#   From: 2010.05.17/outbox.cif.g08.bks.cpg/sg5_2_cif.got.tgz:2299.got - 2010.06.03 18:56:24.
