data_PCOD9127045
_publ_section_title
;
Structure prediction by ZEFSAII (Michael W. Deem and Ramdas Pophale) SiO2 
 PCOD9127045
Probable space group: C 2
;
_chemical_formula_sum "Si O2"
_cell_formula_units_Z 32
_cell_length_a 11.741688
_cell_length_b 7.651572
_cell_length_c 27.737070
_cell_angle_alpha 90.000000
_cell_angle_beta 35.517131
_cell_angle_gamma 90.000000
_cell_volume 1447.697455
_symmetry_space_group_name_H-M "C 2"
_symmetry_group_IT_number 5
_symmetry_cell_setting 'monoclinic'
loop_
_space_group_symop_operation_xyz
x,y,z
-x,y,-z
1/2+x,1/2+y,z
1/2-x,1/2+y,-z
loop_
_atom_site_type_symbol
_atom_site_label
_atom_site_fract_x
_atom_site_fract_y
_atom_site_fract_z
Si Si1 0.477138 0.041860 0.611870
Si Si2 0.794074 0.112156 0.929705
Si Si3 0.448942 0.652566 0.071210
Si Si4 0.597129 0.254001 0.907116
Si Si5 0.844919 0.262149 0.518009
Si Si6 0.317471 0.779888 0.731270
Si Si7 0.545674 0.321022 0.196744
Si Si8 0.652575 0.551442 0.653408
O O1 0.670395 0.146846 0.557705
O O2 0.326427 0.131777 0.626540
O O3 0.539870 0.861788 0.563919
O O4 0.363245 0.978338 0.698914
O O5 0.749534 0.225651 0.897688
O O6 0.931073 0.203516 0.922311
O O7 0.882845 0.935597 0.874862
O O8 0.575429 0.109511 0.028965
O O9 0.493099 0.445676 0.055785
O O10 0.221096 0.699096 0.153707
O O11 0.500000 0.720959 0.000000
O O12 0.710858 0.256159 0.818544
O O13 0.749904 0.413555 0.583736
O O14 0.000000 0.167645 0.500000
O O15 0.521092 0.681032 0.667771
O O16 0.152237 0.719869 0.750017
O O17 0.484367 0.449796 0.261029
#
# Coordination Sequence:
#
# PCOD9127045 Si02
#       8
#     4   4   4   4   4   4   4   4
#     4  10  23  41  69  97 133 170 210 262 319 387
#     4  11  24  44  62  86 128 169 218 275 326 385
#     4  12  26  40  64  92 120 167 223 273 324 387
#     4  11  24  43  62  91 127 167 217 271 328 383
#     4  10  22  43  67  99 132 167 213 256 315 392
#     4  11  22  44  64  94 134 168 215 271 321 383
#     4  11  25  40  64  92 126 172 217 271 328 383
#     4  10  23  41  62  94 132 169 210 262 320 386
#
# _framework density 22.104064999999999
#
# number of rings (size 3 to 8) (size 9 to 14) (size 15 to 20)
#    0.000    1.250    3.750    1.500    3.500    2.000 
#    2.250    0.000    0.000    0.000    0.000    0.000 
#    0.000    0.000    0.000    0.000    0.000    0.000 
#
# Total GULP energy -89291.465437 kJ/mol
# GULP energy per Si atom -5580.716590 kJ/mol
# Density = 2.205376 g / cm^3
# Si number density = 22.104065 Si / 1000 Ang^3
#
#
#
# Elastic Constant Matrix: (Units=GPa)
#
#
# Indices 1 2 3 4 5 6 
#
# 1 178.7697 37.2142 37.1366 -0.0002 -35.8296 -0.0011
# 2 37.2142 23.7381 12.5845 -0.0007 -12.1975 -0.0022
# 3 37.1366 12.5845 78.8793 -0.0001 -5.0384 -0.0001
# 4 -0.0002 -0.0007 -0.0001 29.1098 0.0001 -8.9147
# 5 -35.8296 -12.1975 -5.0384 0.0001 50.2038 -0.0004
# 6 -0.0011 -0.0022 -0.0001 -8.9147 -0.0004 34.3469
#
#
#
# Elastic Compliance Matrix: (Units=1/GPa)
#
#
# Indices 1 2 3 4 5 6 
#
# 1 0.009123 -0.011279 -0.002270 0.000000 0.003543 -0.000001
# 2 -0.011279 0.066223 -0.004772 0.000003 0.007561 0.000005
# 3 -0.002270 -0.004772 0.014422 0.000000 -0.001332 0.000000
# 4 0.000000 0.000003 0.000000 0.037319 0.000000 0.009686
# 5 0.003543 0.007561 -0.001332 0.000000 0.024151 0.000001
# 6 -0.000001 0.000005 0.000000 0.009686 0.000001 0.031629
#
#
# Mechanical properties :
#
#
# Convention : Reuss Voigt Hill
#
# Bulk Modulus (GPa) = 18.82258 50.58418 34.70338
# Shear Modulus (GPa) = 21.07769 35.69555 28.38662
#
# Velocity S-wave (km/s) = 3.09134 4.02292 3.58750
# Velocity P-wave (km/s) = 4.61256 6.67179 5.73535
#
# Compressibility (1/GPa) = 0.05312768
#
# Stress axis : x y z
#
# Youngs Moduli (GPa) = 109.61027 15.10046 69.33664
#
# Poissons Ratio (x) = 0.17031 0.15736
# Poissons Ratio (y) = 1.23627 0.33089
# Poissons Ratio (z) = 0.24876 0.07206
#
# Static dielectric constant tensor:
#      x y z
#    x 1.822000 0.000000 0.008030 
#    y 0.000000 1.794550 0.000000 
#    z 0.008030 0.000000 1.878700 
# 
# From -- ./inp_files/71731.got.cif
#   From: 2010.05.17/outbox.cif.g08.bks.cpg/sg5_36_cif.got.tgz:71731.got - 2010.06.03 18:56:24.
