data_PCOD9127282
_publ_section_title
;
Structure prediction by ZEFSAII (Michael W. Deem and Ramdas Pophale) SiO2 
 PCOD9127282
Probable space group: C 2
;
_chemical_formula_sum "Si O2"
_cell_formula_units_Z 30
_cell_length_a 7.924989
_cell_length_b 12.886214
_cell_length_c 14.784987
_cell_angle_alpha 90.000000
_cell_angle_beta 70.183052
_cell_angle_gamma 90.000000
_cell_volume 1420.473955
_symmetry_space_group_name_H-M "C 2"
_symmetry_group_IT_number 5
_symmetry_cell_setting 'monoclinic'
loop_
_space_group_symop_operation_xyz
x,y,z
-x,y,-z
1/2+x,1/2+y,z
1/2-x,1/2+y,-z
loop_
_atom_site_type_symbol
_atom_site_label
_atom_site_fract_x
_atom_site_fract_y
_atom_site_fract_z
Si Si1 0.213956 0.038720 0.302262
Si Si2 0.523930 0.758229 0.306523
Si Si3 0.000000 0.256198 0.500000
Si Si4 0.142489 0.810201 0.298056
Si Si5 0.252353 0.372646 0.112703
Si Si6 0.629909 0.293433 0.090907
Si Si7 0.622569 0.147371 0.566060
Si Si8 0.519687 0.054240 0.100530
O O1 0.091723 0.140541 0.310782
O O2 0.336806 0.056781 0.368936
O O3 0.343616 0.033595 0.191756
O O4 0.111489 0.930240 0.329063
O O5 0.548310 0.814298 0.399071
O O6 0.319277 0.768833 0.315108
O O7 0.640796 0.809931 0.207075
O O8 0.177605 0.189486 0.492931
O O9 0.186171 0.806107 0.183583
O O10 0.979874 0.736915 0.357819
O O11 0.457949 0.366848 0.105899
O O12 0.177364 0.487659 0.116480
O O13 0.239760 0.318947 0.015985
O O14 0.562561 0.175704 0.093677
O O15 0.500000 0.125392 0.500000
O O16 0.500000 0.022147 0.000000
#
# Coordination Sequence:
#
# PCOD9127282 Si02
#       8
#     4   4   2   4   4   4   4   4
#     4  11  24  45  69 102 141 182 233 295 346 417
#     4  11  22  42  68 101 138 181 235 288 349 411
#     4  10  22  44  74  96 146 186 226 304 348 406
#     4  12  24  44  73 104 139 184 234 286 361 425
#     4  11  23  40  70 100 134 189 231 276 358 415
#     4  11  23  44  67 100 145 180 227 295 344 422
#     4  11  23  48  72 102 143 186 236 300 352 420
#     4  12  21  41  70  96 138 185 229 288 351 415
#
# _framework density 21.119710999999999
#
# number of rings (size 3 to 8) (size 9 to 14) (size 15 to 20)
#    0.000    0.800    6.667    1.600    0.000    1.067 
#    6.000    1.333    0.000    0.000    0.000    0.000 
#    0.000    0.000    0.000    0.000    0.000    0.000 
#
# Total GULP energy -83797.343344 kJ/mol
# GULP energy per Si atom -5586.489556 kJ/mol
# Density = 2.107164 g / cm^3
# Si number density = 21.119711 Si / 1000 Ang^3
#
#
#
# Elastic Constant Matrix: (Units=GPa)
#
#
# Indices 1 2 3 4 5 6 
#
# 1 77.4794 4.2504 34.8755 0.0000 16.4115 0.0000
# 2 4.2504 48.0752 8.0985 0.0000 8.4694 0.0000
# 3 34.8755 8.0985 150.3221 0.0000 15.2221 0.0000
# 4 0.0000 0.0000 0.0000 -25.0672 0.0000 15.0887
# 5 16.4115 8.4694 15.2221 0.0000 45.9404 0.0000
# 6 0.0000 0.0000 0.0000 15.0887 0.0000 40.6369
#
#
#
# Elastic Compliance Matrix: (Units=1/GPa)
#
#
# Indices 1 2 3 4 5 6 
#
# 1 0.015232 -0.000050 -0.003085 0.000000 -0.004410 0.000000
# 2 -0.000050 0.021589 -0.000776 0.000000 -0.003705 0.000000
# 3 -0.003085 -0.000776 0.007537 0.000000 -0.001252 0.000000
# 4 0.000000 0.000000 0.000000 -0.032606 0.000000 0.012107
# 5 -0.004410 -0.003705 -0.001252 0.000000 0.024441 0.000000
# 6 0.000000 0.000000 0.000000 0.012107 0.000000 0.020113
#
#
# Mechanical properties :
#
#
# Convention : Reuss Voigt Hill
#
# Bulk Modulus (GPa) = 27.37087 41.14729 34.25908
# Shear Modulus (GPa) = 65.52573 27.54551 46.53562
#
# Velocity S-wave (km/s) = 5.57613 3.61537 4.69915
# Velocity P-wave (km/s) = 7.37873 6.07890 6.76013
#
# Compressibility (1/GPa) = 0.03653520
#
# Stress axis : x y z
#
# Youngs Moduli (GPa) = 65.65120 46.32071 132.68490
#
# Poissons Ratio (x) = 0.00232 0.40928
# Poissons Ratio (y) = 0.00329 0.10300
# Poissons Ratio (z) = 0.20251 0.03596
#
# Static dielectric constant tensor:
#      x y z
#    x 1.754620 0.000000 0.002610 
#    y 0.000000 1.736270 0.000000 
#    z 0.002610 0.000000 1.813420 
# 
# From -- ./inp_files/50462.got.cif
#   From: 2010.05.17/outbox.cif.g08.bks.cpg/sg5_26_cif.got.tgz:50462.got - 2010.06.03 18:56:24.
