data_PCOD9127469
_publ_section_title
;
Structure prediction by ZEFSAII (Michael W. Deem and Ramdas Pophale) SiO2 
 PCOD9127469
Probable space group: C 2
;
_chemical_formula_sum "Si O2"
_cell_formula_units_Z 22
_cell_length_a 13.609443
_cell_length_b 13.117442
_cell_length_c 8.495953
_cell_angle_alpha 90.000000
_cell_angle_beta 42.709863
_cell_angle_gamma 90.000000
_cell_volume 1028.761177
_symmetry_space_group_name_H-M "C 2"
_symmetry_group_IT_number 5
_symmetry_cell_setting 'monoclinic'
loop_
_space_group_symop_operation_xyz
x,y,z
-x,y,-z
1/2+x,1/2+y,z
1/2-x,1/2+y,-z
loop_
_atom_site_type_symbol
_atom_site_label
_atom_site_fract_x
_atom_site_fract_y
_atom_site_fract_z
Si Si1 0.217535 0.835430 0.180048
Si Si2 0.346315 0.132409 0.890938
Si Si3 0.500000 0.241046 0.000000
Si Si4 0.950005 0.026814 0.735553
Si Si5 0.183086 0.901806 0.581214
Si Si6 0.491883 0.913522 0.685513
O O1 0.145518 0.727255 0.234746
O O2 0.198471 0.866942 0.382239
O O3 0.129073 0.916863 0.179800
O O4 0.382620 0.849475 0.925115
O O5 0.428623 0.028372 0.754182
O O6 0.406144 0.172203 0.989274
O O7 0.176195 0.105163 0.081604
O O8 0.394116 0.315247 0.223744
O O9 0.000000 0.050165 0.500000
O O10 0.085153 0.004781 0.690079
O O11 0.344810 0.919902 0.447939
O O12 0.500000 0.869578 0.500000
#
# Coordination Sequence:
#
# PCOD9127469 Si02
#       6
#     4   4   2   4   4   4
#     4  10  22  47  66  98 135 180 222 284 338 402
#     4  11  25  42  68 102 136 178 234 278 337 406
#     4  12  26  40  70 100 136 190 228 276 340 412
#     4   9  21  41  68  93 134 172 220 281 335 395
#     4  11  24  46  71  95 138 184 225 282 349 397
#     4  11  26  44  72 100 140 178 230 285 340 404
#
# _framework density 21.384944000000001
#
# number of rings (size 3 to 8) (size 9 to 14) (size 15 to 20)
#    0.000    1.455    1.818    1.636   12.727    2.182 
#    0.000    1.818    0.000    0.000    0.000    0.000 
#    0.000    0.000    0.000    0.000    0.000    0.000 
#
# Total GULP energy -61459.505041 kJ/mol
# GULP energy per Si atom -5587.227731 kJ/mol
# Density = 2.133627 g / cm^3
# Si number density = 21.384944 Si / 1000 Ang^3
#
#
#
# Elastic Constant Matrix: (Units=GPa)
#
#
# Indices 1 2 3 4 5 6 
#
# 1 116.3339 8.3572 43.3487 0.0000 -27.5585 0.0000
# 2 8.3572 72.0689 31.0617 0.0000 -5.6143 0.0000
# 3 43.3487 31.0617 129.3961 0.0000 -19.2491 0.0000
# 4 0.0000 0.0000 0.0000 2.1395 0.0000 5.7135
# 5 -27.5585 -5.6143 -19.2491 0.0000 31.4072 0.0000
# 6 0.0000 0.0000 0.0000 5.7135 0.0000 23.6088
#
#
#
# Elastic Compliance Matrix: (Units=1/GPa)
#
#
# Indices 1 2 3 4 5 6 
#
# 1 0.011617 0.000501 -0.002731 0.000000 0.008609 0.000000
# 2 0.000501 0.015507 -0.003755 0.000000 0.000910 0.000000
# 3 -0.002731 -0.003755 0.010000 0.000000 0.003061 0.000000
# 4 0.000000 0.000000 0.000000 1.321302 0.000000 -0.319763
# 5 0.008609 0.000910 0.003061 0.000000 0.041433 0.000000
# 6 0.000000 0.000000 0.000000 -0.319763 0.000000 0.119742
#
#
# Mechanical properties :
#
#
# Convention : Reuss Voigt Hill
#
# Bulk Modulus (GPa) = 39.75663 53.70379 46.73021
# Shear Modulus (GPa) = 3.24685 27.09984 15.17335
#
# Velocity S-wave (km/s) = 1.23352 3.56369 2.66660
# Velocity P-wave (km/s) = 4.54534 6.48850 5.60182
#
# Compressibility (1/GPa) = 0.02515304
#
# Stress axis : x y z
#
# Youngs Moduli (GPa) = 86.07958 64.48803 100.00067
#
# Poissons Ratio (x) = -0.03229 0.27314
# Poissons Ratio (y) = -0.04310 0.37548
# Poissons Ratio (z) = 0.23511 0.24214
#
# Static dielectric constant tensor:
#      x y z
#    x 1.779800 0.000000 -0.029300 
#    y 0.000000 1.759790 0.000000 
#    z -0.029300 0.000000 1.803620 
# 
# From -- ./inp_files/19920.got.cif
#   From: 2010.05.17/outbox.cif.g08.bks.cpg/sg5_10_cif.got.tgz:19920.got - 2010.06.03 18:56:24.
