data_PCOD9127070
_publ_section_title
;
Structure prediction by ZEFSAII (Michael W. Deem and Ramdas Pophale) SiO2 
 PCOD9127070
Probable space group: C 2
;
_chemical_formula_sum "Si O2"
_cell_formula_units_Z 24
_cell_length_a 16.957964
_cell_length_b 13.068761
_cell_length_c 7.984909
_cell_angle_alpha 90.000000
_cell_angle_beta 144.211437
_cell_angle_gamma 90.000000
_cell_volume 1034.861700
_symmetry_space_group_name_H-M "C 2"
_symmetry_group_IT_number 5
_symmetry_cell_setting 'monoclinic'
loop_
_space_group_symop_operation_xyz
x,y,z
-x,y,-z
1/2+x,1/2+y,z
1/2-x,1/2+y,-z
loop_
_atom_site_type_symbol
_atom_site_label
_atom_site_fract_x
_atom_site_fract_y
_atom_site_fract_z
Si Si1 0.992433 0.753380 0.682464
Si Si2 0.714693 0.844996 0.347371
Si Si3 0.398637 0.046123 0.017508
Si Si4 0.000000 0.164891 0.000000
Si Si5 0.601043 0.614058 0.525982
Si Si6 0.730935 0.836352 0.764841
Si Si7 0.000000 0.451565 0.500000
O O1 0.854291 0.810720 0.495892
O O2 0.000000 0.716507 0.500000
O O3 0.038834 0.661706 0.891565
O O4 0.118716 0.828739 0.910887
O O5 0.621600 0.743487 0.166859
O O6 0.741814 0.866671 0.589676
O O7 0.631888 0.946463 0.148971
O O8 0.504304 0.009158 0.335213
O O9 0.245406 0.064879 0.808782
O O10 0.041955 0.099863 0.236507
O O11 0.500000 0.588158 0.500000
O O12 0.641424 0.733218 0.600995
O O13 0.642103 0.896013 0.745935
#
# Coordination Sequence:
#
# PCOD9127070 Si02
#       7
#     4   4   4   2   4   4   2
#     4  11  24  45  71 104 145 186 237 300 366 436
#     4  11  24  47  69 103 141 183 238 298 369 437
#     4  11  25  42  67 111 133 184 244 297 366 440
#     4  10  24  46  72 100 134 198 230 298 378 424
#     4  10  22  43  69  99 140 182 238 297 359 439
#     4  10  23  44  72  97 136 191 229 296 370 427
#     4  12  22  44  70 100 138 184 242 292 362 446
#
# _framework density 23.191503000000001
#
# number of rings (size 3 to 8) (size 9 to 14) (size 15 to 20)
#    0.000    1.333    1.667    3.500    4.667    2.000 
#   33.000    0.000    0.000    0.000    0.000    0.000 
#    0.000    0.000    0.000    0.000    0.000    0.000 
#
# Total GULP energy -66811.205613 kJ/mol
# GULP energy per Si atom -5567.600468 kJ/mol
# Density = 2.313872 g / cm^3
# Si number density = 23.191503 Si / 1000 Ang^3
#
#
#
# Elastic Constant Matrix: (Units=GPa)
#
#
# Indices 1 2 3 4 5 6 
#
# 1 119.0468 31.0302 41.9903 0.0000 20.3499 0.0000
# 2 31.0302 49.3582 13.8957 0.0000 6.9074 0.0000
# 3 41.9903 13.8957 109.8971 0.0000 15.7792 0.0000
# 4 0.0000 0.0000 0.0000 5.5318 0.0000 1.4633
# 5 20.3499 6.9074 15.7792 0.0000 37.7928 0.0000
# 6 0.0000 0.0000 0.0000 1.4633 0.0000 -194.5143
#
#
#
# Elastic Compliance Matrix: (Units=1/GPa)
#
#
# Indices 1 2 3 4 5 6 
#
# 1 0.011735 -0.005937 -0.003172 0.000000 -0.003909 0.000000
# 2 -0.005937 0.024316 -0.000667 0.000000 -0.000969 0.000000
# 3 -0.003172 -0.000667 0.010779 0.000000 -0.002671 0.000000
# 4 0.000000 0.000000 0.000000 0.180414 0.000000 0.001357
# 5 -0.003909 -0.000969 -0.002671 0.000000 0.029857 0.000000
# 6 0.000000 0.000000 0.000000 0.001357 0.000000 -0.005131
#
#
# Mechanical properties :
#
#
# Convention : Reuss Voigt Hill
#
# Bulk Modulus (GPa) = 36.65954 50.23718 43.44836
# Shear Modulus (GPa) = 17.81808 -17.47886 0.16961
#
# Velocity S-wave (km/s) = 2.77483 -2.74829 0.27073
# Velocity P-wave (km/s) = 5.10959 3.41147 4.34431
#
# Compressibility (1/GPa) = 0.02727803
#
# Stress axis : x y z
#
# Youngs Moduli (GPa) = 85.21832 41.12522 92.77249
#
# Poissons Ratio (x) = 0.24417 0.29424
# Poissons Ratio (y) = 0.50596 0.06187
# Poissons Ratio (z) = 0.27028 0.02743
#
# Static dielectric constant tensor:
#      x y z
#    x 1.944620 0.000000 -0.061140 
#    y 0.000000 1.955780 0.000000 
#    z -0.061140 0.000000 1.829720 
# 
# From -- ./inp_files/27768.got.cif
#   From: 2010.05.17/outbox.cif.g08.bks.cpg/sg5_14_cif.got.tgz:27768.got - 2010.06.03 18:56:24.
