data_PCOD9127033
_publ_section_title
;
Structure prediction by ZEFSAII (Michael W. Deem and Ramdas Pophale) SiO2 
 PCOD9127033
Probable space group: C 2
;
_chemical_formula_sum "Si O2"
_cell_formula_units_Z 28
_cell_length_a 11.224128
_cell_length_b 14.624295
_cell_length_c 10.346183
_cell_angle_alpha 90.000000
_cell_angle_beta 120.411225
_cell_angle_gamma 90.000000
_cell_volume 1464.615960
_symmetry_space_group_name_H-M "C 2"
_symmetry_group_IT_number 5
_symmetry_cell_setting 'monoclinic'
loop_
_space_group_symop_operation_xyz
x,y,z
-x,y,-z
1/2+x,1/2+y,z
1/2-x,1/2+y,-z
loop_
_atom_site_type_symbol
_atom_site_label
_atom_site_fract_x
_atom_site_fract_y
_atom_site_fract_z
Si Si1 0.905503 0.552540 0.235093
Si Si2 0.777892 0.367281 0.285057
Si Si3 0.500000 0.414057 0.000000
Si Si4 0.668790 0.547982 0.910386
Si Si5 0.023328 0.194169 0.655251
Si Si6 0.115466 0.453766 0.163221
Si Si7 0.263246 0.812674 0.567680
Si Si8 0.000000 0.697254 0.500000
O O1 0.854050 0.459594 0.278719
O O2 0.949456 0.630156 0.358392
O O3 0.030942 0.523725 0.208967
O O4 0.775297 0.583807 0.077368
O O5 0.873856 0.280662 0.304623
O O6 0.759527 0.366162 0.429246
O O7 0.629596 0.360671 0.132822
O O8 0.566619 0.477423 0.925096
O O9 0.583984 0.625302 0.791639
O O10 0.766911 0.500065 0.858649
O O11 0.000000 0.151790 0.500000
O O12 0.877791 0.234173 0.618199
O O13 0.186068 0.379132 0.291913
O O14 0.000000 0.415550 0.000000
O O15 0.120879 0.763007 0.517926
#
# Coordination Sequence:
#
# PCOD9127033 Si02
#       8
#     4   4   2   4   4   4   4   2
#     4  10  22  45  65  91 127 173 206 254 322 382
#     4  10  22  44  66  91 126 174 207 248 322 382
#     4  10  24  42  66  92 126 170 206 256 322 368
#     4  10  24  41  65  95 124 163 213 261 313 367
#     4  10  23  42  64  94 124 166 211 255 313 372
#     4  10  22  43  67  91 123 167 212 255 315 382
#     4  11  25  41  63  96 126 164 211 259 315 371
#     4  12  28  38  64 100 128 160 212 270 314 360
#
# _framework density 19.117639
#
# number of rings (size 3 to 8) (size 9 to 14) (size 15 to 20)
#    0.000    1.714    1.429    0.857   11.000    3.429 
#    1.286    0.000    0.000    0.000    0.000    0.000 
#    0.000    0.000    0.000    0.000    0.000    0.000 
#
# Total GULP energy -78232.350457 kJ/mol
# GULP energy per Si atom -5588.025033 kJ/mol
# Density = 1.907413 g / cm^3
# Si number density = 19.117639 Si / 1000 Ang^3
#
#
#
# Elastic Constant Matrix: (Units=GPa)
#
#
# Indices 1 2 3 4 5 6 
#
# 1 135.6243 21.2584 49.0259 0.0000 0.3070 0.0000
# 2 21.2584 26.2179 47.5224 0.0000 -1.4850 0.0000
# 3 49.0259 47.5224 135.3679 0.0000 -4.4036 0.0000
# 4 0.0000 0.0000 0.0000 43.5099 0.0000 9.0730
# 5 0.3070 -1.4850 -4.4036 0.0000 28.5522 0.0000
# 6 0.0000 0.0000 0.0000 9.0730 0.0000 11.1854
#
#
#
# Elastic Compliance Matrix: (Units=1/GPa)
#
#
# Indices 1 2 3 4 5 6 
#
# 1 0.008619 -0.003655 -0.001857 0.000000 -0.000569 0.000000
# 2 -0.003655 0.106432 -0.036040 0.000000 0.000017 0.000000
# 3 -0.001857 -0.036040 0.020756 0.000000 0.001347 0.000000
# 4 0.000000 0.000000 0.000000 0.027662 0.000000 -0.022438
# 5 -0.000569 0.000017 0.001347 0.000000 0.035238 0.000000
# 6 0.000000 0.000000 0.000000 -0.022438 0.000000 0.107603
#
#
# Mechanical properties :
#
#
# Convention : Reuss Voigt Hill
#
# Bulk Modulus (GPa) = 18.97420 59.20259 39.08840
# Shear Modulus (GPa) = 12.28562 28.60973 20.44768
#
# Velocity S-wave (km/s) = 2.53777 3.87267 3.27398
# Velocity P-wave (km/s) = 4.30506 7.14364 5.89767
#
# Compressibility (1/GPa) = 0.05270314
#
# Stress axis : x y z
#
# Youngs Moduli (GPa) = 116.02688 9.39570 48.17952
#
# Poissons Ratio (x) = 0.03434 0.08946
# Poissons Ratio (y) = 0.42406 1.73638
# Poissons Ratio (z) = 0.21544 0.33862
#
# Static dielectric constant tensor:
#      x y z
#    x 1.652540 0.000000 -0.002820 
#    y 0.000000 1.624550 0.000000 
#    z -0.002820 0.000000 1.665460 
# 
# From -- ./inp_files/20764.got.cif
#   From: 2010.05.17/outbox.cif.g08.bks.cpg/sg5_11_cif.got.tgz:20764.got - 2010.06.03 18:56:24.
