data_PCOD9127771
_publ_section_title
;
Structure prediction by ZEFSAII (Michael W. Deem and Ramdas Pophale) SiO2 
 PCOD9127771
Probable space group: C 2
;
_chemical_formula_sum "Si O2"
_cell_formula_units_Z 26
_cell_length_a 5.536052
_cell_length_b 16.126366
_cell_length_c 16.605993
_cell_angle_alpha 90.000000
_cell_angle_beta 134.568063
_cell_angle_gamma 90.000000
_cell_volume 1056.175265
_symmetry_space_group_name_H-M "C 2"
_symmetry_group_IT_number 5
_symmetry_cell_setting 'monoclinic'
loop_
_space_group_symop_operation_xyz
x,y,z
-x,y,-z
1/2+x,1/2+y,z
1/2-x,1/2+y,-z
loop_
_atom_site_type_symbol
_atom_site_label
_atom_site_fract_x
_atom_site_fract_y
_atom_site_fract_z
Si Si1 0.438526 0.694260 0.379989
Si Si2 0.781859 0.888766 0.220074
Si Si3 0.942681 0.089818 0.891565
Si Si4 0.264794 0.520660 0.345438
Si Si5 0.500000 0.953814 0.000000
Si Si6 0.837925 0.220703 0.744889
Si Si7 0.018949 0.377231 0.409599
O O1 0.487413 0.689063 0.295023
O O2 0.644216 0.780395 0.444913
O O3 0.514924 0.598114 0.421131
O O4 0.069119 0.706370 0.336766
O O5 0.872348 0.969130 0.292499
O O6 0.530704 0.902301 0.088214
O O7 0.629837 0.819112 0.241915
O O8 0.155979 0.861524 0.281707
O O9 0.014172 0.174167 0.860547
O O10 0.580868 0.061210 0.771374
O O11 0.000000 0.101709 0.000000
O O12 0.182363 0.014302 0.924559
O O13 0.183893 0.451720 0.395680
O O14 0.000000 0.401588 0.500000
#
# Coordination Sequence:
#
# PCOD9127771 Si02
#       7
#     4   4   4   4   2   4   4
#     4  10  23  45  70  97 141 187 230 306 364 435
#     4  11  23  42  71 100 143 188 243 305 369 450
#     4  11  23  38  63 100 140 194 236 300 363 447
#     4  11  22  44  72 100 143 188 245 301 375 439
#     4  12  22  38  66 102 140 188 240 300 372 448
#     4  10  23  42  66  97 138 187 239 293 364 434
#     4  11  25  48  71 106 143 192 251 311 371 446
#
# _framework density 24.617124
#
# number of rings (size 3 to 8) (size 9 to 14) (size 15 to 20)
#    0.000    1.231    4.615    0.923    5.385    0.615 
#    2.769    1.538    0.000    0.000    0.000    0.000 
#    0.000    0.000    0.000    0.000    0.000    0.000 
#
# Total GULP energy -72465.309177 kJ/mol
# GULP energy per Si atom -5574.254552 kJ/mol
# Density = 2.456109 g / cm^3
# Si number density = 24.617124 Si / 1000 Ang^3
#
#
#
# Elastic Constant Matrix: (Units=GPa)
#
#
# Indices 1 2 3 4 5 6 
#
# 1 77.3601 25.7771 34.8650 0.0000 -19.7376 0.0000
# 2 25.7771 175.0092 54.1182 0.0000 -23.7984 0.0000
# 3 34.8650 54.1182 87.2670 0.0000 -21.5580 0.0001
# 4 0.0000 0.0000 0.0000 9.6220 0.0000 -24.2959
# 5 -19.7376 -23.7984 -21.5580 0.0000 48.6307 0.0000
# 6 0.0000 0.0000 0.0001 -24.2959 0.0000 20.8285
#
#
#
# Elastic Compliance Matrix: (Units=1/GPa)
#
#
# Indices 1 2 3 4 5 6 
#
# 1 0.016513 -0.000175 -0.005451 0.000000 0.004200 0.000000
# 2 -0.000175 0.007199 -0.003977 0.000000 0.001689 0.000000
# 3 -0.005451 -0.003977 0.016930 0.000000 0.003346 0.000000
# 4 0.000000 0.000000 0.000000 -0.053423 0.000000 -0.062316
# 5 0.004200 0.001689 0.003346 0.000000 0.024578 0.000000
# 6 0.000000 0.000000 0.000000 -0.062316 0.000000 -0.024679
#
#
# Mechanical properties :
#
#
# Convention : Reuss Voigt Hill
#
# Bulk Modulus (GPa) = 46.65284 63.23968 54.94626
# Shear Modulus (GPa) = 371.15522 30.80795 200.98159
#
# Velocity S-wave (km/s) = 12.29221 3.54147 9.04545
# Velocity P-wave (km/s) = 14.84780 6.51673 11.46571
#
# Compressibility (1/GPa) = 0.02143492
#
# Stress axis : x y z
#
# Youngs Moduli (GPa) = 60.55726 138.90035 59.06635
#
# Poissons Ratio (x) = 0.02438 0.32198
# Poissons Ratio (y) = 0.01063 0.23493
# Poissons Ratio (z) = 0.33010 0.55246
#
# Static dielectric constant tensor:
#      x y z
#    x 2.284120 0.000000 0.309020 
#    y 0.000000 2.039670 0.000000 
#    z 0.309020 0.000000 2.328780 
# 
# From -- ./inp_files/49250.got.cif
#   From: 2010.05.17/outbox.cif.g08.bks.cpg/sg5_25_cif.got.tgz:49250.got - 2010.06.03 18:56:24.
