data_PCOD9127308
_publ_section_title
;
Structure prediction by ZEFSAII (Michael W. Deem and Ramdas Pophale) SiO2 
 PCOD9127308
Probable space group: C 2
;
_chemical_formula_sum "Si O2"
_cell_formula_units_Z 28
_cell_length_a 18.915654
_cell_length_b 9.006534
_cell_length_c 13.496949
_cell_angle_alpha 90.000000
_cell_angle_beta 150.247529
_cell_angle_gamma 90.000000
_cell_volume 1141.086676
_symmetry_space_group_name_H-M "C 2"
_symmetry_group_IT_number 5
_symmetry_cell_setting 'monoclinic'
loop_
_space_group_symop_operation_xyz
x,y,z
-x,y,-z
1/2+x,1/2+y,z
1/2-x,1/2+y,-z
loop_
_atom_site_type_symbol
_atom_site_label
_atom_site_fract_x
_atom_site_fract_y
_atom_site_fract_z
Si Si1 0.299893 0.761670 0.099256
Si Si2 0.792949 0.476771 0.924581
Si Si3 0.817233 0.629775 0.404061
Si Si4 0.895073 0.590906 0.717423
Si Si5 0.645773 0.460341 0.546463
Si Si6 0.500000 0.908105 0.500000
Si Si7 0.000000 0.116973 0.000000
Si Si8 0.514634 0.410866 0.829010
O O1 0.251448 0.592438 0.044995
O O2 0.434475 0.809634 0.330784
O O3 0.306179 0.819889 0.994866
O O4 0.166207 0.840221 0.990642
O O5 0.675217 0.496917 0.696248
O O6 0.948677 0.523052 0.076928
O O7 0.839721 0.555788 0.538964
O O8 0.898509 0.785900 0.502189
O O9 0.878838 0.516114 0.398975
O O10 0.655061 0.689296 0.196483
O O11 0.789140 0.520512 0.667586
O O12 0.912352 0.770453 0.734860
O O13 0.534599 0.506351 0.326422
O O14 0.015004 0.015873 0.922452
#
# Coordination Sequence:
#
# PCOD9127308 Si02
#       8
#     4   4   4   4   4   2   2   4
#     4  11  26  46  69 104 138 189 240 291 363 424
#     4  11  26  45  72 101 142 188 238 298 352 433
#     4  11  25  42  73 102 144 190 234 296 358 423
#     4  10  22  45  66 102 135 185 230 292 357 421
#     4  11  25  44  70 102 142 186 238 289 363 430
#     4  12  24  48  70 102 142 190 244 296 360 424
#     4  12  22  42  66 110 136 182 236 298 342 420
#     4  10  24  41  69  99 143 182 234 290 358 417
#
# _framework density 24.538012999999999
#
# number of rings (size 3 to 8) (size 9 to 14) (size 15 to 20)
#    0.000    1.143    4.286    0.429    8.000    1.714 
#    0.000    0.000    0.000    0.000    0.000    0.000 
#    0.000    0.000    0.000    0.000    0.000    0.000 
#
# Total GULP energy -78227.218944 kJ/mol
# GULP energy per Si atom -5587.658496 kJ/mol
# Density = 2.448216 g / cm^3
# Si number density = 24.538013 Si / 1000 Ang^3
#
#
#
# Elastic Constant Matrix: (Units=GPa)
#
#
# Indices 1 2 3 4 5 6 
#
# 1 39.7312 6.0814 11.3909 0.0000 -14.1014 0.0000
# 2 6.0814 34.0492 -10.4682 0.0000 -5.5572 0.0000
# 3 11.3909 -10.4682 110.8231 0.0000 -7.9194 0.0000
# 4 0.0000 0.0000 0.0000 28.2167 0.0000 -1.4583
# 5 -14.1014 -5.5572 -7.9194 0.0000 49.6461 0.0000
# 6 0.0000 0.0000 0.0000 -1.4583 0.0000 20.5998
#
#
#
# Elastic Compliance Matrix: (Units=1/GPa)
#
#
# Indices 1 2 3 4 5 6 
#
# 1 0.029375 -0.004965 -0.002966 0.000000 0.007315 0.000000
# 2 -0.004965 0.031846 0.003715 0.000000 0.002747 0.000000
# 3 -0.002966 0.003715 0.009760 0.000000 0.001130 0.000000
# 4 0.000000 0.000000 0.000000 0.035570 0.000000 0.002518
# 5 0.007315 0.002747 0.001130 0.000000 0.022708 0.000000
# 6 0.000000 0.000000 0.000000 0.002518 0.000000 0.048722
#
#
# Mechanical properties :
#
#
# Convention : Reuss Voigt Hill
#
# Bulk Modulus (GPa) = 15.98693 22.06797 19.02745
# Shear Modulus (GPa) = 24.12390 31.53250 27.82820
#
# Velocity S-wave (km/s) = 3.13888 3.58864 3.37127
# Velocity P-wave (km/s) = 4.43465 5.11704 4.78801
#
# Compressibility (1/GPa) = 0.06255110
#
# Stress axis : x y z
#
# Youngs Moduli (GPa) = 34.04197 31.40074 102.46042
#
# Poissons Ratio (x) = 0.15589 0.30385
# Poissons Ratio (y) = 0.16900 -0.38062
# Poissons Ratio (z) = 0.10095 -0.11665
#
# Static dielectric constant tensor:
#      x y z
#    x 1.954920 0.000000 0.037990 
#    y 0.000000 1.914750 0.000000 
#    z 0.037990 0.000000 2.079460 
# 
# From -- ./inp_files/56802.got.cif
#   From: 2010.05.17/outbox.cif.g08.bks.cpg/sg5_29_cif.got.tgz:56802.got - 2010.06.03 18:56:24.
