data_PCOD9127902
_publ_section_title
;
Structure prediction by ZEFSAII (Michael W. Deem and Ramdas Pophale) SiO2 
 PCOD9127902
Probable space group: C 2
;
_chemical_formula_sum "Si O2"
_cell_formula_units_Z 28
_cell_length_a 8.330170
_cell_length_b 11.222186
_cell_length_c 13.938072
_cell_angle_alpha 90.000000
_cell_angle_beta 65.696426
_cell_angle_gamma 90.000000
_cell_volume 1187.496624
_symmetry_space_group_name_H-M "C 2"
_symmetry_group_IT_number 5
_symmetry_cell_setting 'monoclinic'
loop_
_space_group_symop_operation_xyz
x,y,z
-x,y,-z
1/2+x,1/2+y,z
1/2-x,1/2+y,-z
loop_
_atom_site_type_symbol
_atom_site_label
_atom_site_fract_x
_atom_site_fract_y
_atom_site_fract_z
Si Si1 0.806201 0.498160 0.007956
Si Si2 0.167938 0.731378 0.527262
Si Si3 0.569549 0.829538 0.690624
Si Si4 0.331481 0.532214 0.607518
Si Si5 0.892871 0.745524 0.929385
Si Si6 0.465089 0.603502 0.775357
Si Si7 0.325317 0.369143 0.278857
O O1 0.724918 0.364088 0.015665
O O2 0.684948 0.559735 0.117897
O O3 0.815269 0.610491 0.928574
O O4 0.000000 0.475984 0.000000
O O5 0.335413 0.767814 0.423190
O O6 0.206057 0.606118 0.568111
O O7 0.157241 0.824388 0.616650
O O8 0.000000 0.727040 0.500000
O O9 0.712290 0.928428 0.680916
O O10 0.543777 0.731824 0.779325
O O11 0.373724 0.867985 0.710637
O O12 0.500000 0.498309 0.500000
O O13 0.390634 0.607638 0.684996
O O14 0.035462 0.789395 0.815673
O O15 0.000000 0.724695 0.000000
O O16 0.612934 0.504333 0.740334
#
# Coordination Sequence:
#
# PCOD9127902 Si02
#       7
#     4   4   4   4   4   4   4
#     4  10  23  43  72  98 138 178 225 285 346 403
#     4  12  26  43  68  99 135 182 229 275 333 401
#     4  12  24  42  70  95 137 182 225 275 333 399
#     4  12  25  45  66  96 140 179 227 280 331 398
#     4  10  23  45  71 103 139 174 229 285 341 409
#     4  11  24  45  65 101 136 176 229 278 333 407
#     4  11  24  47  68  98 141 180 223 279 336 402
#
# _framework density 23.579014000000001
#
# number of rings (size 3 to 8) (size 9 to 14) (size 15 to 20)
#    0.000    0.857    2.857    4.286    2.000    2.857 
#    0.000    2.857    0.000    0.000    0.000    0.000 
#    0.000    0.000    0.000    0.000    0.000    0.000 
#
# Total GULP energy -78255.815042 kJ/mol
# GULP energy per Si atom -5589.701074 kJ/mol
# Density = 2.352535 g / cm^3
# Si number density = 23.579014 Si / 1000 Ang^3
#
#
#
# Elastic Constant Matrix: (Units=GPa)
#
#
# Indices 1 2 3 4 5 6 
#
# 1 91.9299 58.4416 22.0818 0.0000 -36.0495 0.0000
# 2 58.4416 99.3736 -0.0469 0.0000 -27.1191 0.0000
# 3 22.0818 -0.0469 33.6415 0.0000 -14.6150 0.0000
# 4 0.0000 0.0000 0.0000 19.3944 0.0000 -29.8602
# 5 -36.0495 -27.1191 -14.6150 0.0000 30.4362 0.0000
# 6 0.0000 0.0000 0.0000 -29.8602 0.0000 24.2705
#
#
#
# Elastic Compliance Matrix: (Units=1/GPa)
#
#
# Indices 1 2 3 4 5 6 
#
# 1 0.027447 -0.011436 -0.010532 0.000000 0.017262 0.000000
# 2 -0.011436 0.019301 0.011524 0.000000 0.009186 0.000000
# 3 -0.010532 0.011524 0.045105 0.000000 0.019452 0.000000
# 4 0.000000 0.000000 0.000000 -0.057660 0.000000 -0.070940
# 5 0.017262 0.009186 0.019452 0.000000 0.070826 0.000000
# 6 0.000000 0.000000 0.000000 -0.070940 0.000000 -0.046076
#
#
# Mechanical properties :
#
#
# Convention : Reuss Voigt Hill
#
# Bulk Modulus (GPa) = 14.09167 42.87757 28.48462
# Shear Modulus (GPa) = 48.31567 24.45143 36.38355
#
# Velocity S-wave (km/s) = 4.53161 3.22374 3.93243
# Velocity P-wave (km/s) = 5.77667 5.66399 5.72061
#
# Compressibility (1/GPa) = 0.07096393
#
# Stress axis : x y z
#
# Youngs Moduli (GPa) = 36.43431 51.81171 22.17042
#
# Poissons Ratio (x) = 0.59250 0.23351
# Poissons Ratio (y) = 0.41665 -0.25549
# Poissons Ratio (z) = 0.38374 -0.59707
#
# Static dielectric constant tensor:
#      x y z
#    x 1.878300 0.000000 -0.007730 
#    y 0.000000 1.999230 0.000000 
#    z -0.007730 0.000000 1.936700 
# 
# From -- ./inp_files/50410.got.cif
#   From: 2010.05.17/outbox.cif.g08.bks.cpg/sg5_26_cif.got.tgz:50410.got - 2010.06.03 18:56:24.
