data_PCOD9127123
_publ_section_title
;
Structure prediction by ZEFSAII (Michael W. Deem and Ramdas Pophale) SiO2 
 PCOD9127123
Probable space group: C 2
;
_chemical_formula_sum "Si O2"
_cell_formula_units_Z 32
_cell_length_a 11.912350
_cell_length_b 8.282142
_cell_length_c 13.758241
_cell_angle_alpha 90.000000
_cell_angle_beta 92.725243
_cell_angle_gamma 90.000000
_cell_volume 1355.849782
_symmetry_space_group_name_H-M "C 2"
_symmetry_group_IT_number 5
_symmetry_cell_setting 'monoclinic'
loop_
_space_group_symop_operation_xyz
x,y,z
-x,y,-z
1/2+x,1/2+y,z
1/2-x,1/2+y,-z
loop_
_atom_site_type_symbol
_atom_site_label
_atom_site_fract_x
_atom_site_fract_y
_atom_site_fract_z
Si Si1 0.475937 0.428570 0.885421
Si Si2 0.113557 0.959063 0.476070
Si Si3 0.789947 0.670648 0.406385
Si Si4 0.114350 0.403072 0.296031
Si Si5 0.240064 0.580395 0.916667
Si Si6 0.637009 0.895613 0.742091
Si Si7 0.868934 0.751076 0.707979
Si Si8 0.720071 0.451644 0.873682
O O1 0.368096 0.546965 0.885934
O O2 0.436597 0.287741 0.810242
O O3 0.591528 0.504636 0.849509
O O4 0.500000 0.383793 0.000000
O O5 0.127673 0.802963 0.545269
O O6 0.104951 0.894901 0.365847
O O7 0.000000 0.049208 0.500000
O O8 0.225348 0.065710 0.484893
O O9 0.690230 0.774507 0.353645
O O10 0.841764 0.547639 0.330315
O O11 0.099989 0.582051 0.339650
O O12 0.186591 0.452569 0.204566
O O13 0.989865 0.338717 0.272951
O O14 0.162484 0.462245 0.850675
O O15 0.206442 0.762569 0.897249
O O16 0.236945 0.542698 0.029791
O O17 0.735410 0.768987 0.722165
#
# Coordination Sequence:
#
# PCOD9127123 Si02
#       8
#     4   4   4   4   4   4   4   4
#     4   9  21  42  69  89 136 174 216 276 329 385
#     4  11  25  44  73  98 131 176 218 279 332 400
#     4  11  25  46  66 101 133 170 226 272 337 397
#     4  12  25  40  68  99 131 181 218 272 336 394
#     4  10  22  44  61  97 134 176 225 277 326 390
#     4  10  23  46  65  95 143 169 219 282 324 401
#     4  10  23  43  68 101 130 177 221 270 339 395
#     4  11  24  39  66  96 132 179 226 271 331 394
#
# _framework density 23.601434000000001
#
# number of rings (size 3 to 8) (size 9 to 14) (size 15 to 20)
#    0.000    1.500    1.250    2.250    7.000    4.500 
#    4.500    0.625    0.000    0.000    0.000    0.000 
#    0.000    0.000    0.000    0.000    0.000    0.000 
#
# Total GULP energy -89509.420579 kJ/mol
# GULP energy per Si atom -5594.338786 kJ/mol
# Density = 2.354772 g / cm^3
# Si number density = 23.601434 Si / 1000 Ang^3
#
#
#
# Elastic Constant Matrix: (Units=GPa)
#
#
# Indices 1 2 3 4 5 6 
#
# 1 137.8865 4.9744 51.1018 0.0000 5.4610 0.0000
# 2 4.9744 48.1924 -1.5216 0.0000 5.2138 0.0000
# 3 51.1018 -1.5216 53.7030 0.0000 12.4230 0.0000
# 4 0.0000 0.0000 0.0000 -32.7259 0.0000 4.9550
# 5 5.4610 5.2138 12.4230 0.0000 30.2256 0.0000
# 6 0.0000 0.0000 0.0000 4.9550 0.0000 22.8263
#
#
#
# Elastic Compliance Matrix: (Units=1/GPa)
#
#
# Indices 1 2 3 4 5 6 
#
# 1 0.011559 -0.001897 -0.011764 0.000000 0.003074 0.000000
# 2 -0.001897 0.021580 0.003535 0.000000 -0.004832 0.000000
# 3 -0.011764 0.003535 0.032671 0.000000 -0.011912 0.000000
# 4 0.000000 0.000000 0.000000 -0.029584 0.000000 0.006422
# 5 0.003074 -0.004832 -0.011912 0.000000 0.038259 0.000000
# 6 0.000000 0.000000 0.000000 0.006422 0.000000 0.042415
#
#
# Mechanical properties :
#
#
# Convention : Reuss Voigt Hill
#
# Bulk Modulus (GPa) = 21.95037 38.76566 30.35802
# Shear Modulus (GPa) = 32.82187 16.41369 24.61778
#
# Velocity S-wave (km/s) = 3.73322 2.64001 3.23315
# Velocity P-wave (km/s) = 5.28235 5.07480 5.17961
#
# Compressibility (1/GPa) = 0.04555732
#
# Stress axis : x y z
#
# Youngs Moduli (GPa) = 86.51449 46.33834 30.60852
#
# Poissons Ratio (x) = 0.08791 0.36007
# Poissons Ratio (y) = 0.16412 -0.10819
# Poissons Ratio (z) = 1.01773 -0.16379
#
# Static dielectric constant tensor:
#      x y z
#    x 1.936090 0.000000 -0.103380 
#    y 0.000000 1.929300 0.000000 
#    z -0.103380 0.000000 1.991910 
# 
# From -- ./inp_files/52466.got.cif
#   From: 2010.05.17/outbox.cif.g08.bks.cpg/sg5_27_cif.got.tgz:52466.got - 2010.06.03 18:56:24.
