data_PCOD9127560
_publ_section_title
;
Structure prediction by ZEFSAII (Michael W. Deem and Ramdas Pophale) SiO2 
 PCOD9127560
Probable space group: C 2
;
_chemical_formula_sum "Si O2"
_cell_formula_units_Z 30
_cell_length_a 18.858382
_cell_length_b 5.202449
_cell_length_c 20.317552
_cell_angle_alpha 90.000000
_cell_angle_beta 131.825349
_cell_angle_gamma 90.000000
_cell_volume 1485.406893
_symmetry_space_group_name_H-M "C 2"
_symmetry_group_IT_number 5
_symmetry_cell_setting 'monoclinic'
loop_
_space_group_symop_operation_xyz
x,y,z
-x,y,-z
1/2+x,1/2+y,z
1/2-x,1/2+y,-z
loop_
_atom_site_type_symbol
_atom_site_label
_atom_site_fract_x
_atom_site_fract_y
_atom_site_fract_z
Si Si1 0.268235 0.260100 0.654915
Si Si2 0.689876 0.638753 0.480725
Si Si3 0.872280 0.750276 0.097891
Si Si4 0.500000 0.927305 0.000000
Si Si5 0.619938 0.768549 0.310337
Si Si6 0.480998 0.585171 0.875094
Si Si7 0.799613 0.252488 0.113715
Si Si8 0.323862 0.264743 0.835288
O O1 0.179684 0.195841 0.552081
O O2 0.300341 0.554648 0.662646
O O3 0.272006 0.193688 0.734454
O O4 0.346442 0.061681 0.673979
O O5 0.732281 0.354361 0.494967
O O6 0.604201 0.692054 0.376713
O O7 0.865899 0.487426 0.133116
O O8 0.851660 0.982641 0.135404
O O9 0.787849 0.750437 0.992143
O O10 0.965421 0.827539 0.114185
O O11 0.462076 0.752369 0.037068
O O12 0.589924 0.085587 0.083912
O O13 0.542426 0.727753 0.206559
O O14 0.383383 0.517948 0.852055
O O15 0.753158 0.291815 0.155767
#
# Coordination Sequence:
#
# PCOD9127560 Si02
#       8
#     4   4   4   2   4   4   4   4
#     4   9  17  30  47  75 105 138 173 218 270 324
#     4   8  14  26  46  68 103 136 167 212 270 320
#     4  10  23  38  54  72 102 146 185 222 262 312
#     4  12  22  32  56  82 116 152 184 232 282 326
#     4   9  17  30  47  75 105 138 173 218 270 324
#     4  11  23  35  54  80 112 144 188 225 278 327
#     4  10  23  38  54  72 102 146 185 222 262 312
#     4  11  23  35  54  80 112 144 188 225 278 327
#
# _framework density 20.196487999999999
#
# number of rings (size 3 to 8) (size 9 to 14) (size 15 to 20)
#    0.000    2.133    1.333    2.000    9.333    0.000 
#    0.000    0.000    0.000    0.000    0.000    0.933 
#    0.000    2.133    0.000    0.000    0.000    0.267 
#
# Total GULP energy -83580.986772 kJ/mol
# GULP energy per Si atom -5572.065785 kJ/mol
# Density = 2.015052 g / cm^3
# Si number density = 20.196488 Si / 1000 Ang^3
#
#
#
# Elastic Constant Matrix: (Units=GPa)
#
#
# Indices 1 2 3 4 5 6 
#
# 1 67.4189 21.4008 38.4316 -0.0001 -21.7393 -0.0008
# 2 21.4008 93.7849 31.2625 -0.0004 -9.0816 -0.0001
# 3 38.4316 31.2625 150.6174 0.0000 -43.1697 0.0002
# 4 -0.0001 -0.0004 0.0000 30.8495 0.0000 -3.5474
# 5 -21.7393 -9.0816 -43.1697 0.0000 19.5409 0.0002
# 6 -0.0008 -0.0001 0.0002 -3.5474 0.0002 18.0334
#
#
#
# Elastic Compliance Matrix: (Units=1/GPa)
#
#
# Indices 1 2 3 4 5 6 
#
# 1 0.025279 -0.003835 0.005168 0.000000 0.037757 0.000001
# 2 -0.003835 0.012037 -0.003106 0.000000 -0.005534 0.000000
# 3 0.005168 -0.003106 0.019628 0.000000 0.047667 -0.000001
# 4 0.000000 0.000000 0.000000 0.033166 0.000000 0.006524
# 5 0.037757 -0.005534 0.047667 0.000000 0.195913 -0.000001
# 6 0.000001 0.000000 -0.000001 0.006524 -0.000001 0.056736
#
#
# Mechanical properties :
#
#
# Convention : Reuss Voigt Hill
#
# Bulk Modulus (GPa) = 18.72759 54.89010 36.80884
# Shear Modulus (GPa) = 13.73234 28.39985 21.06610
#
# Velocity S-wave (km/s) = 2.61039 3.75397 3.23314
# Velocity P-wave (km/s) = 4.28700 6.78430 5.67473
#
# Compressibility (1/GPa) = 0.05339715
#
# Stress axis : x y z
#
# Youngs Moduli (GPa) = 39.55871 83.07526 50.94845
#
# Poissons Ratio (x) = 0.31858 -0.26328
# Poissons Ratio (y) = 0.15170 0.15825
# Poissons Ratio (z) = -0.20442 0.25804
#
# Static dielectric constant tensor:
#      x y z
#    x 1.695730 0.000000 -0.001010 
#    y 0.000000 1.765750 0.000000 
#    z -0.001010 0.000000 1.826550 
# 
# From -- ./inp_files/55490.got.cif
#   From: 2010.05.17/outbox.cif.g08.bks.cpg/sg5_28_cif.got.tgz:55490.got - 2010.06.03 18:56:24.
