data_PCOD9127532
_publ_section_title
;
Structure prediction by ZEFSAII (Michael W. Deem and Ramdas Pophale) SiO2 
 PCOD9127532
Probable space group: C 2
;
_chemical_formula_sum "Si O2"
_cell_formula_units_Z 28
_cell_length_a 21.836383
_cell_length_b 7.749836
_cell_length_c 19.734993
_cell_angle_alpha 90.000000
_cell_angle_beta 159.709920
_cell_angle_gamma 90.000000
_cell_volume 1158.125962
_symmetry_space_group_name_H-M "C 2"
_symmetry_group_IT_number 5
_symmetry_cell_setting 'monoclinic'
loop_
_space_group_symop_operation_xyz
x,y,z
-x,y,-z
1/2+x,1/2+y,z
1/2-x,1/2+y,-z
loop_
_atom_site_type_symbol
_atom_site_label
_atom_site_fract_x
_atom_site_fract_y
_atom_site_fract_z
Si Si1 0.235466 0.508920 0.032438
Si Si2 0.358027 0.756849 0.437258
Si Si3 0.805268 0.057193 0.825060
Si Si4 0.771192 0.375801 0.121905
Si Si5 0.862854 0.065340 0.574879
Si Si6 0.799851 0.406609 0.772631
Si Si7 0.578045 0.805791 0.246374
O O1 0.184521 0.700010 0.004545
O O2 0.448899 0.493028 0.258217
O O3 0.185144 0.478471 0.901530
O O4 0.120343 0.377689 0.956976
O O5 0.277984 0.914852 0.311540
O O6 0.558033 0.810800 0.659367
O O7 0.297844 0.705852 0.451428
O O8 0.316284 0.578608 0.354292
O O9 0.824366 0.986679 0.920721
O O10 0.723606 0.249614 0.738017
O O11 0.000000 0.086203 0.000000
O O12 0.703499 0.936027 0.417874
O O13 0.912838 0.135936 0.700043
O O14 0.830430 0.317415 0.731071
O O15 0.000000 0.463678 0.000000
#
# Coordination Sequence:
#
# PCOD9127532 Si02
#       7
#     4   4   4   4   4   4   4
#     4  11  24  46  70 108 149 188 245 310 370 448
#     4  10  22  49  66 105 145 190 251 300 373 441
#     4  11  26  44  76 106 148 193 247 307 375 449
#     4  11  26  47  72 108 146 196 243 312 379 444
#     4  10  25  41  69 106 140 193 245 309 372 442
#     4  10  25  44  73 109 142 198 252 304 372 450
#     4  11  24  43  73 104 142 194 250 303 380 442
#
# _framework density 24.17699
#
# number of rings (size 3 to 8) (size 9 to 14) (size 15 to 20)
#    0.000    1.429    2.857    0.857   14.000    0.000 
#    5.143    1.429    9.429    0.000    0.000    0.000 
#    0.000    0.000    0.000    0.000    0.000    0.000 
#
# Total GULP energy -78222.857590 kJ/mol
# GULP energy per Si atom -5587.346971 kJ/mol
# Density = 2.412196 g / cm^3
# Si number density = 24.176990 Si / 1000 Ang^3
#
#
#
# Elastic Constant Matrix: (Units=GPa)
#
#
# Indices 1 2 3 4 5 6 
#
# 1 53.8877 25.4101 26.7013 0.0000 -17.8003 0.0000
# 2 25.4101 109.3935 56.3664 0.0000 -31.8893 0.0000
# 3 26.7013 56.3664 84.5633 0.0000 -21.2502 0.0000
# 4 0.0000 0.0000 0.0000 26.7188 0.0000 -16.1709
# 5 -17.8003 -31.8893 -21.2502 0.0000 33.4131 0.0000
# 6 0.0000 0.0000 0.0000 -16.1709 0.0000 25.9074
#
#
#
# Elastic Compliance Matrix: (Units=1/GPa)
#
#
# Indices 1 2 3 4 5 6 
#
# 1 0.024349 -0.000245 -0.005147 0.000000 0.009465 0.000000
# 2 -0.000245 0.016496 -0.008325 0.000000 0.010318 0.000000
# 3 -0.005147 -0.008325 0.019417 0.000000 0.001662 0.000000
# 4 0.000000 0.000000 0.000000 0.060150 0.000000 0.037544
# 5 0.009465 0.010318 0.001662 0.000000 0.045875 0.000000
# 6 0.000000 0.000000 0.000000 0.037544 0.000000 0.062033
#
#
# Mechanical properties :
#
#
# Convention : Reuss Voigt Hill
#
# Bulk Modulus (GPa) = 30.46107 51.64445 41.05276
# Shear Modulus (GPa) = 18.74788 26.49897 22.62343
#
# Velocity S-wave (km/s) = 2.78770 3.31424 3.06231
# Velocity P-wave (km/s) = 4.79461 6.00441 5.43329
#
# Compressibility (1/GPa) = 0.03282879
#
# Stress axis : x y z
#
# Youngs Moduli (GPa) = 41.06911 60.62187 51.50031
#
# Poissons Ratio (x) = 0.01485 0.26506
# Poissons Ratio (y) = 0.01006 0.42875
# Poissons Ratio (z) = 0.21137 0.50468
#
# Static dielectric constant tensor:
#      x y z
#    x 1.994310 0.000000 -0.015290 
#    y 0.000000 2.015880 0.000000 
#    z -0.015290 0.000000 1.950370 
# 
# From -- ./inp_files/67377.got.cif
#   From: 2010.05.17/outbox.cif.g08.bks.cpg/sg5_34_cif.got.tgz:67377.got - 2010.06.03 18:56:24.
