data_PCOD9127555
_publ_section_title
;
Structure prediction by ZEFSAII (Michael W. Deem and Ramdas Pophale) SiO2 
 PCOD9127555
Probable space group: C 2
;
_chemical_formula_sum "Si O2"
_cell_formula_units_Z 28
_cell_length_a 11.435160
_cell_length_b 9.748482
_cell_length_c 24.715971
_cell_angle_alpha 90.000000
_cell_angle_beta 157.766927
_cell_angle_gamma 90.000000
_cell_volume 1042.508350
_symmetry_space_group_name_H-M "C 2"
_symmetry_group_IT_number 5
_symmetry_cell_setting 'monoclinic'
loop_
_space_group_symop_operation_xyz
x,y,z
-x,y,-z
1/2+x,1/2+y,z
1/2-x,1/2+y,-z
loop_
_atom_site_type_symbol
_atom_site_label
_atom_site_fract_x
_atom_site_fract_y
_atom_site_fract_z
Si Si1 0.693929 0.344230 0.211980
Si Si2 0.417746 0.578571 0.902401
Si Si3 0.576284 0.473501 0.324275
Si Si4 0.198225 0.687904 0.320142
Si Si5 0.164615 0.248696 0.327846
Si Si6 0.836835 0.580161 0.548180
Si Si7 0.841700 0.306478 0.788681
O O1 0.476876 0.438226 0.081189
O O2 0.583511 0.247023 0.212813
O O3 0.900627 0.261351 0.259285
O O4 0.942119 0.455589 0.340412
O O5 0.509453 0.697355 0.899144
O O6 0.043885 0.596671 0.750062
O O7 0.500000 0.593182 0.000000
O O8 0.701837 0.329999 0.355280
O O9 0.611636 0.586225 0.292614
O O10 0.749000 0.539008 0.449468
O O11 0.251575 0.430836 0.212495
O O12 0.516553 0.609048 0.443337
O O13 0.500000 0.279584 0.500000
O O14 0.057984 0.335305 0.229553
O O15 0.025424 0.722785 0.634281
#
# Coordination Sequence:
#
# PCOD9127555 Si02
#       7
#     4   4   4   4   4   4   4
#     4  11  25  38  65 100 132 170 217 263 334 389
#     4  10  25  49  68  88 121 178 234 279 322 367
#     4  11  22  36  58  87 136 169 206 251 314 382
#     4  11  24  43  67  95 136 172 215 269 324 393
#     4  12  22  36  60 100 142 166 201 256 322 411
#     4  11  21  37  59 102 132 173 206 246 337 405
#     4  10  23  37  61  94 127 170 216 253 324 389
#
# _framework density 26.858298999999999
#
# number of rings (size 3 to 8) (size 9 to 14) (size 15 to 20)
#    0.000    1.143    2.857    3.429    6.000    6.286 
#    2.571    0.000    0.000    0.857    0.000    0.000 
#    0.000    0.000    0.000    0.000    0.000    0.000 
#
# Total GULP energy -78211.974216 kJ/mol
# GULP energy per Si atom -5586.569587 kJ/mol
# Density = 2.679717 g / cm^3
# Si number density = 26.858299 Si / 1000 Ang^3
#
#
#
# Elastic Constant Matrix: (Units=GPa)
#
#
# Indices 1 2 3 4 5 6 
#
# 1 149.5521 25.9668 12.4302 0.0067 -26.9112 0.0025
# 2 25.9668 72.7987 -2.8441 0.0004 -0.6504 0.0006
# 3 12.4302 -2.8441 72.0300 0.0232 -28.9761 0.0082
# 4 0.0067 0.0004 0.0232 12.9135 0.0180 -8.3173
# 5 -26.9112 -0.6504 -28.9761 0.0180 46.9459 -0.0026
# 6 0.0025 0.0006 0.0082 -8.3173 -0.0026 55.9960
#
#
#
# Elastic Compliance Matrix: (Units=1/GPa)
#
#
# Indices 1 2 3 4 5 6 
#
# 1 0.008003 -0.002794 0.000450 -0.000013 0.004827 -0.000002
# 2 -0.002794 0.014750 0.000668 0.000001 -0.000985 0.000000
# 3 0.000450 0.000668 0.018544 -0.000057 0.011713 -0.000011
# 4 -0.000013 0.000001 -0.000057 0.085630 -0.000075 0.012719
# 5 0.004827 -0.000985 0.011713 -0.000075 0.031284 -0.000012
# 6 -0.000002 0.000000 -0.000011 0.012719 -0.000012 0.019748
#
#
# Mechanical properties :
#
#
# Convention : Reuss Voigt Hill
#
# Bulk Modulus (GPa) = 26.35264 40.60962 33.48113
# Shear Modulus (GPa) = 25.77880 40.42629 33.10254
#
# Velocity S-wave (km/s) = 3.10144 3.88386 3.51449
# Velocity P-wave (km/s) = 4.76007 5.93846 5.38161
#
# Compressibility (1/GPa) = 0.03794686
#
# Stress axis : x y z
#
# Youngs Moduli (GPa) = 124.95530 67.79489 53.92675
#
# Poissons Ratio (x) = 0.18941 -0.02429
# Poissons Ratio (y) = 0.34911 -0.03605
# Poissons Ratio (z) = -0.05627 -0.04532
#
# Static dielectric constant tensor:
#      x y z
#    x 2.197780 -0.000010 -0.041990 
#    y -0.000010 2.164990 -0.000010 
#    z -0.041990 -0.000010 2.285130 
# 
# From -- ./inp_files/68357.got.cif
#   From: 2010.05.17/outbox.cif.g08.bks.cpg/sg5_35_cif.got.tgz:68357.got - 2010.06.03 18:56:24.
