data_PCOD9127197
_publ_section_title
;
Structure prediction by ZEFSAII (Michael W. Deem and Ramdas Pophale) SiO2 
 PCOD9127197
Probable space group: C 2
;
_chemical_formula_sum "Si O2"
_cell_formula_units_Z 24
_cell_length_a 10.437953
_cell_length_b 10.056349
_cell_length_c 11.370307
_cell_angle_alpha 90.000000
_cell_angle_beta 73.808247
_cell_angle_gamma 90.000000
_cell_volume 1146.172790
_symmetry_space_group_name_H-M "C 2"
_symmetry_group_IT_number 5
_symmetry_cell_setting 'monoclinic'
loop_
_space_group_symop_operation_xyz
x,y,z
-x,y,-z
1/2+x,1/2+y,z
1/2-x,1/2+y,-z
loop_
_atom_site_type_symbol
_atom_site_label
_atom_site_fract_x
_atom_site_fract_y
_atom_site_fract_z
Si Si1 0.758975 0.812790 0.149062
Si Si2 0.783240 0.048498 0.711727
Si Si3 0.500000 0.182103 0.000000
Si Si4 0.440448 0.157043 0.400007
Si Si5 0.673563 0.097334 0.170673
Si Si6 0.347490 0.831516 0.080828
Si Si7 0.000000 0.910293 0.500000
O O1 0.688953 0.682142 0.219647
O O2 0.706671 0.951383 0.211394
O O3 0.736748 0.837632 0.016806
O O4 0.914031 0.772702 0.110669
O O5 0.680062 0.089142 0.635620
O O6 0.705482 0.941685 0.814050
O O7 0.914094 0.991761 0.615481
O O8 0.398799 0.100012 0.940832
O O9 0.500000 0.085112 0.500000
O O10 0.565704 0.165565 0.281414
O O11 0.405561 0.305154 0.454523
O O12 0.806824 0.185351 0.137389
O O13 0.500000 0.838262 0.000000
#
# Coordination Sequence:
#
# PCOD9127197 Si02
#       7
#     4   4   2   4   4   4   2
#     4  11  25  38  71 107 134 195 229 291 377 426
#     4  12  24  50  76 101 153 191 239 312 352 435
#     4  10  22  44  68  96 150 184 228 300 364 426
#     4  10  23  48  72  98 134 193 242 299 353 406
#     4  11  22  45  68 102 146 186 239 296 364 428
#     4  11  23  42  70 109 148 188 236 296 366 439
#     4  10  26  52  68 106 142 196 254 294 352 424
#
# _framework density 20.939252
#
# number of rings (size 3 to 8) (size 9 to 14) (size 15 to 20)
#    0.500    0.667    3.333    3.000    3.500    1.333 
#   13.500    0.000    0.000    0.000    0.000    0.000 
#    0.000    0.000    0.000    0.000    0.000    0.000 
#
# Total GULP energy -66883.099793 kJ/mol
# GULP energy per Si atom -5573.591649 kJ/mol
# Density = 2.089159 g / cm^3
# Si number density = 20.939252 Si / 1000 Ang^3
#
#
#
# Elastic Constant Matrix: (Units=GPa)
#
#
# Indices 1 2 3 4 5 6 
#
# 1 73.8605 43.1145 28.8761 0.0000 3.1705 0.0000
# 2 43.1145 145.7007 41.9187 0.0000 -0.1415 0.0000
# 3 28.8761 41.9187 104.6046 0.0000 2.9845 0.0000
# 4 0.0000 0.0000 0.0000 -3.4952 0.0000 25.5121
# 5 3.1705 -0.1415 2.9845 0.0000 35.8260 0.0000
# 6 0.0000 0.0000 0.0000 25.5121 0.0000 23.3013
#
#
#
# Elastic Compliance Matrix: (Units=1/GPa)
#
#
# Indices 1 2 3 4 5 6 
#
# 1 0.017250 -0.004235 -0.003028 0.000000 -0.001291 0.000000
# 2 -0.004235 0.008800 -0.002375 0.000000 0.000607 0.000000
# 3 -0.003028 -0.002375 0.011367 0.000000 -0.000688 0.000000
# 4 0.000000 0.000000 0.000000 -0.031819 0.000000 0.034838
# 5 -0.001291 0.000607 -0.000688 0.000000 0.028087 0.000000
# 6 0.000000 0.000000 0.000000 0.034838 0.000000 0.004773
#
#
# Mechanical properties :
#
#
# Convention : Reuss Voigt Hill
#
# Bulk Modulus (GPa) = 55.12000 61.33159 58.22579
# Shear Modulus (GPa) = 78.39325 25.14350 51.76838
#
# Velocity S-wave (km/s) = 6.12533 3.46899 4.97763
# Velocity P-wave (km/s) = 8.74112 6.73788 7.80404
#
# Compressibility (1/GPa) = 0.01814224
#
# Stress axis : x y z
#
# Youngs Moduli (GPa) = 57.97049 113.63225 87.97314
#
# Poissons Ratio (x) = 0.48118 0.26640
# Poissons Ratio (y) = 0.24548 0.20893
# Poissons Ratio (z) = 0.17554 0.26987
#
# Static dielectric constant tensor:
#      x y z
#    x 1.806720 0.000000 0.076550 
#    y 0.000000 1.835040 0.000000 
#    z 0.076550 0.000000 1.895010 
# 
# From -- ./inp_files/38299.got.cif
#   From: 2010.05.17/outbox.cif.g08.bks.cpg/sg5_20_cif.got.tgz:38299.got - 2010.06.03 18:56:24.
