data_PCOD9127896
_publ_section_title
;
Structure prediction by ZEFSAII (Michael W. Deem and Ramdas Pophale) SiO2 
 PCOD9127896
Probable space group: C 2
;
_chemical_formula_sum "Si O2"
_cell_formula_units_Z 24
_cell_length_a 28.603155
_cell_length_b 5.096320
_cell_length_c 14.195598
_cell_angle_alpha 90.000000
_cell_angle_beta 28.025785
_cell_angle_gamma 90.000000
_cell_volume 972.301588
_symmetry_space_group_name_H-M "C 2"
_symmetry_group_IT_number 5
_symmetry_cell_setting 'monoclinic'
loop_
_space_group_symop_operation_xyz
x,y,z
-x,y,-z
1/2+x,1/2+y,z
1/2-x,1/2+y,-z
loop_
_atom_site_type_symbol
_atom_site_label
_atom_site_fract_x
_atom_site_fract_y
_atom_site_fract_z
Si Si1 0.257578 0.786450 0.423107
Si Si2 0.301932 0.098095 0.946623
Si Si3 0.949095 0.183897 0.999411
Si Si4 0.603974 0.372007 0.071338
Si Si5 0.415481 0.005450 0.384967
Si Si6 0.486405 0.773323 0.624428
O O1 0.279118 0.543618 0.456155
O O2 0.362644 0.874747 0.190384
O O3 0.178429 0.660127 0.490283
O O4 0.309413 0.193207 0.041310
O O5 0.415205 0.016834 0.722528
O O6 0.264344 0.344707 0.954160
O O7 0.885274 0.985394 0.050596
O O8 0.000000 0.060858 0.000000
O O9 0.033287 0.316599 0.784702
O O10 0.501269 0.216867 0.250002
O O11 0.582848 0.606348 0.181925
O O12 0.418403 0.853422 0.480985
O O13 0.500000 0.634320 0.500000
#
# Coordination Sequence:
#
# PCOD9127896 Si02
#       6
#     4   4   4   4   4   4
#     4  12  27  47  74 112 150 192 252 305 370 454
#     4  11  22  44  70 101 140 185 239 296 356 443
#     4  11  23  45  74 105 150 201 238 313 371 434
#     4  10  23  43  72 101 148 191 245 297 378 438
#     4  10  24  45  69 107 148 193 252 300 374 452
#     4  10  23  45  69 103 143 191 238 308 367 434
#
# _framework density 24.683700000000002
#
# number of rings (size 3 to 8) (size 9 to 14) (size 15 to 20)
#    0.000    1.333    3.333    1.000    4.667    4.667 
#    0.000    0.000    0.000    0.000    0.000    0.000 
#    0.000    0.000    0.000    0.000    0.000    0.000 
#
# Total GULP energy -67004.956542 kJ/mol
# GULP energy per Si atom -5583.746379 kJ/mol
# Density = 2.462752 g / cm^3
# Si number density = 24.683700 Si / 1000 Ang^3
#
#
#
# Elastic Constant Matrix: (Units=GPa)
#
#
# Indices 1 2 3 4 5 6 
#
# 1 184.6119 51.8239 38.5704 -0.0001 -5.0984 0.0000
# 2 51.8239 108.3196 10.7251 0.0002 -5.3994 -0.0005
# 3 38.5704 10.7251 61.8977 0.0006 -5.4849 0.0009
# 4 -0.0001 0.0002 0.0006 33.2798 0.0004 -7.3502
# 5 -5.0984 -5.3994 -5.4849 0.0004 35.9142 -0.0001
# 6 0.0000 -0.0005 0.0009 -7.3502 -0.0001 47.7013
#
#
#
# Elastic Compliance Matrix: (Units=1/GPa)
#
#
# Indices 1 2 3 4 5 6 
#
# 1 0.007070 -0.003000 -0.003890 0.000000 -0.000041 0.000000
# 2 -0.003000 0.010715 0.000119 0.000000 0.001203 0.000000
# 3 -0.003890 0.000119 0.018765 0.000000 0.002332 0.000000
# 4 0.000000 0.000000 0.000000 0.031107 0.000000 0.004793
# 5 -0.000041 0.001203 0.002332 0.000000 0.028375 0.000000
# 6 0.000000 0.000000 0.000000 0.004793 0.000000 0.021702
#
#
# Mechanical properties :
#
#
# Convention : Reuss Voigt Hill
#
# Bulk Modulus (GPa) = 43.45801 61.89645 52.67723
# Shear Modulus (GPa) = 35.98518 40.29303 38.13911
#
# Velocity S-wave (km/s) = 3.82232 4.04465 3.93506
# Velocity P-wave (km/s) = 6.09298 6.85146 6.48332
#
# Compressibility (1/GPa) = 0.02301072
#
# Stress axis : x y z
#
# Youngs Moduli (GPa) = 141.43603 93.32491 53.28954
#
# Poissons Ratio (x) = 0.27994 0.20728
# Poissons Ratio (y) = 0.42426 -0.00635
# Poissons Ratio (z) = 0.55014 -0.01112
#
# Static dielectric constant tensor:
#      x y z
#    x 2.034030 0.000000 0.043350 
#    y 0.000000 2.026210 0.000000 
#    z 0.043350 0.000000 1.883700 
# 
# From -- ./inp_files/58286.got.cif
#   From: 2010.05.17/outbox.cif.g08.bks.cpg/sg5_30_cif.got.tgz:58286.got - 2010.06.03 18:56:24.
