data_PCOD9127618
_publ_section_title
;
Structure prediction by ZEFSAII (Michael W. Deem and Ramdas Pophale) SiO2 
 PCOD9127618
Probable space group: C 2
;
_chemical_formula_sum "Si O2"
_cell_formula_units_Z 28
_cell_length_a 14.622778
_cell_length_b 5.132253
_cell_length_c 17.449595
_cell_angle_alpha 90.000000
_cell_angle_beta 64.953846
_cell_angle_gamma 90.000000
_cell_volume 1186.412467
_symmetry_space_group_name_H-M "C 2"
_symmetry_group_IT_number 5
_symmetry_cell_setting 'monoclinic'
loop_
_space_group_symop_operation_xyz
x,y,z
-x,y,-z
1/2+x,1/2+y,z
1/2-x,1/2+y,-z
loop_
_atom_site_type_symbol
_atom_site_label
_atom_site_fract_x
_atom_site_fract_y
_atom_site_fract_z
Si Si1 0.311831 0.902990 0.956278
Si Si2 0.987814 0.171374 0.140709
Si Si3 0.401852 0.265257 0.812558
Si Si4 0.808295 0.421178 0.493156
Si Si5 0.991819 0.383206 0.313645
Si Si6 0.225696 0.358845 0.777676
Si Si7 0.805781 0.333953 0.671572
O O1 0.423651 0.807297 0.939502
O O2 0.340057 0.009855 0.862036
O O3 0.237872 0.656929 0.987766
O O4 0.977596 0.257747 0.234671
O O5 0.878594 0.253976 0.149723
O O6 0.034050 0.883893 0.140176
O O7 0.308862 0.427206 0.812624
O O8 0.478211 0.180175 0.719279
O O9 0.781089 0.725860 0.499955
O O10 0.897636 0.366930 0.402294
O O11 0.827123 0.344328 0.574173
O O12 0.088666 0.275974 0.324040
O O13 0.224049 0.614355 0.724711
O O14 0.267241 0.114961 0.713990
#
# Coordination Sequence:
#
# PCOD9127618 Si02
#       7
#     4   4   4   4   4   4   4
#     4  11  23  42  72  97 135 173 213 264 339 407
#     4  11  22  42  72  97 129 179 216 279 334 402
#     4  10  23  44  70  99 131 180 220 282 332 414
#     4  12  26  40  60  93 132 175 228 284 340 398
#     4  10  23  40  65  93 130 176 229 270 346 399
#     4  11  25  41  69 100 132 168 237 270 334 403
#     4  11  23  43  61  95 131 178 220 291 330 398
#
# _framework density 23.600559000000001
#
# number of rings (size 3 to 8) (size 9 to 14) (size 15 to 20)
#    0.000    1.143    2.857    3.000    8.000    0.000 
#    0.000    3.571    6.286    0.000    0.000    0.000 
#    0.000    0.000    0.000    0.000    0.000    0.000 
#
# Total GULP energy -78121.292342 kJ/mol
# GULP energy per Si atom -5580.092310 kJ/mol
# Density = 2.354684 g / cm^3
# Si number density = 23.600559 Si / 1000 Ang^3
#
#
#
# Elastic Constant Matrix: (Units=GPa)
#
#
# Indices 1 2 3 4 5 6 
#
# 1 42.6108 -3.0988 1.9590 0.0001 -17.2671 0.0011
# 2 -3.0988 108.8545 29.0693 0.0012 -10.5599 0.0035
# 3 1.9590 29.0693 108.2766 -0.0001 -25.3912 0.0001
# 4 0.0001 0.0012 -0.0001 35.1949 -0.0001 -3.0243
# 5 -17.2671 -10.5599 -25.3912 -0.0001 41.0428 0.0002
# 6 0.0011 0.0035 0.0001 -3.0243 0.0002 19.5257
#
#
#
# Elastic Compliance Matrix: (Units=1/GPa)
#
#
# Indices 1 2 3 4 5 6 
#
# 1 0.029212 0.001572 0.002370 0.000000 0.014160 -0.000002
# 2 0.001572 0.010020 -0.002291 -0.000001 0.001822 -0.000002
# 3 0.002370 -0.002291 0.011584 0.000000 0.007574 0.000000
# 4 0.000000 -0.000001 0.000000 0.028796 0.000000 0.004460
# 5 0.014160 0.001822 0.007574 0.000000 0.035477 -0.000002
# 6 -0.000002 -0.000002 0.000000 0.004460 -0.000002 0.051906
#
#
# Mechanical properties :
#
#
# Convention : Reuss Voigt Hill
#
# Bulk Modulus (GPa) = 18.47812 35.06678 26.77245
# Shear Modulus (GPa) = 27.51310 34.60684 31.05997
#
# Velocity S-wave (km/s) = 3.41806 3.83346 3.63170
# Velocity P-wave (km/s) = 4.83984 5.87236 5.38092
#
# Compressibility (1/GPa) = 0.05411807
#
# Stress axis : x y z
#
# Youngs Moduli (GPa) = 34.23271 99.80074 86.32593
#
# Poissons Ratio (x) = -0.15692 -0.20459
# Poissons Ratio (y) = -0.05383 0.19779
# Poissons Ratio (z) = -0.08113 0.22867
#
# Static dielectric constant tensor:
#      x y z
#    x 1.997390 0.000000 0.034210 
#    y 0.000000 2.009530 0.000000 
#    z 0.034210 0.000000 1.883430 
# 
# From -- ./inp_files/61143.got.cif
#   From: 2010.05.17/outbox.cif.g08.bks.cpg/sg5_31_cif.got.tgz:61143.got - 2010.06.03 18:56:24.
