data_PCOD9127476
_publ_section_title
;
Structure prediction by ZEFSAII (Michael W. Deem and Ramdas Pophale) SiO2 
 PCOD9127476
Probable space group: C 2
;
_chemical_formula_sum "Si O2"
_cell_formula_units_Z 22
_cell_length_a 23.744924
_cell_length_b 5.068983
_cell_length_c 14.387687
_cell_angle_alpha 90.000000
_cell_angle_beta 150.764580
_cell_angle_gamma 90.000000
_cell_volume 845.780262
_symmetry_space_group_name_H-M "C 2"
_symmetry_group_IT_number 5
_symmetry_cell_setting 'monoclinic'
loop_
_space_group_symop_operation_xyz
x,y,z
-x,y,-z
1/2+x,1/2+y,z
1/2-x,1/2+y,-z
loop_
_atom_site_type_symbol
_atom_site_label
_atom_site_fract_x
_atom_site_fract_y
_atom_site_fract_z
Si Si1 0.500000 0.056280 0.000000
Si Si2 0.736275 0.741935 0.323146
Si Si3 0.740727 0.344215 0.852147
Si Si4 0.929676 0.049976 0.252288
Si Si5 0.374121 0.749253 0.554542
Si Si6 0.546895 0.147545 0.876252
O O1 0.490882 0.241827 0.077551
O O2 0.610085 0.863315 0.151762
O O3 0.768521 0.705801 0.260270
O O4 0.772363 0.461378 0.414774
O O5 0.814499 0.969530 0.482520
O O6 0.623521 0.424217 0.732882
O O7 0.822407 0.199540 0.046444
O O8 0.816941 0.595460 0.931353
O O9 0.046272 0.223432 0.424803
O O10 0.968815 0.824456 0.236352
O O11 0.474709 0.873714 0.763827
#
# Coordination Sequence:
#
# PCOD9127476 Si02
#       6
#     2   4   4   4   4   4
#     4  10  26  48  78 100 138 190 248 302 346 428
#     4  11  26  48  69 108 138 190 238 298 351 431
#     4  10  23  39  73 102 147 187 244 279 352 422
#     4  11  21  44  70 108 144 198 228 297 350 432
#     4  11  25  47  70 103 148 180 239 292 370 411
#     4  10  22  47  70 107 139 190 240 290 353 421
#
# _framework density 26.011486000000001
#
# number of rings (size 3 to 8) (size 9 to 14) (size 15 to 20)
#    0.000    1.455    3.636    0.000    5.091    2.909 
#    9.818    0.000    0.000    0.000    0.000    0.000 
#    0.000    0.000    0.000    0.000    0.000    0.000 
#
# Total GULP energy -61433.349810 kJ/mol
# GULP energy per Si atom -5584.849983 kJ/mol
# Density = 2.595228 g / cm^3
# Si number density = 26.011486 Si / 1000 Ang^3
#
#
#
# Elastic Constant Matrix: (Units=GPa)
#
#
# Indices 1 2 3 4 5 6 
#
# 1 196.3451 21.2360 36.3426 0.0001 18.9609 -0.0001
# 2 21.2360 86.6434 12.0314 0.0018 8.2912 0.0003
# 3 36.3426 12.0314 77.1043 0.0005 28.9255 0.0000
# 4 0.0001 0.0018 0.0005 37.2064 0.0003 6.1225
# 5 18.9609 8.2912 28.9255 0.0003 27.3986 -0.0001
# 6 -0.0001 0.0003 0.0000 6.1225 -0.0001 14.4687
#
#
#
# Elastic Compliance Matrix: (Units=1/GPa)
#
#
# Indices 1 2 3 4 5 6 
#
# 1 0.005713 -0.000977 -0.001934 0.000000 -0.001616 0.000000
# 2 -0.000977 0.012086 -0.000508 -0.000001 -0.002445 0.000000
# 3 -0.001934 -0.000508 0.022188 0.000000 -0.021933 0.000000
# 4 0.000000 -0.000001 0.000000 0.028889 0.000000 -0.012224
# 5 -0.001616 -0.002445 -0.021933 0.000000 0.061511 0.000000
# 6 0.000000 0.000000 0.000000 -0.012224 0.000000 0.074287
#
#
# Mechanical properties :
#
#
# Convention : Reuss Voigt Hill
#
# Bulk Modulus (GPa) = 30.16757 55.47918 42.82338
# Shear Modulus (GPa) = 22.46568 35.18026 28.82297
#
# Velocity S-wave (km/s) = 2.94204 3.68161 3.33240
# Velocity P-wave (km/s) = 4.81287 6.28071 5.59514
#
# Compressibility (1/GPa) = 0.03314817
#
# Stress axis : x y z
#
# Youngs Moduli (GPa) = 175.04634 82.74362 45.06882
#
# Poissons Ratio (x) = 0.08084 0.08716
# Poissons Ratio (y) = 0.17102 0.02291
# Poissons Ratio (z) = 0.33853 0.04206
#
# Static dielectric constant tensor:
#      x y z
#    x 2.057210 0.000000 -0.071110 
#    y 0.000000 2.137470 0.000000 
#    z -0.071110 0.000000 2.092050 
# 
# From -- ./inp_files/47000.got.cif
#   From: 2010.05.17/outbox.cif.g08.bks.cpg/sg5_24_cif.got.tgz:47000.got - 2010.06.03 18:56:24.
