data_PCOD9127973
_publ_section_title
;
Structure prediction by ZEFSAII (Michael W. Deem and Ramdas Pophale) SiO2 
 PCOD9127973
Probable space group: C 2
;
_chemical_formula_sum "Si O2"
_cell_formula_units_Z 22
_cell_length_a 10.711159
_cell_length_b 15.376335
_cell_length_c 8.196625
_cell_angle_alpha 90.000000
_cell_angle_beta 41.683044
_cell_angle_gamma 90.000000
_cell_volume 897.743206
_symmetry_space_group_name_H-M "C 2"
_symmetry_group_IT_number 5
_symmetry_cell_setting 'monoclinic'
loop_
_space_group_symop_operation_xyz
x,y,z
-x,y,-z
1/2+x,1/2+y,z
1/2-x,1/2+y,-z
loop_
_atom_site_type_symbol
_atom_site_label
_atom_site_fract_x
_atom_site_fract_y
_atom_site_fract_z
Si Si1 0.500000 0.189420 0.500000
Si Si2 0.500000 0.978020 0.500000
Si Si3 0.000000 0.117519 0.500000
Si Si4 0.812461 0.994286 0.423099
Si Si5 0.138257 0.691322 0.009754
Si Si6 0.791485 0.337834 0.257136
Si Si7 0.675856 0.393807 0.022303
O O1 0.665644 0.253419 0.406345
O O2 0.407945 0.156843 0.762830
O O3 0.657612 0.030074 0.449137
O O4 0.363787 0.921570 0.747117
O O5 0.852302 0.170626 0.752468
O O6 0.870963 0.059957 0.506727
O O7 0.720761 0.905732 0.584263
O O8 0.007918 0.960807 0.159251
O O9 0.122033 0.795780 0.030322
O O10 0.000000 0.658622 0.000000
O O11 0.708341 0.390395 0.184326
O O12 0.000000 0.313205 0.000000
#
# Coordination Sequence:
#
# PCOD9127973 Si02
#       7
#     2   2   2   4   4   4   4
#     4  10  23  44  71 110 148 192 250 316 363 452
#     4  12  25  36  73 115 141 184 252 326 373 428
#     4  12  28  48  76 103 157 210 252 294 386 464
#     4  12  23  45  70 109 145 191 248 315 365 448
#     4  11  25  46  74 109 153 203 248 313 381 455
#     4  11  19  37  73 104 139 186 240 298 370 430
#     4  11  22  42  72 110 146 182 253 316 370 439
#
# _framework density 24.505896
#
# number of rings (size 3 to 8) (size 9 to 14) (size 15 to 20)
#    0.000    0.727    7.273    2.182    0.000    5.091 
#    0.000    5.455    0.000    0.000    0.000    0.000 
#    0.000    0.000    0.000    0.000    0.000    0.000 
#
# Total GULP energy -61536.584663 kJ/mol
# GULP energy per Si atom -5594.234969 kJ/mol
# Density = 2.445012 g / cm^3
# Si number density = 24.505896 Si / 1000 Ang^3
#
#
#
# Elastic Constant Matrix: (Units=GPa)
#
#
# Indices 1 2 3 4 5 6 
#
# 1 150.7723 4.6416 44.7129 -0.0002 -0.7255 0.0001
# 2 4.6416 34.2366 26.7030 0.0000 3.6834 0.0001
# 3 44.7129 26.7030 204.7301 0.0000 -8.9760 0.0001
# 4 -0.0002 0.0000 0.0000 14.9645 0.0001 -18.0426
# 5 -0.7255 3.6834 -8.9760 0.0001 51.5980 -0.0001
# 6 0.0001 0.0001 0.0001 -18.0426 -0.0001 -8.7187
#
#
#
# Elastic Compliance Matrix: (Units=1/GPa)
#
#
# Indices 1 2 3 4 5 6 
#
# 1 0.007096 0.000306 -0.001599 0.000000 -0.000200 0.000000
# 2 0.000306 0.033023 -0.004512 0.000000 -0.003138 0.000000
# 3 -0.001599 -0.004512 0.005880 0.000000 0.001322 0.000000
# 4 0.000000 0.000000 0.000000 0.019120 0.000000 -0.039567
# 5 -0.000200 -0.003138 0.001322 0.000000 0.019832 0.000000
# 6 0.000000 0.000000 0.000000 -0.039567 0.000000 -0.032816
#
#
# Mechanical properties :
#
#
# Convention : Reuss Voigt Hill
#
# Bulk Modulus (GPa) = 29.07675 60.20600 44.64137
# Shear Modulus (GPa) = 66.48339 32.48087 49.48213
#
# Velocity S-wave (km/s) = 5.21425 3.64460 4.49842
# Velocity P-wave (km/s) = 6.93846 6.50631 6.72586
#
# Compressibility (1/GPa) = 0.03439174
#
# Stress axis : x y z
#
# Youngs Moduli (GPa) = 140.92078 30.28147 170.06673
#
# Poissons Ratio (x) = -0.00927 0.27186
# Poissons Ratio (y) = -0.04316 0.76730
# Poissons Ratio (z) = 0.22527 0.13662
#
# Static dielectric constant tensor:
#      x y z
#    x 2.086230 0.000000 0.052370 
#    y 0.000000 1.937640 0.000000 
#    z 0.052370 0.000000 1.897830 
# 
# From -- ./inp_files/21161.got.cif
#   From: 2010.05.17/outbox.cif.g08.bks.cpg/sg5_11_cif.got.tgz:21161.got - 2010.06.03 18:56:24.
