data_PCOD9127569
_publ_section_title
;
Structure prediction by ZEFSAII (Michael W. Deem and Ramdas Pophale) SiO2 
 PCOD9127569
Probable space group: C 2
;
_chemical_formula_sum "Si O2"
_cell_formula_units_Z 32
_cell_length_a 23.646543
_cell_length_b 5.532614
_cell_length_c 14.425863
_cell_angle_alpha 90.000000
_cell_angle_beta 43.428784
_cell_angle_gamma 90.000000
_cell_volume 1297.425678
_symmetry_space_group_name_H-M "C 2"
_symmetry_group_IT_number 5
_symmetry_cell_setting 'monoclinic'
loop_
_space_group_symop_operation_xyz
x,y,z
-x,y,-z
1/2+x,1/2+y,z
1/2-x,1/2+y,-z
loop_
_atom_site_type_symbol
_atom_site_label
_atom_site_fract_x
_atom_site_fract_y
_atom_site_fract_z
Si Si1 0.169018 0.313520 0.511278
Si Si2 0.642828 0.900340 0.111593
Si Si3 0.908651 0.407598 0.065361
Si Si4 0.049400 0.910792 0.037744
Si Si5 0.385870 0.434728 0.540610
Si Si6 0.774379 0.204197 0.358678
Si Si7 0.680340 0.401899 0.174121
Si Si8 0.526409 0.150896 0.706054
O O1 0.204636 0.180263 0.558304
O O2 0.245317 0.434495 0.366457
O O3 0.111478 0.518315 0.626402
O O4 0.107451 0.201785 0.508837
O O5 0.661178 0.137505 0.154807
O O6 0.548706 0.965357 0.199450
O O7 0.649737 0.636748 0.152105
O O8 0.719940 0.915023 0.948002
O O9 0.848763 0.324161 0.217299
O O10 0.893283 0.674744 0.043173
O O11 0.000000 0.431142 0.000000
O O12 0.908549 0.169663 0.000174
O O13 0.991810 0.849979 0.193451
O O14 0.000000 0.932169 0.000000
O O15 0.304004 0.358331 0.580662
O O16 0.362061 0.417740 0.675032
O O17 0.459352 0.275952 0.410941
#
# Coordination Sequence:
#
# PCOD9127569 Si02
#       8
#     4   4   4   4   4   4   4   4
#     4  11  24  43  66 100 149 196 237 288 360 437
#     4  10  25  51  81 105 143 185 240 317 366 446
#     4  10  23  38  62  95 131 190 239 291 332 404
#     4  10  23  40  63  98 142 185 230 288 342 417
#     4  11  27  45  70 106 144 194 239 300 362 448
#     4  11  24  41  67  98 148 196 240 287 358 428
#     4  10  25  52  78 109 142 186 244 301 386 436
#     4  11  27  44  71 112 142 189 245 302 367 434
#
# _framework density 24.664224999999998
#
# number of rings (size 3 to 8) (size 9 to 14) (size 15 to 20)
#    0.000    1.500    1.250    1.500   14.000    0.500 
#    2.250    0.000    0.000    0.000    0.000    0.000 
#    0.000    0.000    0.000    0.000    0.000    0.000 
#
# Total GULP energy -89329.240467 kJ/mol
# GULP energy per Si atom -5583.077529 kJ/mol
# Density = 2.460809 g / cm^3
# Si number density = 24.664225 Si / 1000 Ang^3
#
#
#
# Elastic Constant Matrix: (Units=GPa)
#
#
# Indices 1 2 3 4 5 6 
#
# 1 54.5617 4.8463 17.3290 0.7888 -8.3602 0.5316
# 2 4.8463 118.1537 25.0797 4.5139 6.1570 2.9233
# 3 17.3290 25.0797 149.4388 3.1957 13.6115 2.1153
# 4 0.7888 4.5139 3.1957 -6.6481 -0.9008 -29.9016
# 5 -8.3602 6.1570 13.6115 -0.9008 36.0891 -0.5936
# 6 0.5316 2.9233 2.1153 -29.9016 -0.5936 18.0891
#
#
#
# Elastic Compliance Matrix: (Units=1/GPa)
#
#
# Indices 1 2 3 4 5 6 
#
# 1 0.020147 -0.000539 -0.002774 -0.000017 0.005804 -0.000018
# 2 -0.000539 0.008755 -0.001351 0.001318 -0.001061 0.000902
# 3 -0.002774 -0.001351 0.007512 0.000697 -0.003220 0.000468
# 4 -0.000017 0.001318 0.000697 -0.017483 -0.001409 -0.029241
# 5 0.005804 -0.001061 -0.003220 -0.001409 0.030399 -0.000954
# 6 -0.000018 0.000902 0.000468 -0.029241 -0.000954 0.006716
#
#
# Mechanical properties :
#
#
# Convention : Reuss Voigt Hill
#
# Bulk Modulus (GPa) = 36.91992 46.29603 41.60797
# Shear Modulus (GPa) = 67.20369 27.83263 47.51816
#
# Velocity S-wave (km/s) = 5.22557 3.36290 4.39407
# Velocity P-wave (km/s) = 7.17010 5.82152 6.53071
#
# Compressibility (1/GPa) = 0.02708565
#
# Stress axis : x y z
#
# Youngs Moduli (GPa) = 49.63637 114.21921 133.12221
#
# Poissons Ratio (x) = 0.06156 0.36926
# Poissons Ratio (y) = 0.02675 0.17986
# Poissons Ratio (z) = 0.13768 0.15432
#
# Static dielectric constant tensor:
#      x y z
#    x 6.045210 -0.028890 1.766730 
#    y -0.028890 2.265570 -0.012280 
#    z 1.766730 -0.012280 2.675980 
# 
# From -- ./inp_files/58311.got.cif
#   From: 2010.05.17/outbox.cif.g08.bks.cpg/sg5_30_cif.got.tgz:58311.got - 2010.06.03 18:56:24.
