data_PCOD9127007
_publ_section_title
;
Structure prediction by ZEFSAII (Michael W. Deem and Ramdas Pophale) SiO2 
 PCOD9127007
Probable space group: C 2
;
_chemical_formula_sum "Si O2"
_cell_formula_units_Z 24
_cell_length_a 9.552994
_cell_length_b 9.903099
_cell_length_c 25.893485
_cell_angle_alpha 90.000000
_cell_angle_beta 28.269712
_cell_angle_gamma 90.000000
_cell_volume 1160.202084
_symmetry_space_group_name_H-M "C 2"
_symmetry_group_IT_number 5
_symmetry_cell_setting 'monoclinic'
loop_
_space_group_symop_operation_xyz
x,y,z
-x,y,-z
1/2+x,1/2+y,z
1/2-x,1/2+y,-z
loop_
_atom_site_type_symbol
_atom_site_label
_atom_site_fract_x
_atom_site_fract_y
_atom_site_fract_z
Si Si1 0.091710 0.648370 0.324820
Si Si2 0.749061 0.903995 0.962418
Si Si3 0.675141 0.712890 0.079830
Si Si4 0.758940 0.634406 0.535581
Si Si5 0.320279 0.500165 0.609335
Si Si6 0.345478 0.850227 0.723495
O O1 0.392780 0.717809 0.209561
O O2 0.172475 0.487758 0.304699
O O3 0.933235 0.691403 0.428866
O O4 0.847855 0.636038 0.357411
O O5 0.026255 0.821313 0.849260
O O6 0.839736 0.061242 0.939954
O O7 0.500000 0.904117 0.000000
O O8 0.646943 0.829715 0.046890
O O9 0.000000 0.724556 0.000000
O O10 0.549693 0.519150 0.579911
O O11 0.522886 0.736990 0.636312
O O12 0.000000 0.595965 0.500000
O O13 0.500000 0.452731 0.500000
O O14 0.053390 0.397842 0.703478
#
# Coordination Sequence:
#
# PCOD9127007 Si02
#       6
#     4   4   4   4   4   4
#     4   8  20  41  58  84 130 160 197 261 317 363
#     4  10  23  41  68  93 124 171 216 262 314 377
#     4  10  22  43  65  90 131 166 213 266 318 374
#     4  11  21  33  66  93 114 164 210 247 311 386
#     4   8  17  38  58  80 124 159 191 250 319 359
#     4   9  20  38  64  83 129 160 196 262 323 352
#
# _framework density 20.686053000000001
#
# number of rings (size 3 to 8) (size 9 to 14) (size 15 to 20)
#    1.000    1.667    0.000    0.500    4.667    0.667 
#    0.000    4.167    0.000    0.000    0.000    0.000 
#    0.000    0.000    0.000    0.000    0.000    0.000 
#
# Total GULP energy -66834.411251 kJ/mol
# GULP energy per Si atom -5569.534271 kJ/mol
# Density = 2.063897 g / cm^3
# Si number density = 20.686053 Si / 1000 Ang^3
#
#
#
# Elastic Constant Matrix: (Units=GPa)
#
#
# Indices 1 2 3 4 5 6 
#
# 1 82.2209 20.1055 17.1519 0.0164 -1.6841 -0.0137
# 2 20.1055 37.4144 1.7772 0.0127 12.0907 -0.0055
# 3 17.1519 1.7772 95.7139 0.0007 -11.4732 -0.0058
# 4 0.0164 0.0127 0.0007 16.3288 0.0036 4.6601
# 5 -1.6841 12.0907 -11.4732 0.0036 25.1600 0.0082
# 6 -0.0137 -0.0055 -0.0058 4.6601 0.0082 5.4921
#
#
#
# Elastic Compliance Matrix: (Units=1/GPa)
#
#
# Indices 1 2 3 4 5 6 
#
# 1 0.014978 -0.009462 -0.001950 -0.000019 0.004661 0.000035
# 2 -0.009462 0.038218 -0.001366 -0.000037 -0.019622 0.000074
# 3 -0.001950 -0.001366 0.011515 0.000003 0.005777 -0.000005
# 4 -0.000019 -0.000037 0.000003 0.080811 0.000029 -0.068569
# 5 0.004661 -0.019622 0.005777 0.000029 0.052121 -0.000104
# 6 0.000035 0.000074 -0.000005 -0.068569 -0.000104 0.240262
#
#
# Mechanical properties :
#
#
# Convention : Reuss Voigt Hill
#
# Bulk Modulus (GPa) = 25.53930 32.60204 29.07067
# Shear Modulus (GPa) = 10.49286 21.15049 15.82168
#
# Velocity S-wave (km/s) = 2.25465 3.20105 2.76859
# Velocity P-wave (km/s) = 4.37617 5.42742 4.92990
#
# Compressibility (1/GPa) = 0.03915533
#
# Stress axis : x y z
#
# Youngs Moduli (GPa) = 66.76268 26.16534 86.84296
#
# Poissons Ratio (x) = 0.24759 0.16932
# Poissons Ratio (y) = 0.63174 0.11863
# Poissons Ratio (z) = 0.13017 0.03574
#
# Static dielectric constant tensor:
#      x y z
#    x 1.776530 -0.000020 -0.019060 
#    y -0.000020 1.791230 0.000030 
#    z -0.019060 0.000030 1.750390 
# 
# From -- ./inp_files/67942.got.cif
#   From: 2010.05.17/outbox.cif.g08.bks.cpg/sg5_34_cif.got.tgz:67942.got - 2010.06.03 18:56:24.
