data_PCOD9127872
_publ_section_title
;
Structure prediction by ZEFSAII (Michael W. Deem and Ramdas Pophale) SiO2 
 PCOD9127872
Probable space group: C 2
;
_chemical_formula_sum "Si O2"
_cell_formula_units_Z 28
_cell_length_a 17.544222
_cell_length_b 5.014932
_cell_length_c 15.251319
_cell_angle_alpha 90.000000
_cell_angle_beta 120.439159
_cell_angle_gamma 90.000000
_cell_volume 1156.906536
_symmetry_space_group_name_H-M "C 2"
_symmetry_group_IT_number 5
_symmetry_cell_setting 'monoclinic'
loop_
_space_group_symop_operation_xyz
x,y,z
-x,y,-z
1/2+x,1/2+y,z
1/2-x,1/2+y,-z
loop_
_atom_site_type_symbol
_atom_site_label
_atom_site_fract_x
_atom_site_fract_y
_atom_site_fract_z
Si Si1 0.132890 0.753920 0.739693
Si Si2 0.996722 0.679069 0.793909
Si Si3 0.651179 0.975211 0.391116
Si Si4 0.965784 0.199614 0.074005
Si Si5 0.313692 0.218095 0.414063
Si Si6 0.770629 0.433877 0.958542
Si Si7 0.471596 0.599136 0.573508
O O1 0.167632 0.611924 0.672086
O O2 0.212112 0.892569 0.837936
O O3 0.077621 0.584842 0.778247
O O4 0.058292 0.961254 0.663261
O O5 0.907452 0.708265 0.685629
O O6 0.979882 0.447017 0.854120
O O7 0.026943 0.951262 0.856352
O O8 0.724632 0.889554 0.364767
O O9 0.576219 0.771392 0.380678
O O10 0.700313 0.021567 0.512461
O O11 0.868316 0.318990 0.004954
O O12 0.000000 0.111085 0.000000
O O13 0.399585 0.386440 0.495286
O O14 0.770212 0.738302 0.990440
O O15 0.500000 0.753482 0.500000
#
# Coordination Sequence:
#
# PCOD9127872 Si02
#       7
#     4   4   4   4   4   4   4
#     4  11  24  47  71 106 140 193 249 298 374 439
#     4  12  26  46  80 105 150 189 250 299 369 441
#     4  12  25  44  71 104 149 192 248 307 364 439
#     4  12  27  51  75 112 145 196 240 308 375 442
#     4  11  25  45  67 105 147 192 247 304 368 432
#     4  12  25  49  76 106 146 185 243 309 363 436
#     4  10  23  43  69 100 144 195 242 297 367 440
#
# _framework density 24.202473999999999
#
# number of rings (size 3 to 8) (size 9 to 14) (size 15 to 20)
#    0.000    0.571    5.714    1.286    4.000    0.000 
#    2.571    0.000    0.000    0.000    0.000    0.000 
#    0.000    0.000    0.000    0.000    0.000    0.000 
#
# Total GULP energy -78335.725569 kJ/mol
# GULP energy per Si atom -5595.408969 kJ/mol
# Density = 2.414739 g / cm^3
# Si number density = 24.202474 Si / 1000 Ang^3
#
#
#
# Elastic Constant Matrix: (Units=GPa)
#
#
# Indices 1 2 3 4 5 6 
#
# 1 81.5809 -0.4455 47.2311 0.0000 -7.8125 0.0000
# 2 -0.4455 53.9641 6.2838 0.0001 -0.5432 0.0000
# 3 47.2311 6.2838 115.3359 0.0000 6.8676 0.0000
# 4 0.0000 0.0001 0.0000 32.1284 0.0000 10.4206
# 5 -7.8125 -0.5432 6.8676 0.0000 45.2176 0.0000
# 6 0.0000 0.0000 0.0000 10.4206 0.0000 24.3207
#
#
#
# Elastic Compliance Matrix: (Units=1/GPa)
#
#
# Indices 1 2 3 4 5 6 
#
# 1 0.016800 0.001014 -0.007173 0.000000 0.004004 0.000000
# 2 0.001014 0.018717 -0.001472 0.000000 0.000624 0.000000
# 3 -0.007173 -0.001472 0.011870 0.000000 -0.003060 0.000000
# 4 0.000000 0.000000 0.000000 0.036149 0.000000 -0.015489
# 5 0.004004 0.000624 -0.003060 0.000000 0.023279 0.000000
# 6 0.000000 0.000000 0.000000 -0.015489 0.000000 0.047754
#
#
# Mechanical properties :
#
#
# Convention : Reuss Voigt Hill
#
# Bulk Modulus (GPa) = 31.12902 39.66887 35.39895
# Shear Modulus (GPa) = 27.69479 33.52076 30.60778
#
# Velocity S-wave (km/s) = 3.38641 3.72561 3.56006
# Velocity P-wave (km/s) = 5.30851 5.91041 5.61753
#
# Compressibility (1/GPa) = 0.03212436
#
# Stress axis : x y z
#
# Youngs Moduli (GPa) = 59.52461 53.42757 84.24390
#
# Poissons Ratio (x) = -0.05419 0.60431
# Poissons Ratio (y) = -0.06037 0.12403
# Poissons Ratio (z) = 0.42699 0.07866
#
# Static dielectric constant tensor:
#      x y z
#    x 1.938560 0.000000 -0.010860 
#    y 0.000000 1.937550 0.000000 
#    z -0.010860 0.000000 1.946280 
# 
# From -- ./inp_files/55505.got.cif
#   From: 2010.05.17/outbox.cif.g08.bks.cpg/sg5_28_cif.got.tgz:55505.got - 2010.06.03 18:56:24.
