data_PCOD9127584
_publ_section_title
;
Structure prediction by ZEFSAII (Michael W. Deem and Ramdas Pophale) SiO2 
 PCOD9127584
Probable space group: C 2
;
_chemical_formula_sum "Si O2"
_cell_formula_units_Z 20
_cell_length_a 9.640716
_cell_length_b 19.890995
_cell_length_c 9.604792
_cell_angle_alpha 90.000000
_cell_angle_beta 31.109881
_cell_angle_gamma 90.000000
_cell_volume 951.647793
_symmetry_space_group_name_H-M "C 2"
_symmetry_group_IT_number 5
_symmetry_cell_setting 'monoclinic'
loop_
_space_group_symop_operation_xyz
x,y,z
-x,y,-z
1/2+x,1/2+y,z
1/2-x,1/2+y,-z
loop_
_atom_site_type_symbol
_atom_site_label
_atom_site_fract_x
_atom_site_fract_y
_atom_site_fract_z
Si Si1 0.292651 0.203980 0.938465
Si Si2 0.000000 0.005531 0.500000
Si Si3 0.000000 0.774258 0.500000
Si Si4 0.135053 0.136698 0.525270
Si Si5 0.284712 0.837449 0.809030
Si Si6 0.872220 0.384068 0.249557
O O1 0.328940 0.228636 0.750166
O O2 0.553113 0.157017 0.745987
O O3 0.282165 0.269031 0.048894
O O4 0.018158 0.166407 0.211385
O O5 0.757233 0.953535 0.688850
O O6 0.948809 0.058389 0.418958
O O7 0.844688 0.826181 0.530669
O O8 0.000000 0.166209 0.500000
O O9 0.500000 0.827331 0.500000
O O10 0.421148 0.887318 0.803321
O O11 0.000000 0.863620 0.000000
O O12 0.000000 0.355260 0.000000
#
# Coordination Sequence:
#
# PCOD9127584 Si02
#       6
#     4   2   2   4   4   4
#     4  12  22  40  63  99 146 169 225 284 353 414
#     4   9  26  42  70 100 126 195 248 274 326 425
#     4  11  24  38  66 108 136 187 222 288 368 417
#     4  10  23  39  64  96 127 178 226 283 325 396
#     4  12  25  41  67 108 141 178 222 294 364 407
#     4  11  23  44  70  99 142 186 233 290 340 423
#
# _framework density 21.016179999999999
#
# number of rings (size 3 to 8) (size 9 to 14) (size 15 to 20)
#    0.600    0.400    2.000    6.000    5.600    0.000 
#    0.000    0.000    2.200    2.400    0.000    0.000 
#    0.000    0.000    0.000    0.000    0.000    0.000 
#
# Total GULP energy -55763.569497 kJ/mol
# GULP energy per Si atom -5576.356950 kJ/mol
# Density = 2.096835 g / cm^3
# Si number density = 21.016180 Si / 1000 Ang^3
#
#
#
# Elastic Constant Matrix: (Units=GPa)
#
#
# Indices 1 2 3 4 5 6 
#
# 1 107.8534 32.2113 45.6125 0.0000 -12.9766 -0.0001
# 2 32.2113 86.0667 32.9771 0.0000 -2.8476 0.0000
# 3 45.6125 32.9771 132.9031 -0.0003 6.7932 0.0000
# 4 0.0000 0.0000 -0.0003 7.2797 0.0000 -10.0556
# 5 -12.9766 -2.8476 6.7932 0.0000 43.9868 0.0001
# 6 -0.0001 0.0000 0.0000 -10.0556 0.0001 20.5524
#
#
#
# Elastic Compliance Matrix: (Units=1/GPa)
#
#
# Indices 1 2 3 4 5 6 
#
# 1 0.012193 -0.003040 -0.003633 -0.000001 0.003961 0.000000
# 2 -0.003040 0.013676 -0.002368 0.000000 0.000354 0.000000
# 3 -0.003633 -0.002368 0.009496 0.000001 -0.002692 0.000001
# 4 -0.000001 0.000000 0.000001 0.423768 -0.000001 0.207336
# 5 0.003961 0.000354 -0.002692 -0.000001 0.024341 -0.000001
# 6 0.000000 0.000000 0.000001 0.207336 -0.000001 0.150099
#
#
# Mechanical properties :
#
#
# Convention : Reuss Voigt Hill
#
# Bulk Modulus (GPa) = 57.86121 60.93611 59.39866
# Shear Modulus (GPa) = 7.60554 28.76526 18.18540
#
# Velocity S-wave (km/s) = 1.90440 3.70364 2.94480
# Velocity P-wave (km/s) = 5.69449 6.88092 6.31562
#
# Compressibility (1/GPa) = 0.01728274
#
# Stress axis : x y z
#
# Youngs Moduli (GPa) = 82.01592 73.12180 105.30570
#
# Poissons Ratio (x) = 0.22231 0.38254
# Poissons Ratio (y) = 0.24936 0.24937
# Poissons Ratio (z) = 0.29794 0.17315
#
# Static dielectric constant tensor:
#      x y z
#    x 1.799280 0.000000 -0.057040 
#    y 0.000000 1.778450 0.000000 
#    z -0.057040 0.000000 1.877360 
# 
# From -- ./inp_files/17303.got.cif
#   From: 2010.05.17/outbox.cif.g08.bks.cpg/sg5_9_cif.got.tgz:17303.got - 2010.06.03 18:56:24.
