data_PCOD9127369
_publ_section_title
;
Structure prediction by ZEFSAII (Michael W. Deem and Ramdas Pophale) SiO2 
 PCOD9127369
Probable space group: C 2
;
_chemical_formula_sum "Si O2"
_cell_formula_units_Z 22
_cell_length_a 18.102203
_cell_length_b 5.244823
_cell_length_c 29.638653
_cell_angle_alpha 90.000000
_cell_angle_beta 160.986899
_cell_angle_gamma 90.000000
_cell_volume 916.750044
_symmetry_space_group_name_H-M "C 2"
_symmetry_group_IT_number 5
_symmetry_cell_setting 'monoclinic'
loop_
_space_group_symop_operation_xyz
x,y,z
-x,y,-z
1/2+x,1/2+y,z
1/2-x,1/2+y,-z
loop_
_atom_site_type_symbol
_atom_site_label
_atom_site_fract_x
_atom_site_fract_y
_atom_site_fract_z
Si Si1 0.265178 0.957560 0.610427
Si Si2 0.500000 0.579022 0.000000
Si Si3 0.199938 0.140563 0.694424
Si Si4 0.087442 0.223144 0.731853
Si Si5 0.897115 0.152471 0.767709
Si Si6 0.657498 0.354680 0.854284
O O1 0.358646 0.863319 0.615901
O O2 0.260952 0.722065 0.642845
O O3 0.460557 0.141362 0.744056
O O4 0.026098 0.087528 0.465197
O O5 0.294261 0.407684 0.864311
O O6 0.402057 0.735880 0.985919
O O7 0.118231 0.145256 0.698616
O O8 0.299093 0.414075 0.738215
O O9 0.370080 0.906832 0.781626
O O10 0.107652 0.989916 0.777914
O O11 0.131906 0.052690 0.880676
#
# Coordination Sequence:
#
# PCOD9127369 Si02
#       6
#     4   2   4   4   4   4
#     4  10  24  41  69 100 149 192 223 279 354 439
#     4  10  22  48  78  94 138 192 250 292 356 400
#     4  12  27  40  72 109 151 179 236 293 353 418
#     4  10  25  43  74 105 138 188 244 296 345 420
#     4  11  25  43  67 103 148 190 226 280 362 431
#     4  10  22  45  73  98 137 192 241 278 355 427
#
# _framework density 23.997817999999999
#
# number of rings (size 3 to 8) (size 9 to 14) (size 15 to 20)
#    0.000    1.455    1.818    1.091   15.273    0.000 
#    0.000    0.000   16.000    0.000    0.000    0.000 
#    0.000    0.000    0.000    0.000    0.000    0.000 
#
# Total GULP energy -61512.665544 kJ/mol
# GULP energy per Si atom -5592.060504 kJ/mol
# Density = 2.394320 g / cm^3
# Si number density = 23.997818 Si / 1000 Ang^3
#
#
#
# Elastic Constant Matrix: (Units=GPa)
#
#
# Indices 1 2 3 4 5 6 
#
# 1 163.0272 55.7627 8.0218 -0.0042 -2.9480 -0.0060
# 2 55.7627 137.4773 16.3929 -0.1118 11.6923 0.0530
# 3 8.0218 16.3929 50.8287 -0.0063 10.0330 0.0168
# 4 -0.0042 -0.1118 -0.0063 -2.3310 -0.0072 22.9941
# 5 -2.9480 11.6923 10.0330 -0.0072 19.7729 0.0132
# 6 -0.0060 0.0530 0.0168 22.9941 0.0132 47.9595
#
#
#
# Elastic Compliance Matrix: (Units=1/GPa)
#
#
# Indices 1 2 3 4 5 6 
#
# 1 0.007314 -0.003157 -0.000800 0.000029 0.003363 -0.000010
# 2 -0.003157 0.009165 -0.001439 -0.000087 -0.005160 0.000033
# 3 -0.000800 -0.001439 0.022359 0.000002 -0.010614 -0.000004
# 4 0.000029 -0.000087 0.000002 -0.074874 0.000004 0.035899
# 5 0.003363 -0.005160 -0.010614 0.000004 0.059513 -0.000008
# 6 -0.000010 0.000033 -0.000004 0.035899 -0.000008 0.003639
#
#
# Mechanical properties :
#
#
# Convention : Reuss Voigt Hill
#
# Bulk Modulus (GPa) = 35.65597 56.85423 46.25510
# Shear Modulus (GPa) = 105.80414 31.15732 68.48073
#
# Velocity S-wave (km/s) = 6.64716 3.60716 5.34773
# Velocity P-wave (km/s) = 8.59088 6.41027 7.57941
#
# Compressibility (1/GPa) = 0.02804579
#
# Stress axis : x y z
#
# Youngs Moduli (GPa) = 136.72262 109.11124 44.72421
#
# Poissons Ratio (x) = 0.34450 0.03578
# Poissons Ratio (y) = 0.43168 0.06436
# Poissons Ratio (z) = 0.10937 0.15701
#
# Static dielectric constant tensor:
#      x y z
#    x 1.987750 -0.000030 0.033670 
#    y -0.000030 1.959800 -0.000010 
#    z 0.033670 -0.000010 1.923120 
# 
# From -- ./inp_files/72003.got.cif
#   From: 2010.05.17/outbox.cif.g08.bks.cpg/sg5_37_cif.got.tgz:72003.got - 2010.06.03 18:56:24.
