data_PCOD9127114
_publ_section_title
;
Structure prediction by ZEFSAII (Michael W. Deem and Ramdas Pophale) SiO2 
 PCOD9127114
Probable space group: C 2
;
_chemical_formula_sum "Si O2"
_cell_formula_units_Z 26
_cell_length_a 8.750234
_cell_length_b 19.964354
_cell_length_c 7.781084
_cell_angle_alpha 90.000000
_cell_angle_beta 127.104157
_cell_angle_gamma 90.000000
_cell_volume 1084.095633
_symmetry_space_group_name_H-M "C 2"
_symmetry_group_IT_number 5
_symmetry_cell_setting 'monoclinic'
loop_
_space_group_symop_operation_xyz
x,y,z
-x,y,-z
1/2+x,1/2+y,z
1/2-x,1/2+y,-z
loop_
_atom_site_type_symbol
_atom_site_label
_atom_site_fract_x
_atom_site_fract_y
_atom_site_fract_z
Si Si1 0.294296 0.131840 0.952524
Si Si2 0.443328 0.242514 0.278781
Si Si3 0.779107 0.315474 0.336199
Si Si4 0.751668 0.459901 0.464974
Si Si5 0.500000 0.567012 0.500000
Si Si6 0.309964 0.990789 0.130651
Si Si7 0.292734 0.862919 0.947477
O O1 0.124061 0.115684 0.706288
O O2 0.500000 0.132309 0.000000
O O3 0.294355 0.197464 0.071083
O O4 0.298787 0.066889 0.074752
O O5 0.500000 0.211087 0.500000
O O6 0.629731 0.258688 0.289516
O O7 0.344195 0.313719 0.247608
O O8 0.737529 0.379070 0.434287
O O9 0.764787 0.339194 0.127681
O O10 0.000000 0.294836 0.500000
O O11 0.637582 0.514446 0.496153
O O12 0.705255 0.480134 0.238049
O O13 0.971490 0.469805 0.675570
O O14 0.244777 0.941573 0.932747
O O15 0.500000 0.857121 0.000000
#
# Coordination Sequence:
#
# PCOD9127114 Si02
#       7
#     4   4   4   4   2   4   4
#     4  12  27  52  74 112 155 204 257 326 386 467
#     4  12  30  49  74 110 160 209 263 324 387 471
#     4  11  22  46  77 114 152 200 257 321 387 457
#     4  10  22  43  75 117 149 196 252 321 382 455
#     4  12  28  46  80 114 152 206 256 320 394 468
#     4  10  22  45  76 105 160 197 248 322 377 456
#     4  11  23  45  73 111 149 205 252 315 387 455
#
# _framework density 23.983124
#
# number of rings (size 3 to 8) (size 9 to 14) (size 15 to 20)
#    0.000    0.923    4.615    2.769    5.385    0.615 
#   11.077    0.000    0.000    0.000    0.000    0.000 
#    0.000    0.000    0.000    0.000    0.000    0.000 
#
# Total GULP energy -72714.927976 kJ/mol
# GULP energy per Si atom -5593.455998 kJ/mol
# Density = 2.392854 g / cm^3
# Si number density = 23.983124 Si / 1000 Ang^3
#
#
#
# Elastic Constant Matrix: (Units=GPa)
#
#
# Indices 1 2 3 4 5 6 
#
# 1 93.3126 41.0382 29.9937 0.0000 -9.5726 0.0000
# 2 41.0382 133.5672 60.0331 0.0000 0.8152 0.0000
# 3 29.9937 60.0331 129.1360 0.0000 -8.5311 0.0000
# 4 0.0000 0.0000 0.0000 50.1914 0.0000 1.9087
# 5 -9.5726 0.8152 -8.5311 0.0000 24.3747 0.0000
# 6 0.0000 0.0000 0.0000 1.9087 0.0000 21.9879
#
#
#
# Elastic Compliance Matrix: (Units=1/GPa)
#
#
# Indices 1 2 3 4 5 6 
#
# 1 0.013140 -0.003592 -0.001058 0.000000 0.004910 0.000000
# 2 -0.003592 0.010533 -0.004278 0.000000 -0.003260 0.000000
# 3 -0.001058 -0.004278 0.010196 0.000000 0.003296 0.000000
# 4 0.000000 0.000000 0.000000 0.019990 0.000000 -0.001735
# 5 0.004910 -0.003260 0.003296 0.000000 0.044217 0.000000
# 6 0.000000 0.000000 0.000000 -0.001735 0.000000 0.045630
#
#
# Mechanical properties :
#
#
# Convention : Reuss Voigt Hill
#
# Bulk Modulus (GPa) = 62.44435 68.68287 65.56361
# Shear Modulus (GPa) = 29.95827 34.30753 32.13290
#
# Velocity S-wave (km/s) = 3.53815 3.78628 3.66432
# Velocity P-wave (km/s) = 6.54100 6.91482 6.73050
#
# Compressibility (1/GPa) = 0.01601426
#
# Stress axis : x y z
#
# Youngs Moduli (GPa) = 76.10324 94.93976 98.07894
#
# Poissons Ratio (x) = 0.34100 0.10375
# Poissons Ratio (y) = 0.27334 0.41956
# Poissons Ratio (z) = 0.08050 0.40613
#
# Static dielectric constant tensor:
#      x y z
#    x 1.943960 0.000000 -0.025260 
#    y 0.000000 1.897530 0.000000 
#    z -0.025260 0.000000 1.952610 
# 
# From -- ./inp_files/17083.got.cif
#   From: 2010.05.17/outbox.cif.g08.bks.cpg/sg5_9_cif.got.tgz:17083.got - 2010.06.03 18:56:24.
