data_PCOD9127507
_publ_section_title
;
Structure prediction by ZEFSAII (Michael W. Deem and Ramdas Pophale) SiO2 
 PCOD9127507
Probable space group: C 2
;
_chemical_formula_sum "Si O2"
_cell_formula_units_Z 26
_cell_length_a 8.991371
_cell_length_b 20.650135
_cell_length_c 7.918448
_cell_angle_alpha 90.000000
_cell_angle_beta 126.875454
_cell_angle_gamma 90.000000
_cell_volume 1176.108202
_symmetry_space_group_name_H-M "C 2"
_symmetry_group_IT_number 5
_symmetry_cell_setting 'monoclinic'
loop_
_space_group_symop_operation_xyz
x,y,z
-x,y,-z
1/2+x,1/2+y,z
1/2-x,1/2+y,-z
loop_
_atom_site_type_symbol
_atom_site_label
_atom_site_fract_x
_atom_site_fract_y
_atom_site_fract_z
Si Si1 0.000000 0.894310 0.500000
Si Si2 0.903465 0.373750 0.757030
Si Si3 0.895757 0.263694 0.269874
Si Si4 0.480171 0.498712 0.187359
Si Si5 0.110914 0.506107 0.420205
Si Si6 0.000000 0.715764 0.000000
Si Si7 0.000000 0.186643 0.000000
Si Si8 0.685696 0.106276 0.897958
O O1 0.812830 0.853247 0.400143
O O2 0.043481 0.938859 0.696742
O O3 0.892022 0.450584 0.721066
O O4 0.027114 0.335604 0.707238
O O5 0.000000 0.361018 0.000000
O O6 0.000000 0.232904 0.500000
O O7 0.955989 0.227288 0.137991
O O8 0.677527 0.260058 0.161557
O O9 0.681615 0.523593 0.385163
O O10 0.500000 0.481003 0.000000
O O11 0.319520 0.553894 0.086561
O O12 0.000000 0.475010 0.500000
O O13 0.986207 0.566112 0.286544
O O14 0.093586 0.665433 0.934419
O O15 0.177106 0.139848 0.142207
#
# Coordination Sequence:
#
# PCOD9127507 Si02
#       8
#     2   4   4   4   4   2   2   4
#     4  10  26  42  68 108 138 186 226 276 364 420
#     4  11  24  44  72  96 139 179 229 292 343 412
#     4  11  25  51  71  99 134 185 242 294 341 405
#     4  11  22  41  63 101 150 175 219 278 338 427
#     4  11  22  37  67 104 133 179 219 267 357 416
#     4  10  28  42  72 106 132 190 242 282 348 408
#     4  10  22  48  68  94 142 180 234 286 340 396
#     4  11  22  42  67 103 143 180 226 283 346 415
#
# _framework density 22.106811
#
# number of rings (size 3 to 8) (size 9 to 14) (size 15 to 20)
#    0.000    1.231    3.077    1.385    5.385    4.923 
#    1.385    2.308    0.000    0.000    0.000    0.000 
#    0.000    0.000    0.000    0.000    0.000    0.000 
#
# Total GULP energy -72524.259962 kJ/mol
# GULP energy per Si atom -5578.789228 kJ/mol
# Density = 2.205649 g / cm^3
# Si number density = 22.106811 Si / 1000 Ang^3
#
#
#
# Elastic Constant Matrix: (Units=GPa)
#
#
# Indices 1 2 3 4 5 6 
#
# 1 122.1607 26.9435 64.2286 0.0000 27.7815 0.0000
# 2 26.9435 58.8206 41.4404 0.0000 5.3195 0.0000
# 3 64.2286 41.4404 138.5384 0.0000 26.3968 0.0000
# 4 0.0000 0.0000 0.0000 148.7508 0.0000 -133.3385
# 5 27.7815 5.3195 26.3968 0.0000 51.2801 0.0000
# 6 0.0000 0.0000 0.0000 -133.3385 0.0000 189.4252
#
#
#
# Elastic Compliance Matrix: (Units=1/GPa)
#
#
# Indices 1 2 3 4 5 6 
#
# 1 0.011687 -0.002171 -0.003998 0.000000 -0.004049 0.000000
# 2 -0.002171 0.022010 -0.005950 0.000000 0.001956 0.000000
# 3 -0.003998 -0.005950 0.011443 0.000000 -0.003108 0.000000
# 4 0.000000 0.000000 0.000000 0.018217 0.000000 0.012823
# 5 -0.004049 0.001956 -0.003108 0.000000 0.023091 0.000000
# 6 0.000000 0.000000 0.000000 0.012823 0.000000 0.014306
#
#
# Mechanical properties :
#
#
# Convention : Reuss Voigt Hill
#
# Bulk Modulus (GPa) = 47.83776 64.97166 56.40471
# Shear Modulus (GPa) = 37.89013 90.35169 64.12091
#
# Velocity S-wave (km/s) = 4.14449 6.39994 5.39148
# Velocity P-wave (km/s) = 6.67748 9.16875 8.02043
#
# Compressibility (1/GPa) = 0.02090399
#
# Stress axis : x y z
#
# Youngs Moduli (GPa) = 85.56260 45.43327 87.38596
#
# Poissons Ratio (x) = 0.09864 0.34934
# Poissons Ratio (y) = 0.18576 0.51994
# Poissons Ratio (z) = 0.34205 0.27033
#
# Static dielectric constant tensor:
#      x y z
#    x 1.118400 0.000000 0.315040 
#    y 0.000000 1.866020 0.000000 
#    z 0.315040 0.000000 1.690120 
# 
# From -- ./inp_files/17100.got.cif
#   From: 2010.05.17/outbox.cif.g08.bks.cpg/sg5_9_cif.got.tgz:17100.got - 2010.06.03 18:56:24.
