data_PCOD9127379
_publ_section_title
;
Structure prediction by ZEFSAII (Michael W. Deem and Ramdas Pophale) SiO2 
 PCOD9127379
Probable space group: C 2
;
_chemical_formula_sum "Si O2"
_cell_formula_units_Z 20
_cell_length_a 10.282246
_cell_length_b 15.566675
_cell_length_c 6.715603
_cell_angle_alpha 90.000000
_cell_angle_beta 136.979329
_cell_angle_gamma 90.000000
_cell_volume 733.364959
_symmetry_space_group_name_H-M "C 2"
_symmetry_group_IT_number 5
_symmetry_cell_setting 'monoclinic'
loop_
_space_group_symop_operation_xyz
x,y,z
-x,y,-z
1/2+x,1/2+y,z
1/2-x,1/2+y,-z
loop_
_atom_site_type_symbol
_atom_site_label
_atom_site_fract_x
_atom_site_fract_y
_atom_site_fract_z
Si Si1 0.551030 0.011940 0.320703
Si Si2 0.738806 0.346871 0.350637
Si Si3 0.696887 0.407090 0.838313
Si Si4 0.515727 0.196627 0.753994
Si Si5 0.088248 0.240694 0.905778
O O1 0.500000 0.015604 0.500000
O O2 0.589686 0.109374 0.301811
O O3 0.709838 0.937621 0.484420
O O4 0.353736 0.981407 0.999710
O O5 0.927410 0.288855 0.599250
O O6 0.694462 0.383292 0.076158
O O7 0.413162 0.278942 0.731808
O O8 0.500000 0.421835 0.500000
O O9 0.796235 0.320819 0.869469
O O10 0.500000 0.201273 0.500000
O O11 0.746933 0.193413 0.036584
O O12 0.000000 0.192409 0.000000
#
# Coordination Sequence:
#
# PCOD9127379 Si02
#       5
#     4   4   4   4   4
#     4   8  19  42  76 115 156 198 257 327 389 474
#     4  10  22  45  76 113 154 207 259 324 390 472
#     4  10  22  45  76 103 149 211 269 317 389 450
#     4  11  21  41  79 118 158 203 253 322 404 469
#     4  11  22  41  72 110 152 199 253 320 387 470
#
# _framework density 27.271547999999999
#
# number of rings (size 3 to 8) (size 9 to 14) (size 15 to 20)
#    0.000    2.000    2.000    2.400    0.000    0.800 
#    3.600    6.000   17.600    6.000    0.000    0.000 
#    0.000    0.000    0.000    0.000    0.000    0.000 
#
# Total GULP energy -55831.339084 kJ/mol
# GULP energy per Si atom -5583.133908 kJ/mol
# Density = 2.720948 g / cm^3
# Si number density = 27.271548 Si / 1000 Ang^3
#
#
#
# Elastic Constant Matrix: (Units=GPa)
#
#
# Indices 1 2 3 4 5 6 
#
# 1 162.6034 68.3397 59.3411 0.0000 -5.2511 0.0000
# 2 68.3397 193.7771 52.7571 0.0000 16.8719 0.0000
# 3 59.3411 52.7571 229.5478 0.0000 -0.5924 0.0000
# 4 0.0000 0.0000 0.0000 12.6823 0.0000 4.7201
# 5 -5.2511 16.8719 -0.5924 0.0000 59.3718 0.0000
# 6 0.0000 0.0000 0.0000 4.7201 0.0000 46.2242
#
#
#
# Elastic Compliance Matrix: (Units=1/GPa)
#
#
# Indices 1 2 3 4 5 6 
#
# 1 0.007753 -0.002463 -0.001435 0.000000 0.001371 0.000000
# 2 -0.002463 0.006439 -0.000849 0.000000 -0.002056 0.000000
# 3 -0.001435 -0.000849 0.004923 0.000000 0.000163 0.000000
# 4 0.000000 0.000000 0.000000 0.081965 0.000000 -0.008370
# 5 0.001371 -0.002056 0.000163 0.000000 0.017550 0.000000
# 6 0.000000 0.000000 0.000000 -0.008370 0.000000 0.022488
#
#
# Mechanical properties :
#
#
# Convention : Reuss Voigt Hill
#
# Bulk Modulus (GPa) = 103.92274 105.20046 104.56160
# Shear Modulus (GPa) = 32.50582 50.68835 41.59709
#
# Velocity S-wave (km/s) = 3.45618 4.31589 3.90974
# Velocity P-wave (km/s) = 7.35638 7.96836 7.66848
#
# Compressibility (1/GPa) = 0.00962253
#
# Stress axis : x y z
#
# Youngs Moduli (GPa) = 128.98300 155.29726 203.14078
#
# Poissons Ratio (x) = 0.38251 0.29143
# Poissons Ratio (y) = 0.31769 0.17237
# Poissons Ratio (z) = 0.18504 0.13177
#
# Static dielectric constant tensor:
#      x y z
#    x 2.449940 0.000000 -0.046220 
#    y 0.000000 2.061140 0.000000 
#    z -0.046220 0.000000 2.370100 
# 
# From -- ./inp_files/25124.got.cif
#   From: 2010.05.17/outbox.cif.g08.bks.cpg/sg5_13_cif.got.tgz:25124.got - 2010.06.03 18:56:24.
