data_PCOD9127840
_publ_section_title
;
Structure prediction by ZEFSAII (Michael W. Deem and Ramdas Pophale) SiO2 
 PCOD9127840
Probable space group: C 2
;
_chemical_formula_sum "Si O2"
_cell_formula_units_Z 20
_cell_length_a 29.144697
_cell_length_b 4.823761
_cell_length_c 5.069582
_cell_angle_alpha 90.000000
_cell_angle_beta 77.676536
_cell_angle_gamma 90.000000
_cell_volume 696.295332
_symmetry_space_group_name_H-M "C 2"
_symmetry_group_IT_number 5
_symmetry_cell_setting 'monoclinic'
loop_
_space_group_symop_operation_xyz
x,y,z
-x,y,-z
1/2+x,1/2+y,z
1/2-x,1/2+y,-z
loop_
_atom_site_type_symbol
_atom_site_label
_atom_site_fract_x
_atom_site_fract_y
_atom_site_fract_z
Si Si1 0.273316 0.452720 0.139309
Si Si2 0.370785 0.490699 0.846776
Si Si3 0.693512 0.145756 0.398832
Si Si4 0.549525 0.234913 0.994426
Si Si5 0.050120 0.351998 0.496276
O O1 0.305463 0.284095 0.321713
O O2 0.223904 0.371030 0.381108
O O3 0.321295 0.627070 0.984494
O O4 0.265736 0.242815 0.880843
O O5 0.352555 0.223145 0.701724
O O6 0.404869 0.668207 0.620965
O O7 0.404436 0.419512 0.048998
O O8 0.552862 0.993388 0.775904
O O9 0.500000 0.381223 0.000000
O O10 0.548277 0.095034 0.281395
O O11 0.000000 0.204140 0.500000
#
# Coordination Sequence:
#
# PCOD9127840 Si02
#       5
#     4   4   4   4   4
#     4  10  23  43  63  95 131 177 231 282 348 414
#     4  10  26  44  72 104 138 190 238 282 368 418
#     4  10  23  43  63  95 131 177 231 282 348 414
#     4  10  24  44  68 103 145 186 235 293 351 425
#     4  10  24  44  68 103 145 186 235 293 351 425
#
# _framework density 28.723448000000001
#
# number of rings (size 3 to 8) (size 9 to 14) (size 15 to 20)
#    1.200    0.800    0.000    1.200    5.600    6.400 
#    0.000    0.000    0.000    0.000    0.000    0.000 
#    0.000    0.000    0.000    0.000    0.000    0.000 
#
# Total GULP energy -55786.285210 kJ/mol
# GULP energy per Si atom -5578.628521 kJ/mol
# Density = 2.865807 g / cm^3
# Si number density = 28.723448 Si / 1000 Ang^3
#
#
#
# Elastic Constant Matrix: (Units=GPa)
#
#
# Indices 1 2 3 4 5 6 
#
# 1 294.1726 50.9391 51.1509 0.0000 9.1531 0.0000
# 2 50.9391 71.5959 37.9578 0.0000 5.7458 0.0000
# 3 51.1509 37.9578 133.6721 0.0000 16.2922 0.0000
# 4 0.0000 0.0000 0.0000 36.9609 0.0000 55.1977
# 5 9.1531 5.7458 16.2922 0.0000 50.7343 0.0000
# 6 0.0000 0.0000 0.0000 55.1977 0.0000 -84.9624
#
#
#
# Elastic Compliance Matrix: (Units=1/GPa)
#
#
# Indices 1 2 3 4 5 6 
#
# 1 0.003957 -0.002366 -0.000820 0.000000 -0.000183 0.000000
# 2 -0.002366 0.017864 -0.004135 0.000000 -0.000269 0.000000
# 3 -0.000820 -0.004135 0.009256 0.000000 -0.002356 0.000000
# 4 0.000000 0.000000 0.000000 0.013732 0.000000 0.008921
# 5 -0.000183 -0.000269 -0.002356 0.000000 0.020531 0.000000
# 6 0.000000 0.000000 0.000000 0.008921 0.000000 -0.005974
#
#
# Mechanical properties :
#
#
# Convention : Reuss Voigt Hill
#
# Bulk Modulus (GPa) = 60.84231 86.61513 73.72872
# Shear Modulus (GPa) = 62.90319 24.50607 43.70463
#
# Velocity S-wave (km/s) = 4.68478 2.92408 3.90496
# Velocity P-wave (km/s) = 7.10570 6.45141 6.78644
#
# Compressibility (1/GPa) = 0.01643593
#
# Stress axis : x y z
#
# Youngs Moduli (GPa) = 252.69258 55.97747 108.03681
#
# Poissons Ratio (x) = 0.13245 0.08861
# Poissons Ratio (y) = 0.59790 0.44669
# Poissons Ratio (z) = 0.20726 0.23145
#
# Static dielectric constant tensor:
#      x y z
#    x 2.217820 0.000000 -0.095780 
#    y 0.000000 2.396230 0.000000 
#    z -0.095780 0.000000 2.296840 
# 
# From -- ./inp_files/10613.got.cif
#   From: 2010.05.17/outbox.cif.g08.bks.cpg/sg5_6_cif.got.tgz:10613.got - 2010.06.03 18:56:24.
