data_PCOD9127604
_publ_section_title
;
Structure prediction by ZEFSAII (Michael W. Deem and Ramdas Pophale) SiO2 
 PCOD9127604
Probable space group: C 2
;
_chemical_formula_sum "Si O2"
_cell_formula_units_Z 28
_cell_length_a 21.223277
_cell_length_b 4.894768
_cell_length_c 12.750455
_cell_angle_alpha 90.000000
_cell_angle_beta 117.993197
_cell_angle_gamma 90.000000
_cell_volume 1169.587124
_symmetry_space_group_name_H-M "C 2"
_symmetry_group_IT_number 5
_symmetry_cell_setting 'monoclinic'
loop_
_space_group_symop_operation_xyz
x,y,z
-x,y,-z
1/2+x,1/2+y,z
1/2-x,1/2+y,-z
loop_
_atom_site_type_symbol
_atom_site_label
_atom_site_fract_x
_atom_site_fract_y
_atom_site_fract_z
Si Si1 0.939745 0.944650 0.029802
Si Si2 0.431990 0.967365 0.162423
Si Si3 0.845078 0.158650 0.373578
Si Si4 0.775512 0.721690 0.077982
Si Si5 0.203303 0.136925 0.445605
Si Si6 0.797829 0.957420 0.787695
Si Si7 0.065393 0.675598 0.620909
O O1 0.965410 0.664862 0.101955
O O2 0.928779 0.166830 0.112942
O O3 0.868090 0.880700 0.907918
O O4 0.000000 0.054161 0.000000
O O5 0.353016 0.089429 0.123320
O O6 0.466834 0.030523 0.301078
O O7 0.847352 0.062390 0.496524
O O8 0.762684 0.228760 0.281736
O O9 0.887825 0.439576 0.396024
O O10 0.882517 0.937041 0.328358
O O11 0.742315 0.666456 0.165592
O O12 0.770333 0.032780 0.038245
O O13 0.226665 0.449245 0.480260
O O14 0.180973 0.079355 0.309013
O O15 0.000000 0.770690 0.500000
#
# Coordination Sequence:
#
# PCOD9127604 Si02
#       7
#     4   4   4   4   4   4   4
#     4  12  28  47  69 102 143 188 232 284 354 424
#     4  12  25  46  69 101 140 182 235 287 348 421
#     4  11  24  44  70 103 139 182 240 293 346 419
#     4  12  23  39  69 108 135 174 232 290 349 411
#     4  10  23  40  62 100 137 175 230 287 344 405
#     4  11  24  43  72 102 138 184 233 291 350 406
#     4  12  27  45  72 104 141 188 234 293 357 415
#
# _framework density 23.940073999999999
#
# number of rings (size 3 to 8) (size 9 to 14) (size 15 to 20)
#    0.000    0.571    4.286    3.429    2.000    6.857 
#    0.000    0.000    0.000    0.000    0.000    0.000 
#    0.000    0.000    0.000    0.000    0.000    0.000 
#
# Total GULP energy -78334.147016 kJ/mol
# GULP energy per Si atom -5595.296215 kJ/mol
# Density = 2.388559 g / cm^3
# Si number density = 23.940074 Si / 1000 Ang^3
#
#
#
# Elastic Constant Matrix: (Units=GPa)
#
#
# Indices 1 2 3 4 5 6 
#
# 1 64.9848 11.9513 21.4748 0.0000 -8.2339 0.0000
# 2 11.9513 100.3344 15.2526 0.0000 -6.8023 0.0000
# 3 21.4748 15.2526 132.1012 0.0000 -25.0820 0.0000
# 4 0.0000 0.0000 0.0000 26.2207 0.0000 -10.8272
# 5 -8.2339 -6.8023 -25.0820 0.0000 46.1928 0.0000
# 6 0.0000 0.0000 0.0000 -10.8272 0.0000 34.7643
#
#
#
# Elastic Compliance Matrix: (Units=1/GPa)
#
#
# Indices 1 2 3 4 5 6 
#
# 1 0.016601 -0.001535 -0.002233 0.000000 0.001521 0.000000
# 2 -0.001535 0.010325 -0.000787 0.000000 0.000819 0.000000
# 3 -0.002233 -0.000787 0.008837 0.000000 0.004285 0.000000
# 4 0.000000 0.000000 0.000000 0.043766 0.000000 0.013631
# 5 0.001521 0.000819 0.004285 0.000000 0.024367 0.000000
# 6 0.000000 0.000000 0.000000 0.013631 0.000000 0.033010
#
#
# Mechanical properties :
#
#
# Convention : Reuss Voigt Hill
#
# Bulk Modulus (GPa) = 37.51818 43.86420 40.69119
# Shear Modulus (GPa) = 32.27880 38.01833 35.14857
#
# Velocity S-wave (km/s) = 3.67593 3.98937 3.83585
# Velocity P-wave (km/s) = 5.80709 6.29146 6.05412
#
# Compressibility (1/GPa) = 0.02665375
#
# Stress axis : x y z
#
# Youngs Moduli (GPa) = 60.23728 96.85520 113.15663
#
# Poissons Ratio (x) = 0.14866 0.25265
# Poissons Ratio (y) = 0.09246 0.08905
# Poissons Ratio (z) = 0.13449 0.07622
#
# Static dielectric constant tensor:
#      x y z
#    x 1.922710 0.000000 -0.005620 
#    y 0.000000 1.866590 0.000000 
#    z -0.005620 0.000000 2.003980 
# 
# From -- ./inp_files/45717.got.cif
#   From: 2010.05.17/outbox.cif.g08.bks.cpg/sg5_23_cif.got.tgz:45717.got - 2010.06.03 18:56:24.
