data_PCOD9127841
_publ_section_title
;
Structure prediction by ZEFSAII (Michael W. Deem and Ramdas Pophale) SiO2 
 PCOD9127841
Probable space group: C 2
;
_chemical_formula_sum "Si O2"
_cell_formula_units_Z 20
_cell_length_a 23.681521
_cell_length_b 5.168168
_cell_length_c 7.115865
_cell_angle_alpha 90.000000
_cell_angle_beta 114.022210
_cell_angle_gamma 90.000000
_cell_volume 795.479670
_symmetry_space_group_name_H-M "C 2"
_symmetry_group_IT_number 5
_symmetry_cell_setting 'monoclinic'
loop_
_space_group_symop_operation_xyz
x,y,z
-x,y,-z
1/2+x,1/2+y,z
1/2-x,1/2+y,-z
loop_
_atom_site_type_symbol
_atom_site_label
_atom_site_fract_x
_atom_site_fract_y
_atom_site_fract_z
Si Si1 0.797957 0.883980 0.768745
Si Si2 0.023285 0.934589 0.244282
Si Si3 0.112409 0.058293 0.816889
Si Si4 0.065370 0.439230 0.487274
Si Si5 0.720860 0.378330 0.699563
O O1 0.751810 0.595440 0.231413
O O2 0.773396 0.600869 0.794860
O O3 0.798236 0.894738 0.544417
O O4 0.060019 0.197894 0.337529
O O5 0.958142 0.956346 0.273491
O O6 0.139186 0.993389 0.057567
O O7 0.000000 0.909519 0.000000
O O8 0.108956 0.344852 0.718012
O O9 0.162857 0.923570 0.753571
O O10 0.000000 0.458764 0.500000
O O11 0.066468 0.697506 0.366424
#
# Coordination Sequence:
#
# PCOD9127841 Si02
#       5
#     4   4   4   4   4
#     4  10  23  43  66 105 134 175 224 284 338 408
#     4  11  25  44  65  99 140 176 231 285 328 404
#     4  11  24  43  76  94 137 187 224 271 359 394
#     4  10  23  43  63  95 135 175 227 283 328 398
#     4  10  23  43  67 101 142 167 230 283 332 415
#
# _framework density 25.142061999999999
#
# number of rings (size 3 to 8) (size 9 to 14) (size 15 to 20)
#    0.000    1.600    0.000    3.600    2.800    9.600 
#    7.200    0.000    0.000    0.000    0.000    0.000 
#    0.000    0.000    0.000    0.000    0.000    0.000 
#
# Total GULP energy -55935.400402 kJ/mol
# GULP energy per Si atom -5593.540040 kJ/mol
# Density = 2.508484 g / cm^3
# Si number density = 25.142062 Si / 1000 Ang^3
#
#
#
# Elastic Constant Matrix: (Units=GPa)
#
#
# Indices 1 2 3 4 5 6 
#
# 1 84.5601 3.6638 -6.4184 0.0000 0.9428 0.0000
# 2 3.6638 156.6553 37.5003 0.0000 3.0202 0.0000
# 3 -6.4184 37.5003 147.9638 0.0000 16.1267 0.0000
# 4 0.0000 0.0000 0.0000 19.5357 0.0000 6.4406
# 5 0.9428 3.0202 16.1267 0.0000 38.9115 0.0000
# 6 0.0000 0.0000 0.0000 6.4406 0.0000 25.2408
#
#
#
# Elastic Compliance Matrix: (Units=1/GPa)
#
#
# Indices 1 2 3 4 5 6 
#
# 1 0.011903 -0.000432 0.000684 0.000000 -0.000539 0.000000
# 2 -0.000432 0.006813 -0.001769 0.000000 0.000215 0.000000
# 3 0.000684 -0.001769 0.007565 0.000000 -0.003015 0.000000
# 4 0.000000 0.000000 0.000000 0.055890 0.000000 -0.014261
# 5 -0.000539 0.000215 -0.003015 0.000000 0.026945 0.000000
# 6 0.000000 0.000000 0.000000 -0.014261 0.000000 0.043257
#
#
# Mechanical properties :
#
#
# Convention : Reuss Voigt Hill
#
# Bulk Modulus (GPa) = 43.01445 50.96338 46.98892
# Shear Modulus (GPa) = 30.64579 40.36650 35.50615
#
# Velocity S-wave (km/s) = 3.49507 4.01126 3.76203
# Velocity P-wave (km/s) = 5.78213 6.46280 6.13192
#
# Compressibility (1/GPa) = 0.02324800
#
# Stress axis : x y z
#
# Youngs Moduli (GPa) = 84.01538 146.78216 132.18868
#
# Poissons Ratio (x) = 0.06339 -0.09048
# Poissons Ratio (y) = 0.03628 0.23381
# Poissons Ratio (z) = -0.05750 0.25963
#
# Static dielectric constant tensor:
#      x y z
#    x 1.962490 0.000000 0.024980 
#    y 0.000000 2.019830 0.000000 
#    z 0.024980 0.000000 2.059390 
# 
# From -- ./inp_files/30131.got.cif
#   From: 2010.05.17/outbox.cif.g08.bks.cpg/sg5_16_cif.got.tgz:30131.got - 2010.06.03 18:56:24.
