data_PCOD9127301
_publ_section_title
;
Structure prediction by ZEFSAII (Michael W. Deem and Ramdas Pophale) SiO2 
 PCOD9127301
Probable space group: C 2
;
_chemical_formula_sum "Si O2"
_cell_formula_units_Z 28
_cell_length_a 13.673649
_cell_length_b 5.678229
_cell_length_c 15.487182
_cell_angle_alpha 90.000000
_cell_angle_beta 109.954239
_cell_angle_gamma 90.000000
_cell_volume 1130.268541
_symmetry_space_group_name_H-M "C 2"
_symmetry_group_IT_number 5
_symmetry_cell_setting 'monoclinic'
loop_
_space_group_symop_operation_xyz
x,y,z
-x,y,-z
1/2+x,1/2+y,z
1/2-x,1/2+y,-z
loop_
_atom_site_type_symbol
_atom_site_label
_atom_site_fract_x
_atom_site_fract_y
_atom_site_fract_z
Si Si1 0.112228 0.257200 0.990228
Si Si2 0.652647 0.256398 0.084338
Si Si3 0.471244 0.914810 0.651370
Si Si4 0.303850 0.549681 0.616876
Si Si5 0.462854 0.293578 0.786767
Si Si6 0.868682 0.140038 0.202548
Si Si7 0.902865 0.757414 0.495712
O O1 0.152630 0.518248 0.027543
O O2 0.164998 0.011912 0.041902
O O3 0.108685 0.245748 0.885942
O O4 0.000000 0.248372 0.000000
O O5 0.551774 0.274943 0.115508
O O6 0.747834 0.189608 0.176970
O O7 0.450218 0.050524 0.734359
O O8 0.479282 0.089859 0.575065
O O9 0.368353 0.771364 0.603554
O O10 0.569903 0.756259 0.700686
O O11 0.372359 0.464294 0.720596
O O12 0.184737 0.631765 0.590278
O O13 0.328293 0.361768 0.549247
O O14 0.576689 0.386750 0.792623
O O15 0.000000 0.934267 0.500000
#
# Coordination Sequence:
#
# PCOD9127301 Si02
#       7
#     4   4   4   4   4   4   4
#     4  12  25  46  72 104 145 196 240 300 363 425
#     4  12  27  44  74 105 142 196 243 299 363 428
#     4  10  23  45  69  94 142 181 228 300 360 422
#     4  10  22  45  65 101 140 180 232 300 358 437
#     4  10  24  45  66 100 137 189 227 305 361 427
#     4  11  25  44  69 104 143 180 249 291 358 439
#     4  11  23  42  71  99 135 183 235 287 364 433
#
# _framework density 24.772876
#
# number of rings (size 3 to 8) (size 9 to 14) (size 15 to 20)
#    0.000    1.143    2.857    2.143    8.000    0.571 
#    7.714    0.000    0.000    0.000    0.000    0.000 
#    0.000    0.000    0.000    0.000    0.000    0.000 
#
# Total GULP energy -78069.026576 kJ/mol
# GULP energy per Si atom -5576.359041 kJ/mol
# Density = 2.471649 g / cm^3
# Si number density = 24.772876 Si / 1000 Ang^3
#
#
#
# Elastic Constant Matrix: (Units=GPa)
#
#
# Indices 1 2 3 4 5 6 
#
# 1 82.2935 2.2062 -5.2274 0.0000 32.5574 0.0000
# 2 2.2062 81.0995 15.4410 0.0000 20.3001 0.0000
# 3 -5.2274 15.4410 62.2796 0.0000 15.4949 0.0000
# 4 0.0000 0.0000 0.0000 9.4462 0.0000 2.9685
# 5 32.5574 20.3001 15.4949 0.0000 53.4696 0.0000
# 6 0.0000 0.0000 0.0000 2.9685 0.0000 0.9500
#
#
#
# Elastic Compliance Matrix: (Units=1/GPa)
#
#
# Indices 1 2 3 4 5 6 
#
# 1 0.017266 0.001858 0.004073 0.000001 -0.012399 -0.000002
# 2 0.001858 0.014125 -0.001865 0.000002 -0.005954 -0.000007
# 3 0.004073 -0.001865 0.018646 0.000001 -0.007176 -0.000002
# 4 0.000001 0.000002 0.000001 5.877552 -0.000002-18.366164
# 5 -0.012399 -0.005954 -0.007176 -0.000002 0.030592 0.000006
# 6 -0.000002 -0.000007 -0.000002-18.366164 0.000006 58.443200
#
#
# Mechanical properties :
#
#
# Convention : Reuss Voigt Hill
#
# Bulk Modulus (GPa) = 17.19063 27.83469 22.51266
# Shear Modulus (GPa) = 0.07762 26.99000 13.53381
#
# Velocity S-wave (km/s) = 0.17721 3.30434 2.33988
# Velocity P-wave (km/s) = 2.64504 5.08119 4.05060
#
# Compressibility (1/GPa) = 0.05817124
#
# Stress axis : x y z
#
# Youngs Moduli (GPa) = 57.91746 70.79454 53.63040
#
# Poissons Ratio (x) = -0.13156 -0.21845
# Poissons Ratio (y) = -0.10763 0.10001
# Poissons Ratio (z) = -0.23592 0.13202
#
# Static dielectric constant tensor:
#      x y z
#    x 2.184350 0.000000 0.010980 
#    y 0.000000 2.092590 0.000000 
#    z 0.010980 0.000000 2.000500 
# 
# From -- ./inp_files/61042.got.cif
#   From: 2010.05.17/outbox.cif.g08.bks.cpg/sg5_31_cif.got.tgz:61042.got - 2010.06.03 18:56:24.
