data_PCOD9127424
_publ_section_title
;
Structure prediction by ZEFSAII (Michael W. Deem and Ramdas Pophale) SiO2 
 PCOD9127424
Probable space group: C 2
;
_chemical_formula_sum "Si O2"
_cell_formula_units_Z 28
_cell_length_a 25.823087
_cell_length_b 9.275025
_cell_length_c 5.360276
_cell_angle_alpha 90.000000
_cell_angle_beta 61.955475
_cell_angle_gamma 90.000000
_cell_volume 1133.093399
_symmetry_space_group_name_H-M "C 2"
_symmetry_group_IT_number 5
_symmetry_cell_setting 'monoclinic'
loop_
_space_group_symop_operation_xyz
x,y,z
-x,y,-z
1/2+x,1/2+y,z
1/2-x,1/2+y,-z
loop_
_atom_site_type_symbol
_atom_site_label
_atom_site_fract_x
_atom_site_fract_y
_atom_site_fract_z
Si Si1 0.908974 0.088060 0.578871
Si Si2 0.087080 0.384954 0.178925
Si Si3 0.500000 0.730948 0.000000
Si Si4 0.178885 0.607901 0.040740
Si Si5 0.178855 0.937981 0.554415
Si Si6 0.744079 0.156056 0.386874
Si Si7 0.000000 0.605341 0.500000
Si Si8 0.416360 0.319786 0.886386
O O1 0.895079 0.239409 0.733148
O O2 0.958813 0.129703 0.264093
O O3 0.849132 0.028717 0.601593
O O4 0.931592 0.970140 0.723681
O O5 0.043432 0.333282 0.060881
O O6 0.143753 0.477068 0.991234
O O7 0.051632 0.492810 0.443719
O O8 0.206765 0.582813 0.247674
O O9 0.131101 0.735340 0.176755
O O10 0.223878 0.651353 0.723136
O O11 0.231181 0.826968 0.366153
O O12 0.198547 0.055116 0.718355
O O13 0.122072 0.848513 0.782193
O O14 0.028154 0.712482 0.231716
#
# Coordination Sequence:
#
# PCOD9127424 Si02
#       8
#     4   4   2   4   4   4   2   4
#     4  12  25  45  68 107 150 192 249 315 376 461
#     4  11  25  45  73 107 150 199 252 311 375 468
#     4  12  26  44  70 108 150 200 252 308 388 450
#     4  10  25  48  76 111 150 194 258 309 384 445
#     4  11  27  46  74 110 149 198 256 314 389 450
#     4  11  26  48  76 112 150 200 252 321 384 450
#     4  10  22  46  70  98 146 194 238 306 368 452
#     4  10  24  46  70 103 147 190 245 310 372 453
#
# _framework density 24.711113999999998
#
# number of rings (size 3 to 8) (size 9 to 14) (size 15 to 20)
#    0.000    1.143    2.857    0.857   10.000    1.143 
#    2.571    0.000    0.000    0.000    0.000    0.000 
#    0.000    0.000    0.000    0.000    0.000    0.000 
#
# Total GULP energy -78153.984913 kJ/mol
# GULP energy per Si atom -5582.427494 kJ/mol
# Density = 2.465487 g / cm^3
# Si number density = 24.711114 Si / 1000 Ang^3
#
#
#
# Elastic Constant Matrix: (Units=GPa)
#
#
# Indices 1 2 3 4 5 6 
#
# 1 80.4575 32.6939 13.3230 0.0000 4.1678 0.0000
# 2 32.6939 146.1744 15.1871 0.0000 -5.5524 0.0000
# 3 13.3230 15.1871 58.0289 0.0000 -2.4391 0.0000
# 4 0.0000 0.0000 0.0000 22.6521 0.0000 -1.0176
# 5 4.1678 -5.5524 -2.4391 0.0000 26.5711 0.0000
# 6 0.0000 0.0000 0.0000 -1.0176 0.0000 17.4943
#
#
#
# Elastic Compliance Matrix: (Units=1/GPa)
#
#
# Indices 1 2 3 4 5 6 
#
# 1 0.014256 -0.003035 -0.002609 0.000000 -0.003110 0.000000
# 2 -0.003035 0.007724 -0.001242 0.000000 0.001976 0.000000
# 3 -0.002609 -0.001242 0.018233 0.000000 0.001824 0.000000
# 4 0.000000 0.000000 0.000000 0.044262 0.000000 0.002575
# 5 -0.003110 0.001976 0.001824 0.000000 0.038703 0.000000
# 6 0.000000 0.000000 0.000000 0.002575 0.000000 0.057311
#
#
# Mechanical properties :
#
#
# Convention : Reuss Voigt Hill
#
# Bulk Modulus (GPa) = 37.82068 45.22989 41.52529
# Shear Modulus (GPa) = 24.62140 28.24060 26.43100
#
# Velocity S-wave (km/s) = 3.15996 3.38424 3.27402
# Velocity P-wave (km/s) = 5.35277 5.79776 5.57970
#
# Compressibility (1/GPa) = 0.02644056
#
# Stress axis : x y z
#
# Youngs Moduli (GPa) = 70.14803 129.46437 54.84428
#
# Poissons Ratio (x) = 0.39299 0.14310
# Poissons Ratio (y) = 0.21293 0.06809
# Poissons Ratio (z) = 0.18303 0.16074
#
# Static dielectric constant tensor:
#      x y z
#    x 2.081140 0.000000 -0.137420 
#    y 0.000000 2.006260 0.000000 
#    z -0.137420 0.000000 2.063220 
# 
# From -- ./inp_files/11210.got.cif
#   From: 2010.05.17/outbox.cif.g08.bks.cpg/sg5_6_cif.got.tgz:11210.got - 2010.06.03 18:56:24.
