data_PCOD9127557
_publ_section_title
;
Structure prediction by ZEFSAII (Michael W. Deem and Ramdas Pophale) SiO2 
 PCOD9127557
Probable space group: C 2
;
_chemical_formula_sum "Si O2"
_cell_formula_units_Z 30
_cell_length_a 28.024029
_cell_length_b 4.926938
_cell_length_c 9.439520
_cell_angle_alpha 90.000000
_cell_angle_beta 73.503661
_cell_angle_gamma 90.000000
_cell_volume 1249.691354
_symmetry_space_group_name_H-M "C 2"
_symmetry_group_IT_number 5
_symmetry_cell_setting 'monoclinic'
loop_
_space_group_symop_operation_xyz
x,y,z
-x,y,-z
1/2+x,1/2+y,z
1/2-x,1/2+y,-z
loop_
_atom_site_type_symbol
_atom_site_label
_atom_site_fract_x
_atom_site_fract_y
_atom_site_fract_z
Si Si1 0.589720 0.609260 0.502594
Si Si2 0.500000 0.298675 0.500000
Si Si3 0.124458 0.766320 0.945266
Si Si4 0.216344 0.034077 0.042812
Si Si5 0.368634 0.746932 0.250612
Si Si6 0.239414 0.004741 0.592207
Si Si7 0.826633 0.781636 0.673519
Si Si8 0.084457 0.495513 0.253629
O O1 0.536299 0.475486 0.567527
O O2 0.603393 0.801388 0.622746
O O3 0.635510 0.398906 0.473234
O O4 0.586488 0.708438 0.339548
O O5 0.536929 0.126073 0.370954
O O6 0.172828 0.906198 0.981116
O O7 0.138761 0.525999 0.826478
O O8 0.103435 0.020906 0.871261
O O9 0.088489 0.606241 0.088540
O O10 0.263098 0.828806 0.008208
O O11 0.194167 0.027612 0.217887
O O12 0.314598 0.612252 0.322359
O O13 0.255564 0.187258 0.442344
O O14 0.281078 0.101564 0.664813
O O15 0.863084 0.609415 0.738101
#
# Coordination Sequence:
#
# PCOD9127557 Si02
#       8
#     4   2   4   4   4   4   4   4
#     4  11  24  46  76 103 137 185 242 301 367 434
#     4  10  24  46  82 104 132 172 252 300 370 432
#     4  11  26  44  69 101 150 192 233 298 375 427
#     4  11  23  39  61  94 139 193 248 288 334 410
#     4  12  26  45  69 105 152 193 234 297 373 430
#     4  12  23  38  61  99 146 194 242 287 345 417
#     4  10  23  37  64  94 137 183 242 283 337 411
#     4  10  24  45  76 102 137 184 243 300 362 436
#
# _framework density 24.005924
#
# number of rings (size 3 to 8) (size 9 to 14) (size 15 to 20)
#    0.000    1.067    1.333    4.400   13.067    0.000 
#    0.000    0.667    0.000    0.000    0.000    0.000 
#    0.000    0.000    0.000    0.000    0.000    0.000 
#
# Total GULP energy -83712.691355 kJ/mol
# GULP energy per Si atom -5580.846090 kJ/mol
# Density = 2.395129 g / cm^3
# Si number density = 24.005924 Si / 1000 Ang^3
#
#
#
# Elastic Constant Matrix: (Units=GPa)
#
#
# Indices 1 2 3 4 5 6 
#
# 1 92.5251 8.5546 31.8109 0.0000 -15.9699 0.0000
# 2 8.5546 88.5698 18.9761 0.0000 2.4573 0.0000
# 3 31.8109 18.9761 61.4860 0.0000 -2.9450 0.0000
# 4 0.0000 0.0000 0.0000 11.9791 0.0000 2.4490
# 5 -15.9699 2.4573 -2.9450 0.0000 27.5790 0.0000
# 6 0.0000 0.0000 0.0000 2.4490 0.0000 38.1447
#
#
#
# Elastic Compliance Matrix: (Units=1/GPa)
#
#
# Indices 1 2 3 4 5 6 
#
# 1 0.014608 -0.000090 -0.007161 0.000000 0.007702 0.000000
# 2 -0.000090 0.012151 -0.003777 0.000000 -0.001538 0.000000
# 3 -0.007161 -0.003777 0.021059 0.000000 -0.001561 0.000000
# 4 0.000000 0.000000 0.000000 0.084589 0.000000 -0.005431
# 5 0.007702 -0.001538 -0.001561 0.000000 0.040690 0.000000
# 6 0.000000 0.000000 0.000000 -0.005431 0.000000 0.026565
#
#
# Mechanical properties :
#
#
# Convention : Reuss Voigt Hill
#
# Bulk Modulus (GPa) = 38.81697 40.14045 39.47871
# Shear Modulus (GPa) = 21.71036 27.75652 24.73344
#
# Velocity S-wave (km/s) = 3.01055 3.40404 3.21332
# Velocity P-wave (km/s) = 5.31877 5.67515 5.49985
#
# Compressibility (1/GPa) = 0.02576193
#
# Stress axis : x y z
#
# Youngs Moduli (GPa) = 68.45790 82.29649 47.48457
#
# Poissons Ratio (x) = 0.00744 0.34002
# Poissons Ratio (y) = 0.00619 0.17935
# Poissons Ratio (z) = 0.49020 0.31084
#
# Static dielectric constant tensor:
#      x y z
#    x 1.880390 0.000000 0.063090 
#    y 0.000000 1.952290 0.000000 
#    z 0.063090 0.000000 2.127670 
# 
# From -- ./inp_files/32260.got.cif
#   From: 2010.05.17/outbox.cif.g08.bks.cpg/sg5_17_cif.got.tgz:32260.got - 2010.06.03 18:56:24.
