data_PCOD9127093
_publ_section_title
;
Structure prediction by ZEFSAII (Michael W. Deem and Ramdas Pophale) SiO2 
 PCOD9127093
Probable space group: C 2
;
_chemical_formula_sum "Si O2"
_cell_formula_units_Z 24
_cell_length_a 8.709068
_cell_length_b 17.993210
_cell_length_c 8.848413
_cell_angle_alpha 90.000000
_cell_angle_beta 52.814854
_cell_angle_gamma 90.000000
_cell_volume 1104.671747
_symmetry_space_group_name_H-M "C 2"
_symmetry_group_IT_number 5
_symmetry_cell_setting 'monoclinic'
loop_
_space_group_symop_operation_xyz
x,y,z
-x,y,-z
1/2+x,1/2+y,z
1/2-x,1/2+y,-z
loop_
_atom_site_type_symbol
_atom_site_label
_atom_site_fract_x
_atom_site_fract_y
_atom_site_fract_z
Si Si1 0.193595 0.007610 0.466356
Si Si2 0.968010 0.775965 0.843184
Si Si3 0.921572 0.365439 0.889079
Si Si4 0.961941 0.614471 0.703320
Si Si5 0.200563 0.835411 0.454493
Si Si6 0.707746 0.483572 0.818622
O O1 0.362806 0.065524 0.334246
O O2 0.000000 0.034733 0.500000
O O3 0.215399 0.922230 0.402080
O O4 0.193741 0.995354 0.647528
O O5 0.950527 0.695241 0.779656
O O6 0.148902 0.818845 0.658670
O O7 0.771501 0.822534 0.945439
O O8 0.000000 0.766921 0.000000
O O9 0.859876 0.424407 0.796299
O O10 0.088437 0.310327 0.724522
O O11 0.000000 0.399460 0.000000
O O12 0.773936 0.563907 0.840636
O O13 0.000000 0.619846 0.500000
O O14 0.000000 0.807186 0.500000
O O15 0.500000 0.460197 0.000000
#
# Coordination Sequence:
#
# PCOD9127093 Si02
#       6
#     4   4   4   4   4   4
#     4  10  22  43  72 101 135 181 227 284 354 407
#     4  12  27  45  68 105 141 183 234 289 349 420
#     4  12  25  43  74 107 137 185 238 288 351 410
#     4  10  24  47  67  96 141 185 228 283 349 413
#     4  11  22  44  73 101 137 179 230 293 346 413
#     4  11  24  42  70 103 135 177 237 290 338 416
#
# _framework density 21.725909999999999
#
# number of rings (size 3 to 8) (size 9 to 14) (size 15 to 20)
#    0.000    1.000    3.333    3.000    2.333    4.667 
#    6.000    0.000    0.000    0.000    0.000    0.000 
#    0.000    0.000    0.000    0.000    0.000    0.000 
#
# Total GULP energy -66988.802746 kJ/mol
# GULP energy per Si atom -5582.400229 kJ/mol
# Density = 2.167646 g / cm^3
# Si number density = 21.725910 Si / 1000 Ang^3
#
#
#
# Elastic Constant Matrix: (Units=GPa)
#
#
# Indices 1 2 3 4 5 6 
#
# 1 136.7138 35.5729 37.3522 0.0000 4.5952 0.0000
# 2 35.5729 95.9864 14.9753 0.0000 0.9645 0.0000
# 3 37.3522 14.9753 112.7808 0.0000 -10.0358 0.0000
# 4 0.0000 0.0000 0.0000 29.7628 0.0000 2.4247
# 5 4.5952 0.9645 -10.0358 0.0000 34.5691 0.0000
# 6 0.0000 0.0000 0.0000 2.4247 0.0000 17.2808
#
#
#
# Elastic Compliance Matrix: (Units=1/GPa)
#
#
# Indices 1 2 3 4 5 6 
#
# 1 0.008862 -0.002840 -0.002726 0.000000 -0.001890 0.000000
# 2 -0.002840 0.011566 -0.000606 0.000000 -0.000121 0.000000
# 3 -0.002726 -0.000606 0.010146 0.000000 0.003325 0.000000
# 4 0.000000 0.000000 0.000000 0.033988 0.000000 -0.004769
# 5 -0.001890 -0.000121 0.003325 0.000000 0.030147 0.000000
# 6 0.000000 0.000000 0.000000 -0.004769 0.000000 0.058537
#
#
# Mechanical properties :
#
#
# Convention : Reuss Voigt Hill
#
# Bulk Modulus (GPa) = 54.85435 57.92022 56.38728
# Shear Modulus (GPa) = 29.12618 33.49456 31.31037
#
# Velocity S-wave (km/s) = 3.66542 3.93069 3.80037
# Velocity P-wave (km/s) = 6.57396 6.87880 6.72810
#
# Compressibility (1/GPa) = 0.01823009
#
# Stress axis : x y z
#
# Youngs Moduli (GPa) = 112.84343 86.45729 98.56156
#
# Poissons Ratio (x) = 0.24553 0.26869
# Poissons Ratio (y) = 0.32047 0.05973
# Poissons Ratio (z) = 0.30762 0.05240
#
# Static dielectric constant tensor:
#      x y z
#    x 1.866360 0.000000 0.003730 
#    y 0.000000 1.776690 0.000000 
#    z 0.003730 0.000000 1.866220 
# 
# From -- ./inp_files/16690.got.cif
#   From: 2010.05.17/outbox.cif.g08.bks.cpg/sg5_9_cif.got.tgz:16690.got - 2010.06.03 18:56:24.
