data_PCOD9127807
_publ_section_title
;
Structure prediction by ZEFSAII (Michael W. Deem and Ramdas Pophale) SiO2 
 PCOD9127807
Probable space group: C 2
;
_chemical_formula_sum "Si O2"
_cell_formula_units_Z 22
_cell_length_a 7.643465
_cell_length_b 22.246932
_cell_length_c 8.099141
_cell_angle_alpha 90.000000
_cell_angle_beta 49.439507
_cell_angle_gamma 90.000000
_cell_volume 1046.291854
_symmetry_space_group_name_H-M "C 2"
_symmetry_group_IT_number 5
_symmetry_cell_setting 'monoclinic'
loop_
_space_group_symop_operation_xyz
x,y,z
-x,y,-z
1/2+x,1/2+y,z
1/2-x,1/2+y,-z
loop_
_atom_site_type_symbol
_atom_site_label
_atom_site_fract_x
_atom_site_fract_y
_atom_site_fract_z
Si Si1 0.454331 0.875000 0.839257
Si Si2 0.000000 0.172193 0.500000
Si Si3 0.000000 0.150274 0.000000
Si Si4 0.500000 0.439630 0.000000
Si Si5 0.221649 0.592373 0.457081
Si Si6 0.245272 0.241939 0.067868
Si Si7 0.185990 0.962647 0.531137
O O1 0.377558 0.805383 0.896173
O O2 0.663546 0.902686 0.599991
O O3 0.228741 0.903520 0.900234
O O4 0.500000 0.895081 0.000000
O O5 0.207924 0.130076 0.427597
O O6 0.080602 0.213554 0.304776
O O7 0.078716 0.107273 0.800537
O O8 0.795455 0.195253 0.059926
O O9 0.561942 0.467220 0.784526
O O10 0.172204 0.524706 0.549605
O O11 0.000000 0.615264 0.500000
O O12 0.500000 0.247483 0.000000
O O13 0.000000 0.966460 0.500000
#
# Coordination Sequence:
#
# PCOD9127807 Si02
#       7
#     4   2   2   2   4   4   4
#     4  12  25  44  68 101 142 187 238 289 353 429
#     4  10  24  40  68 100 134 174 224 288 350 418
#     4  10  23  42  70 100 130 177 232 284 356 416
#     4  12  25  46  70  96 140 187 234 290 350 404
#     4  11  22  44  67  97 135 176 229 285 348 414
#     4  11  23  42  66 101 135 177 228 286 351 416
#     4  12  26  46  71 103 144 192 238 288 352 425
#
# _framework density 21.02664
#
# number of rings (size 3 to 8) (size 9 to 14) (size 15 to 20)
#    0.000    0.727    4.545    3.273    2.545    0.000 
#    0.000    1.818    0.000    0.000    0.000    0.000 
#    0.000    0.000    0.000    0.000    0.000    0.000 
#
# Total GULP energy -61240.188436 kJ/mol
# GULP energy per Si atom -5567.289858 kJ/mol
# Density = 2.097878 g / cm^3
# Si number density = 21.026640 Si / 1000 Ang^3
#
#
#
# Elastic Constant Matrix: (Units=GPa)
#
#
# Indices 1 2 3 4 5 6 
#
# 1 149.0446 26.4929 6.9120 0.0000 4.3363 0.0000
# 2 26.4929 69.2743 14.6170 0.0000 2.0761 0.0000
# 3 6.9120 14.6170 50.5849 0.0000 11.5537 0.0000
# 4 0.0000 0.0000 0.0000 25.6259 0.0000 4.2212
# 5 4.3363 2.0761 11.5537 0.0000 32.3603 0.0000
# 6 0.0000 0.0000 0.0000 4.2212 0.0000 13.8625
#
#
#
# Elastic Compliance Matrix: (Units=1/GPa)
#
#
# Indices 1 2 3 4 5 6 
#
# 1 0.007219 -0.002734 -0.000017 0.000000 -0.000786 0.000000
# 2 -0.002734 0.016421 -0.004589 0.000000 0.000951 0.000000
# 3 -0.000017 -0.004589 0.022896 0.000000 -0.007878 0.000000
# 4 0.000000 0.000000 0.000000 0.041084 0.000000 -0.012510
# 5 -0.000786 0.000951 -0.007878 0.000000 0.033759 0.000000
# 6 0.000000 0.000000 0.000000 -0.012510 0.000000 0.075947
#
#
# Mechanical properties :
#
#
# Convention : Reuss Voigt Hill
#
# Bulk Modulus (GPa) = 31.38985 40.54972 35.96978
# Shear Modulus (GPa) = 22.45949 29.09519 25.77734
#
# Velocity S-wave (km/s) = 3.27179 3.72389 3.50514
# Velocity P-wave (km/s) = 5.40683 6.14952 5.79010
#
# Compressibility (1/GPa) = 0.03185743
#
# Stress axis : x y z
#
# Youngs Moduli (GPa) = 138.52404 60.89948 43.67507
#
# Poissons Ratio (x) = 0.16648 0.00074
# Poissons Ratio (y) = 0.37868 0.20041
# Poissons Ratio (z) = 0.00235 0.27944
#
# Static dielectric constant tensor:
#      x y z
#    x 1.737500 0.000000 -0.017160 
#    y 0.000000 1.781940 0.000000 
#    z -0.017160 0.000000 1.767480 
# 
# From -- ./inp_files/16663.got.cif
#   From: 2010.05.17/outbox.cif.g08.bks.cpg/sg5_9_cif.got.tgz:16663.got - 2010.06.03 18:56:24.
