data_PCOD9127120
_publ_section_title
;
Structure prediction by ZEFSAII (Michael W. Deem and Ramdas Pophale) SiO2 
 PCOD9127120
Probable space group: C 2
;
_chemical_formula_sum "Si O2"
_cell_formula_units_Z 24
_cell_length_a 9.410035
_cell_length_b 10.194666
_cell_length_c 13.587415
_cell_angle_alpha 90.000000
_cell_angle_beta 78.584110
_cell_angle_gamma 90.000000
_cell_volume 1277.682687
_symmetry_space_group_name_H-M "C 2"
_symmetry_group_IT_number 5
_symmetry_cell_setting 'monoclinic'
loop_
_space_group_symop_operation_xyz
x,y,z
-x,y,-z
1/2+x,1/2+y,z
1/2-x,1/2+y,-z
loop_
_atom_site_type_symbol
_atom_site_label
_atom_site_fract_x
_atom_site_fract_y
_atom_site_fract_z
Si Si1 0.796553 0.738370 0.223807
Si Si2 0.664974 0.954108 0.097870
Si Si3 0.135817 0.708409 0.221175
Si Si4 0.169336 0.307535 0.450266
Si Si5 0.337080 0.105657 0.562885
Si Si6 0.819724 0.451273 0.135642
O O1 0.750242 0.850571 0.153240
O O2 0.704386 0.756787 0.335870
O O3 0.775471 0.594708 0.179975
O O4 0.967298 0.743927 0.227099
O O5 0.491461 0.931894 0.130942
O O6 0.686260 0.102475 0.133053
O O7 0.704878 0.942397 0.978118
O O8 0.156035 0.638377 0.323040
O O9 0.230292 0.838570 0.201165
O O10 0.248452 0.214554 0.516733
O O11 0.221103 0.458774 0.446993
O O12 0.000000 0.306557 0.500000
O O13 0.500000 0.108767 0.500000
#
# Coordination Sequence:
#
# PCOD9127120 Si02
#       6
#     4   4   4   4   4   4
#     4  11  23  42  64  95 125 161 211 253 307 368
#     4  10  22  44  60  92 128 163 207 254 310 362
#     4  11  23  40  67  91 125 166 202 256 310 366
#     4  11  26  41  66  92 126 164 204 258 305 370
#     4  11  24  43  62  92 127 161 205 255 312 367
#     4  10  24  39  67  90 125 166 205 257 308 366
#
# _framework density 18.784006000000002
#
# number of rings (size 3 to 8) (size 9 to 14) (size 15 to 20)
#    0.000    1.333    3.333    1.000    4.667    5.333 
#    0.000    0.000    0.000    0.000    0.000    0.000 
#    0.000    0.000    0.000    0.000    0.000    0.000 
#
# Total GULP energy -67069.486882 kJ/mol
# GULP energy per Si atom -5589.123907 kJ/mol
# Density = 1.874125 g / cm^3
# Si number density = 18.784006 Si / 1000 Ang^3
#
#
#
# Elastic Constant Matrix: (Units=GPa)
#
#
# Indices 1 2 3 4 5 6 
#
# 1 45.8023 58.2578 20.0507 0.0000 12.8923 0.0000
# 2 58.2578 131.9174 34.1019 0.0000 4.2541 0.0000
# 3 20.0507 34.1019 55.0803 0.0000 7.7457 0.0000
# 4 0.0000 0.0000 0.0000 40.3617 0.0000 6.2171
# 5 12.8923 4.2541 7.7457 0.0000 31.8873 0.0000
# 6 0.0000 0.0000 0.0000 6.2171 0.0000 28.8121
#
#
#
# Elastic Compliance Matrix: (Units=1/GPa)
#
#
# Indices 1 2 3 4 5 6 
#
# 1 0.062138 -0.025810 -0.003718 0.000000 -0.020776 0.000000
# 2 -0.025810 0.019747 -0.004066 0.000000 0.008789 0.000000
# 3 -0.003718 -0.004066 0.022507 0.000000 -0.003421 0.000000
# 4 0.000000 0.000000 0.000000 0.025628 0.000000 -0.005530
# 5 -0.020776 0.008789 -0.003421 0.000000 0.039419 0.000000
# 6 0.000000 0.000000 0.000000 -0.005530 0.000000 0.035901
#
#
# Mechanical properties :
#
#
# Convention : Reuss Voigt Hill
#
# Bulk Modulus (GPa) = 26.87968 50.84675 38.86321
# Shear Modulus (GPa) = 17.54819 28.23820 22.89320
#
# Velocity S-wave (km/s) = 3.05980 3.88146 3.49486
# Velocity P-wave (km/s) = 5.17920 6.87136 6.08439
#
# Compressibility (1/GPa) = 0.03720282
#
# Stress axis : x y z
#
# Youngs Moduli (GPa) = 16.09324 50.64156 44.42987
#
# Poissons Ratio (x) = 1.30708 0.16520
# Poissons Ratio (y) = 0.41537 0.18065
# Poissons Ratio (z) = 0.05984 0.20591
#
# Static dielectric constant tensor:
#      x y z
#    x 1.625630 0.000000 0.002710 
#    y 0.000000 1.625230 0.000000 
#    z 0.002710 0.000000 1.627480 
# 
# From -- ./inp_files/49864.got.cif
#   From: 2010.05.17/outbox.cif.g08.bks.cpg/sg5_25_cif.got.tgz:49864.got - 2010.06.03 18:56:24.
