data_PCOD9127395
_publ_section_title
;
Structure prediction by ZEFSAII (Michael W. Deem and Ramdas Pophale) SiO2 
 PCOD9127395
Probable space group: C 2
;
_chemical_formula_sum "Si O2"
_cell_formula_units_Z 30
_cell_length_a 12.007049
_cell_length_b 8.907344
_cell_length_c 13.128547
_cell_angle_alpha 90.000000
_cell_angle_beta 110.850397
_cell_angle_gamma 90.000000
_cell_volume 1312.159117
_symmetry_space_group_name_H-M "C 2"
_symmetry_group_IT_number 5
_symmetry_cell_setting 'monoclinic'
loop_
_space_group_symop_operation_xyz
x,y,z
-x,y,-z
1/2+x,1/2+y,z
1/2-x,1/2+y,-z
loop_
_atom_site_type_symbol
_atom_site_label
_atom_site_fract_x
_atom_site_fract_y
_atom_site_fract_z
Si Si1 0.041594 0.972300 0.122608
Si Si2 0.500000 0.962596 0.500000
Si Si3 0.218746 0.042271 0.890922
Si Si4 0.803475 0.252500 0.523729
Si Si5 0.092659 0.952371 0.451026
Si Si6 0.048376 0.676883 0.693750
Si Si7 0.324774 0.200089 0.733133
Si Si8 0.716033 0.716545 0.098838
O O1 0.131118 0.859141 0.206865
O O2 0.107771 0.126235 0.114547
O O3 0.921014 0.999868 0.145752
O O4 0.000000 0.903872 0.000000
O O5 0.413177 0.861224 0.538778
O O6 0.564291 0.070248 0.601865
O O7 0.249623 0.121591 0.795904
O O8 0.298217 0.892868 0.921989
O O9 0.241561 0.143561 0.997284
O O10 0.697049 0.351454 0.536822
O O11 0.751607 0.215611 0.394255
O O12 0.843990 0.093277 0.583361
O O13 0.000000 0.022496 0.500000
O O14 0.013097 0.831647 0.364861
O O15 0.170135 0.697926 0.791711
O O16 0.946401 0.616490 0.738171
#
# Coordination Sequence:
#
# PCOD9127395 Si02
#       8
#     4   2   4   4   4   4   4   4
#     4  10  22  46  68 100 142 184 224 279 344 409
#     4  12  24  46  66 106 142 180 242 296 338 428
#     4  11  24  45  71 100 146 175 230 288 340 419
#     4  11  25  44  72 102 139 185 236 289 355 418
#     4  11  24  46  70  98 139 182 234 291 353 406
#     4  11  25  45  72 100 141 189 231 291 355 409
#     4  11  24  43  70 103 138 183 227 280 352 412
#     4  11  24  46  72 103 137 187 228 282 353 408
#
# _framework density 22.86308
#
# number of rings (size 3 to 8) (size 9 to 14) (size 15 to 20)
#    0.000    1.067    2.667    4.000    1.867    0.000 
#   12.000    0.000    0.000    0.000    0.000    0.000 
#    0.000    0.000    0.000    0.000    0.000    0.000 
#
# Total GULP energy -83911.374570 kJ/mol
# GULP energy per Si atom -5594.091638 kJ/mol
# Density = 2.281104 g / cm^3
# Si number density = 22.863080 Si / 1000 Ang^3
#
#
#
# Elastic Constant Matrix: (Units=GPa)
#
#
# Indices 1 2 3 4 5 6 
#
# 1 83.9853 25.7072 3.4396 0.0000 -14.8729 0.0000
# 2 25.7072 101.2039 18.6894 0.0000 -5.7708 0.0000
# 3 3.4396 18.6894 52.8842 0.0000 10.2799 0.0000
# 4 0.0000 0.0000 0.0000 25.1357 0.0000 -5.7227
# 5 -14.8729 -5.7708 10.2799 0.0000 35.6795 0.0000
# 6 0.0000 0.0000 0.0000 -5.7227 0.0000 34.7927
#
#
#
# Elastic Compliance Matrix: (Units=1/GPa)
#
#
# Indices 1 2 3 4 5 6 
#
# 1 0.013855 -0.003036 -0.000906 0.000000 0.005546 0.000000
# 2 -0.003036 0.011538 -0.004234 0.000000 0.001821 0.000000
# 3 -0.000906 -0.004234 0.021897 0.000000 -0.007372 0.000000
# 4 0.000000 0.000000 0.000000 0.041332 0.000000 0.006798
# 5 0.005546 0.001821 -0.007372 0.000000 0.032757 0.000000
# 6 0.000000 0.000000 0.000000 0.006798 0.000000 0.029860
#
#
# Mechanical properties :
#
#
# Convention : Reuss Voigt Hill
#
# Bulk Modulus (GPa) = 32.32224 37.08287 34.70255
# Shear Modulus (GPa) = 28.10496 31.80405 29.95451
#
# Velocity S-wave (km/s) = 3.50990 3.73375 3.62355
# Velocity P-wave (km/s) = 5.53117 5.90276 5.71998
#
# Compressibility (1/GPa) = 0.03093845
#
# Stress axis : x y z
#
# Youngs Moduli (GPa) = 72.17458 86.67094 45.66757
#
# Poissons Ratio (x) = 0.26312 0.04139
# Poissons Ratio (y) = 0.21911 0.19335
# Poissons Ratio (z) = 0.06541 0.36696
#
# Static dielectric constant tensor:
#      x y z
#    x 1.863110 0.000000 -0.015570 
#    y 0.000000 1.858750 0.000000 
#    z -0.015570 0.000000 1.862370 
# 
# From -- ./inp_files/52488.got.cif
#   From: 2010.05.17/outbox.cif.g08.bks.cpg/sg5_27_cif.got.tgz:52488.got - 2010.06.03 18:56:24.
