data_PCOD9127784
_publ_section_title
;
Structure prediction by ZEFSAII (Michael W. Deem and Ramdas Pophale) SiO2 
 PCOD9127784
Probable space group: C 2
;
_chemical_formula_sum "Si O2"
_cell_formula_units_Z 18
_cell_length_a 7.786355
_cell_length_b 18.381514
_cell_length_c 5.580915
_cell_angle_alpha 90.000000
_cell_angle_beta 114.657363
_cell_angle_gamma 90.000000
_cell_volume 725.935827
_symmetry_space_group_name_H-M "C 2"
_symmetry_group_IT_number 5
_symmetry_cell_setting 'monoclinic'
loop_
_space_group_symop_operation_xyz
x,y,z
-x,y,-z
1/2+x,1/2+y,z
1/2-x,1/2+y,-z
loop_
_atom_site_type_symbol
_atom_site_label
_atom_site_fract_x
_atom_site_fract_y
_atom_site_fract_z
Si Si1 0.720543 0.128920 0.190941
Si Si2 0.790983 0.269467 0.483705
Si Si3 0.716282 0.461446 0.676941
Si Si4 0.793091 0.909437 0.823989
Si Si5 0.000000 0.216717 0.000000
O O1 0.726274 0.187274 0.407663
O O2 0.872592 0.164575 0.095357
O O3 0.781704 0.047517 0.282925
O O4 0.500000 0.125458 0.000000
O O5 0.677264 0.327654 0.263377
O O6 0.000000 0.279297 0.500000
O O7 0.840413 0.269794 0.791478
O O8 0.500000 0.435893 0.500000
O O9 0.803631 0.444968 0.466245
O O10 0.795116 0.423912 0.965354
O O11 0.000000 0.942878 0.000000
#
# Coordination Sequence:
#
# PCOD9127784 Si02
#       5
#     4   4   4   4   2
#     4  11  25  44  70 103 135 182 238 285 347 419
#     4  10  23  42  67  97 137 183 231 287 344 414
#     4  10  23  42  68 100 142 184 226 288 354 411
#     4  10  23  42  68 100 139 183 231 287 350 416
#     4  10  24  44  72  94 144 180 230 296 346 404
#
# _framework density 24.795583000000001
#
# number of rings (size 3 to 8) (size 9 to 14) (size 15 to 20)
#    0.000    1.778    0.000    2.667   14.000    2.667 
#    4.000    0.000    0.000    0.000    0.000    0.000 
#    0.000    0.000    0.000    0.000    0.000    0.000 
#
# Total GULP energy -50117.370721 kJ/mol
# GULP energy per Si atom -5568.596747 kJ/mol
# Density = 2.473915 g / cm^3
# Si number density = 24.795583 Si / 1000 Ang^3
#
#
#
# Elastic Constant Matrix: (Units=GPa)
#
#
# Indices 1 2 3 4 5 6 
#
# 1 100.4568 6.9322 36.9881 0.0000 8.0273 0.0000
# 2 6.9322 155.8290 81.7947 0.0000 -31.6736 0.0000
# 3 36.9881 81.7947 212.1977 0.0000 -33.5546 0.0000
# 4 0.0000 0.0000 0.0000 48.7291 0.0000 2.6216
# 5 8.0273 -31.6736 -33.5546 0.0000 29.7784 0.0000
# 6 0.0000 0.0000 0.0000 2.6216 0.0000 12.1355
#
#
#
# Elastic Compliance Matrix: (Units=1/GPa)
#
#
# Indices 1 2 3 4 5 6 
#
# 1 0.011622 -0.000349 -0.002976 0.000000 -0.006857 0.000000
# 2 -0.000349 0.009105 -0.002315 0.000000 0.007170 0.000000
# 3 -0.002976 -0.002315 0.007132 0.000000 0.006376 0.000000
# 4 0.000000 0.000000 0.000000 0.020763 0.000000 -0.004485
# 5 -0.006857 0.007170 0.006376 0.000000 0.050241 0.000000
# 6 0.000000 0.000000 0.000000 -0.004485 0.000000 0.083371
#
#
# Mechanical properties :
#
#
# Convention : Reuss Voigt Hill
#
# Bulk Modulus (GPa) = 60.31329 79.99038 70.15184
# Shear Modulus (GPa) = 25.12046 40.97986 33.05016
#
# Velocity S-wave (km/s) = 3.18638 4.06976 3.65486
# Velocity P-wave (km/s) = 6.15746 7.37658 6.79442
#
# Compressibility (1/GPa) = 0.01658009
#
# Stress axis : x y z
#
# Youngs Moduli (GPa) = 86.04239 109.82404 140.21459
#
# Poissons Ratio (x) = 0.03831 0.41724
# Poissons Ratio (y) = 0.03002 0.32463
# Poissons Ratio (z) = 0.25604 0.25427
#
# Static dielectric constant tensor:
#      x y z
#    x 2.019220 0.000000 -0.090760 
#    y 0.000000 1.987960 0.000000 
#    z -0.090760 0.000000 2.253430 
# 
# From -- ./inp_files/2292.got.cif
#   From: 2010.05.17/outbox.cif.g08.bks.cpg/sg5_2_cif.got.tgz:2292.got - 2010.06.03 18:56:24.
