data_PCOD9127936
_publ_section_title
;
Structure prediction by ZEFSAII (Michael W. Deem and Ramdas Pophale) SiO2 
 PCOD9127936
Probable space group: C 2
;
_chemical_formula_sum "Si O2"
_cell_formula_units_Z 22
_cell_length_a 7.009175
_cell_length_b 8.383726
_cell_length_c 24.742811
_cell_angle_alpha 90.000000
_cell_angle_beta 140.830742
_cell_angle_gamma 90.000000
_cell_volume 918.341823
_symmetry_space_group_name_H-M "C 2"
_symmetry_group_IT_number 5
_symmetry_cell_setting 'monoclinic'
loop_
_space_group_symop_operation_xyz
x,y,z
-x,y,-z
1/2+x,1/2+y,z
1/2-x,1/2+y,-z
loop_
_atom_site_type_symbol
_atom_site_label
_atom_site_fract_x
_atom_site_fract_y
_atom_site_fract_z
Si Si1 0.808254 0.524310 0.237257
Si Si2 0.841183 0.828142 0.072103
Si Si3 0.500000 0.510435 0.000000
Si Si4 0.190229 0.849898 0.708879
Si Si5 0.047349 0.404743 0.616949
Si Si6 0.703705 0.207726 0.473106
O O1 0.541684 0.403346 0.163324
O O2 0.689935 0.700292 0.228013
O O3 0.968387 0.469699 0.327003
O O4 0.067361 0.489617 0.249067
O O5 0.500000 0.894127 0.000000
O O6 0.781205 0.637469 0.062022
O O7 0.979990 0.897671 0.047527
O O8 0.057637 0.787217 0.621759
O O9 0.894078 0.896251 0.677094
O O10 0.836573 0.254477 0.560566
O O11 0.888387 0.525976 0.541822
O O12 0.000000 0.217702 0.500000
#
# Coordination Sequence:
#
# PCOD9127936 Si02
#       6
#     4   4   2   4   4   4
#     4  11  26  44  69 104 144 180 241 293 361 420
#     4  10  27  47  79 109 147 191 240 298 366 442
#     4  10  26  44  76 106 142 188 238 292 368 434
#     4  10  25  43  65 102 140 181 236 293 352 422
#     4  10  23  44  67  95 139 189 235 299 351 420
#     4   9  21  42  61  94 130 183 237 284 350 414
#
# _framework density 23.956223999999999
#
# number of rings (size 3 to 8) (size 9 to 14) (size 15 to 20)
#    0.545    1.455    0.000    0.000   14.000    4.364 
#   13.091    0.000    0.000    0.000    0.000    0.000 
#    0.000    0.000    0.000    0.000    0.000    0.000 
#
# Total GULP energy -61350.206916 kJ/mol
# GULP energy per Si atom -5577.291538 kJ/mol
# Density = 2.390170 g / cm^3
# Si number density = 23.956224 Si / 1000 Ang^3
#
#
#
# Elastic Constant Matrix: (Units=GPa)
#
#
# Indices 1 2 3 4 5 6 
#
# 1 79.2697 41.8540 -1.2977 0.0000 -3.7954 0.0000
# 2 41.8540 44.1434 9.3457 0.0000 -12.4172 0.0000
# 3 -1.2977 9.3457 34.3938 0.0000 7.7149 0.0000
# 4 0.0000 0.0000 0.0000 15.7718 0.0000 -20.9385
# 5 -3.7954 -12.4172 7.7149 0.0000 28.4867 0.0000
# 6 0.0000 0.0000 0.0000 -20.9385 0.0000 -71.4779
#
#
#
# Elastic Compliance Matrix: (Units=1/GPa)
#
#
# Indices 1 2 3 4 5 6 
#
# 1 0.032680 -0.039050 0.015635 0.000000 -0.016902 0.000000
# 2 -0.039050 0.076307 -0.030346 0.000000 0.036278 0.000000
# 3 0.015635 -0.030346 0.043024 0.000000 -0.022796 0.000000
# 4 0.000000 0.000000 0.000000 0.045651 0.000000 -0.013373
# 5 -0.016902 0.036278 -0.022796 0.000000 0.054839 0.000000
# 6 0.000000 0.000000 0.000000 -0.013373 0.000000 -0.010073
#
#
# Mechanical properties :
#
#
# Convention : Reuss Voigt Hill
#
# Bulk Modulus (GPa) = 22.47641 28.62343 25.54992
# Shear Modulus (GPa) = 13.70693 1.74979 7.72836
#
# Velocity S-wave (km/s) = 2.39459 0.85557 1.79806
# Velocity P-wave (km/s) = 4.12893 3.59863 3.87287
#
# Compressibility (1/GPa) = 0.04449109
#
# Stress axis : x y z
#
# Youngs Moduli (GPa) = 30.59982 13.10491 23.24274
#
# Poissons Ratio (x) = 0.51174 -0.36341
# Poissons Ratio (y) = 1.19491 0.70532
# Poissons Ratio (z) = -0.47844 0.39768
#
# Static dielectric constant tensor:
#      x y z
#    x 1.970570 0.000000 -0.047190 
#    y 0.000000 1.974060 0.000000 
#    z -0.047190 0.000000 1.952670 
# 
# From -- ./inp_files/71528.got.cif
#   From: 2010.05.17/outbox.cif.g08.bks.cpg/sg5_36_cif.got.tgz:71528.got - 2010.06.03 18:56:24.
