data_PCOD9127633
_publ_section_title
;
Structure prediction by ZEFSAII (Michael W. Deem and Ramdas Pophale) SiO2 
 PCOD9127633
Probable space group: C 2
;
_chemical_formula_sum "Si O2"
_cell_formula_units_Z 28
_cell_length_a 18.180392
_cell_length_b 6.013732
_cell_length_c 14.475298
_cell_angle_alpha 90.000000
_cell_angle_beta 125.064200
_cell_angle_gamma 90.000000
_cell_volume 1295.383017
_symmetry_space_group_name_H-M "C 2"
_symmetry_group_IT_number 5
_symmetry_cell_setting 'monoclinic'
loop_
_space_group_symop_operation_xyz
x,y,z
-x,y,-z
1/2+x,1/2+y,z
1/2-x,1/2+y,-z
loop_
_atom_site_type_symbol
_atom_site_label
_atom_site_fract_x
_atom_site_fract_y
_atom_site_fract_z
Si Si1 0.882501 0.350910 0.278860
Si Si2 0.881224 0.952303 0.164514
Si Si3 0.766786 0.233879 0.839005
Si Si4 0.097973 0.876260 0.028866
Si Si5 0.513959 0.218258 0.405258
Si Si6 0.206535 0.748326 0.452061
Si Si7 0.770995 0.630416 0.736361
O O1 0.808075 0.543303 0.218918
O O2 0.832846 0.195435 0.318302
O O3 0.975273 0.466104 0.372010
O O4 0.889648 0.215633 0.188558
O O5 0.778619 0.894037 0.118172
O O6 0.951044 0.854008 0.289337
O O7 0.901624 0.848172 0.080648
O O8 0.773510 0.365034 0.747811
O O9 0.860446 0.122913 0.929361
O O10 0.164866 0.719019 0.135032
O O11 0.000000 0.856005 0.000000
O O12 0.500000 0.294947 0.500000
O O13 0.615302 0.236695 0.444766
O O14 0.254138 0.502245 0.504636
O O15 0.193858 0.731341 0.332452
#
# Coordination Sequence:
#
# PCOD9127633 Si02
#       7
#     4   4   4   4   4   4   4
#     4   9  21  41  67  98 134 177 237 290 347 418
#     4  10  23  40  68 100 137 183 238 290 353 427
#     4   9  22  38  66  95 134 180 229 285 355 414
#     4  11  24  39  66 102 142 180 234 289 362 424
#     4  11  25  44  70 100 140 183 241 292 355 425
#     4  12  30  47  76 108 147 192 240 297 368 429
#     4  10  23  45  70  97 144 185 234 294 359 431
#
# _framework density 21.615227999999998
#
# number of rings (size 3 to 8) (size 9 to 14) (size 15 to 20)
#    0.000    1.714    0.000    1.714   18.000    3.429 
#    0.000    0.000    0.000    0.000    0.000    0.000 
#    0.000    0.000    0.000    0.000    0.000    0.000 
#
# Total GULP energy -78043.324965 kJ/mol
# GULP energy per Si atom -5574.523212 kJ/mol
# Density = 2.156603 g / cm^3
# Si number density = 21.615228 Si / 1000 Ang^3
#
#
#
# Elastic Constant Matrix: (Units=GPa)
#
#
# Indices 1 2 3 4 5 6 
#
# 1 132.5208 30.4220 24.9814 0.0000 5.5624 0.0000
# 2 30.4220 95.4677 41.7172 0.0000 7.8731 0.0000
# 3 24.9814 41.7172 84.4671 0.0000 -20.1029 0.0000
# 4 0.0000 0.0000 0.0000 41.8774 0.0000 7.0703
# 5 5.5624 7.8731 -20.1029 0.0000 40.3079 0.0000
# 6 0.0000 0.0000 0.0000 7.0703 0.0000 22.2564
#
#
#
# Elastic Compliance Matrix: (Units=1/GPa)
#
#
# Indices 1 2 3 4 5 6 
#
# 1 0.008396 -0.001568 -0.002169 0.000000 -0.001934 0.000000
# 2 -0.001568 0.015457 -0.008893 0.000000 -0.007238 0.000000
# 3 -0.002169 -0.008893 0.019695 0.000000 0.011859 0.000000
# 4 0.000000 0.000000 0.000000 0.025233 0.000000 -0.008016
# 5 -0.001934 -0.007238 0.011859 0.000000 0.032404 0.000000
# 6 0.000000 0.000000 0.000000 -0.008016 0.000000 0.047477
#
#
# Mechanical properties :
#
#
# Convention : Reuss Voigt Hill
#
# Bulk Modulus (GPa) = 54.68068 56.29964 55.49016
# Shear Modulus (GPa) = 27.77488 35.24401 31.50944
#
# Velocity S-wave (km/s) = 3.58853 4.04235 3.82218
# Velocity P-wave (km/s) = 6.52091 6.92028 6.72356
#
# Compressibility (1/GPa) = 0.01828800
#
# Stress axis : x y z
#
# Youngs Moduli (GPa) = 119.10381 64.69359 50.77452
#
# Poissons Ratio (x) = 0.10146 0.11012
# Poissons Ratio (y) = 0.18679 0.45154
# Poissons Ratio (z) = 0.25832 0.57532
#
# Static dielectric constant tensor:
#      x y z
#    x 1.762760 0.000000 -0.019260 
#    y 0.000000 1.970350 0.000000 
#    z -0.019260 0.000000 1.819320 
# 
# From -- ./inp_files/55498.got.cif
#   From: 2010.05.17/outbox.cif.g08.bks.cpg/sg5_28_cif.got.tgz:55498.got - 2010.06.03 18:56:24.
