data_PCOD9127729
_publ_section_title
;
Structure prediction by ZEFSAII (Michael W. Deem and Ramdas Pophale) SiO2 
 PCOD9127729
Probable space group: C 2
;
_chemical_formula_sum "Si O2"
_cell_formula_units_Z 26
_cell_length_a 26.495041
_cell_length_b 5.818128
_cell_length_c 13.573123
_cell_angle_alpha 90.000000
_cell_angle_beta 30.156337
_cell_angle_gamma 90.000000
_cell_volume 1051.099221
_symmetry_space_group_name_H-M "C 2"
_symmetry_group_IT_number 5
_symmetry_cell_setting 'monoclinic'
loop_
_space_group_symop_operation_xyz
x,y,z
-x,y,-z
1/2+x,1/2+y,z
1/2-x,1/2+y,-z
loop_
_atom_site_type_symbol
_atom_site_label
_atom_site_fract_x
_atom_site_fract_y
_atom_site_fract_z
Si Si1 0.052476 0.763790 0.256703
Si Si2 0.793182 0.311410 0.647394
Si Si3 0.500000 0.188290 0.000000
Si Si4 0.672434 0.923498 0.912642
Si Si5 0.307991 0.970838 0.415439
Si Si6 0.072847 0.018235 0.039184
Si Si7 0.651508 0.146117 0.297203
O O1 0.114590 0.719147 0.251856
O O2 0.938227 0.725687 0.480182
O O3 0.051459 0.992239 0.191913
O O4 0.108870 0.597040 0.085648
O O5 0.846979 0.409561 0.460845
O O6 0.835381 0.383892 0.683852
O O7 0.759021 0.048362 0.702803
O O8 0.684600 0.431661 0.824343
O O9 0.401298 0.042177 0.190415
O O10 0.505140 0.363604 0.084715
O O11 0.741726 0.764414 0.864910
O O12 0.587549 0.785188 0.998404
O O13 0.256397 0.717907 0.474686
#
# Coordination Sequence:
#
# PCOD9127729 Si02
#       7
#     4   4   2   4   4   4   4
#     4  10  23  43  67 111 141 192 258 308 380 471
#     4  10  23  47  69 107 146 199 249 315 383 454
#     4  12  26  52  78 112 150 210 252 320 392 456
#     4  10  24  42  73  98 154 195 245 322 381 451
#     4  12  29  51  79 112 156 203 260 322 385 464
#     4  10  23  46  72 108 148 197 259 307 384 458
#     4  10  23  41  71 103 148 191 252 312 386 457
#
# _framework density 24.736008000000002
#
# number of rings (size 3 to 8) (size 9 to 14) (size 15 to 20)
#    0.000    1.538    1.538    0.923   10.769    1.846 
#    8.308    4.615    0.000    0.000    0.000    0.000 
#    0.000    0.000    0.000    0.000    0.000    0.000 
#
# Total GULP energy -72420.371507 kJ/mol
# GULP energy per Si atom -5570.797808 kJ/mol
# Density = 2.467971 g / cm^3
# Si number density = 24.736008 Si / 1000 Ang^3
#
#
#
# Elastic Constant Matrix: (Units=GPa)
#
#
# Indices 1 2 3 4 5 6 
#
# 1 115.1200 55.5721 33.5137 0.0001 24.0925 0.0000
# 2 55.5721 113.6112 59.5532 -0.0015 19.6130 -0.0001
# 3 33.5137 59.5532 107.0001 -0.0008 4.0544 0.0001
# 4 0.0001 -0.0015 -0.0008 26.8398 -0.0002 -4.8574
# 5 24.0925 19.6130 4.0544 -0.0002 34.8842 0.0001
# 6 0.0000 -0.0001 0.0001 -4.8574 0.0001 14.6777
#
#
#
# Elastic Compliance Matrix: (Units=1/GPa)
#
#
# Indices 1 2 3 4 5 6 
#
# 1 0.012413 -0.004412 -0.001207 0.000000 -0.005953 0.000000
# 2 -0.004412 0.015497 -0.007060 0.000001 -0.004846 0.000000
# 3 -0.001207 -0.007060 0.013531 0.000000 0.003230 0.000000
# 4 0.000000 0.000001 0.000000 0.039632 0.000000 0.013116
# 5 -0.005953 -0.004846 0.003230 0.000000 0.035126 0.000000
# 6 0.000000 0.000000 0.000000 0.013116 0.000000 0.072471
#
#
# Mechanical properties :
#
#
# Convention : Reuss Voigt Hill
#
# Bulk Modulus (GPa) = 62.17312 70.33437 66.25374
# Shear Modulus (GPa) = 22.79060 27.75316 25.27188
#
# Velocity S-wave (km/s) = 3.03867 3.35322 3.19982
# Velocity P-wave (km/s) = 6.12377 6.59453 6.36351
#
# Compressibility (1/GPa) = 0.01608412
#
# Stress axis : x y z
#
# Youngs Moduli (GPa) = 80.55837 64.52876 73.90572
#
# Poissons Ratio (x) = 0.28467 0.08921
# Poissons Ratio (y) = 0.35539 0.52176
# Poissons Ratio (z) = 0.09724 0.45556
#
# Static dielectric constant tensor:
#      x y z
#    x 2.040670 0.000000 0.019040 
#    y 0.000000 2.240380 0.000000 
#    z 0.019040 0.000000 1.918530 
# 
# From -- ./inp_files/58299.got.cif
#   From: 2010.05.17/outbox.cif.g08.bks.cpg/sg5_30_cif.got.tgz:58299.got - 2010.06.03 18:56:24.
