data_PCOD9127198
_publ_section_title
;
Structure prediction by ZEFSAII (Michael W. Deem and Ramdas Pophale) SiO2 
 PCOD9127198
Probable space group: C 2
;
_chemical_formula_sum "Si O2"
_cell_formula_units_Z 22
_cell_length_a 11.907534
_cell_length_b 8.973088
_cell_length_c 8.507475
_cell_angle_alpha 90.000000
_cell_angle_beta 84.260242
_cell_angle_gamma 90.000000
_cell_volume 904.443805
_symmetry_space_group_name_H-M "C 2"
_symmetry_group_IT_number 5
_symmetry_cell_setting 'monoclinic'
loop_
_space_group_symop_operation_xyz
x,y,z
-x,y,-z
1/2+x,1/2+y,z
1/2-x,1/2+y,-z
loop_
_atom_site_type_symbol
_atom_site_label
_atom_site_fract_x
_atom_site_fract_y
_atom_site_fract_z
Si Si1 0.507433 0.883880 0.242310
Si Si2 0.746628 0.007468 0.792059
Si Si3 0.684538 0.346015 0.519685
Si Si4 0.710198 0.779829 0.015746
Si Si5 0.852375 0.142265 0.311023
Si Si6 0.000000 0.607844 0.500000
O O1 0.597909 0.861981 0.094102
O O2 0.476978 0.714994 0.298913
O O3 0.384476 0.959316 0.223455
O O4 0.555381 0.995381 0.367190
O O5 0.749976 0.176208 0.848368
O O6 0.820353 0.951448 0.635761
O O7 0.788132 0.908854 0.934728
O O8 0.789229 0.241681 0.453578
O O9 0.672049 0.470370 0.654232
O O10 0.590091 0.221538 0.556257
O O11 0.688617 0.683274 0.859972
#
# Coordination Sequence:
#
# PCOD9127198 Si02
#       6
#     4   4   4   4   4   2
#     4  10  24  44  67  98 136 182 229 285 342 408
#     4  10  23  43  67 100 135 178 229 280 343 416
#     4  10  23  41  65 100 133 172 230 273 347 412
#     4  10  23  42  73  97 133 182 222 283 350 401
#     4  10  22  44  68  97 136 175 226 282 341 416
#     4  12  26  40  66 102 134 182 226 284 338 414
#
# _framework density 24.324342000000001
#
# number of rings (size 3 to 8) (size 9 to 14) (size 15 to 20)
#    0.000    2.182    0.000    4.364   10.182    2.909 
#    0.000    0.000    0.000    0.000    0.000    0.000 
#    0.000    0.000    0.000    0.000    0.000    0.000 
#
# Total GULP energy -61328.180894 kJ/mol
# GULP energy per Si atom -5575.289172 kJ/mol
# Density = 2.426898 g / cm^3
# Si number density = 24.324342 Si / 1000 Ang^3
#
#
#
# Elastic Constant Matrix: (Units=GPa)
#
#
# Indices 1 2 3 4 5 6 
#
# 1 29.2579 12.3618 11.4087 0.0000 -1.6637 0.0000
# 2 12.3618 145.6886 52.7524 0.0000 8.3753 0.0000
# 3 11.4087 52.7524 94.9783 0.0000 -16.2069 0.0000
# 4 0.0000 0.0000 0.0000 72.0017 0.0000 15.5007
# 5 -1.6637 8.3753 -16.2069 0.0000 25.8127 0.0000
# 6 0.0000 0.0000 0.0000 15.5007 0.0000 22.7657
#
#
#
# Elastic Compliance Matrix: (Units=1/GPa)
#
#
# Indices 1 2 3 4 5 6 
#
# 1 0.036288 -0.002042 -0.003038 0.000000 0.001094 0.000000
# 2 -0.002042 0.009797 -0.006452 0.000000 -0.007361 0.000000
# 3 -0.003038 -0.006452 0.016577 0.000000 0.012306 0.000000
# 4 0.000000 0.000000 0.000000 0.016274 0.000000 -0.011081
# 5 0.001094 -0.007361 0.012306 0.000000 0.048926 0.000000
# 6 0.000000 0.000000 0.000000 -0.011081 0.000000 0.051470
#
#
# Mechanical properties :
#
#
# Convention : Reuss Voigt Hill
#
# Bulk Modulus (GPa) = 25.25386 46.99673 36.12529
# Shear Modulus (GPa) = 23.19154 37.00949 30.10052
#
# Velocity S-wave (km/s) = 3.09111 3.90487 3.52158
# Velocity P-wave (km/s) = 4.81089 6.30028 5.60527
#
# Compressibility (1/GPa) = 0.03959791
#
# Stress axis : x y z
#
# Youngs Moduli (GPa) = 27.55701 102.07615 60.32436
#
# Poissons Ratio (x) = 0.20843 0.18327
# Poissons Ratio (y) = 0.05627 0.38921
# Poissons Ratio (z) = 0.08372 0.65860
#
# Static dielectric constant tensor:
#      x y z
#    x 2.061970 0.000000 0.073270 
#    y 0.000000 1.963370 0.000000 
#    z 0.073270 0.000000 2.009450 
# 
# From -- ./inp_files/22658.got.cif
#   From: 2010.05.17/outbox.cif.g08.bks.cpg/sg5_12_cif.got.tgz:22658.got - 2010.06.03 18:56:24.
