data_PCOD9127160
_publ_section_title
;
Structure prediction by ZEFSAII (Michael W. Deem and Ramdas Pophale) SiO2 
 PCOD9127160
Probable space group: C 2
;
_chemical_formula_sum "Si O2"
_cell_formula_units_Z 30
_cell_length_a 26.645356
_cell_length_b 9.236002
_cell_length_c 5.021086
_cell_angle_alpha 90.000000
_cell_angle_beta 68.808351
_cell_angle_gamma 90.000000
_cell_volume 1152.111532
_symmetry_space_group_name_H-M "C 2"
_symmetry_group_IT_number 5
_symmetry_cell_setting 'monoclinic'
loop_
_space_group_symop_operation_xyz
x,y,z
-x,y,-z
1/2+x,1/2+y,z
1/2-x,1/2+y,-z
loop_
_atom_site_type_symbol
_atom_site_label
_atom_site_fract_x
_atom_site_fract_y
_atom_site_fract_z
Si Si1 0.210901 0.748120 0.081206
Si Si2 0.000000 0.117204 0.500000
Si Si3 0.315109 0.740296 0.573445
Si Si4 0.659381 0.995915 0.822764
Si Si5 0.445821 0.387743 0.278071
Si Si6 0.825861 0.924242 0.336188
Si Si7 0.084355 0.311512 0.308434
Si Si8 0.446449 0.077458 0.284144
O O1 0.274134 0.736610 0.900709
O O2 0.185525 0.601594 0.994741
O O3 0.189725 0.874555 0.927562
O O4 0.196447 0.803652 0.405363
O O5 0.962356 0.221394 0.744407
O O6 0.956547 0.016897 0.453241
O O7 0.305388 0.898345 0.449399
O O8 0.306592 0.587809 0.437199
O O9 0.377136 0.739158 0.545737
O O10 0.609894 0.076637 0.771087
O O11 0.627377 0.867910 0.023373
O O12 0.390546 0.414884 0.233334
O O13 0.444927 0.233476 0.426419
O O14 0.500000 0.384361 0.000000
O O15 0.057509 0.447807 0.503887
O O16 0.500000 0.065257 0.000000
#
# Coordination Sequence:
#
# PCOD9127160 Si02
#       8
#     4   2   4   4   4   4   4   4
#     4  12  29  49  81 110 156 205 263 321 390 464
#     4  12  26  42  68 106 146 204 242 326 382 470
#     4  11  28  46  74 112 153 200 257 324 393 465
#     4  11  25  46  74 102 148 196 259 311 389 461
#     4  11  26  43  72 104 148 195 253 308 390 455
#     4  12  28  52  77 116 156 201 262 326 388 467
#     4  11  25  44  71 104 146 196 253 315 386 466
#     4  10  22  44  67 102 139 190 250 310 374 462
#
# _framework density 26.039142999999999
#
# number of rings (size 3 to 8) (size 9 to 14) (size 15 to 20)
#    0.000    0.800    2.667    2.400   11.200    3.200 
#    0.000    0.000    0.000    0.000    0.000    0.000 
#    0.000    0.000    0.000    0.000    0.000    0.000 
#
# Total GULP energy -83931.090303 kJ/mol
# GULP energy per Si atom -5595.406020 kJ/mol
# Density = 2.597988 g / cm^3
# Si number density = 26.039143 Si / 1000 Ang^3
#
#
#
# Elastic Constant Matrix: (Units=GPa)
#
#
# Indices 1 2 3 4 5 6 
#
# 1 110.4228 40.7434 9.8346 0.0000 -14.9908 0.0000
# 2 40.7434 98.6794 1.3351 0.0000 -6.7064 0.0000
# 3 9.8346 1.3351 60.2529 0.0000 -14.3924 0.0000
# 4 0.0000 0.0000 0.0000 30.0391 0.0000 -11.7320
# 5 -14.9908 -6.7064 -14.3924 0.0000 38.5026 0.0000
# 6 0.0000 0.0000 0.0000 -11.7320 0.0000 79.9822
#
#
#
# Elastic Compliance Matrix: (Units=1/GPa)
#
#
# Indices 1 2 3 4 5 6 
#
# 1 0.011202 -0.004392 -0.000957 0.000000 0.003238 0.000000
# 2 -0.004392 0.011980 0.000594 0.000000 0.000599 0.000000
# 3 -0.000957 0.000594 0.018310 0.000000 0.006575 0.000000
# 4 0.000000 0.000000 0.000000 0.035313 0.000000 0.005180
# 5 0.003238 0.000599 0.006575 0.000000 0.029795 0.000000
# 6 0.000000 0.000000 0.000000 0.005180 0.000000 0.013263
#
#
# Mechanical properties :
#
#
# Convention : Reuss Voigt Hill
#
# Bulk Modulus (GPa) = 31.26771 41.46461 36.36616
# Shear Modulus (GPa) = 35.70582 44.20091 39.95336
#
# Velocity S-wave (km/s) = 3.70704 4.12452 3.92134
# Velocity P-wave (km/s) = 5.50971 6.21617 5.87357
#
# Compressibility (1/GPa) = 0.03198187
#
# Stress axis : x y z
#
# Youngs Moduli (GPa) = 89.27345 83.47341 54.61374
#
# Poissons Ratio (x) = 0.36661 0.05229
# Poissons Ratio (y) = 0.39208 -0.03247
# Poissons Ratio (z) = 0.08548 -0.04962
#
# Static dielectric constant tensor:
#      x y z
#    x 2.065690 0.000000 0.030900 
#    y 0.000000 2.110680 0.000000 
#    z 0.030900 0.000000 2.006640 
# 
# From -- ./inp_files/11216.got.cif
#   From: 2010.05.17/outbox.cif.g08.bks.cpg/sg5_6_cif.got.tgz:11216.got - 2010.06.03 18:56:24.
