data_PCOD9127420
_publ_section_title
;
Structure prediction by ZEFSAII (Michael W. Deem and Ramdas Pophale) SiO2 
 PCOD9127420
Probable space group: C 2
;
_chemical_formula_sum "Si O2"
_cell_formula_units_Z 14
_cell_length_a 8.598529
_cell_length_b 8.554322
_cell_length_c 7.554024
_cell_angle_alpha 90.000000
_cell_angle_beta 89.696025
_cell_angle_gamma 90.000000
_cell_volume 555.625287
_symmetry_space_group_name_H-M "C 2"
_symmetry_group_IT_number 5
_symmetry_cell_setting 'monoclinic'
loop_
_space_group_symop_operation_xyz
x,y,z
-x,y,-z
1/2+x,1/2+y,z
1/2-x,1/2+y,-z
loop_
_atom_site_type_symbol
_atom_site_label
_atom_site_fract_x
_atom_site_fract_y
_atom_site_fract_z
Si Si1 0.331604 0.475690 0.987227
Si Si2 0.664278 0.121052 0.298558
Si Si3 0.842861 0.986067 0.604835
Si Si4 0.000000 0.457988 0.000000
O O1 0.334097 0.562912 0.798586
O O2 0.500000 0.395938 0.000000
O O3 0.304809 0.577115 0.162902
O O4 0.169088 0.379932 0.986084
O O5 0.652724 0.301221 0.351240
O O6 0.701036 0.027004 0.476721
O O7 0.521942 0.060767 0.178445
O O8 0.000000 0.029394 0.500000
#
# Coordination Sequence:
#
# PCOD9127420 Si02
#       4
#     4   4   4   2
#     4  10  22  46  70 110 152 194 242 315 370 443
#     4  10  26  45  75 109 151 195 246 311 375 443
#     4  12  25  46  78 111 151 197 251 313 379 444
#     4   8  22  46  70 108 142 202 242 298 374 450
#
# _framework density 25.196840000000002
#
# number of rings (size 3 to 8) (size 9 to 14) (size 15 to 20)
#    1.714    0.000    2.857    0.000    6.000    2.286 
#    7.714    0.000    0.000    0.000    0.000    0.000 
#    0.000    0.000    0.000    0.000    0.000    0.000 
#
# Total GULP energy -38998.286671 kJ/mol
# GULP energy per Si atom -5571.183810 kJ/mol
# Density = 2.513949 g / cm^3
# Si number density = 25.196840 Si / 1000 Ang^3
#
#
#
# Elastic Constant Matrix: (Units=GPa)
#
#
# Indices 1 2 3 4 5 6 
#
# 1 212.3168 13.3854 36.8176 0.0000 5.3556 0.0000
# 2 13.3854 51.0245 19.8569 0.0000 18.4731 0.0000
# 3 36.8176 19.8569 215.5227 0.0000 22.9644 0.0000
# 4 0.0000 0.0000 0.0000 47.5179 0.0000 5.5507
# 5 5.3556 18.4731 22.9644 0.0000 67.7077 0.0000
# 6 0.0000 0.0000 0.0000 5.5507 0.0000 -2.0707
#
#
#
# Elastic Compliance Matrix: (Units=1/GPa)
#
#
# Indices 1 2 3 4 5 6 
#
# 1 0.004903 -0.001048 -0.000758 0.000000 0.000155 0.000000
# 2 -0.001048 0.022399 -0.001289 0.000000 -0.005591 0.000000
# 3 -0.000758 -0.001289 0.005026 0.000000 -0.001293 0.000000
# 4 0.000000 0.000000 0.000000 0.016026 0.000000 0.042960
# 5 0.000155 -0.005591 -0.001293 0.000000 0.016721 0.000000
# 6 0.000000 0.000000 0.000000 0.042960 0.000000 -0.367766
#
#
# Mechanical properties :
#
#
# Convention : Reuss Voigt Hill
#
# Bulk Modulus (GPa) = 38.25557 68.77599 53.51578
# Shear Modulus (GPa) = -17.37387 49.88457 16.25535
#
# Velocity S-wave (km/s) = -2.62873 4.45432 2.54271
# Velocity P-wave (km/s) = 2.44990 7.33548 5.46861
#
# Compressibility (1/GPa) = 0.02613998
#
# Stress axis : x y z
#
# Youngs Moduli (GPa) = 203.93751 44.64458 198.97163
#
# Poissons Ratio (x) = 0.04677 0.15075
# Poissons Ratio (y) = 0.21364 0.25647
# Poissons Ratio (z) = 0.15451 0.05755
#
# Static dielectric constant tensor:
#      x y z
#    x 2.056070 0.000000 -0.021930 
#    y 0.000000 1.912560 0.000000 
#    z -0.021930 0.000000 1.991890 
# 
# From -- ./inp_files/13552.got.cif
#   From: 2010.05.17/outbox.cif.g08.bks.cpg/sg5_7_cif.got.tgz:13552.got - 2010.06.03 18:56:24.
