data_PCOD9127325
_publ_section_title
;
Structure prediction by ZEFSAII (Michael W. Deem and Ramdas Pophale) SiO2 
 PCOD9127325
Probable space group: C 2
;
_chemical_formula_sum "Si O2"
_cell_formula_units_Z 24
_cell_length_a 17.481159
_cell_length_b 7.949301
_cell_length_c 13.730467
_cell_angle_alpha 90.000000
_cell_angle_beta 33.896545
_cell_angle_gamma 90.000000
_cell_volume 1064.097123
_symmetry_space_group_name_H-M "C 2"
_symmetry_group_IT_number 5
_symmetry_cell_setting 'monoclinic'
loop_
_space_group_symop_operation_xyz
x,y,z
-x,y,-z
1/2+x,1/2+y,z
1/2-x,1/2+y,-z
loop_
_atom_site_type_symbol
_atom_site_label
_atom_site_fract_x
_atom_site_fract_y
_atom_site_fract_z
Si Si1 0.021442 0.868140 0.576969
Si Si2 0.839384 0.001757 0.184706
Si Si3 0.850744 0.222610 0.564191
Si Si4 0.052039 0.416979 0.233264
Si Si5 0.255467 0.213920 0.895296
Si Si6 0.698787 0.135150 0.525545
O O1 0.116026 0.781293 0.556954
O O2 0.000000 0.761438 0.500000
O O3 0.865201 0.868079 0.779190
O O4 0.098006 0.037454 0.464442
O O5 0.753394 0.829179 0.260087
O O6 0.792488 0.145767 0.158906
O O7 0.798917 0.058949 0.337003
O O8 0.000000 0.972588 0.000000
O O9 0.776468 0.194258 0.538461
O O10 0.983956 0.335606 0.400915
O O11 0.160114 0.560996 0.146074
O O12 0.921762 0.504336 0.318943
O O13 0.124697 0.274596 0.093632
#
# Coordination Sequence:
#
# PCOD9127325 Si02
#       6
#     4   4   4   4   4   4
#     4  11  22  40  67  98 133 169 222 274 330 390
#     4  11  24  42  67  92 136 173 224 275 328 396
#     4  11  24  41  67  98 131 179 219 270 336 398
#     4  10  23  39  69  91 133 168 215 273 332 395
#     4  11  23  43  66 100 128 173 221 276 331 395
#     4  10  22  45  68  95 133 179 218 272 340 398
#
# _framework density 22.554331000000001
#
# number of rings (size 3 to 8) (size 9 to 14) (size 15 to 20)
#    0.000    1.333    1.667    4.000    2.333    2.667 
#    3.000    0.833    0.000    0.000    0.000    0.000 
#    0.000    0.000    0.000    0.000    0.000    0.000 
#
# Total GULP energy -67047.230339 kJ/mol
# GULP energy per Si atom -5587.269195 kJ/mol
# Density = 2.250300 g / cm^3
# Si number density = 22.554331 Si / 1000 Ang^3
#
#
#
# Elastic Constant Matrix: (Units=GPa)
#
#
# Indices 1 2 3 4 5 6 
#
# 1 114.7486 18.9839 35.9167 0.0000 -12.6471 0.0000
# 2 18.9839 94.0690 53.2184 0.0000 -16.4707 0.0000
# 3 35.9167 53.2184 173.6074 0.0000 -23.5406 0.0000
# 4 0.0000 0.0000 0.0000 54.0647 0.0000 -5.5540
# 5 -12.6471 -16.4707 -23.5406 0.0000 22.7614 0.0000
# 6 0.0000 0.0000 0.0000 -5.5540 0.0000 22.6484
#
#
#
# Elastic Compliance Matrix: (Units=1/GPa)
#
#
# Indices 1 2 3 4 5 6 
#
# 1 0.009618 -0.000563 -0.001335 0.000000 0.003556 0.000000
# 2 -0.000563 0.013661 -0.003226 0.000000 0.006237 0.000000
# 3 -0.001335 -0.003226 0.007686 0.000000 0.004873 0.000000
# 4 0.000000 0.000000 0.000000 0.018974 0.000000 0.004653
# 5 0.003556 0.006237 0.004873 0.000000 0.055463 0.000000
# 6 0.000000 0.000000 0.000000 0.004653 0.000000 0.045294
#
#
# Mechanical properties :
#
#
# Convention : Reuss Voigt Hill
#
# Bulk Modulus (GPa) = 48.26911 66.51812 57.39361
# Shear Modulus (GPa) = 29.78879 38.18197 33.98538
#
# Velocity S-wave (km/s) = 3.63816 4.11894 3.88599
# Velocity P-wave (km/s) = 6.25268 7.22338 6.75549
#
# Compressibility (1/GPa) = 0.02071719
#
# Stress axis : x y z
#
# Youngs Moduli (GPa) = 103.97596 73.20166 130.10904
#
# Poissons Ratio (x) = 0.04122 0.17369
# Poissons Ratio (y) = 0.05855 0.41967
# Poissons Ratio (z) = 0.13881 0.23611
#
# Static dielectric constant tensor:
#      x y z
#    x 1.828630 0.000000 0.006100 
#    y 0.000000 1.916010 0.000000 
#    z 0.006100 0.000000 1.840260 
# 
# From -- ./inp_files/55700.got.cif
#   From: 2010.05.17/outbox.cif.g08.bks.cpg/sg5_28_cif.got.tgz:55700.got - 2010.06.03 18:56:24.
