data_PCOD9127423
_publ_section_title
;
Structure prediction by ZEFSAII (Michael W. Deem and Ramdas Pophale) SiO2 
 PCOD9127423
Probable space group: C 2
;
_chemical_formula_sum "Si O2"
_cell_formula_units_Z 30
_cell_length_a 11.031280
_cell_length_b 11.003975
_cell_length_c 13.284248
_cell_angle_alpha 90.000000
_cell_angle_beta 126.792586
_cell_angle_gamma 90.000000
_cell_volume 1291.342239
_symmetry_space_group_name_H-M "C 2"
_symmetry_group_IT_number 5
_symmetry_cell_setting 'monoclinic'
loop_
_space_group_symop_operation_xyz
x,y,z
-x,y,-z
1/2+x,1/2+y,z
1/2-x,1/2+y,-z
loop_
_atom_site_type_symbol
_atom_site_label
_atom_site_fract_x
_atom_site_fract_y
_atom_site_fract_z
Si Si1 0.452766 0.111160 0.848101
Si Si2 0.277765 0.343114 0.750931
Si Si3 0.765088 0.391541 0.832900
Si Si4 0.341147 0.988637 0.605633
Si Si5 0.072265 0.243078 0.241487
Si Si6 0.222165 0.800517 0.032310
Si Si7 0.000000 0.437920 0.500000
Si Si8 0.060127 0.987595 0.347120
O O1 0.312539 0.202752 0.783705
O O2 0.395772 0.989999 0.875058
O O3 0.446218 0.069911 0.729297
O O4 0.598621 0.190568 0.955197
O O5 0.308687 0.382808 0.882526
O O6 0.379510 0.393379 0.709888
O O7 0.110112 0.363756 0.627510
O O8 0.826316 0.269553 0.808104
O O9 0.609295 0.445371 0.711812
O O10 0.728900 0.374627 0.932069
O O11 0.372009 0.851442 0.657729
O O12 0.397895 0.015237 0.521997
O O13 0.162259 0.997096 0.498323
O O14 0.079591 0.115127 0.299741
O O15 0.894433 0.257085 0.129619
#
# Coordination Sequence:
#
# PCOD9127423 Si02
#       8
#     4   4   4   4   4   4   2   4
#     4  11  26  46  74 110 148 203 247 316 383 447
#     4  11  24  46  72 109 143 200 251 313 383 450
#     4  11  27  50  74 112 156 200 255 316 384 457
#     4  10  25  46  76 110 151 197 260 320 379 459
#     4  11  26  48  72 112 147 201 258 310 384 456
#     4  12  25  48  73 110 154 200 258 313 379 469
#     4  10  22  46  70  98 144 192 248 310 372 440
#     4  11  26  48  76 111 154 200 254 322 383 457
#
# _framework density 23.231639999999999
#
# number of rings (size 3 to 8) (size 9 to 14) (size 15 to 20)
#    0.000    1.067    2.667    1.600    3.733   11.733 
#    7.200    0.000    0.000    0.000    0.000    0.000 
#    0.000    0.000    0.000    0.000    0.000    0.000 
#
# Total GULP energy -83652.086613 kJ/mol
# GULP energy per Si atom -5576.805774 kJ/mol
# Density = 2.317876 g / cm^3
# Si number density = 23.231640 Si / 1000 Ang^3
#
#
#
# Elastic Constant Matrix: (Units=GPa)
#
#
# Indices 1 2 3 4 5 6 
#
# 1 82.0239 10.1818 50.3255 0.0000 1.5454 0.0000
# 2 10.1818 49.5487 34.7597 0.0000 10.9470 0.0000
# 3 50.3255 34.7597 156.9854 0.0000 25.4376 0.0000
# 4 0.0000 0.0000 0.0000 30.7814 0.0000 5.8644
# 5 1.5454 10.9470 25.4376 0.0000 53.6335 0.0000
# 6 0.0000 0.0000 0.0000 5.8644 0.0000 25.8901
#
#
#
# Elastic Compliance Matrix: (Units=1/GPa)
#
#
# Indices 1 2 3 4 5 6 
#
# 1 0.015383 0.000094 -0.005283 0.000000 0.002043 0.000000
# 2 0.000094 0.024224 -0.004975 0.000000 -0.002588 0.000000
# 3 -0.005283 -0.004975 0.009723 0.000000 -0.003444 0.000000
# 4 0.000000 0.000000 0.000000 0.033952 0.000000 -0.007691
# 5 0.002043 -0.002588 -0.003444 0.000000 0.020748 0.000000
# 6 0.000000 0.000000 0.000000 -0.007691 0.000000 0.040367
#
#
# Mechanical properties :
#
#
# Convention : Reuss Voigt Hill
#
# Bulk Modulus (GPa) = 34.47968 53.23245 43.85606
# Shear Modulus (GPa) = 28.67090 34.94706 31.80898
#
# Velocity S-wave (km/s) = 3.51683 3.88272 3.70430
# Velocity P-wave (km/s) = 5.60042 6.56233 6.10037
#
# Compressibility (1/GPa) = 0.02900259
#
# Stress axis : x y z
#
# Youngs Moduli (GPa) = 65.00704 41.28083 102.84670
#
# Poissons Ratio (x) = -0.00387 0.54337
# Poissons Ratio (y) = -0.00610 0.51161
# Poissons Ratio (z) = 0.34345 0.20535
#
# Static dielectric constant tensor:
#      x y z
#    x 1.995700 0.000000 -0.069520 
#    y 0.000000 1.890640 0.000000 
#    z -0.069520 0.000000 2.002820 
# 
# From -- ./inp_files/52899.got.cif
#   From: 2010.05.17/outbox.cif.g08.bks.cpg/sg5_27_cif.got.tgz:52899.got - 2010.06.03 18:56:24.
