data_PCOD9127967
_publ_section_title
;
Structure prediction by ZEFSAII (Michael W. Deem and Ramdas Pophale) SiO2 
 PCOD9127967
Probable space group: C 2
;
_chemical_formula_sum "Si O2"
_cell_formula_units_Z 20
_cell_length_a 8.709120
_cell_length_b 7.325462
_cell_length_c 18.882232
_cell_angle_alpha 90.000000
_cell_angle_beta 44.236660
_cell_angle_gamma 90.000000
_cell_volume 840.395715
_symmetry_space_group_name_H-M "C 2"
_symmetry_group_IT_number 5
_symmetry_cell_setting 'monoclinic'
loop_
_space_group_symop_operation_xyz
x,y,z
-x,y,-z
1/2+x,1/2+y,z
1/2-x,1/2+y,-z
loop_
_atom_site_type_symbol
_atom_site_label
_atom_site_fract_x
_atom_site_fract_y
_atom_site_fract_z
Si Si1 0.602429 0.863780 0.532920
Si Si2 0.035226 0.282253 0.267206
Si Si3 0.053880 0.778776 0.403117
Si Si4 0.267132 0.581511 0.109062
Si Si5 0.397000 0.996221 0.109496
O O1 0.500000 0.764711 0.500000
O O2 0.541635 0.769829 0.626339
O O3 0.857475 0.871690 0.426420
O O4 0.502929 0.064614 0.575358
O O5 0.805168 0.305872 0.301332
O O6 0.081034 0.548261 0.108893
O O7 0.183636 0.457981 0.201392
O O8 0.000000 0.847733 0.500000
O O9 0.678770 0.611068 0.197437
O O10 0.320506 0.785701 0.120344
O O11 0.500000 0.516146 0.000000
O O12 0.500000 0.054085 0.000000
#
# Coordination Sequence:
#
# PCOD9127967 Si02
#       5
#     4   4   4   4   4
#     4  10  23  44  71 102 153 197 260 328 408 468
#     4  11  26  46  78 109 155 203 273 323 404 491
#     4   9  22  43  64 101 144 197 250 323 396 466
#     4  11  29  49  80 118 161 213 266 333 413 485
#     4  11  29  50  80 116 163 210 267 337 411 484
#
# _framework density 23.798313
#
# number of rings (size 3 to 8) (size 9 to 14) (size 15 to 20)
#    0.000    1.600    0.000    0.600   16.800    8.800 
#    0.000    0.000    0.000    0.000    0.000    0.000 
#    0.000    0.000    0.000    0.000    0.000    0.000 
#
# Total GULP energy -55862.080755 kJ/mol
# GULP energy per Si atom -5586.208075 kJ/mol
# Density = 2.374415 g / cm^3
# Si number density = 23.798313 Si / 1000 Ang^3
#
#
#
# Elastic Constant Matrix: (Units=GPa)
#
#
# Indices 1 2 3 4 5 6 
#
# 1 140.6133 41.9468 77.0200 0.0000 -23.2720 0.0000
# 2 41.9468 137.3362 63.1146 0.0000 -17.7760 0.0000
# 3 77.0200 63.1146 156.6040 0.0000 -33.9570 0.0000
# 4 0.0000 0.0000 0.0000 30.9895 0.0000 -9.9668
# 5 -23.2720 -17.7760 -33.9570 0.0000 60.0377 0.0000
# 6 0.0000 0.0000 0.0000 -9.9668 0.0000 24.3345
#
#
#
# Elastic Compliance Matrix: (Units=1/GPa)
#
#
# Indices 1 2 3 4 5 6 
#
# 1 0.009906 -0.000923 -0.004248 0.000000 0.001164 0.000000
# 2 -0.000923 0.009048 -0.003065 0.000000 0.000588 0.000000
# 3 -0.004248 -0.003065 0.010436 0.000000 0.003349 0.000000
# 4 0.000000 0.000000 0.000000 0.037165 0.000000 0.015222
# 5 0.001164 0.000588 0.003349 0.000000 0.019175 0.000000
# 6 0.000000 0.000000 0.000000 0.015222 0.000000 0.047328
#
#
# Mechanical properties :
#
#
# Convention : Reuss Voigt Hill
#
# Bulk Modulus (GPa) = 77.40731 88.74626 83.07679
# Shear Modulus (GPa) = 32.50206 39.90380 36.20293
#
# Velocity S-wave (km/s) = 3.69959 4.09926 3.90454
# Velocity P-wave (km/s) = 7.13066 7.73157 7.43718
#
# Compressibility (1/GPa) = 0.01291868
#
# Stress axis : x y z
#
# Youngs Moduli (GPa) = 100.94538 110.52159 95.82201
#
# Poissons Ratio (x) = 0.10201 0.40702
# Poissons Ratio (y) = 0.09317 0.29372
# Poissons Ratio (z) = 0.42878 0.33877
#
# Static dielectric constant tensor:
#      x y z
#    x 2.073130 0.000000 0.005460 
#    y 0.000000 1.911010 0.000000 
#    z 0.005460 0.000000 1.918310 
# 
# From -- ./inp_files/59287.got.cif
#   From: 2010.05.17/outbox.cif.g08.bks.cpg/sg5_30_cif.got.tgz:59287.got - 2010.06.03 18:56:24.
