data_PCOD9127985
_publ_section_title
;
Structure prediction by ZEFSAII (Michael W. Deem and Ramdas Pophale) SiO2 
 PCOD9127985
Probable space group: C 2
;
_chemical_formula_sum "Si O2"
_cell_formula_units_Z 24
_cell_length_a 17.239457
_cell_length_b 7.268613
_cell_length_c 20.235020
_cell_angle_alpha 90.000000
_cell_angle_beta 158.061463
_cell_angle_gamma 90.000000
_cell_volume 947.325664
_symmetry_space_group_name_H-M "C 2"
_symmetry_group_IT_number 5
_symmetry_cell_setting 'monoclinic'
loop_
_space_group_symop_operation_xyz
x,y,z
-x,y,-z
1/2+x,1/2+y,z
1/2-x,1/2+y,-z
loop_
_atom_site_type_symbol
_atom_site_label
_atom_site_fract_x
_atom_site_fract_y
_atom_site_fract_z
Si Si1 0.786237 0.752230 0.368245
Si Si2 0.164889 0.511403 0.469822
Si Si3 0.915938 0.389298 0.005188
Si Si4 0.204062 0.260719 0.784463
Si Si5 0.533978 0.262104 0.782365
Si Si6 0.942201 0.878812 0.854526
O O1 0.839119 0.689201 0.484762
O O2 0.680145 0.564104 0.257911
O O3 0.000000 0.791559 0.500000
O O4 0.615342 0.900467 0.211283
O O5 0.395448 0.435346 0.649272
O O6 0.076275 0.578555 0.330542
O O7 0.023747 0.343523 0.386180
O O8 0.784726 0.571306 0.880426
O O9 0.754351 0.273996 0.921293
O O10 0.000000 0.320019 0.000000
O O11 0.277946 0.260825 0.767253
O O12 0.356740 0.405999 0.940980
O O13 0.528575 0.287038 0.856297
#
# Coordination Sequence:
#
# PCOD9127985 Si02
#       6
#     4   4   4   4   4   4
#     4  11  23  43  75 107 143 202 252 305 371 456
#     4  11  24  47  76 108 152 195 256 311 378 445
#     4  12  26  45  71 108 156 193 253 310 377 442
#     4  11  23  47  73 106 151 198 247 312 380 453
#     4  11  26  44  72 111 145 200 251 317 369 452
#     4  10  23  44  73 106 141 196 253 303 379 448
#
# _framework density 25.334477
#
# number of rings (size 3 to 8) (size 9 to 14) (size 15 to 20)
#    0.000    1.000    3.333    3.000    2.333    6.667 
#    0.000    4.167    0.000    0.000    0.000    0.000 
#    0.000    0.000    0.000    0.000    0.000    0.000 
#
# Total GULP energy -67110.486615 kJ/mol
# GULP energy per Si atom -5592.540551 kJ/mol
# Density = 2.527681 g / cm^3
# Si number density = 25.334477 Si / 1000 Ang^3
#
#
#
# Elastic Constant Matrix: (Units=GPa)
#
#
# Indices 1 2 3 4 5 6 
#
# 1 168.8635 52.5459 70.6409 0.0011 10.5958 -0.0001
# 2 52.5459 83.3692 10.5645 0.0025 -4.1192 0.0010
# 3 70.6409 10.5645 100.0030 0.0077 19.2372 0.0026
# 4 0.0011 0.0025 0.0077 39.0045 0.0020 -8.7026
# 5 10.5958 -4.1192 19.2372 0.0020 46.6130 0.0004
# 6 -0.0001 0.0010 0.0026 -8.7026 0.0004 19.3149
#
#
#
# Elastic Compliance Matrix: (Units=1/GPa)
#
#
# Indices 1 2 3 4 5 6 
#
# 1 0.010610 -0.005823 -0.006862 0.000002 -0.000095 0.000002
# 2 -0.005823 0.015485 0.002128 -0.000002 0.001814 -0.000002
# 3 -0.006862 0.002128 0.015517 -0.000004 -0.004656 -0.000004
# 4 0.000002 -0.000002 -0.000004 0.028503 0.000000 0.012843
# 5 -0.000095 0.001814 -0.004656 0.000000 0.023557 0.000000
# 6 0.000002 -0.000002 -0.000004 0.012843 0.000000 0.057560
#
#
# Mechanical properties :
#
#
# Convention : Reuss Voigt Hill
#
# Bulk Modulus (GPa) = 48.77911 68.85980 58.81945
# Shear Modulus (GPa) = 27.90531 35.55209 31.72870
#
# Velocity S-wave (km/s) = 3.32245 3.75014 3.54275
# Velocity P-wave (km/s) = 5.83216 6.78164 6.32474
#
# Compressibility (1/GPa) = 0.02050058
#
# Stress axis : x y z
#
# Youngs Moduli (GPa) = 94.24987 64.58042 64.44340
#
# Poissons Ratio (x) = 0.37602 0.44218
# Poissons Ratio (y) = 0.54877 -0.13715
# Poissons Ratio (z) = 0.64670 -0.13744
#
# Static dielectric constant tensor:
#      x y z
#    x 1.981040 0.000000 -0.035280 
#    y 0.000000 2.070650 0.000000 
#    z -0.035280 0.000000 1.995230 
# 
# From -- ./inp_files/61502.got.cif
#   From: 2010.05.17/outbox.cif.g08.bks.cpg/sg5_31_cif.got.tgz:61502.got - 2010.06.03 18:56:24.
