data_PCOD9127180
_publ_section_title
;
Structure prediction by ZEFSAII (Michael W. Deem and Ramdas Pophale) SiO2 
 PCOD9127180
Probable space group: C 2
;
_chemical_formula_sum "Si O2"
_cell_formula_units_Z 28
_cell_length_a 18.426844
_cell_length_b 8.752518
_cell_length_c 13.475842
_cell_angle_alpha 90.000000
_cell_angle_beta 142.745947
_cell_angle_gamma 90.000000
_cell_volume 1315.668994
_symmetry_space_group_name_H-M "C 2"
_symmetry_group_IT_number 5
_symmetry_cell_setting 'monoclinic'
loop_
_space_group_symop_operation_xyz
x,y,z
-x,y,-z
1/2+x,1/2+y,z
1/2-x,1/2+y,-z
loop_
_atom_site_type_symbol
_atom_site_label
_atom_site_fract_x
_atom_site_fract_y
_atom_site_fract_z
Si Si1 0.665875 0.932110 0.284902
Si Si2 0.500000 0.451182 0.500000
Si Si3 0.546855 0.784195 0.834302
Si Si4 0.000000 0.661837 0.000000
Si Si5 0.090534 0.771031 0.887542
Si Si6 0.817030 0.487703 0.144017
Si Si7 0.267981 0.243137 0.225701
Si Si8 0.080159 0.999006 0.379803
O O1 0.552760 0.892550 0.227868
O O2 0.711816 0.786888 0.270719
O O3 0.614049 0.057234 0.152992
O O4 0.777339 0.993090 0.468902
O O5 0.384865 0.349657 0.343974
O O6 0.544064 0.541633 0.452651
O O7 0.483565 0.621178 0.758582
O O8 0.588510 0.854080 0.775076
O O9 0.663230 0.778482 0.031804
O O10 0.956056 0.748712 0.050854
O O11 0.148393 0.620024 0.899396
O O12 0.975926 0.832807 0.702352
O O13 0.190163 0.904253 0.990238
O O14 0.810973 0.573806 0.242662
#
# Coordination Sequence:
#
# PCOD9127180 Si02
#       8
#     4   2   4   2   4   4   4   4
#     4  11  25  44  69 100 142 186 231 284 361 414
#     4  10  22  44  68 104 136 184 222 294 356 410
#     4  12  23  43  74 102 135 189 236 288 347 426
#     4  12  26  44  68 100 142 182 232 284 354 416
#     4  12  24  44  71 107 136 184 233 297 345 419
#     4  12  22  40  72 103 135 175 236 283 345 416
#     4  11  21  41  70  99 136 181 225 281 350 421
#     4  11  25  43  73  99 141 181 238 292 351 415
#
# _framework density 21.281949999999998
#
# number of rings (size 3 to 8) (size 9 to 14) (size 15 to 20)
#    0.000    0.571    7.143    0.000    2.000    3.429 
#    0.000    2.143    0.000    0.000    0.000    0.000 
#    0.000    0.000    0.000    0.000    0.000    0.000 
#
# Total GULP energy -78151.773237 kJ/mol
# GULP energy per Si atom -5582.269517 kJ/mol
# Density = 2.123351 g / cm^3
# Si number density = 21.281950 Si / 1000 Ang^3
#
#
#
# Elastic Constant Matrix: (Units=GPa)
#
#
# Indices 1 2 3 4 5 6 
#
# 1 88.1478 8.4050 35.9949 0.0000 15.6644 0.0000
# 2 8.4050 60.7075 37.2928 0.0000 4.9623 0.0000
# 3 35.9949 37.2928 117.9962 0.0000 24.6642 0.0000
# 4 0.0000 0.0000 0.0000 10.8774 0.0000 -4.2633
# 5 15.6644 4.9623 24.6642 0.0000 27.0325 0.0000
# 6 0.0000 0.0000 0.0000 -4.2633 0.0000 40.4931
#
#
#
# Elastic Compliance Matrix: (Units=1/GPa)
#
#
# Indices 1 2 3 4 5 6 
#
# 1 0.013502 0.000533 -0.003252 0.000000 -0.004955 0.000000
# 2 0.000533 0.020617 -0.007195 0.000000 0.002471 0.000000
# 3 -0.003252 -0.007195 0.013680 0.000000 -0.009276 0.000000
# 4 0.000000 0.000000 0.000000 0.095891 0.000000 0.010096
# 5 -0.004955 0.002471 -0.009276 0.000000 0.047874 0.000000
# 6 0.000000 0.000000 0.000000 0.010096 0.000000 0.025759
#
#
# Mechanical properties :
#
#
# Convention : Reuss Voigt Hill
#
# Bulk Modulus (GPa) = 35.75084 47.80409 41.77746
# Shear Modulus (GPa) = 20.28625 28.02450 24.15537
#
# Velocity S-wave (km/s) = 3.09077 3.63274 3.37266
# Velocity P-wave (km/s) = 5.43804 6.33299 5.90250
#
# Compressibility (1/GPa) = 0.02797137
#
# Stress axis : x y z
#
# Youngs Moduli (GPa) = 74.06263 48.50467 73.10088
#
# Poissons Ratio (x) = -0.02586 0.23769
# Poissons Ratio (y) = -0.03948 0.52596
# Poissons Ratio (z) = 0.24082 0.34899
#
# Static dielectric constant tensor:
#      x y z
#    x 1.780760 0.000000 -0.015790 
#    y 0.000000 1.799270 0.000000 
#    z -0.015790 0.000000 1.756680 
# 
# From -- ./inp_files/55740.got.cif
#   From: 2010.05.17/outbox.cif.g08.bks.cpg/sg5_28_cif.got.tgz:55740.got - 2010.06.03 18:56:24.
