data_PCOD9127891
_publ_section_title
;
Structure prediction by ZEFSAII (Michael W. Deem and Ramdas Pophale) SiO2 
 PCOD9127891
Probable space group: C 2
;
_chemical_formula_sum "Si O2"
_cell_formula_units_Z 20
_cell_length_a 12.766521
_cell_length_b 7.452792
_cell_length_c 19.028928
_cell_angle_alpha 90.000000
_cell_angle_beta 154.147625
_cell_angle_gamma 90.000000
_cell_volume 789.488987
_symmetry_space_group_name_H-M "C 2"
_symmetry_group_IT_number 5
_symmetry_cell_setting 'monoclinic'
loop_
_space_group_symop_operation_xyz
x,y,z
-x,y,-z
1/2+x,1/2+y,z
1/2-x,1/2+y,-z
loop_
_atom_site_type_symbol
_atom_site_label
_atom_site_fract_x
_atom_site_fract_y
_atom_site_fract_z
Si Si1 0.431731 0.612450 0.321550
Si Si2 0.978977 0.694207 0.621554
Si Si3 0.197540 0.925490 0.255424
Si Si4 0.244695 0.011785 0.925401
Si Si5 0.779106 0.122517 0.939003
O O1 0.695294 0.681905 0.460448
O O2 0.451562 0.401064 0.348733
O O3 0.818858 0.236069 0.313333
O O4 0.270453 0.624839 0.153746
O O5 0.094230 0.571368 0.630976
O O6 0.096695 0.616064 0.764954
O O7 0.035505 0.953500 0.227050
O O8 0.994706 0.981644 0.074938
O O9 0.330352 0.104671 0.048413
O O10 0.381799 0.824880 0.999338
#
# Coordination Sequence:
#
# PCOD9127891 Si02
#       5
#     4   4   4   4   4
#     4  11  23  43  71  99 141 182 233 284 358 419
#     4  11  22  41  69 101 134 185 234 284 347 432
#     4  10  23  43  71  94 143 185 226 285 363 399
#     4   9  23  41  69  98 142 175 238 288 343 422
#     4   9  22  41  64 101 136 177 240 284 340 423
#
# _framework density 25.332843
#
# number of rings (size 3 to 8) (size 9 to 14) (size 15 to 20)
#    1.200    0.800    2.000    0.600    2.800    2.400 
#    0.000    4.000    8.800    0.000    0.000    0.000 
#    0.000    0.000    0.000    0.000    0.000    0.000 
#
# Total GULP energy -55915.289362 kJ/mol
# GULP energy per Si atom -5591.528936 kJ/mol
# Density = 2.527518 g / cm^3
# Si number density = 25.332843 Si / 1000 Ang^3
#
#
#
# Elastic Constant Matrix: (Units=GPa)
#
#
# Indices 1 2 3 4 5 6 
#
# 1 60.7450 23.6130 19.9868 -0.0001 7.6846 0.0002
# 2 23.6130 110.3926 50.6752 0.0019 15.5318 0.0002
# 3 19.9868 50.6752 115.9979 0.0060 19.4292 0.0001
# 4 -0.0001 0.0019 0.0060 37.9156 0.0004 6.1710
# 5 7.6846 15.5318 19.4292 0.0004 60.7395 -0.0003
# 6 0.0002 0.0002 0.0001 6.1710 -0.0003 18.4204
#
#
#
# Elastic Compliance Matrix: (Units=1/GPa)
#
#
# Indices 1 2 3 4 5 6 
#
# 1 0.018309 -0.003006 -0.001672 0.000001 -0.001013 0.000000
# 2 -0.003006 0.011936 -0.004490 0.000000 -0.001236 0.000000
# 3 -0.001672 -0.004490 0.011245 -0.000002 -0.002237 0.000001
# 4 0.000001 0.000000 -0.000002 0.027895 0.000000 -0.009345
# 5 -0.001013 -0.001236 -0.002237 0.000000 0.017624 0.000000
# 6 0.000000 0.000000 0.000001 -0.009345 0.000000 0.057418
#
#
# Mechanical properties :
#
#
# Convention : Reuss Voigt Hill
#
# Bulk Modulus (GPa) = 43.18692 52.85395 48.02043
# Shear Modulus (GPa) = 29.32868 36.27247 32.80058
#
# Velocity S-wave (km/s) = 3.40624 3.78807 3.60222
# Velocity P-wave (km/s) = 5.70568 6.32785 6.02480
#
# Compressibility (1/GPa) = 0.02315516
#
# Stress axis : x y z
#
# Youngs Moduli (GPa) = 54.61765 83.77693 88.92858
#
# Poissons Ratio (x) = 0.25187 0.14866
# Poissons Ratio (y) = 0.16421 0.39925
# Poissons Ratio (z) = 0.09130 0.37612
#
# Static dielectric constant tensor:
#      x y z
#    x 2.031050 0.000000 0.053190 
#    y 0.000000 1.996850 0.000000 
#    z 0.053190 0.000000 2.000010 
# 
# From -- ./inp_files/23038.got.cif
#   From: 2010.05.17/outbox.cif.g08.bks.cpg/sg5_12_cif.got.tgz:23038.got - 2010.06.03 18:56:24.
