data_PCOD9127353
_publ_section_title
;
Structure prediction by ZEFSAII (Michael W. Deem and Ramdas Pophale) SiO2 
 PCOD9127353
Probable space group: C 2
;
_chemical_formula_sum "Si O2"
_cell_formula_units_Z 20
_cell_length_a 6.963589
_cell_length_b 16.183202
_cell_length_c 7.042810
_cell_angle_alpha 90.000000
_cell_angle_beta 101.509841
_cell_angle_gamma 90.000000
_cell_volume 777.716086
_symmetry_space_group_name_H-M "C 2"
_symmetry_group_IT_number 5
_symmetry_cell_setting 'monoclinic'
loop_
_space_group_symop_operation_xyz
x,y,z
-x,y,-z
1/2+x,1/2+y,z
1/2-x,1/2+y,-z
loop_
_atom_site_type_symbol
_atom_site_label
_atom_site_fract_x
_atom_site_fract_y
_atom_site_fract_z
Si Si1 0.704143 0.902730 0.423397
Si Si2 0.734330 0.264993 0.073378
Si Si3 0.207851 0.549224 0.644117
Si Si4 0.378094 0.723316 0.689516
Si Si5 0.772057 0.954439 0.004373
O O1 0.500000 0.901799 0.500000
O O2 0.739507 0.804821 0.409076
O O3 0.717594 0.942570 0.215087
O O4 0.815418 0.967955 0.578730
O O5 0.883976 0.232337 0.265013
O O6 0.500000 0.254786 0.000000
O O7 0.815051 0.227419 0.896382
O O8 0.776738 0.363197 0.084951
O O9 0.321893 0.631967 0.621457
O O10 0.000000 0.560575 0.500000
O O11 0.176161 0.526909 0.859979
O O12 0.000000 0.967361 0.000000
#
# Coordination Sequence:
#
# PCOD9127353 Si02
#       5
#     4   4   4   4   4
#     4  10  23  49  77 108 153 203 253 317 387 452
#     4   9  19  42  76 106 139 203 253 306 383 451
#     4  11  25  47  72 114 155 205 256 314 381 462
#     4  10  22  45  71 110 157 191 254 322 377 449
#     4  10  23  47  79 107 149 203 259 316 386 456
#
# _framework density 25.716328000000001
#
# number of rings (size 3 to 8) (size 9 to 14) (size 15 to 20)
#    0.000    2.000    0.000    2.400    2.800    7.200 
#   25.200    2.000    0.000    0.000    0.000    0.000 
#    0.000    0.000    0.000    0.000    0.000    0.000 
#
# Total GULP energy -55752.173949 kJ/mol
# GULP energy per Si atom -5575.217395 kJ/mol
# Density = 2.565780 g / cm^3
# Si number density = 25.716328 Si / 1000 Ang^3
#
#
#
# Elastic Constant Matrix: (Units=GPa)
#
#
# Indices 1 2 3 4 5 6 
#
# 1 121.8265 22.6200 41.4977 0.0000 1.2499 0.0000
# 2 22.6200 183.7776 70.3820 0.0000 15.7986 0.0000
# 3 41.4977 70.3820 139.9696 0.0000 -22.8889 0.0000
# 4 0.0000 0.0000 0.0000 20.4170 0.0000 -6.0918
# 5 1.2499 15.7986 -22.8889 0.0000 46.3823 0.0000
# 6 0.0000 0.0000 0.0000 -6.0918 0.0000 29.3576
#
#
#
# Elastic Compliance Matrix: (Units=1/GPa)
#
#
# Indices 1 2 3 4 5 6 
#
# 1 0.009266 0.000240 -0.003179 0.000000 -0.001900 0.000000
# 2 0.000240 0.007646 -0.004724 0.000000 -0.004942 0.000000
# 3 -0.003179 -0.004724 0.011682 0.000000 0.007460 0.000000
# 4 0.000000 0.000000 0.000000 0.052211 0.000000 0.010834
# 5 -0.001900 -0.004942 0.007460 0.000000 0.026976 0.000000
# 6 0.000000 0.000000 0.000000 0.010834 0.000000 0.036311
#
#
# Mechanical properties :
#
#
# Convention : Reuss Voigt Hill
#
# Bulk Modulus (GPa) = 75.36349 79.39702 77.38025
# Shear Modulus (GPa) = 30.51772 39.96967 35.24370
#
# Velocity S-wave (km/s) = 3.44860 3.94668 3.70601
# Velocity P-wave (km/s) = 6.72506 7.19094 6.96189
#
# Compressibility (1/GPa) = 0.01326903
#
# Stress axis : x y z
#
# Youngs Moduli (GPa) = 107.92102 130.79115 85.60155
#
# Poissons Ratio (x) = -0.03141 0.27210
# Poissons Ratio (y) = -0.02592 0.40438
# Poissons Ratio (z) = 0.34304 0.61785
#
# Static dielectric constant tensor:
#      x y z
#    x 2.199040 0.000000 0.135620 
#    y 0.000000 2.030460 0.000000 
#    z 0.135620 0.000000 2.205190 
# 
# From -- ./inp_files/2451.got.cif
#   From: 2010.05.17/outbox.cif.g08.bks.cpg/sg5_2_cif.got.tgz:2451.got - 2010.06.03 18:56:24.
