data_PCOD9127492
_publ_section_title
;
Structure prediction by ZEFSAII (Michael W. Deem and Ramdas Pophale) SiO2 
 PCOD9127492
Probable space group: C 2
;
_chemical_formula_sum "Si O2"
_cell_formula_units_Z 20
_cell_length_a 8.249344
_cell_length_b 10.578795
_cell_length_c 18.388233
_cell_angle_alpha 90.000000
_cell_angle_beta 151.430061
_cell_angle_gamma 90.000000
_cell_volume 767.420633
_symmetry_space_group_name_H-M "C 2"
_symmetry_group_IT_number 5
_symmetry_cell_setting 'monoclinic'
loop_
_space_group_symop_operation_xyz
x,y,z
-x,y,-z
1/2+x,1/2+y,z
1/2-x,1/2+y,-z
loop_
_atom_site_type_symbol
_atom_site_label
_atom_site_fract_x
_atom_site_fract_y
_atom_site_fract_z
Si Si1 0.168168 0.854300 0.319710
Si Si2 0.903059 0.593106 0.667261
Si Si3 0.794379 0.119685 0.675308
Si Si4 0.594630 0.266678 0.130250
Si Si5 0.188945 0.516623 0.922194
O O1 0.500000 0.865774 0.500000
O O2 0.962906 0.736297 0.268585
O O3 0.000314 0.990258 0.263154
O O4 0.238134 0.805584 0.265895
O O5 0.500000 0.599968 0.500000
O O6 0.095711 0.566830 0.668069
O O7 0.940388 0.508621 0.754500
O O8 0.500000 0.149501 0.500000
O O9 0.072223 0.230206 0.785890
O O10 0.346686 0.384937 0.013822
O O11 0.407499 0.131495 0.063034
O O12 0.500000 0.575116 0.000000
#
# Coordination Sequence:
#
# PCOD9127492 Si02
#       5
#     4   4   4   4   4
#     4   9  20  41  68 105 145 183 236 302 365 423
#     4  10  22  47  77 110 147 187 243 311 372 432
#     4  11  22  42  76 111 144 190 248 307 366 435
#     4  11  26  47  73 109 149 198 249 299 368 444
#     4  11  26  47  71 105 150 198 243 299 369 438
#
# _framework density 26.061326000000001
#
# number of rings (size 3 to 8) (size 9 to 14) (size 15 to 20)
#    0.000    1.600    0.000    4.800    0.000    8.000 
#    0.000   18.000    0.000    2.400    0.000    4.200 
#    0.000    0.000    0.000    0.000    0.000    0.000 
#
# Total GULP energy -55721.238812 kJ/mol
# GULP energy per Si atom -5572.123881 kJ/mol
# Density = 2.600201 g / cm^3
# Si number density = 26.061326 Si / 1000 Ang^3
#
#
#
# Elastic Constant Matrix: (Units=GPa)
#
#
# Indices 1 2 3 4 5 6 
#
# 1 65.8816 31.5649 49.0331 0.0051 1.4100 0.0139
# 2 31.5649 208.2404 90.1222 0.0027 17.7777 0.0103
# 3 49.0331 90.1222 115.6362 0.0229 -21.0212 0.0247
# 4 0.0051 0.0027 0.0229 50.8695 0.0034 49.0346
# 5 1.4100 17.7777 -21.0212 0.0034 40.6016 -0.0044
# 6 0.0139 0.0103 0.0247 49.0346 -0.0044 222.0803
#
#
#
# Elastic Compliance Matrix: (Units=1/GPa)
#
#
# Indices 1 2 3 4 5 6 
#
# 1 0.025182 0.003848 -0.015611 0.000007 -0.010642 -0.000002
# 2 0.003848 0.009997 -0.011307 0.000006 -0.010365 -0.000001
# 3 -0.015611 -0.011307 0.027684 -0.000013 0.019826 0.000002
# 4 0.000007 0.000006 -0.000013 0.024973 -0.000012 -0.005514
# 5 -0.010642 -0.010365 0.019826 -0.000012 0.039803 0.000002
# 6 -0.000002 -0.000001 0.000002 -0.005514 0.000002 0.005720
#
#
# Mechanical properties :
#
#
# Convention : Reuss Voigt Hill
#
# Bulk Modulus (GPa) = 59.80275 81.24430 70.52353
# Shear Modulus (GPa) = 27.01613 77.31281 52.16447
#
# Velocity S-wave (km/s) = 3.22318 5.45253 4.47878
# Velocity P-wave (km/s) = 6.07030 8.41915 7.33930
#
# Compressibility (1/GPa) = 0.01672164
#
# Stress axis : x y z
#
# Youngs Moduli (GPa) = 39.71145 100.02562 36.12199
#
# Poissons Ratio (x) = -0.38485 0.56390
# Poissons Ratio (y) = -0.15279 0.40844
# Poissons Ratio (z) = 0.61993 1.13103
#
# Static dielectric constant tensor:
#      x y z
#    x 1.618100 0.000010 1.044100 
#    y 0.000010 2.090560 -0.000020 
#    z 1.044100 -0.000020 -0.336930 
# 
# From -- ./inp_files/27176.got.cif
#   From: 2010.05.17/outbox.cif.g08.bks.cpg/sg5_14_cif.got.tgz:27176.got - 2010.06.03 18:56:24.
