data_PCOD9127755
_publ_section_title
;
Structure prediction by ZEFSAII (Michael W. Deem and Ramdas Pophale) SiO2 
 PCOD9127755
Probable space group: C 2
;
_chemical_formula_sum "Si O2"
_cell_formula_units_Z 32
_cell_length_a 11.110867
_cell_length_b 8.177303
_cell_length_c 14.754118
_cell_angle_alpha 90.000000
_cell_angle_beta 96.115882
_cell_angle_gamma 90.000000
_cell_volume 1332.884207
_symmetry_space_group_name_H-M "C 2"
_symmetry_group_IT_number 5
_symmetry_cell_setting 'monoclinic'
loop_
_space_group_symop_operation_xyz
x,y,z
-x,y,-z
1/2+x,1/2+y,z
1/2-x,1/2+y,-z
loop_
_atom_site_type_symbol
_atom_site_label
_atom_site_fract_x
_atom_site_fract_y
_atom_site_fract_z
Si Si1 0.452482 0.271770 0.895060
Si Si2 0.117296 0.950613 0.476117
Si Si3 0.785987 0.667298 0.399037
Si Si4 0.118956 0.390290 0.283165
Si Si5 0.314221 0.574543 0.939533
Si Si6 0.653603 0.951409 0.768443
Si Si7 0.882225 0.759654 0.708137
Si Si8 0.797518 0.437916 0.897528
O O1 0.408407 0.460468 0.896503
O O2 0.488906 0.266234 0.792274
O O3 0.374965 0.102329 0.891353
O O4 0.500000 0.254357 0.000000
O O5 0.133221 0.806860 0.550484
O O6 0.099285 0.875229 0.375013
O O7 0.000000 0.048880 0.500000
O O8 0.241391 0.048270 0.474911
O O9 0.662208 0.751595 0.353791
O O10 0.842110 0.570476 0.318914
O O11 0.129963 0.572716 0.322200
O O12 0.213803 0.382647 0.207040
O O13 0.980508 0.374188 0.237088
O O14 0.193802 0.536403 0.867637
O O15 0.341568 0.766343 0.945286
O O16 0.301394 0.499700 0.038967
O O17 0.759125 0.819671 0.750605
#
# Coordination Sequence:
#
# PCOD9127755 Si02
#       8
#     4   4   4   4   4   4   4   4
#     4  10  23  42  64  97 137 184 234 291 347 416
#     4  11  24  44  70 101 136 180 224 288 345 417
#     4  11  24  43  69 101 136 174 231 283 345 422
#     4  11  23  42  68  99 129 188 223 278 357 406
#     4  11  22  43  63  96 139 183 233 287 348 414
#     4  10  23  44  69  94 141 177 223 293 341 415
#     4   9  22  43  66  99 133 173 232 280 341 418
#     4  11  23  38  67  95 136 180 235 280 344 418
#
# _framework density 24.008085999999999
#
# number of rings (size 3 to 8) (size 9 to 14) (size 15 to 20)
#    0.000    1.500    2.500    1.500    3.500    3.500 
#    2.250    0.625    0.000    0.000    0.000    0.000 
#    0.000    0.000    0.000    0.000    0.000    0.000 
#
# Total GULP energy -89121.079836 kJ/mol
# GULP energy per Si atom -5570.067490 kJ/mol
# Density = 2.395344 g / cm^3
# Si number density = 24.008086 Si / 1000 Ang^3
#
#
#
# Elastic Constant Matrix: (Units=GPa)
#
#
# Indices 1 2 3 4 5 6 
#
# 1 75.0375 12.2143 35.6758 0.0000 -6.2437 0.0000
# 2 12.2143 112.9513 4.9865 0.0000 -10.6955 0.0000
# 3 35.6758 4.9865 91.5788 0.0000 13.5966 0.0000
# 4 0.0000 0.0000 0.0000 25.7618 0.0000 -3.1754
# 5 -6.2437 -10.6955 13.5966 0.0000 33.9505 0.0000
# 6 0.0000 0.0000 0.0000 -3.1754 0.0000 13.9015
#
#
#
# Elastic Compliance Matrix: (Units=1/GPa)
#
#
# Indices 1 2 3 4 5 6 
#
# 1 0.017661 -0.000998 -0.007720 0.000000 0.006025 0.000000
# 2 -0.000998 0.009266 -0.000555 0.000000 0.002958 0.000000
# 3 -0.007720 -0.000555 0.015091 0.000000 -0.007638 0.000000
# 4 0.000000 0.000000 0.000000 0.039942 0.000000 0.009124
# 5 0.006025 0.002958 -0.007638 0.000000 0.034554 0.000000
# 6 0.000000 0.000000 0.000000 0.009124 0.000000 0.074019
#
#
# Mechanical properties :
#
#
# Convention : Reuss Voigt Hill
#
# Bulk Modulus (GPa) = 42.60496 42.81342 42.70919
# Shear Modulus (GPa) = 23.05177 29.83550 26.44363
#
# Velocity S-wave (km/s) = 3.10202 3.52906 3.32241
# Velocity P-wave (km/s) = 5.53305 5.87174 5.70491
#
# Compressibility (1/GPa) = 0.02347144
#
# Stress axis : x y z
#
# Youngs Moduli (GPa) = 56.62164 107.92276 66.26300
#
# Poissons Ratio (x) = 0.10776 0.51157
# Poissons Ratio (y) = 0.05653 0.03675
# Poissons Ratio (z) = 0.43714 0.05986
#
# Static dielectric constant tensor:
#      x y z
#    x 2.070700 0.000000 0.042900 
#    y 0.000000 1.918890 0.000000 
#    z 0.042900 0.000000 1.939920 
# 
# From -- ./inp_files/52467.got.cif
#   From: 2010.05.17/outbox.cif.g08.bks.cpg/sg5_27_cif.got.tgz:52467.got - 2010.06.03 18:56:24.
