data_PCOD9127564
_publ_section_title
;
Structure prediction by ZEFSAII (Michael W. Deem and Ramdas Pophale) SiO2 
 PCOD9127564
Probable space group: C 2
;
_chemical_formula_sum "Si O2"
_cell_formula_units_Z 28
_cell_length_a 9.969386
_cell_length_b 10.339296
_cell_length_c 20.702386
_cell_angle_alpha 90.000000
_cell_angle_beta 135.911808
_cell_angle_gamma 90.000000
_cell_volume 1484.712024
_symmetry_space_group_name_H-M "C 2"
_symmetry_group_IT_number 5
_symmetry_cell_setting 'monoclinic'
loop_
_space_group_symop_operation_xyz
x,y,z
-x,y,-z
1/2+x,1/2+y,z
1/2-x,1/2+y,-z
loop_
_atom_site_type_symbol
_atom_site_label
_atom_site_fract_x
_atom_site_fract_y
_atom_site_fract_z
Si Si1 0.853802 0.852950 0.174787
Si Si2 0.849032 0.054113 0.710649
Si Si3 0.659384 0.237633 0.961560
Si Si4 0.000000 0.523639 0.000000
Si Si5 0.934870 0.453445 0.551350
Si Si6 0.000000 0.944853 0.000000
Si Si7 0.916480 0.147970 0.872339
Si Si8 0.215291 0.721434 0.548914
O O1 0.755043 0.749133 0.186373
O O2 0.013495 0.938363 0.264780
O O3 0.930601 0.777719 0.137902
O O4 0.680369 0.940080 0.086200
O O5 0.638301 0.995674 0.653272
O O6 0.945434 0.100486 0.810114
O O7 0.827234 0.167679 0.650925
O O8 0.885478 0.209318 0.033043
O O9 0.563967 0.114775 0.962812
O O10 0.632312 0.355641 0.001442
O O11 0.822563 0.337681 0.548541
O O12 0.000000 0.418179 0.500000
O O13 0.184504 0.588398 0.496869
O O14 0.878116 0.031884 0.908623
O O15 0.000000 0.758672 0.500000
#
# Coordination Sequence:
#
# PCOD9127564 Si02
#       8
#     4   4   4   2   4   2   4   4
#     4  12  22  36  55  80 116 160 208 258 300 347
#     4  10  23  38  58  92 132 156 204 256 317 360
#     4  11  21  34  54  74 103 155 214 258 298 339
#     4  11  21  34  54  74 103 155 214 258 298 339
#     4   9  21  43  70  98 128 162 196 254 322 391
#     4  11  21  34  54  74 103 155 214 258 298 339
#     4  12  22  36  55  80 116 160 208 258 300 347
#     4   9  21  43  70  98 128 162 196 254 322 391
#
# _framework density 18.858875999999999
#
# number of rings (size 3 to 8) (size 9 to 14) (size 15 to 20)
#    0.000    1.714    5.714    0.000    0.000    7.429 
#    0.000    0.000    0.000    0.000    0.000    0.000 
#    0.000    0.000    0.000    0.000    0.000    0.000 
#
# Total GULP energy -78085.418586 kJ/mol
# GULP energy per Si atom -5577.529899 kJ/mol
# Density = 1.881595 g / cm^3
# Si number density = 18.858876 Si / 1000 Ang^3
#
#
#
# Elastic Constant Matrix: (Units=GPa)
#
#
# Indices 1 2 3 4 5 6 
#
# 1 69.8207 44.3845 -6.9865 0.0000 1.4867 0.0000
# 2 44.3845 99.1347 7.1318 0.0000 5.8902 0.0000
# 3 -6.9865 7.1318 38.0159 0.0000 2.5305 0.0000
# 4 0.0000 0.0000 0.0000 13.5557 0.0000 1.4645
# 5 1.4867 5.8902 2.5305 0.0000 14.2130 0.0000
# 6 0.0000 0.0000 0.0000 1.4645 0.0000 44.3239
#
#
#
# Elastic Compliance Matrix: (Units=1/GPa)
#
#
# Indices 1 2 3 4 5 6 
#
# 1 0.021204 -0.009957 0.005705 0.000000 0.000893 0.000000
# 2 -0.009957 0.015124 -0.004371 0.000000 -0.004448 0.000000
# 3 0.005705 -0.004371 0.028429 0.000000 -0.003847 0.000000
# 4 0.000000 0.000000 0.000000 0.074034 0.000000 -0.002446
# 5 0.000893 -0.004448 -0.003847 0.000000 0.072793 0.000000
# 6 0.000000 0.000000 0.000000 -0.002446 0.000000 0.022642
#
#
# Mechanical properties :
#
#
# Convention : Reuss Voigt Hill
#
# Bulk Modulus (GPa) = 21.04736 32.89234 26.96985
# Shear Modulus (GPa) = 18.70500 25.24795 21.97648
#
# Velocity S-wave (km/s) = 3.15277 3.66291 3.41737
# Velocity P-wave (km/s) = 4.94347 5.94713 5.46838
#
# Compressibility (1/GPa) = 0.04751190
#
# Stress axis : x y z
#
# Youngs Moduli (GPa) = 47.16150 66.12066 35.17488
#
# Poissons Ratio (x) = 0.65835 -0.20068
# Poissons Ratio (y) = 0.46958 0.15375
# Poissons Ratio (z) = -0.26907 0.28901
#
# Static dielectric constant tensor:
#      x y z
#    x 1.657160 0.000000 -0.000790 
#    y 0.000000 1.679170 0.000000 
#    z -0.000790 0.000000 1.646670 
# 
# From -- ./inp_files/64498.got.cif
#   From: 2010.05.17/outbox.cif.g08.bks.cpg/sg5_33_cif.got.tgz:64498.got - 2010.06.03 18:56:24.
