data_PCOD9127404
_publ_section_title
;
Structure prediction by ZEFSAII (Michael W. Deem and Ramdas Pophale) SiO2 
 PCOD9127404
Probable space group: C 2
;
_chemical_formula_sum "Si O2"
_cell_formula_units_Z 28
_cell_length_a 17.692063
_cell_length_b 13.241606
_cell_length_c 9.095960
_cell_angle_alpha 90.000000
_cell_angle_beta 32.674763
_cell_angle_gamma 90.000000
_cell_volume 1150.420364
_symmetry_space_group_name_H-M "C 2"
_symmetry_group_IT_number 5
_symmetry_cell_setting 'monoclinic'
loop_
_space_group_symop_operation_xyz
x,y,z
-x,y,-z
1/2+x,1/2+y,z
1/2-x,1/2+y,-z
loop_
_atom_site_type_symbol
_atom_site_label
_atom_site_fract_x
_atom_site_fract_y
_atom_site_fract_z
Si Si1 0.000000 0.484820 0.500000
Si Si2 0.859119 0.064093 0.145832
Si Si3 0.636859 0.881669 0.540364
Si Si4 0.251245 0.283937 0.606767
Si Si5 0.500000 0.223522 0.000000
Si Si6 0.193675 0.038659 0.080057
Si Si7 0.842633 0.810414 0.783381
Si Si8 0.249334 0.682656 0.790737
O O1 0.020712 0.420100 0.615792
O O2 0.141584 0.545357 0.235881
O O3 0.793525 0.166100 0.320620
O O4 0.885223 0.084677 0.930344
O O5 0.756006 0.967986 0.324730
O O6 0.000000 0.040993 0.000000
O O7 0.642932 0.858608 0.703672
O O8 0.671308 0.768283 0.429124
O O9 0.269475 0.312084 0.745902
O O10 0.398976 0.286999 0.274743
O O11 0.606302 0.163478 0.933470
O O12 0.174876 0.083907 0.273251
O O13 0.156633 0.921426 0.149257
O O14 0.000000 0.775595 0.500000
O O15 0.776556 0.738584 0.012079
#
# Coordination Sequence:
#
# PCOD9127404 Si02
#       8
#     2   4   4   4   2   4   4   4
#     4  10  22  46  68  94 142 174 224 282 342 402
#     4  11  25  43  69  99 142 177 223 281 346 402
#     4  10  25  43  70  98 134 183 221 281 340 401
#     4  11  25  42  71 102 135 182 226 280 344 393
#     4  10  24  40  66 104 132 172 232 280 326 400
#     4  11  26  43  68 105 131 182 227 279 342 402
#     4  12  24  43  72 101 132 182 234 278 328 417
#     4  11  22  44  67  97 136 175 229 277 338 397
#
# _framework density 24.338930999999999
#
# number of rings (size 3 to 8) (size 9 to 14) (size 15 to 20)
#    0.000    1.143    5.714    0.000   11.000    4.571 
#    1.286    0.000    1.571    0.000    0.000    0.000 
#    0.000    0.000    0.000    0.000    0.000    0.000 
#
# Total GULP energy -78237.657584 kJ/mol
# GULP energy per Si atom -5588.404113 kJ/mol
# Density = 2.428353 g / cm^3
# Si number density = 24.338931 Si / 1000 Ang^3
#
#
#
# Elastic Constant Matrix: (Units=GPa)
#
#
# Indices 1 2 3 4 5 6 
#
# 1 215.9908 20.2267 13.5627 0.0000 27.0974 0.0000
# 2 20.2267 71.0970 -7.9596 0.0000 1.9205 0.0000
# 3 13.5627 -7.9596 64.8479 0.0000 7.6513 0.0000
# 4 0.0000 0.0000 0.0000 14.4685 0.0000 13.7361
# 5 27.0974 1.9205 7.6513 0.0000 32.1499 0.0000
# 6 0.0000 0.0000 0.0000 13.7361 0.0000 38.5477
#
#
#
# Elastic Compliance Matrix: (Units=1/GPa)
#
#
# Indices 1 2 3 4 5 6 
#
# 1 0.005351 -0.001498 -0.000804 0.000000 -0.004229 0.000000
# 2 -0.001498 0.014734 0.002137 0.000000 -0.000126 0.000000
# 3 -0.000804 0.002137 0.016242 0.000000 -0.003315 0.000000
# 4 0.000000 0.000000 0.000000 0.104453 0.000000 -0.037221
# 5 -0.004229 -0.000126 -0.003315 0.000000 0.035466 0.000000
# 6 0.000000 0.000000 0.000000 -0.037221 0.000000 0.039205
#
#
# Mechanical properties :
#
#
# Convention : Reuss Voigt Hill
#
# Bulk Modulus (GPa) = 27.78041 44.84394 36.31217
# Shear Modulus (GPa) = 21.95090 38.77361 30.36226
#
# Velocity S-wave (km/s) = 3.00640 3.99566 3.53580
# Velocity P-wave (km/s) = 4.84665 6.30490 5.62325
#
# Compressibility (1/GPa) = 0.03599659
#
# Stress axis : x y z
#
# Youngs Moduli (GPa) = 186.87335 67.86970 61.56760
#
# Poissons Ratio (x) = 0.10168 0.04950
# Poissons Ratio (y) = 0.27997 -0.13155
# Poissons Ratio (z) = 0.15026 -0.14502
#
# Static dielectric constant tensor:
#      x y z
#    x 2.043520 0.000000 0.004760 
#    y 0.000000 1.906120 0.000000 
#    z 0.004760 0.000000 2.002310 
# 
# From -- ./inp_files/27696.got.cif
#   From: 2010.05.17/outbox.cif.g08.bks.cpg/sg5_14_cif.got.tgz:27696.got - 2010.06.03 18:56:24.
