data_PCOD9127478
_publ_section_title
;
Structure prediction by ZEFSAII (Michael W. Deem and Ramdas Pophale) SiO2 
 PCOD9127478
Probable space group: C 2
;
_chemical_formula_sum "Si O2"
_cell_formula_units_Z 28
_cell_length_a 15.632172
_cell_length_b 5.813660
_cell_length_c 15.657763
_cell_angle_alpha 90.000000
_cell_angle_beta 49.654472
_cell_angle_gamma 90.000000
_cell_volume 1084.529783
_symmetry_space_group_name_H-M "C 2"
_symmetry_group_IT_number 5
_symmetry_cell_setting 'monoclinic'
loop_
_space_group_symop_operation_xyz
x,y,z
-x,y,-z
1/2+x,1/2+y,z
1/2-x,1/2+y,-z
loop_
_atom_site_type_symbol
_atom_site_label
_atom_site_fract_x
_atom_site_fract_y
_atom_site_fract_z
Si Si1 0.721459 0.886700 0.117176
Si Si2 0.000000 0.157777 0.500000
Si Si3 0.500000 0.092883 0.000000
Si Si4 0.182168 0.254763 0.830218
Si Si5 0.196556 0.342652 0.444934
Si Si6 0.681238 0.838040 0.643661
Si Si7 0.425245 0.247302 0.874714
Si Si8 0.086155 0.971764 0.284276
O O1 0.662674 0.682540 0.204663
O O2 0.806268 0.015021 0.128095
O O3 0.614434 0.016808 0.146496
O O4 0.804320 0.840031 0.984434
O O5 0.999978 0.004919 0.416040
O O6 0.107181 0.317466 0.428019
O O7 0.609369 0.929544 0.934413
O O8 0.499372 0.228389 0.911040
O O9 0.128878 0.293890 0.771052
O O10 0.314620 0.313218 0.741855
O O11 0.249024 0.596065 0.405921
O O12 0.133776 0.339247 0.578047
O O13 0.266496 0.101010 0.387686
O O14 0.472899 0.390294 0.764684
#
# Coordination Sequence:
#
# PCOD9127478 Si02
#       8
#     4   2   2   4   4   4   4   4
#     4  11  21  45  73  95 140 193 235 299 373 448
#     4  12  24  46  70 112 140 194 256 306 362 454
#     4  12  26  44  66 114 144 182 246 314 378 446
#     4  11  24  43  69 100 146 186 240 301 381 444
#     4  10  23  44  72 101 143 187 251 292 364 432
#     4  10  22  47  70  99 143 197 229 306 368 439
#     4  11  23  44  70 105 142 185 246 304 372 449
#     4  11  24  46  72 102 145 196 240 303 373 450
#
# _framework density 25.817641999999999
#
# number of rings (size 3 to 8) (size 9 to 14) (size 15 to 20)
#    0.000    1.143    4.286    1.714    0.000    2.286 
#   15.429    0.000    0.000    0.000    0.000    0.000 
#    0.000    0.000    0.000    0.000    0.000    0.000 
#
# Total GULP energy -78066.071308 kJ/mol
# GULP energy per Si atom -5576.147951 kJ/mol
# Density = 2.575888 g / cm^3
# Si number density = 25.817642 Si / 1000 Ang^3
#
#
#
# Elastic Constant Matrix: (Units=GPa)
#
#
# Indices 1 2 3 4 5 6 
#
# 1 82.8017 28.5223 7.7595 -0.0002 20.8224 0.0008
# 2 28.5223 90.6573 35.2386 0.0001 12.7101 0.0032
# 3 7.7595 35.2386 137.4154 0.0002 38.9405 0.0004
# 4 -0.0002 0.0001 0.0002 26.5831 -0.0003 6.8775
# 5 20.8224 12.7101 38.9405 -0.0003 37.0361 0.0000
# 6 0.0008 0.0032 0.0004 6.8775 0.0000 24.8748
#
#
#
# Elastic Compliance Matrix: (Units=1/GPa)
#
#
# Indices 1 2 3 4 5 6 
#
# 1 0.016235 -0.004907 0.003491 0.000000 -0.011114 0.000000
# 2 -0.004907 0.013778 -0.003843 0.000000 0.002071 -0.000002
# 3 0.003491 -0.003843 0.011748 0.000000 -0.012997 0.000000
# 4 0.000000 0.000000 0.000000 0.040516 0.000000 -0.011202
# 5 -0.011114 0.002071 -0.012997 0.000000 0.046204 0.000000
# 6 0.000000 -0.000002 0.000000 -0.011202 0.000000 0.043299
#
#
# Mechanical properties :
#
#
# Convention : Reuss Voigt Hill
#
# Bulk Modulus (GPa) = 32.00579 50.43502 41.22040
# Shear Modulus (GPa) = 25.94561 33.65573 29.80067
#
# Velocity S-wave (km/s) = 3.17354 3.61445 3.40115
# Velocity P-wave (km/s) = 5.08451 6.08247 5.60575
#
# Compressibility (1/GPa) = 0.03124435
#
# Stress axis : x y z
#
# Youngs Moduli (GPa) = 61.59523 72.58132 85.11751
#
# Poissons Ratio (x) = 0.35612 -0.29715
# Poissons Ratio (y) = 0.30222 0.32710
# Poissons Ratio (z) = -0.21503 0.27892
#
# Static dielectric constant tensor:
#      x y z
#    x 2.051400 0.000000 0.017290 
#    y 0.000000 2.154950 0.000000 
#    z 0.017290 0.000000 2.066840 
# 
# From -- ./inp_files/55420.got.cif
#   From: 2010.05.17/outbox.cif.g08.bks.cpg/sg5_28_cif.got.tgz:55420.got - 2010.06.03 18:56:24.
