data_PCOD9127259
_publ_section_title
;
Structure prediction by ZEFSAII (Michael W. Deem and Ramdas Pophale) SiO2 
 PCOD9127259
Probable space group: C 2
;
_chemical_formula_sum "Si O2"
_cell_formula_units_Z 18
_cell_length_a 20.994293
_cell_length_b 4.803836
_cell_length_c 8.725248
_cell_angle_alpha 90.000000
_cell_angle_beta 47.782275
_cell_angle_gamma 90.000000
_cell_volume 651.701938
_symmetry_space_group_name_H-M "C 2"
_symmetry_group_IT_number 5
_symmetry_cell_setting 'monoclinic'
loop_
_space_group_symop_operation_xyz
x,y,z
-x,y,-z
1/2+x,1/2+y,z
1/2-x,1/2+y,-z
loop_
_atom_site_type_symbol
_atom_site_label
_atom_site_fract_x
_atom_site_fract_y
_atom_site_fract_z
Si Si1 0.848103 0.561290 0.035351
Si Si2 0.724089 0.205701 0.450648
Si Si3 0.937706 0.971000 0.368010
Si Si4 0.619781 0.541737 0.208036
Si Si5 0.500000 0.883408 0.000000
O O1 0.777741 0.374313 0.238138
O O2 0.928642 0.564485 0.024847
O O3 0.877893 0.351723 0.855517
O O4 0.817946 0.835776 0.990104
O O5 0.759869 0.901126 0.425454
O O6 0.622951 0.216813 0.583247
O O7 0.884800 0.070350 0.602981
O O8 0.953896 0.177296 0.198874
O O9 0.030208 0.912123 0.290093
#
# Coordination Sequence:
#
# PCOD9127259 Si02
#       5
#     4   4   4   4   2
#     4  11  24  43  68 101 133 175 224 269 342 389
#     4  12  26  42  66 102 132 173 220 283 329 393
#     4  10  24  45  69  99 137 173 227 272 335 393
#     4  10  25  44  69  99 133 179 217 278 331 401
#     4  10  22  44  72  98 136 180 228 274 322 410
#
# _framework density 27.619987999999999
#
# number of rings (size 3 to 8) (size 9 to 14) (size 15 to 20)
#    0.000    1.333    2.222    1.333    6.222   11.556 
#    0.000    0.000    0.000    0.000    0.000    0.000 
#    0.000    0.000    0.000    0.000    0.000    0.000 
#
# Total GULP energy -50354.492596 kJ/mol
# GULP energy per Si atom -5594.943622 kJ/mol
# Density = 2.755712 g / cm^3
# Si number density = 27.619988 Si / 1000 Ang^3
#
#
#
# Elastic Constant Matrix: (Units=GPa)
#
#
# Indices 1 2 3 4 5 6 
#
# 1 111.3323 13.3010 26.3137 0.0001 -4.8260 0.0001
# 2 13.3010 138.1824 24.5315 -0.0001 27.4361 0.0008
# 3 26.3137 24.5315 120.4353 0.0002 52.8287 0.0001
# 4 0.0001 -0.0001 0.0002 41.0237 -0.0001 11.5651
# 5 -4.8260 27.4361 52.8287 -0.0001 69.7297 0.0000
# 6 0.0001 0.0008 0.0001 11.5651 0.0000 20.5915
#
#
#
# Elastic Compliance Matrix: (Units=1/GPa)
#
#
# Indices 1 2 3 4 5 6 
#
# 1 0.010170 -0.001104 -0.003739 0.000000 0.003971 0.000000
# 2 -0.001104 0.007981 0.000040 0.000000 -0.003246 0.000000
# 3 -0.003739 0.000040 0.013828 0.000000 -0.010751 0.000000
# 4 0.000000 0.000000 0.000000 0.028962 0.000000 -0.016266
# 5 0.003971 -0.003246 -0.010751 0.000000 0.024038 0.000000
# 6 0.000000 0.000000 0.000000 -0.016266 0.000000 0.057700
#
#
# Mechanical properties :
#
#
# Convention : Reuss Voigt Hill
#
# Bulk Modulus (GPa) = 44.69811 55.36028 50.02919
# Shear Modulus (GPa) = 31.30067 46.65590 38.97828
#
# Velocity S-wave (km/s) = 3.37005 4.11446 3.76072
# Velocity P-wave (km/s) = 5.60012 6.53137 6.08359
#
# Compressibility (1/GPa) = 0.02237231
#
# Stress axis : x y z
#
# Youngs Moduli (GPa) = 98.33031 125.30404 72.31821
#
# Poissons Ratio (x) = 0.13828 0.27040
# Poissons Ratio (y) = 0.10851 -0.00286
# Poissons Ratio (z) = 0.36765 -0.00496
#
# Static dielectric constant tensor:
#      x y z
#    x 2.263340 0.000000 -0.027280 
#    y 0.000000 2.058910 0.000000 
#    z -0.027280 0.000000 2.299180 
# 
# From -- ./inp_files/25823.got.cif
#   From: 2010.05.17/outbox.cif.g08.bks.cpg/sg5_13_cif.got.tgz:25823.got - 2010.06.03 18:56:24.
