data_PCOD9127451
_publ_section_title
;
Structure prediction by ZEFSAII (Michael W. Deem and Ramdas Pophale) SiO2 
 PCOD9127451
Probable space group: C 2
;
_chemical_formula_sum "Si O2"
_cell_formula_units_Z 20
_cell_length_a 13.131530
_cell_length_b 7.221436
_cell_length_c 23.959682
_cell_angle_alpha 90.000000
_cell_angle_beta 159.512727
_cell_angle_gamma 90.000000
_cell_volume 795.219711
_symmetry_space_group_name_H-M "C 2"
_symmetry_group_IT_number 5
_symmetry_cell_setting 'monoclinic'
loop_
_space_group_symop_operation_xyz
x,y,z
-x,y,-z
1/2+x,1/2+y,z
1/2-x,1/2+y,-z
loop_
_atom_site_type_symbol
_atom_site_label
_atom_site_fract_x
_atom_site_fract_y
_atom_site_fract_z
Si Si1 0.359862 0.784330 0.987850
Si Si2 0.537311 0.983288 0.770332
Si Si3 0.666649 0.396598 0.679591
Si Si4 0.538281 0.706174 0.356740
Si Si5 0.837922 0.885122 0.665665
O O1 0.273098 0.569043 0.934002
O O2 0.053356 0.895271 0.829938
O O3 0.500000 0.838599 0.000000
O O4 0.584505 0.822396 0.151394
O O5 0.297746 0.880628 0.684933
O O6 0.629837 0.859553 0.765946
O O7 0.395547 0.174150 0.675697
O O8 0.611761 0.614377 0.666543
O O9 0.360163 0.291874 0.529397
O O10 0.563419 0.530314 0.329307
O O11 0.500000 0.914074 0.500000
#
# Coordination Sequence:
#
# PCOD9127451 Si02
#       5
#     4   4   4   4   4
#     4  10  24  50  69 105 156 184 259 312 364 462
#     4  10  26  49  74 107 155 194 256 318 377 457
#     4  12  26  48  74 121 146 204 259 311 391 456
#     4  12  27  46  79 108 153 199 258 308 383 463
#     4  10  22  46  75  99 150 198 246 311 373 448
#
# _framework density 25.150282000000001
#
# number of rings (size 3 to 8) (size 9 to 14) (size 15 to 20)
#    1.200    0.000    2.000    3.000    8.400    3.200 
#    7.200    0.000    0.000    0.000    0.000    0.000 
#    0.000    0.000    0.000    0.000    0.000    0.000 
#
# Total GULP energy -55893.712402 kJ/mol
# GULP energy per Si atom -5589.371240 kJ/mol
# Density = 2.509304 g / cm^3
# Si number density = 25.150282 Si / 1000 Ang^3
#
#
#
# Elastic Constant Matrix: (Units=GPa)
#
#
# Indices 1 2 3 4 5 6 
#
# 1 41.8962 10.2750 28.4576 0.0026 -7.4190 0.0005
# 2 10.2750 58.2482 41.9236 0.0032 -13.7978 0.0010
# 3 28.4576 41.9236 176.4623 0.0383 -14.0247 -0.0017
# 4 0.0026 0.0032 0.0383 46.7814 -0.0036 -4.1121
# 5 -7.4190 -13.7978 -14.0247 -0.0036 37.1563 0.0004
# 6 0.0005 0.0010 -0.0017 -4.1121 0.0004 36.7724
#
#
#
# Elastic Compliance Matrix: (Units=1/GPa)
#
#
# Indices 1 2 3 4 5 6 
#
# 1 0.027413 -0.001222 -0.003847 0.000002 0.003568 0.000000
# 2 -0.001222 0.022154 -0.004569 0.000003 0.006258 -0.000001
# 3 -0.003847 -0.004569 0.007399 -0.000006 0.000328 0.000000
# 4 0.000002 0.000003 -0.000006 0.021588 0.000001 0.002414
# 5 0.003568 0.006258 0.000328 0.000001 0.030074 0.000000
# 6 0.000000 -0.000001 0.000000 0.002414 0.000000 0.027464
#
#
# Mechanical properties :
#
#
# Convention : Reuss Voigt Hill
#
# Bulk Modulus (GPa) = 26.53160 48.65768 37.59464
# Shear Modulus (GPa) = 29.77412 37.20540 33.48976
#
# Velocity S-wave (km/s) = 3.44444 3.85037 3.65305
# Velocity P-wave (km/s) = 5.13722 6.25747 5.72481
#
# Compressibility (1/GPa) = 0.03769090
#
# Stress axis : x y z
#
# Youngs Moduli (GPa) = 36.47914 45.13782 135.15546
#
# Poissons Ratio (x) = 0.05514 0.51994
# Poissons Ratio (y) = 0.04456 0.61752
# Poissons Ratio (z) = 0.14034 0.20623
#
# Static dielectric constant tensor:
#      x y z
#    x 2.032420 0.000000 0.026360 
#    y 0.000000 1.999560 -0.000010 
#    z 0.026360 -0.000010 2.056110 
# 
# From -- ./inp_files/70579.got.cif
#   From: 2010.05.17/outbox.cif.g08.bks.cpg/sg5_36_cif.got.tgz:70579.got - 2010.06.03 18:56:24.
