data_PCOD9127205
_publ_section_title
;
Structure prediction by ZEFSAII (Michael W. Deem and Ramdas Pophale) SiO2 
 PCOD9127205
Probable space group: C 2
;
_chemical_formula_sum "Si O2"
_cell_formula_units_Z 30
_cell_length_a 22.636407
_cell_length_b 8.734567
_cell_length_c 20.142992
_cell_angle_alpha 90.000000
_cell_angle_beta 160.633049
_cell_angle_gamma 90.000000
_cell_volume 1320.716664
_symmetry_space_group_name_H-M "C 2"
_symmetry_group_IT_number 5
_symmetry_cell_setting 'monoclinic'
loop_
_space_group_symop_operation_xyz
x,y,z
-x,y,-z
1/2+x,1/2+y,z
1/2-x,1/2+y,-z
loop_
_atom_site_type_symbol
_atom_site_label
_atom_site_fract_x
_atom_site_fract_y
_atom_site_fract_z
Si Si1 0.466857 0.316430 0.175695
Si Si2 0.563945 0.818163 0.764564
Si Si3 0.715188 0.450561 0.337672
Si Si4 0.941264 0.471895 0.098912
Si Si5 0.324060 0.539607 0.351291
Si Si6 0.457312 0.484019 0.292464
Si Si7 0.141207 0.265320 0.201236
Si Si8 0.000000 0.760057 0.000000
O O1 0.608345 0.428304 0.292512
O O2 0.490654 0.339195 0.280328
O O3 0.491685 0.148992 0.168627
O O4 0.260088 0.362317 0.945906
O O5 0.407552 0.873114 0.550261
O O6 0.528314 0.889412 0.798461
O O7 0.575047 0.635478 0.785352
O O8 0.730751 0.626717 0.334434
O O9 0.588199 0.363284 0.150351
O O10 0.044978 0.383746 0.150452
O O11 0.726360 0.462559 0.861626
O O12 0.500000 0.585746 0.500000
O O13 0.382955 0.536795 0.491058
O O14 0.269518 0.362879 0.289644
O O15 0.162707 0.645148 0.156269
O O16 0.000000 0.197491 0.000000
#
# Coordination Sequence:
#
# PCOD9127205 Si02
#       8
#     4   4   4   4   4   4   4   2
#     4  10  24  43  72 106 138 183 230 297 350 418
#     4  10  23  43  68 107 140 184 231 292 355 413
#     4  12  26  45  71 102 144 188 233 286 353 416
#     4  10  23  43  74 102 143 180 233 291 352 416
#     4  12  27  46  74 100 137 188 236 288 352 419
#     4  10  22  44  69 104 140 178 235 286 351 413
#     4  12  26  47  68 102 144 185 231 284 347 422
#     4  12  26  48  74 102 140 190 240 290 344 426
#
# _framework density 22.714941
#
# number of rings (size 3 to 8) (size 9 to 14) (size 15 to 20)
#    0.000    1.067    2.667    2.400    7.467    1.067 
#    2.400    0.667    0.000    0.000    0.000    0.000 
#    0.000    0.000    0.000    0.000    0.000    0.000 
#
# Total GULP energy -83781.309708 kJ/mol
# GULP energy per Si atom -5585.420647 kJ/mol
# Density = 2.266324 g / cm^3
# Si number density = 22.714941 Si / 1000 Ang^3
#
#
#
# Elastic Constant Matrix: (Units=GPa)
#
#
# Indices 1 2 3 4 5 6 
#
# 1 63.9532 34.9560 29.9484 0.0000 12.4788 0.0000
# 2 34.9560 100.0320 48.3963 0.0000 4.1184 0.0000
# 3 29.9484 48.3963 132.8349 0.0000 7.8322 0.0000
# 4 0.0000 0.0000 0.0000 32.2274 0.0000 -14.7652
# 5 12.4788 4.1184 7.8322 0.0000 30.1975 0.0000
# 6 0.0000 0.0000 0.0000 -14.7652 0.0000 32.8502
#
#
#
# Elastic Compliance Matrix: (Units=1/GPa)
#
#
# Indices 1 2 3 4 5 6 
#
# 1 0.021467 -0.006149 -0.002159 0.000000 -0.007472 0.000000
# 2 -0.006149 0.013905 -0.003776 0.000000 0.001624 0.000000
# 3 -0.002159 -0.003776 0.009452 0.000000 -0.001045 0.000000
# 4 0.000000 0.000000 0.000000 0.039076 0.000000 0.017564
# 5 -0.007472 0.001624 -0.001045 0.000000 0.036253 0.000000
# 6 0.000000 0.000000 0.000000 0.017564 0.000000 0.038335
#
#
# Mechanical properties :
#
#
# Convention : Reuss Voigt Hill
#
# Bulk Modulus (GPa) = 48.41069 58.15794 53.28432
# Shear Modulus (GPa) = 26.37946 31.28965 28.83456
#
# Velocity S-wave (km/s) = 3.41152 3.71548 3.56674
# Velocity P-wave (km/s) = 6.07260 6.63818 6.36168
#
# Compressibility (1/GPa) = 0.02065659
#
# Stress axis : x y z
#
# Youngs Moduli (GPa) = 46.58415 71.91403 105.79770
#
# Poissons Ratio (x) = 0.44223 0.22839
# Poissons Ratio (y) = 0.28646 0.39945
# Poissons Ratio (z) = 0.10056 0.27152
#
# Static dielectric constant tensor:
#      x y z
#    x 1.890280 0.000000 -0.020790 
#    y 0.000000 1.850240 0.000000 
#    z -0.020790 0.000000 1.914080 
# 
# From -- ./inp_files/67402.got.cif
#   From: 2010.05.17/outbox.cif.g08.bks.cpg/sg5_34_cif.got.tgz:67402.got - 2010.06.03 18:56:24.
