data_PCOD9127993
_publ_section_title
;
Structure prediction by ZEFSAII (Michael W. Deem and Ramdas Pophale) SiO2 
 PCOD9127993
Probable space group: C 2
;
_chemical_formula_sum "Si O2"
_cell_formula_units_Z 22
_cell_length_a 8.761336
_cell_length_b 17.387262
_cell_length_c 8.904159
_cell_angle_alpha 90.000000
_cell_angle_beta 133.884409
_cell_angle_gamma 90.000000
_cell_volume 977.626415
_symmetry_space_group_name_H-M "C 2"
_symmetry_group_IT_number 5
_symmetry_cell_setting 'monoclinic'
loop_
_space_group_symop_operation_xyz
x,y,z
-x,y,-z
1/2+x,1/2+y,z
1/2-x,1/2+y,-z
loop_
_atom_site_type_symbol
_atom_site_label
_atom_site_fract_x
_atom_site_fract_y
_atom_site_fract_z
Si Si1 0.647331 0.754630 0.391735
Si Si2 0.453741 0.073429 0.791515
Si Si3 0.631749 0.917359 0.435905
Si Si4 0.980562 0.830669 0.809459
Si Si5 0.500000 0.647012 0.500000
Si Si6 0.754362 0.703671 0.161543
O O1 0.582342 0.840755 0.306004
O O2 0.790326 0.771679 0.636783
O O3 0.788282 0.716962 0.361897
O O4 0.176056 0.783350 0.873043
O O5 0.212004 0.101374 0.613449
O O6 0.446854 0.991824 0.703221
O O7 0.500000 0.066912 0.000000
O O8 0.617662 0.133110 0.824975
O O9 0.500000 0.911736 0.500000
O O10 0.881635 0.905385 0.654385
O O11 0.000000 0.843729 0.000000
O O12 0.529996 0.697803 0.671218
O O13 0.500000 0.692736 0.000000
#
# Coordination Sequence:
#
# PCOD9127993 Si02
#       6
#     4   4   4   4   2   4
#     4  10  23  45  73 109 141 194 251 313 379 442
#     4  12  28  51  73 114 158 202 257 313 388 457
#     4  10  25  47  71 104 151 203 243 312 384 449
#     4  10  23  44  74 110 146 194 260 314 372 449
#     4  12  24  44  82 102 154 200 254 326 370 444
#     4  12  26  42  82 115 151 196 259 319 382 455
#
# _framework density 22.503482999999999
#
# number of rings (size 3 to 8) (size 9 to 14) (size 15 to 20)
#    1.091    0.000    2.727    2.182    7.636    2.182 
#    3.273    0.000    0.000    0.000    0.000    0.000 
#    0.000    0.000    0.000    0.000    0.000    0.000 
#
# Total GULP energy -61276.737783 kJ/mol
# GULP energy per Si atom -5570.612526 kJ/mol
# Density = 2.245226 g / cm^3
# Si number density = 22.503483 Si / 1000 Ang^3
#
#
#
# Elastic Constant Matrix: (Units=GPa)
#
#
# Indices 1 2 3 4 5 6 
#
# 1 167.9601 81.3930 46.9296 0.0000 3.8150 0.0000
# 2 81.3930 117.4021 47.7493 0.0000 5.7570 0.0000
# 3 46.9296 47.7493 74.8866 0.0000 -1.8236 0.0000
# 4 0.0000 0.0000 0.0000 22.6611 0.0000 6.7905
# 5 3.8150 5.7570 -1.8236 0.0000 46.8770 0.0000
# 6 0.0000 0.0000 0.0000 6.7905 0.0000 0.3524
#
#
#
# Elastic Compliance Matrix: (Units=1/GPa)
#
#
# Indices 1 2 3 4 5 6 
#
# 1 0.009253 -0.005463 -0.002319 0.000000 -0.000172 0.000000
# 2 -0.005463 0.014863 -0.006092 0.000000 -0.001618 0.000000
# 3 -0.002319 -0.006092 0.018732 0.000000 0.001666 0.000000
# 4 0.000000 0.000000 0.000000 -0.009245 0.000000 0.178116
# 5 -0.000172 -0.001618 0.001666 0.000000 0.021610 0.000000
# 6 0.000000 0.000000 0.000000 0.178116 0.000000 -0.594405
#
#
# Mechanical properties :
#
#
# Convention : Reuss Voigt Hill
#
# Bulk Modulus (GPa) = 66.23476 79.15473 72.69475
# Shear Modulus (GPa) = -9.87345 26.25657 8.19156
#
# Velocity S-wave (km/s) = -2.09691 3.41952 1.90998
# Velocity P-wave (km/s) = 4.86151 7.13033 6.10229
#
# Compressibility (1/GPa) = 0.01509781
#
# Stress axis : x y z
#
# Youngs Moduli (GPa) = 108.06924 67.28307 53.38387
#
# Poissons Ratio (x) = 0.36759 0.12382
# Poissons Ratio (y) = 0.59042 0.32523
# Poissons Ratio (z) = 0.25066 0.40991
#
# Static dielectric constant tensor:
#      x y z
#    x 1.815090 0.000000 -0.003560 
#    y 0.000000 1.865470 0.000000 
#    z -0.003560 0.000000 2.089540 
# 
# From -- ./inp_files/16929.got.cif
#   From: 2010.05.17/outbox.cif.g08.bks.cpg/sg5_9_cif.got.tgz:16929.got - 2010.06.03 18:56:24.
