data_PCOD9127928
_publ_section_title
;
Structure prediction by ZEFSAII (Michael W. Deem and Ramdas Pophale) SiO2 
 PCOD9127928
Probable space group: C 2
;
_chemical_formula_sum "Si O2"
_cell_formula_units_Z 30
_cell_length_a 21.672043
_cell_length_b 5.075127
_cell_length_c 21.059342
_cell_angle_alpha 90.000000
_cell_angle_beta 31.724265
_cell_angle_gamma 90.000000
_cell_volume 1217.975400
_symmetry_space_group_name_H-M "C 2"
_symmetry_group_IT_number 5
_symmetry_cell_setting 'monoclinic'
loop_
_space_group_symop_operation_xyz
x,y,z
-x,y,-z
1/2+x,1/2+y,z
1/2-x,1/2+y,-z
loop_
_atom_site_type_symbol
_atom_site_label
_atom_site_fract_x
_atom_site_fract_y
_atom_site_fract_z
Si Si1 0.354824 0.743330 0.777702
Si Si2 0.247787 0.764178 0.076319
Si Si3 0.263087 0.879536 0.731324
Si Si4 0.005567 0.241290 0.860590
Si Si5 0.312497 0.160506 0.472024
Si Si6 0.000000 0.956650 0.000000
Si Si7 0.482595 0.433805 0.763259
Si Si8 0.249343 0.898567 0.339633
O O1 0.285146 0.465622 0.838067
O O2 0.358574 0.845540 0.703138
O O3 0.465854 0.658040 0.723387
O O4 0.280504 0.969848 0.877725
O O5 0.151778 0.847252 0.108434
O O6 0.380384 0.828143 0.944234
O O7 0.128770 0.821304 0.875706
O O8 0.294941 0.672588 0.648569
O O9 0.258513 0.171958 0.707006
O O10 0.111575 0.441495 0.769559
O O11 0.041295 0.027809 0.776382
O O12 0.984800 0.124532 0.948656
O O13 0.235372 0.369250 0.498116
O O14 0.443406 0.202497 0.332223
O O15 0.304931 0.273725 0.549734
#
# Coordination Sequence:
#
# PCOD9127928 Si02
#       8
#     4   4   4   4   4   2   4   4
#     4  10  23  44  66  98 139 185 219 277 335 417
#     4  10  24  40  67  97 145 175 223 276 336 419
#     4  11  23  43  68 101 139 185 224 282 343 415
#     4  11  23  45  64 112 136 188 222 282 350 416
#     4  12  26  50  72 101 138 181 235 300 337 402
#     4  10  24  36  70  94 152 178 228 270 354 410
#     4  10  27  43  75  98 139 184 234 283 348 406
#     4  11  26  42  74 101 139 177 239 283 345 404
#
# _framework density 24.631039000000001
#
# number of rings (size 3 to 8) (size 9 to 14) (size 15 to 20)
#    0.800    0.533    2.667    1.600    9.333    0.533 
#    0.000    0.667    0.000    0.000    0.000    0.000 
#    0.000    0.000    0.000    0.000    0.000    0.000 
#
# Total GULP energy -83810.683437 kJ/mol
# GULP energy per Si atom -5587.378896 kJ/mol
# Density = 2.457498 g / cm^3
# Si number density = 24.631039 Si / 1000 Ang^3
#
#
#
# Elastic Constant Matrix: (Units=GPa)
#
#
# Indices 1 2 3 4 5 6 
#
# 1 98.3859 26.1416 24.1368 -0.0537 13.3375 0.1032
# 2 26.1416 80.2378 -5.8411 0.0085 -15.4701 0.0863
# 3 24.1368 -5.8411 44.7165 0.0451 7.4371 -0.0721
# 4 -0.0537 0.0085 0.0451 17.2243 -0.0562 5.4405
# 5 13.3375 -15.4701 7.4371 -0.0562 26.3414 0.1072
# 6 0.1032 0.0863 -0.0721 5.4405 0.1072 39.2918
#
#
#
# Elastic Compliance Matrix: (Units=1/GPa)
#
#
# Indices 1 2 3 4 5 6 
#
# 1 0.015389 -0.007506 -0.007616 0.000044 -0.010050 -0.000017
# 2 -0.007506 0.017725 0.004201 0.000015 0.013025 -0.000049
# 3 -0.007616 0.004201 0.027251 -0.000128 -0.001371 0.000082
# 4 0.000044 0.000015 -0.000128 0.060714 0.000186 -0.008408
# 5 -0.010050 0.013025 -0.001371 0.000186 0.051089 -0.000170
# 6 -0.000017 -0.000049 0.000082 -0.008408 -0.000170 0.026615
#
#
# Mechanical properties :
#
#
# Convention : Reuss Voigt Hill
#
# Bulk Modulus (GPa) = 25.95827 34.69054 30.32440
# Shear Modulus (GPa) = 21.41626 28.49838 24.95732
#
# Velocity S-wave (km/s) = 2.95190 3.40518 3.18661
# Velocity P-wave (km/s) = 4.70956 5.43829 5.08699
#
# Compressibility (1/GPa) = 0.03852337
#
# Stress axis : x y z
#
# Youngs Moduli (GPa) = 64.98082 56.41622 36.69601
#
# Poissons Ratio (x) = 0.42345 0.27947
# Poissons Ratio (y) = 0.48773 -0.15414
# Poissons Ratio (z) = 0.49488 -0.23698
#
# Static dielectric constant tensor:
#      x y z
#    x 1.970190 -0.000010 -0.024090 
#    y -0.000010 1.938700 0.000040 
#    z -0.024090 0.000040 1.985080 
# 
# From -- ./inp_files/67264.got.cif
#   From: 2010.05.17/outbox.cif.g08.bks.cpg/sg5_34_cif.got.tgz:67264.got - 2010.06.03 18:56:24.
