data_PCOD9127699
_publ_section_title
;
Structure prediction by ZEFSAII (Michael W. Deem and Ramdas Pophale) SiO2 
 PCOD9127699
Probable space group: C 2
;
_chemical_formula_sum "Si O2"
_cell_formula_units_Z 28
_cell_length_a 14.779806
_cell_length_b 12.551533
_cell_length_c 8.533494
_cell_angle_alpha 90.000000
_cell_angle_beta 133.208825
_cell_angle_gamma 90.000000
_cell_volume 1153.820911
_symmetry_space_group_name_H-M "C 2"
_symmetry_group_IT_number 5
_symmetry_cell_setting 'monoclinic'
loop_
_space_group_symop_operation_xyz
x,y,z
-x,y,-z
1/2+x,1/2+y,z
1/2-x,1/2+y,-z
loop_
_atom_site_type_symbol
_atom_site_label
_atom_site_fract_x
_atom_site_fract_y
_atom_site_fract_z
Si Si1 0.239020 0.513930 0.489032
Si Si2 0.254948 0.826037 0.320144
Si Si3 0.054719 0.697821 0.229062
Si Si4 0.010092 0.274353 0.697234
Si Si5 0.979537 0.037639 0.289479
Si Si6 0.366100 0.853828 0.897226
Si Si7 0.340331 0.311986 0.126742
O O1 0.221705 0.449461 0.628780
O O2 0.160449 0.619461 0.408959
O O3 0.384551 0.525444 0.625573
O O4 0.176936 0.445336 0.271736
O O5 0.125281 0.802526 0.250839
O O6 0.361636 0.770357 0.549635
O O7 0.241152 0.788879 0.126399
O O8 0.954365 0.731694 0.237246
O O9 0.000000 0.651986 0.000000
O O10 0.065114 0.157876 0.806362
O O11 0.000000 0.291469 0.500000
O O12 0.077664 0.373695 0.860913
O O13 0.000000 0.043837 0.500000
O O14 0.892995 0.933345 0.166764
O O15 0.500000 0.802561 0.000000
O O16 0.236838 0.801364 0.803857
#
# Coordination Sequence:
#
# PCOD9127699 Si02
#       7
#     4   4   4   4   4   4   4
#     4  12  23  42  70 104 139 181 234 293 350 415
#     4  11  22  42  69  96 141 184 227 285 352 419
#     4  10  23  41  68 103 140 186 228 281 354 424
#     4  11  23  44  68  97 136 188 231 283 354 419
#     4  11  23  41  72 102 137 186 238 283 352 430
#     4  12  25  43  70 101 142 179 236 298 344 409
#     4  11  24  46  69 101 140 184 237 288 346 423
#
# _framework density 24.267196999999999
#
# number of rings (size 3 to 8) (size 9 to 14) (size 15 to 20)
#    0.000    0.857    7.143    0.429    0.000    0.000 
#    7.714    0.000    0.000    6.857    0.000    0.000 
#    0.000    0.000    0.000    0.000    0.000    0.000 
#
# Total GULP energy -77962.385375 kJ/mol
# GULP energy per Si atom -5568.741812 kJ/mol
# Density = 2.421196 g / cm^3
# Si number density = 24.267197 Si / 1000 Ang^3
#
#
#
# Elastic Constant Matrix: (Units=GPa)
#
#
# Indices 1 2 3 4 5 6 
#
# 1 151.5919 27.6437 -6.6407 0.0000 16.4608 0.0000
# 2 27.6437 74.5879 17.4369 0.0000 -0.4500 0.0000
# 3 -6.6407 17.4369 61.9080 0.0000 12.6329 0.0000
# 4 0.0000 0.0000 0.0000 24.5916 0.0000 8.9711
# 5 16.4608 -0.4500 12.6329 0.0000 25.7084 0.0000
# 6 0.0000 0.0000 0.0000 8.9711 0.0000 27.7243
#
#
#
# Elastic Compliance Matrix: (Units=1/GPa)
#
#
# Indices 1 2 3 4 5 6 
#
# 1 0.008214 -0.003882 0.003403 0.000000 -0.006999 0.000000
# 2 -0.003882 0.016331 -0.006204 0.000000 0.005820 0.000000
# 3 0.003403 -0.006204 0.020820 0.000000 -0.012518 0.000000
# 4 0.000000 0.000000 0.000000 0.046107 0.000000 -0.014919
# 5 -0.006999 0.005820 -0.012518 0.000000 0.049632 0.000000
# 6 0.000000 0.000000 0.000000 -0.014919 0.000000 0.040897
#
#
# Mechanical properties :
#
#
# Convention : Reuss Voigt Hill
#
# Bulk Modulus (GPa) = 31.25145 40.55194 35.90170
# Shear Modulus (GPa) = 24.26797 32.24806 28.25802
#
# Velocity S-wave (km/s) = 3.16576 3.64933 3.41611
# Velocity P-wave (km/s) = 5.12530 5.87398 5.51237
#
# Compressibility (1/GPa) = 0.03199851
#
# Stress axis : x y z
#
# Youngs Moduli (GPa) = 121.74952 61.23294 48.03133
#
# Poissons Ratio (x) = 0.23769 -0.16343
# Poissons Ratio (y) = 0.47261 0.29798
# Poissons Ratio (z) = -0.41427 0.37987
#
# Static dielectric constant tensor:
#      x y z
#    x 2.249860 0.000000 0.026880 
#    y 0.000000 1.980280 0.000000 
#    z 0.026880 0.000000 2.029550 
# 
# From -- ./inp_files/24689.got.cif
#   From: 2010.05.17/outbox.cif.g08.bks.cpg/sg5_13_cif.got.tgz:24689.got - 2010.06.03 18:56:24.
