data_PCOD9127970
_publ_section_title
;
Structure prediction by ZEFSAII (Michael W. Deem and Ramdas Pophale) SiO2 
 PCOD9127970
Probable space group: C 2
;
_chemical_formula_sum "Si O2"
_cell_formula_units_Z 24
_cell_length_a 15.507582
_cell_length_b 9.583018
_cell_length_c 19.504158
_cell_angle_alpha 90.000000
_cell_angle_beta 19.857476
_cell_angle_gamma 90.000000
_cell_volume 984.567750
_symmetry_space_group_name_H-M "C 2"
_symmetry_group_IT_number 5
_symmetry_cell_setting 'monoclinic'
loop_
_space_group_symop_operation_xyz
x,y,z
-x,y,-z
1/2+x,1/2+y,z
1/2-x,1/2+y,-z
loop_
_atom_site_type_symbol
_atom_site_label
_atom_site_fract_x
_atom_site_fract_y
_atom_site_fract_z
Si Si1 0.607869 0.850690 0.650288
Si Si2 0.600131 0.366862 0.703640
Si Si3 0.573592 0.863294 0.023849
Si Si4 0.205257 0.671039 0.896667
Si Si5 0.248240 0.146955 0.648453
Si Si6 0.646991 0.593628 0.457308
O O1 0.688860 0.890707 0.513450
O O2 0.787183 0.728425 0.547353
O O3 0.651997 0.984767 0.663399
O O4 0.168085 0.279595 0.146130
O O5 0.349537 0.328910 0.848573
O O6 0.580959 0.510553 0.759060
O O7 0.713833 0.239286 0.661502
O O8 0.577196 0.033042 0.024155
O O9 0.500000 0.834774 0.000000
O O10 0.386167 0.766183 0.206577
O O11 0.437861 0.615805 0.674365
O O12 0.000000 0.739046 0.000000
O O13 0.500000 0.103619 0.500000
O O14 0.500000 0.542557 0.500000
#
# Coordination Sequence:
#
# PCOD9127970 Si02
#       6
#     4   4   4   4   4   4
#     4  11  22  44  74 106 135 194 240 297 364 432
#     4  11  23  49  69 107 150 187 242 305 360 431
#     4  11  24  45  72 104 149 192 245 302 359 435
#     4  10  23  44  71 103 151 187 243 302 365 429
#     4  12  26  43  76 108 144 193 244 301 363 434
#     4  11  24  41  75 106 143 195 239 296 368 434
#
# _framework density 24.376180000000002
#
# number of rings (size 3 to 8) (size 9 to 14) (size 15 to 20)
#    0.000    1.000    3.333    3.000    7.000    2.667 
#    0.000    4.167    0.000    0.000    0.000    0.000 
#    0.000    0.000    0.000    0.000    0.000    0.000 
#
# Total GULP energy -67166.145983 kJ/mol
# GULP energy per Si atom -5597.178832 kJ/mol
# Density = 2.432070 g / cm^3
# Si number density = 24.376180 Si / 1000 Ang^3
#
#
#
# Elastic Constant Matrix: (Units=GPa)
#
#
# Indices 1 2 3 4 5 6 
#
# 1 123.7734 60.0003 43.6367 -0.0093 -23.0623 0.0036
# 2 60.0003 121.8053 32.3171 -0.0387 -4.4849 -0.0117
# 3 43.6367 32.3171 75.5352 -0.0330 -17.9633 0.0017
# 4 -0.0093 -0.0387 -0.0330 32.8148 -0.0044 -11.5291
# 5 -23.0623 -4.4849 -17.9633 -0.0044 43.6841 -0.0060
# 6 0.0036 -0.0117 0.0017 -11.5291 -0.0060 47.4046
#
#
#
# Elastic Compliance Matrix: (Units=1/GPa)
#
#
# Indices 1 2 3 4 5 6 
#
# 1 0.012850 -0.005053 -0.004180 -0.000007 0.004546 -0.000003
# 2 -0.005053 0.011271 -0.002507 0.000011 -0.002542 0.000006
# 3 -0.004180 -0.002507 0.017890 0.000016 0.004892 0.000003
# 4 -0.000007 0.000011 0.000016 0.033321 0.000008 0.008104
# 5 0.004546 -0.002542 0.004892 0.000008 0.027042 0.000004
# 6 -0.000003 0.000006 0.000003 0.008104 0.000004 0.023066
#
#
# Mechanical properties :
#
#
# Convention : Reuss Voigt Hill
#
# Bulk Modulus (GPa) = 53.96957 65.89135 59.93046
# Shear Modulus (GPa) = 32.23782 37.12468 34.68125
#
# Velocity S-wave (km/s) = 3.64058 3.90678 3.77603
# Velocity P-wave (km/s) = 6.31349 6.88769 6.60683
#
# Compressibility (1/GPa) = 0.01852896
#
# Stress axis : x y z
#
# Youngs Moduli (GPa) = 77.82324 88.72638 55.89749
#
# Poissons Ratio (x) = 0.44835 0.23366
# Poissons Ratio (y) = 0.39325 0.14015
# Poissons Ratio (z) = 0.32531 0.22246
#
# Static dielectric constant tensor:
#      x y z
#    x 1.975570 0.000000 0.071250 
#    y 0.000000 1.905900 0.000020 
#    z 0.071250 0.000020 1.980380 
# 
# From -- ./inp_files/69068.got.cif
#   From: 2010.05.17/outbox.cif.g08.bks.cpg/sg5_35_cif.got.tgz:69068.got - 2010.06.03 18:56:24.
