data_PCOD9127429
_publ_section_title
;
Structure prediction by ZEFSAII (Michael W. Deem and Ramdas Pophale) SiO2 
 PCOD9127429
Probable space group: C 2
;
_chemical_formula_sum "Si O2"
_cell_formula_units_Z 26
_cell_length_a 8.285793
_cell_length_b 17.633045
_cell_length_c 11.101902
_cell_angle_alpha 90.000000
_cell_angle_beta 40.494447
_cell_angle_gamma 90.000000
_cell_volume 1053.304437
_symmetry_space_group_name_H-M "C 2"
_symmetry_group_IT_number 5
_symmetry_cell_setting 'monoclinic'
loop_
_space_group_symop_operation_xyz
x,y,z
-x,y,-z
1/2+x,1/2+y,z
1/2-x,1/2+y,-z
loop_
_atom_site_type_symbol
_atom_site_label
_atom_site_fract_x
_atom_site_fract_y
_atom_site_fract_z
Si Si1 0.148001 0.165550 0.802425
Si Si2 0.525241 0.525097 0.738936
Si Si3 0.117038 0.256317 0.246522
Si Si4 0.000000 0.512755 0.000000
Si Si5 0.139170 0.694711 0.667535
Si Si6 0.335785 0.015079 0.337515
Si Si7 0.188063 0.419506 0.281837
O O1 0.192558 0.096104 0.684864
O O2 0.395999 0.201399 0.720291
O O3 0.960891 0.222170 0.838171
O O4 0.000000 0.132369 0.000000
O O5 0.610215 0.500548 0.557260
O O6 0.560824 0.451710 0.802609
O O7 0.245364 0.555572 0.904592
O O8 0.339076 0.228183 0.209536
O O9 0.171406 0.345499 0.211045
O O10 0.866877 0.232740 0.464442
O O11 0.887644 0.473449 0.181422
O O12 0.175556 0.605228 0.671995
O O13 0.573404 0.990486 0.278431
O O14 0.000000 0.403936 0.500000
#
# Coordination Sequence:
#
# PCOD9127429 Si02
#       7
#     4   4   4   2   4   4   4
#     4  12  25  44  74 109 147 197 247 305 367 443
#     4  11  24  44  75 105 148 192 249 304 368 438
#     4  11  24  44  75 104 144 192 246 303 367 440
#     4  12  26  42  68 118 146 184 246 316 352 446
#     4  11  22  44  74 102 138 190 248 300 353 441
#     4  11  23  44  74 106 144 191 244 301 372 436
#     4  10  22  46  72 101 140 194 240 301 378 437
#
# _framework density 24.684221000000001
#
# number of rings (size 3 to 8) (size 9 to 14) (size 15 to 20)
#    0.000    0.923    4.615    2.769    2.154    0.615 
#    4.154    3.077    0.000    0.000    0.000    0.000 
#    0.000    0.000    0.000    0.000    0.000    0.000 
#
# Total GULP energy -72527.884822 kJ/mol
# GULP energy per Si atom -5579.068063 kJ/mol
# Density = 2.462804 g / cm^3
# Si number density = 24.684221 Si / 1000 Ang^3
#
#
#
# Elastic Constant Matrix: (Units=GPa)
#
#
# Indices 1 2 3 4 5 6 
#
# 1 170.5304 39.7358 56.6043 -0.0002 -14.5991 0.0001
# 2 39.7358 103.2723 4.3602 0.0000 -8.9166 0.0000
# 3 56.6043 4.3602 109.8388 -0.0002 7.0880 0.0002
# 4 -0.0002 0.0000 -0.0002 11.4679 0.0002 4.1510
# 5 -14.5991 -8.9166 7.0880 0.0002 42.5504 -0.0001
# 6 0.0001 0.0000 0.0002 4.1510 -0.0001 37.1548
#
#
#
# Elastic Compliance Matrix: (Units=1/GPa)
#
#
# Indices 1 2 3 4 5 6 
#
# 1 0.008174 -0.002709 -0.004295 0.000000 0.002952 0.000000
# 2 -0.002709 0.010790 0.000891 0.000000 0.001183 0.000000
# 3 -0.004295 0.000891 0.011489 0.000000 -0.003201 0.000000
# 4 0.000000 0.000000 0.000000 0.090874 0.000000 -0.010153
# 5 0.002952 0.001183 -0.003201 0.000000 0.025296 0.000000
# 6 0.000000 0.000000 0.000000 -0.010153 0.000000 0.028049
#
#
# Mechanical properties :
#
#
# Convention : Reuss Voigt Hill
#
# Bulk Modulus (GPa) = 54.86335 65.00468 59.93401
# Shear Modulus (GPa) = 25.91045 37.09737 31.50391
#
# Velocity S-wave (km/s) = 3.24339 3.88090 3.57638
# Velocity P-wave (km/s) = 6.02498 6.81715 6.43327
#
# Compressibility (1/GPa) = 0.01822710
#
# Stress axis : x y z
#
# Youngs Moduli (GPa) = 122.34392 92.67924 87.04045
#
# Poissons Ratio (x) = 0.25104 0.37386
# Poissons Ratio (y) = 0.33140 -0.07757
# Poissons Ratio (z) = 0.52549 -0.08260
#
# Static dielectric constant tensor:
#      x y z
#    x 2.098750 0.000000 -0.013030 
#    y 0.000000 1.849200 0.000000 
#    z -0.013030 0.000000 2.006660 
# 
# From -- ./inp_files/37274.got.cif
#   From: 2010.05.17/outbox.cif.g08.bks.cpg/sg5_19_cif.got.tgz:37274.got - 2010.06.03 18:56:24.
