data_PCOD9127577
_publ_section_title
;
Structure prediction by ZEFSAII (Michael W. Deem and Ramdas Pophale) SiO2 
 PCOD9127577
Probable space group: C 2
;
_chemical_formula_sum "Si O2"
_cell_formula_units_Z 28
_cell_length_a 12.419752
_cell_length_b 5.580544
_cell_length_c 16.844888
_cell_angle_alpha 90.000000
_cell_angle_beta 100.370131
_cell_angle_gamma 90.000000
_cell_volume 1148.431254
_symmetry_space_group_name_H-M "C 2"
_symmetry_group_IT_number 5
_symmetry_cell_setting 'monoclinic'
loop_
_space_group_symop_operation_xyz
x,y,z
-x,y,-z
1/2+x,1/2+y,z
1/2-x,1/2+y,-z
loop_
_atom_site_type_symbol
_atom_site_label
_atom_site_fract_x
_atom_site_fract_y
_atom_site_fract_z
Si Si1 0.003055 0.417140 0.366417
Si Si2 0.543183 0.625136 0.799668
Si Si3 0.886731 0.036129 0.499786
Si Si4 0.894949 0.167322 0.929771
Si Si5 0.781627 0.401324 0.391400
Si Si6 0.787649 0.656222 0.887702
Si Si7 0.108465 0.751486 0.264755
O O1 0.963087 0.272757 0.282461
O O2 0.894120 0.538849 0.388405
O O3 0.064841 0.252748 0.438513
O O4 0.090727 0.593814 0.339995
O O5 0.446591 0.685966 0.848416
O O6 0.657777 0.653296 0.858646
O O7 0.510334 0.354887 0.772080
O O8 0.835383 0.137920 0.411828
O O9 0.000000 0.895134 0.500000
O O10 0.787251 0.938187 0.538119
O O11 0.828120 0.412992 0.936273
O O12 0.829568 0.914371 0.925850
O O13 0.000000 0.153491 0.000000
O O14 0.697649 0.440968 0.308713
O O15 0.838881 0.642235 0.806007
#
# Coordination Sequence:
#
# PCOD9127577 Si02
#       7
#     4   4   4   4   4   4   4
#     4  11  22  40  62  92 128 166 227 276 333 401
#     4  11  24  41  67  99 136 173 227 273 338 406
#     4  10  23  39  58  87 128 169 225 282 338 408
#     4  11  26  47  72 104 141 178 224 278 338 411
#     4  11  22  40  60  90 126 173 223 281 343 396
#     4  11  25  43  71 103 138 180 224 276 340 405
#     4  11  23  38  65  96 128 176 223 281 335 403
#
# _framework density 24.381084999999999
#
# number of rings (size 3 to 8) (size 9 to 14) (size 15 to 20)
#    0.000    1.143    4.286    1.286    2.000    3.429 
#    0.000    0.000    0.000    0.000    0.000    0.000 
#    0.000    0.000    0.000    0.000    0.000    0.000 
#
# Total GULP energy -78169.928963 kJ/mol
# GULP energy per Si atom -5583.566355 kJ/mol
# Density = 2.432559 g / cm^3
# Si number density = 24.381085 Si / 1000 Ang^3
#
#
#
# Elastic Constant Matrix: (Units=GPa)
#
#
# Indices 1 2 3 4 5 6 
#
# 1 145.5080 47.4731 27.8906 0.0000 12.8511 0.0000
# 2 47.4731 93.7137 27.4685 0.0000 19.2351 0.0000
# 3 27.8906 27.4685 90.1646 0.0000 16.0867 0.0000
# 4 0.0000 0.0000 0.0000 26.3068 0.0000 20.5560
# 5 12.8511 19.2351 16.0867 0.0000 58.5900 0.0000
# 6 0.0000 0.0000 0.0000 20.5560 0.0000 17.7543
#
#
#
# Elastic Compliance Matrix: (Units=1/GPa)
#
#
# Indices 1 2 3 4 5 6 
#
# 1 0.008400 -0.003801 -0.001403 0.000000 -0.000209 0.000000
# 2 -0.003801 0.013966 -0.002534 0.000000 -0.003056 0.000000
# 3 -0.001403 -0.002534 0.012716 0.000000 -0.002352 0.000000
# 4 0.000000 0.000000 0.000000 0.398889 0.000000 -0.461836
# 5 -0.000209 -0.003056 -0.002352 0.000000 0.018763 0.000000
# 6 0.000000 0.000000 0.000000 -0.461836 0.000000 0.591040
#
#
# Mechanical properties :
#
#
# Convention : Reuss Voigt Hill
#
# Bulk Modulus (GPa) = 51.00280 59.45008 55.22644
# Shear Modulus (GPa) = 4.69138 35.63381 20.16259
#
# Velocity S-wave (km/s) = 1.38866 3.82715 2.87884
# Velocity P-wave (km/s) = 4.85135 6.63069 5.80955
#
# Compressibility (1/GPa) = 0.01960677
#
# Stress axis : x y z
#
# Youngs Moduli (GPa) = 119.04749 71.60153 78.63877
#
# Poissons Ratio (x) = 0.27216 0.11033
# Poissons Ratio (y) = 0.45250 0.19926
# Poissons Ratio (z) = 0.16703 0.18143
#
# Static dielectric constant tensor:
#      x y z
#    x 1.948790 0.000000 -0.024570 
#    y 0.000000 2.059880 0.000000 
#    z -0.024570 0.000000 1.930960 
# 
# From -- ./inp_files/64866.got.cif
#   From: 2010.05.17/outbox.cif.g08.bks.cpg/sg5_33_cif.got.tgz:64866.got - 2010.06.03 18:56:24.
