data_PCOD9127695
_publ_section_title
;
Structure prediction by ZEFSAII (Michael W. Deem and Ramdas Pophale) SiO2 
 PCOD9127695
Probable space group: C 2
;
_chemical_formula_sum "Si O2"
_cell_formula_units_Z 26
_cell_length_a 12.623221
_cell_length_b 15.122261
_cell_length_c 10.816587
_cell_angle_alpha 90.000000
_cell_angle_beta 146.269982
_cell_angle_gamma 90.000000
_cell_volume 1146.540416
_symmetry_space_group_name_H-M "C 2"
_symmetry_group_IT_number 5
_symmetry_cell_setting 'monoclinic'
loop_
_space_group_symop_operation_xyz
x,y,z
-x,y,-z
1/2+x,1/2+y,z
1/2-x,1/2+y,-z
loop_
_atom_site_type_symbol
_atom_site_label
_atom_site_fract_x
_atom_site_fract_y
_atom_site_fract_z
Si Si1 0.500000 0.482641 0.500000
Si Si2 0.000000 0.244933 0.500000
Si Si3 0.057144 0.755376 0.790182
Si Si4 0.693724 0.116560 0.129508
Si Si5 0.239751 0.892310 0.517886
Si Si6 0.500000 0.156849 0.500000
Si Si7 0.364370 0.887074 0.175664
Si Si8 0.210425 0.010632 0.244826
O O1 0.354176 0.541258 0.273417
O O2 0.628795 0.429183 0.528873
O O3 0.812068 0.185050 0.330910
O O4 0.960569 0.308563 0.348180
O O5 0.098648 0.717037 0.696713
O O6 0.841421 0.792893 0.580617
O O7 0.121671 0.677743 0.946265
O O8 0.180564 0.842515 0.938475
O O9 0.500000 0.081523 0.000000
O O10 0.466234 0.909216 0.753376
O O11 0.197607 0.944825 0.348706
O O12 0.342707 0.092906 0.407494
O O13 0.305818 0.961359 0.218562
O O14 0.000000 0.037874 0.000000
#
# Coordination Sequence:
#
# PCOD9127695 Si02
#       8
#     2   2   4   4   4   2   4   4
#     4  11  29  44  67 105 150 190 232 293 373 430
#     4   9  17  36  63 107 130 164 236 295 349 406
#     4  11  27  43  75 103 147 183 247 297 372 423
#     4  10  23  41  67  99 137 181 233 296 356 422
#     4  12  24  47  73 104 150 190 243 299 356 451
#     4  12  28  50  66 118 150 194 238 318 372 426
#     4  11  21  43  76 108 134 194 240 301 355 436
#     4  12  25  44  80 106 143 191 258 297 365 434
#
# _framework density 22.676914
#
# number of rings (size 3 to 8) (size 9 to 14) (size 15 to 20)
#    0.000    0.923    4.615    1.385    6.462    2.462 
#    0.000    1.538    0.000    0.000    0.000    0.000 
#    0.000    0.000    0.000    0.000    0.000    0.000 
#
# Total GULP energy -72614.754706 kJ/mol
# GULP energy per Si atom -5585.750362 kJ/mol
# Density = 2.262530 g / cm^3
# Si number density = 22.676914 Si / 1000 Ang^3
#
#
#
# Elastic Constant Matrix: (Units=GPa)
#
#
# Indices 1 2 3 4 5 6 
#
# 1 121.1833 31.6674 20.2924 0.0000 17.0211 0.0000
# 2 31.6674 52.7388 7.2272 0.0000 -9.9873 0.0000
# 3 20.2924 7.2272 62.4048 0.0000 9.2700 0.0000
# 4 0.0000 0.0000 0.0000 -26.7149 0.0000 109.7130
# 5 17.0211 -9.9873 9.2700 0.0000 35.6523 0.0000
# 6 0.0000 0.0000 0.0000 109.7130 0.0000 -242.4311
#
#
#
# Elastic Compliance Matrix: (Units=1/GPa)
#
#
# Indices 1 2 3 4 5 6 
#
# 1 0.011741 -0.008220 -0.001759 0.000000 -0.007451 0.000000
# 2 -0.008220 0.026445 -0.002156 0.000000 0.011893 0.000000
# 3 -0.001759 -0.002156 0.017487 0.000000 -0.004311 0.000000
# 4 0.000000 0.000000 0.000000 0.043599 0.000000 0.019731
# 5 -0.007451 0.011893 -0.004311 0.000000 0.036058 0.000000
# 6 0.000000 0.000000 0.000000 0.019731 0.000000 0.004804
#
#
# Mechanical properties :
#
#
# Convention : Reuss Voigt Hill
#
# Bulk Modulus (GPa) = 31.84557 39.41120 35.62839
# Shear Modulus (GPa) = 28.59227 -34.88940 -3.14856
#
# Velocity S-wave (km/s) = 3.55470 -3.92668 -1.17960
# Velocity P-wave (km/s) = 5.56071 1.77236 3.72695
#
# Compressibility (1/GPa) = 0.03140154
#
# Stress axis : x y z
#
# Youngs Moduli (GPa) = 85.17135 37.81469 57.18685
#
# Poissons Ratio (x) = 0.31083 0.10060
# Poissons Ratio (y) = 0.70010 0.12332
# Poissons Ratio (z) = 0.14983 0.08154
#
# Static dielectric constant tensor:
#      x y z
#    x 2.175990 0.000000 0.030260 
#    y 0.000000 1.861350 0.000000 
#    z 0.030260 0.000000 1.879360 
# 
# From -- ./inp_files/43151.got.cif
#   From: 2010.05.17/outbox.cif.g08.bks.cpg/sg5_22_cif.got.tgz:43151.got - 2010.06.03 18:56:24.
