data_PCOD9127678
_publ_section_title
;
Structure prediction by ZEFSAII (Michael W. Deem and Ramdas Pophale) SiO2 
 PCOD9127678
Probable space group: C 2
;
_chemical_formula_sum "Si O2"
_cell_formula_units_Z 32
_cell_length_a 24.325211
_cell_length_b 10.834374
_cell_length_c 5.872671
_cell_angle_alpha 90.000000
_cell_angle_beta 67.976184
_cell_angle_gamma 90.000000
_cell_volume 1434.792150
_symmetry_space_group_name_H-M "C 2"
_symmetry_group_IT_number 5
_symmetry_cell_setting 'monoclinic'
loop_
_space_group_symop_operation_xyz
x,y,z
-x,y,-z
1/2+x,1/2+y,z
1/2-x,1/2+y,-z
loop_
_atom_site_type_symbol
_atom_site_label
_atom_site_fract_x
_atom_site_fract_y
_atom_site_fract_z
Si Si1 0.970496 0.482040 0.293055
Si Si2 0.643075 0.355651 0.117177
Si Si3 0.798524 0.649136 0.226062
Si Si4 0.553388 0.264246 0.590799
Si Si5 0.250735 0.997370 0.919049
Si Si6 0.433269 0.499335 0.103778
Si Si7 0.821103 0.161926 0.319662
Si Si8 0.658638 0.919263 0.574455
O O1 0.959362 0.629742 0.290266
O O2 0.907921 0.412798 0.408637
O O3 0.000000 0.465398 0.500000
O O4 0.000000 0.446489 0.000000
O O5 0.611956 0.268118 0.345616
O O6 0.668031 0.276955 0.864692
O O7 0.702042 0.417512 0.129624
O O8 0.594761 0.452230 0.093330
O O9 0.730506 0.656279 0.411406
O O10 0.832194 0.554754 0.336097
O O11 0.795016 0.578615 0.993919
O O12 0.500000 0.291235 0.500000
O O13 0.559292 0.374906 0.759703
O O14 0.290929 0.912886 0.695824
O O15 0.209599 0.089441 0.838151
O O16 0.382573 0.591314 0.278222
O O17 0.500000 0.554033 0.000000
O O18 0.832054 0.306897 0.265137
#
# Coordination Sequence:
#
# PCOD9127678 Si02
#       8
#     4   4   4   4   4   4   4   4
#     4  11  27  46  71 105 145 186 243 295 353 420
#     4  11  22  39  65  99 127 174 223 283 353 414
#     4  11  23  40  68  95 131 172 225 287 351 414
#     4  11  22  37  66  97 131 172 225 289 349 411
#     4  10  23  41  65  98 131 173 224 291 353 422
#     4  11  22  41  65  91 137 172 225 283 346 423
#     4  10  24  43  63  98 132 176 230 284 348 431
#     4  11  24  43  67  95 135 180 230 289 356 425
#
# _framework density 22.302883000000001
#
# number of rings (size 3 to 8) (size 9 to 14) (size 15 to 20)
#    0.000    1.250    2.500    2.625    8.750    1.500 
#    0.000    0.625    0.000    0.000    0.000    0.000 
#    0.000    0.000    0.000    0.000    0.000    0.000 
#
# Total GULP energy -89302.109851 kJ/mol
# GULP energy per Si atom -5581.381866 kJ/mol
# Density = 2.225212 g / cm^3
# Si number density = 22.302883 Si / 1000 Ang^3
#
#
#
# Elastic Constant Matrix: (Units=GPa)
#
#
# Indices 1 2 3 4 5 6 
#
# 1 124.1447 19.6785 39.9764 0.0000 -20.0047 0.0000
# 2 19.6785 28.8455 -2.6997 0.0000 -6.1699 0.0000
# 3 39.9764 -2.6997 64.0219 0.0000 -15.7777 0.0000
# 4 0.0000 0.0000 0.0000 11.9549 0.0000 -2.8881
# 5 -20.0047 -6.1699 -15.7777 0.0000 26.3864 0.0000
# 6 0.0000 0.0000 0.0000 -2.8881 0.0000 23.1677
#
#
#
# Elastic Compliance Matrix: (Units=1/GPa)
#
#
# Indices 1 2 3 4 5 6 
#
# 1 0.012185 -0.008357 -0.007232 0.000000 0.002960 0.000000
# 2 -0.008357 0.043247 0.009350 0.000000 0.009368 0.000000
# 3 -0.007232 0.009350 0.023125 0.000000 0.010531 0.000000
# 4 0.000000 0.000000 0.000000 0.086245 0.000000 0.010751
# 5 0.002960 0.009368 0.010531 0.000000 0.048630 0.000000
# 6 0.000000 0.000000 0.000000 0.010751 0.000000 0.044504
#
#
# Mechanical properties :
#
#
# Convention : Reuss Voigt Hill
#
# Bulk Modulus (GPa) = 15.13279 36.76917 25.95098
# Shear Modulus (GPa) = 17.09756 22.97227 20.03492
#
# Velocity S-wave (km/s) = 2.77177 3.21286 3.00043
# Velocity P-wave (km/s) = 4.12837 5.50322 4.86461
#
# Compressibility (1/GPa) = 0.06608169
#
# Stress axis : x y z
#
# Youngs Moduli (GPa) = 82.06500 23.12287 43.24349
#
# Poissons Ratio (x) = 0.19323 0.31272
# Poissons Ratio (y) = 0.68579 -0.40434
# Poissons Ratio (z) = 0.59347 -0.21621
#
# Static dielectric constant tensor:
#      x y z
#    x 1.826190 0.000000 0.001150 
#    y 0.000000 1.804750 0.000000 
#    z 0.001150 0.000000 1.854220 
# 
# From -- ./inp_files/10381.got.cif
#   From: 2010.05.17/outbox.cif.g08.bks.cpg/sg5_6_cif.got.tgz:10381.got - 2010.06.03 18:56:24.
