data_PCOD9127780
_publ_section_title
;
Structure prediction by ZEFSAII (Michael W. Deem and Ramdas Pophale) SiO2 
 PCOD9127780
Probable space group: C 2
;
_chemical_formula_sum "Si O2"
_cell_formula_units_Z 20
_cell_length_a 8.044713
_cell_length_b 7.125525
_cell_length_c 15.161068
_cell_angle_alpha 90.000000
_cell_angle_beta 74.051682
_cell_angle_gamma 90.000000
_cell_volume 835.624174
_symmetry_space_group_name_H-M "C 2"
_symmetry_group_IT_number 5
_symmetry_cell_setting 'monoclinic'
loop_
_space_group_symop_operation_xyz
x,y,z
-x,y,-z
1/2+x,1/2+y,z
1/2-x,1/2+y,-z
loop_
_atom_site_type_symbol
_atom_site_label
_atom_site_fract_x
_atom_site_fract_y
_atom_site_fract_z
Si Si1 0.354361 0.494970 0.592709
Si Si2 0.273393 0.785978 0.745996
Si Si3 0.491201 0.141641 0.663723
Si Si4 0.662425 0.529234 0.106530
Si Si5 0.843555 0.170626 0.075544
O O1 0.500000 0.536818 0.500000
O O2 0.381553 0.631867 0.672441
O O3 0.381593 0.280813 0.619191
O O4 0.843140 0.540331 0.407600
O O5 0.092845 0.767585 0.720896
O O6 0.269365 0.696150 0.843251
O O7 0.373599 0.981117 0.724054
O O8 0.724576 0.329163 0.131235
O O9 0.455031 0.548841 0.127026
O O10 0.729239 0.551411 0.995306
O O11 0.000000 0.274217 0.000000
#
# Coordination Sequence:
#
# PCOD9127780 Si02
#       5
#     4   4   4   4   4
#     4  10  26  41  67  93 130 166 214 259 319 374
#     4  10  23  42  67  95 127 169 211 264 309 381
#     4  10  25  39  64  93 126 165 213 260 317 365
#     4   9  18  43  59  93 124 162 208 249 312 365
#     4   8  20  35  60  88 123 162 200 250 303 363
#
# _framework density 23.934204999999999
#
# number of rings (size 3 to 8) (size 9 to 14) (size 15 to 20)
#    2.400    0.000    0.000    1.200    5.600    0.800 
#   14.400    0.000    0.000    0.000    0.000    0.000 
#    0.000    0.000    0.000    0.000    0.000    0.000 
#
# Total GULP energy -55760.182055 kJ/mol
# GULP energy per Si atom -5576.018206 kJ/mol
# Density = 2.387973 g / cm^3
# Si number density = 23.934205 Si / 1000 Ang^3
#
#
#
# Elastic Constant Matrix: (Units=GPa)
#
#
# Indices 1 2 3 4 5 6 
#
# 1 87.6743 61.4048 15.7215 0.0000 -20.2039 0.0000
# 2 61.4048 134.3937 17.8264 0.0000 -3.3116 0.0000
# 3 15.7215 17.8264 30.9788 0.0000 -10.0472 0.0000
# 4 0.0000 0.0000 0.0000 25.9584 0.0000 -8.0583
# 5 -20.2039 -3.3116 -10.0472 0.0000 29.5063 0.0000
# 6 0.0000 0.0000 0.0000 -8.0583 0.0000 58.0603
#
#
#
# Elastic Compliance Matrix: (Units=1/GPa)
#
#
# Indices 1 2 3 4 5 6 
#
# 1 0.020982 -0.009107 -0.001214 0.000000 0.012932 0.000000
# 2 -0.009107 0.012024 -0.004364 0.000000 -0.006372 0.000000
# 3 -0.001214 -0.004364 0.039321 0.000000 0.012069 0.000000
# 4 0.000000 0.000000 0.000000 0.040258 0.000000 0.005587
# 5 0.012932 -0.006372 0.012069 0.000000 0.046140 0.000000
# 6 0.000000 0.000000 0.000000 0.005587 0.000000 0.017999
#
#
# Mechanical properties :
#
#
# Convention : Reuss Voigt Hill
#
# Bulk Modulus (GPa) = 23.27862 49.21693 36.24778
# Shear Modulus (GPa) = 22.68485 33.24460 27.96472
#
# Velocity S-wave (km/s) = 3.08198 3.73097 3.42189
# Velocity P-wave (km/s) = 4.73413 6.25846 5.54888
#
# Compressibility (1/GPa) = 0.04295787
#
# Stress axis : x y z
#
# Youngs Moduli (GPa) = 47.66046 83.16944 25.43158
#
# Poissons Ratio (x) = 0.75742 0.03086
# Poissons Ratio (y) = 0.43404 0.11098
# Poissons Ratio (z) = 0.05784 0.36294
#
# Static dielectric constant tensor:
#      x y z
#    x 1.939750 0.000000 -0.014250 
#    y 0.000000 1.909530 0.000000 
#    z -0.014250 0.000000 1.966710 
# 
# From -- ./inp_files/49816.got.cif
#   From: 2010.05.17/outbox.cif.g08.bks.cpg/sg5_25_cif.got.tgz:49816.got - 2010.06.03 18:56:24.
