data_PCOD9127354
_publ_section_title
;
Structure prediction by ZEFSAII (Michael W. Deem and Ramdas Pophale) SiO2 
 PCOD9127354
Probable space group: C 2
;
_chemical_formula_sum "Si O2"
_cell_formula_units_Z 20
_cell_length_a 5.884010
_cell_length_b 17.330024
_cell_length_c 8.201021
_cell_angle_alpha 90.000000
_cell_angle_beta 91.074819
_cell_angle_gamma 90.000000
_cell_volume 836.111257
_symmetry_space_group_name_H-M "C 2"
_symmetry_group_IT_number 5
_symmetry_cell_setting 'monoclinic'
loop_
_space_group_symop_operation_xyz
x,y,z
-x,y,-z
1/2+x,1/2+y,z
1/2-x,1/2+y,-z
loop_
_atom_site_type_symbol
_atom_site_label
_atom_site_fract_x
_atom_site_fract_y
_atom_site_fract_z
Si Si1 0.115940 0.522940 0.330543
Si Si2 0.000000 0.101775 0.000000
Si Si3 0.274061 0.688180 0.242703
Si Si4 0.633131 0.384082 0.669246
Si Si5 0.000000 0.293054 0.500000
Si Si6 0.000000 0.520698 0.000000
Si Si7 0.000000 0.798182 0.000000
O O1 0.126142 0.614261 0.296137
O O2 0.353285 0.477134 0.329529
O O3 0.000000 0.509700 0.500000
O O4 0.990958 0.482581 0.176012
O O5 0.000222 0.152140 0.165066
O O6 0.752639 0.060762 0.005448
O O7 0.328596 0.738841 0.399063
O O8 0.170110 0.739404 0.095709
O O9 0.500000 0.364190 0.500000
O O10 0.874652 0.345539 0.630048
O O11 0.568379 0.351715 0.846228
#
# Coordination Sequence:
#
# PCOD9127354 Si02
#       7
#     4   2   4   4   2   2   2
#     4  11  27  46  78 114 157 204 269 331 402 483
#     4  10  22  45  71 115 155 196 262 324 404 467
#     4  11  25  44  80 115 152 206 265 335 395 477
#     4  12  28  52  74 115 158 211 263 329 416 491
#     4  12  26  46  72 116 152 200 266 322 410 486
#     4  10  25  46  73 116 158 202 260 330 407 472
#     4  12  27  53  82 111 165 214 266 332 411 497
#
# _framework density 23.920262000000001
#
# number of rings (size 3 to 8) (size 9 to 14) (size 15 to 20)
#    0.000    0.800    3.000    3.600    7.000    8.000 
#    0.000    0.000    0.000    0.000    0.000    0.000 
#    0.000    0.000    0.000    0.000    0.000    0.000 
#
# Total GULP energy -55702.865844 kJ/mol
# GULP energy per Si atom -5570.286584 kJ/mol
# Density = 2.386582 g / cm^3
# Si number density = 23.920262 Si / 1000 Ang^3
#
#
#
# Elastic Constant Matrix: (Units=GPa)
#
#
# Indices 1 2 3 4 5 6 
#
# 1 71.7817 40.3399 50.8278 0.0000 -1.5185 0.0000
# 2 40.3399 98.2694 72.3910 0.0000 4.7738 0.0000
# 3 50.8278 72.3910 245.9322 0.0000 -6.7540 0.0000
# 4 0.0000 0.0000 0.0000 -129.7458 0.0000 14.9111
# 5 -1.5185 4.7738 -6.7540 0.0000 44.8604 0.0000
# 6 0.0000 0.0000 0.0000 14.9111 0.0000 22.4441
#
#
#
# Elastic Compliance Matrix: (Units=1/GPa)
#
#
# Indices 1 2 3 4 5 6 
#
# 1 0.018946 -0.006336 -0.002023 0.000000 0.001011 0.000000
# 2 -0.006336 0.015288 -0.003255 0.000000 -0.002331 0.000000
# 3 -0.002023 -0.003255 0.005472 0.000000 0.001102 0.000000
# 4 0.000000 0.000000 0.000000 -0.007161 0.000000 0.004757
# 5 0.001011 -0.002331 0.001102 0.000000 0.022740 0.000000
# 6 0.000000 0.000000 0.000000 0.004757 0.000000 0.041395
#
#
# Mechanical properties :
#
#
# Convention : Reuss Voigt Hill
#
# Bulk Modulus (GPa) = 60.68360 82.56674 71.62517
# Shear Modulus (GPa) = 39.87256 4.34005 22.10630
#
# Velocity S-wave (km/s) = 4.08719 1.34845 3.04331
# Velocity P-wave (km/s) = 6.90635 6.08415 6.50825
#
# Compressibility (1/GPa) = 0.01647892
#
# Stress axis : x y z
#
# Youngs Moduli (GPa) = 52.78259 65.41118 182.73405
#
# Poissons Ratio (x) = 0.41447 0.36961
# Poissons Ratio (y) = 0.33445 0.59471
# Poissons Ratio (z) = 0.10676 0.21288
#
# Static dielectric constant tensor:
#      x y z
#    x 1.986380 0.000000 0.050440 
#    y 0.000000 2.002700 0.000000 
#    z 0.050440 0.000000 1.946360 
# 
# From -- ./inp_files/11944.got.cif
#   From: 2010.05.17/outbox.cif.g08.bks.cpg/sg5_6_cif.got.tgz:11944.got - 2010.06.03 18:56:24.
