data_PCOD9127212
_publ_section_title
;
Structure prediction by ZEFSAII (Michael W. Deem and Ramdas Pophale) SiO2 
 PCOD9127212
Probable space group: C 2
;
_chemical_formula_sum "Si O2"
_cell_formula_units_Z 18
_cell_length_a 16.646010
_cell_length_b 6.424244
_cell_length_c 9.552365
_cell_angle_alpha 90.000000
_cell_angle_beta 128.082192
_cell_angle_gamma 90.000000
_cell_volume 804.058721
_symmetry_space_group_name_H-M "C 2"
_symmetry_group_IT_number 5
_symmetry_cell_setting 'monoclinic'
loop_
_space_group_symop_operation_xyz
x,y,z
-x,y,-z
1/2+x,1/2+y,z
1/2-x,1/2+y,-z
loop_
_atom_site_type_symbol
_atom_site_label
_atom_site_fract_x
_atom_site_fract_y
_atom_site_fract_z
Si Si1 0.652438 0.273460 0.170646
Si Si2 0.813612 0.544036 0.232867
Si Si3 0.000000 0.817378 0.500000
Si Si4 0.873901 0.363598 0.997865
Si Si5 0.005424 0.994819 0.205093
O O1 0.767484 0.341430 0.260096
O O2 0.610459 0.397333 0.260127
O O3 0.579824 0.359963 0.968100
O O4 0.633534 0.028343 0.136503
O O5 0.851697 0.481385 0.119843
O O6 0.902958 0.665795 0.405975
O O7 0.718598 0.701387 0.118595
O O8 0.007387 0.957858 0.645453
O O9 0.976755 0.229027 0.129686
#
# Coordination Sequence:
#
# PCOD9127212 Si02
#       5
#     4   4   2   4   4
#     4  10  22  44  69  98 129 190 234 271 327 420
#     4  11  22  40  68 100 135 176 231 275 345 402
#     4  12  24  46  60 108 146 174 218 292 358 400
#     4  11  20  44  73  96 132 188 234 274 324 432
#     4  10  24  42  69 100 137 176 233 279 347 398
#
# _framework density 22.386424000000002
#
# number of rings (size 3 to 8) (size 9 to 14) (size 15 to 20)
#    0.000    1.333    4.444    1.333    0.000    8.000 
#    4.000    0.000    0.000    0.000    0.000    0.000 
#    0.000    0.000    0.000    0.000    0.000    0.000 
#
# Total GULP energy -50288.522866 kJ/mol
# GULP energy per Si atom -5587.613652 kJ/mol
# Density = 2.233547 g / cm^3
# Si number density = 22.386424 Si / 1000 Ang^3
#
#
#
# Elastic Constant Matrix: (Units=GPa)
#
#
# Indices 1 2 3 4 5 6 
#
# 1 99.0487 50.0286 16.1451 0.0000 -16.6677 0.0000
# 2 50.0286 136.7231 7.0864 0.0000 -7.3359 0.0000
# 3 16.1451 7.0864 50.1662 0.0000 -14.0623 0.0000
# 4 0.0000 0.0000 0.0000 24.6407 0.0000 -2.9714
# 5 -16.6677 -7.3359 -14.0623 0.0000 31.2046 0.0000
# 6 0.0000 0.0000 0.0000 -2.9714 0.0000 39.3812
#
#
#
# Elastic Compliance Matrix: (Units=1/GPa)
#
#
# Indices 1 2 3 4 5 6 
#
# 1 0.013668 -0.004604 -0.002295 0.000000 0.005184 0.000000
# 2 -0.004604 0.008976 0.000133 0.000000 -0.000289 0.000000
# 3 -0.002295 0.000133 0.023257 0.000000 0.009286 0.000000
# 4 0.000000 0.000000 0.000000 0.040956 0.000000 0.003090
# 5 0.005184 -0.000289 0.009286 0.000000 0.038932 0.000000
# 6 0.000000 0.000000 0.000000 0.003090 0.000000 0.025626
#
#
# Mechanical properties :
#
#
# Convention : Reuss Voigt Hill
#
# Bulk Modulus (GPa) = 30.89519 48.05093 39.47306
# Shear Modulus (GPa) = 28.45143 33.22380 30.83761
#
# Velocity S-wave (km/s) = 3.56887 3.85659 3.71551
# Velocity P-wave (km/s) = 5.55097 6.42977 6.00646
#
# Compressibility (1/GPa) = 0.03236749
#
# Stress axis : x y z
#
# Youngs Moduli (GPa) = 73.16323 111.40341 42.99844
#
# Poissons Ratio (x) = 0.51292 0.09870
# Poissons Ratio (y) = 0.33686 -0.00571
# Poissons Ratio (z) = 0.16793 -0.01478
#
# Static dielectric constant tensor:
#      x y z
#    x 1.925140 0.000000 0.003090 
#    y 0.000000 1.902400 0.000000 
#    z 0.003090 0.000000 1.774660 
# 
# From -- ./inp_files/25921.got.cif
#   From: 2010.05.17/outbox.cif.g08.bks.cpg/sg5_13_cif.got.tgz:25921.got - 2010.06.03 18:56:24.
