data_PCOD9127336
_publ_section_title
;
Structure prediction by ZEFSAII (Michael W. Deem and Ramdas Pophale) SiO2 
 PCOD9127336
Probable space group: C 2
;
_chemical_formula_sum "Si O2"
_cell_formula_units_Z 22
_cell_length_a 23.106020
_cell_length_b 8.579113
_cell_length_c 17.975073
_cell_angle_alpha 90.000000
_cell_angle_beta 166.232681
_cell_angle_gamma 90.000000
_cell_volume 847.964615
_symmetry_space_group_name_H-M "C 2"
_symmetry_group_IT_number 5
_symmetry_cell_setting 'monoclinic'
loop_
_space_group_symop_operation_xyz
x,y,z
-x,y,-z
1/2+x,1/2+y,z
1/2-x,1/2+y,-z
loop_
_atom_site_type_symbol
_atom_site_label
_atom_site_fract_x
_atom_site_fract_y
_atom_site_fract_z
Si Si1 0.253669 0.777600 0.224453
Si Si2 0.155456 0.181162 0.336357
Si Si3 0.052126 0.949197 0.831978
Si Si4 0.547754 0.990771 0.399596
Si Si5 0.500000 0.047309 0.000000
Si Si6 0.175104 0.793909 0.650882
O O1 0.500000 0.701123 0.500000
O O2 0.045142 0.655036 0.984270
O O3 0.319361 0.864504 0.383044
O O4 0.187608 0.903277 0.079138
O O5 0.346726 0.319424 0.572868
O O6 0.299633 0.032708 0.482284
O O7 0.052085 0.121519 0.285570
O O8 0.927491 0.229437 0.000915
O O9 0.266487 0.945107 0.039078
O O10 0.557102 0.152883 0.457804
O O11 0.738271 0.938175 0.291901
O O12 0.000000 0.836643 0.500000
#
# Coordination Sequence:
#
# PCOD9127336 Si02
#       6
#     4   4   4   4   2   4
#     4  10  22  45  70 100 137 189 235 284 347 430
#     4  12  25  44  71 104 139 184 234 295 359 411
#     4  11  26  44  71 102 145 182 228 299 361 410
#     4  11  22  49  75  95 133 200 242 272 348 450
#     4  12  24  36  68 106 130 166 242 306 324 392
#     4  12  23  44  73  98 133 190 249 280 338 428
#
# _framework density 25.944479000000001
#
# number of rings (size 3 to 8) (size 9 to 14) (size 15 to 20)
#    0.000    0.727    5.455    2.182    2.545    1.455 
#    6.545    0.000    0.000    0.000    0.000    0.000 
#    0.000    0.000    0.000    0.000    0.000    0.000 
#
# Total GULP energy -61609.149138 kJ/mol
# GULP energy per Si atom -5600.831740 kJ/mol
# Density = 2.588543 g / cm^3
# Si number density = 25.944479 Si / 1000 Ang^3
#
#
#
# Elastic Constant Matrix: (Units=GPa)
#
#
# Indices 1 2 3 4 5 6 
#
# 1 68.1865 15.6100 26.6835 0.0009 38.5655 0.0000
# 2 15.6100 85.5675 35.3816 0.0006 19.7196 0.0004
# 3 26.6835 35.3816 147.8933 0.0047 30.1433 0.0000
# 4 0.0009 0.0006 0.0047 43.5608 0.0010 18.2673
# 5 38.5655 19.7196 30.1433 0.0010 48.2625 0.0000
# 6 0.0000 0.0004 0.0000 18.2673 0.0000 41.0993
#
#
#
# Elastic Compliance Matrix: (Units=1/GPa)
#
#
# Indices 1 2 3 4 5 6 
#
# 1 0.026801 0.000223 -0.000579 0.000000 -0.021145 0.000000
# 2 0.000223 0.013628 -0.002440 0.000000 -0.004223 0.000000
# 3 -0.000579 -0.002440 0.008196 -0.000001 -0.003659 0.000000
# 4 0.000000 0.000000 -0.000001 0.028215 0.000000 -0.012541
# 5 -0.021145 -0.004223 -0.003659 0.000000 0.041628 0.000000
# 6 0.000000 0.000000 0.000000 -0.012541 0.000000 0.029905
#
#
# Mechanical properties :
#
#
# Convention : Reuss Voigt Hill
#
# Bulk Modulus (GPa) = 23.23798 50.77750 37.00774
# Shear Modulus (GPa) = 29.70734 41.51601 35.61168
#
# Velocity S-wave (km/s) = 3.38751 4.00457 3.70890
# Velocity P-wave (km/s) = 4.92712 6.40283 5.71283
#
# Compressibility (1/GPa) = 0.04303300
#
# Stress axis : x y z
#
# Youngs Moduli (GPa) = 37.31230 73.37825 122.01641
#
# Poissons Ratio (x) = -0.01639 0.07066
# Poissons Ratio (y) = -0.00833 0.29771
# Poissons Ratio (z) = 0.02161 0.17904
#
# Static dielectric constant tensor:
#      x y z
#    x 2.054360 0.000000 -0.026880 
#    y 0.000000 2.058880 0.000000 
#    z -0.026880 0.000000 2.041740 
# 
# From -- ./inp_files/70021.got.cif
#   From: 2010.05.17/outbox.cif.g08.bks.cpg/sg5_36_cif.got.tgz:70021.got - 2010.06.03 18:56:24.
