data_PCOD9127367
_publ_section_title
;
Structure prediction by ZEFSAII (Michael W. Deem and Ramdas Pophale) SiO2 
 PCOD9127367
Probable space group: C 2
;
_chemical_formula_sum "Si O2"
_cell_formula_units_Z 22
_cell_length_a 28.805654
_cell_length_b 5.119505
_cell_length_c 17.222941
_cell_angle_alpha 90.000000
_cell_angle_beta 160.456133
_cell_angle_gamma 90.000000
_cell_volume 849.661831
_symmetry_space_group_name_H-M "C 2"
_symmetry_group_IT_number 5
_symmetry_cell_setting 'monoclinic'
loop_
_space_group_symop_operation_xyz
x,y,z
-x,y,-z
1/2+x,1/2+y,z
1/2-x,1/2+y,-z
loop_
_atom_site_type_symbol
_atom_site_label
_atom_site_fract_x
_atom_site_fract_y
_atom_site_fract_z
Si Si1 0.439325 0.726950 0.751299
Si Si2 0.214253 0.490367 0.133839
Si Si3 0.000000 0.085866 0.000000
Si Si4 0.267899 0.935196 0.339763
Si Si5 0.285862 0.688055 0.009174
Si Si6 0.016178 0.843268 0.304779
O O1 0.407212 0.741462 0.791371
O O2 0.434013 0.447401 0.700486
O O3 0.344849 0.881596 0.542689
O O4 0.597891 0.824365 0.995803
O O5 0.278690 0.709481 0.291905
O O6 0.285035 0.302203 0.181205
O O7 0.111863 0.655821 0.915192
O O8 0.892258 0.935055 0.884549
O O9 0.356198 0.193440 0.453353
O O10 0.212641 0.430556 0.928803
O O11 0.439536 0.582109 0.228171
#
# Coordination Sequence:
#
# PCOD9127367 Si02
#       6
#     4   4   2   4   4   4
#     4  10  25  42  66 106 153 205 264 326 387 458
#     4  10  22  45  73 109 154 213 252 329 411 462
#     4  12  26  42  70 110 150 214 274 318 372 468
#     4  11  26  43  72 111 157 214 265 324 391 471
#     4  11  22  43  84 121 153 206 268 328 401 490
#     4  10  22  46  72 113 153 206 253 329 406 461
#
# _framework density 25.892655000000001
#
# number of rings (size 3 to 8) (size 9 to 14) (size 15 to 20)
#    0.000    1.455    3.636    0.000    5.091    0.727 
#    0.000    0.000    0.000   26.182    0.000    0.000 
#    0.000    0.000    0.000    0.000    0.000    0.000 
#
# Total GULP energy -61372.115342 kJ/mol
# GULP energy per Si atom -5579.283213 kJ/mol
# Density = 2.583372 g / cm^3
# Si number density = 25.892655 Si / 1000 Ang^3
#
#
#
# Elastic Constant Matrix: (Units=GPa)
#
#
# Indices 1 2 3 4 5 6 
#
# 1 150.1210 73.3997 47.2626 0.0000 -16.2966 0.0000
# 2 73.3997 155.9879 33.0911 0.0004 -4.9710 -0.0001
# 3 47.2626 33.0911 122.3055 0.0000 -12.1508 0.0000
# 4 0.0000 0.0004 0.0000 40.8766 0.0000 -3.8087
# 5 -16.2966 -4.9710 -12.1508 0.0000 24.1141 0.0000
# 6 0.0000 -0.0001 0.0000 -3.8087 0.0000 40.1341
#
#
#
# Elastic Compliance Matrix: (Units=1/GPa)
#
#
# Indices 1 2 3 4 5 6 
#
# 1 0.009835 -0.004001 -0.002253 0.000000 0.004687 0.000000
# 2 -0.004001 0.008434 -0.000876 0.000000 -0.001406 0.000000
# 3 -0.002253 -0.000876 0.009595 0.000000 0.003132 0.000000
# 4 0.000000 0.000000 0.000000 0.024682 0.000000 0.002342
# 5 0.004687 -0.001406 0.003132 0.000000 0.045925 0.000000
# 6 0.000000 0.000000 0.000000 0.002342 0.000000 0.025139
#
#
# Mechanical properties :
#
#
# Convention : Reuss Voigt Hill
#
# Bulk Modulus (GPa) = 73.49511 81.76903 77.63207
# Shear Modulus (GPa) = 35.11131 39.33570 37.22351
#
# Velocity S-wave (km/s) = 3.68643 3.90190 3.79569
# Velocity P-wave (km/s) = 6.82392 7.20752 7.01834
#
# Compressibility (1/GPa) = 0.01360635
#
# Stress axis : x y z
#
# Youngs Moduli (GPa) = 101.67317 118.56394 104.22329
#
# Poissons Ratio (x) = 0.47435 0.23477
# Poissons Ratio (y) = 0.40677 0.09126
# Poissons Ratio (z) = 0.22903 0.10382
#
# Static dielectric constant tensor:
#      x y z
#    x 2.068940 0.000000 -0.033400 
#    y 0.000000 2.220800 0.000000 
#    z -0.033400 0.000000 2.102660 
# 
# From -- ./inp_files/63723.got.cif
#   From: 2010.05.17/outbox.cif.g08.bks.cpg/sg5_32_cif.got.tgz:63723.got - 2010.06.03 18:56:24.
