data_PCOD9127952
_publ_section_title
;
Structure prediction by ZEFSAII (Michael W. Deem and Ramdas Pophale) SiO2 
 PCOD9127952
Probable space group: C 2
;
_chemical_formula_sum "Si O2"
_cell_formula_units_Z 16
_cell_length_a 9.830500
_cell_length_b 12.203101
_cell_length_c 11.417179
_cell_angle_alpha 90.000000
_cell_angle_beta 154.930129
_cell_angle_gamma 90.000000
_cell_volume 580.345788
_symmetry_space_group_name_H-M "C 2"
_symmetry_group_IT_number 5
_symmetry_cell_setting 'monoclinic'
loop_
_space_group_symop_operation_xyz
x,y,z
-x,y,-z
1/2+x,1/2+y,z
1/2-x,1/2+y,-z
loop_
_atom_site_type_symbol
_atom_site_label
_atom_site_fract_x
_atom_site_fract_y
_atom_site_fract_z
Si Si1 0.342731 0.096130 0.250103
Si Si2 0.603419 0.875779 0.829847
Si Si3 0.518816 0.671574 0.383683
Si Si4 0.404456 0.417708 0.297031
O O1 0.500000 0.076869 0.500000
O O2 0.626575 0.153811 0.396541
O O3 0.242571 0.985531 0.101999
O O4 0.000000 0.156340 0.000000
O O5 0.243103 0.890875 0.498724
O O6 0.638903 0.883082 0.997274
O O7 0.811699 0.254560 0.144243
O O8 0.500000 0.716871 0.500000
O O9 0.378441 0.549076 0.283246
O O10 0.500000 0.373465 0.500000
#
# Coordination Sequence:
#
# PCOD9127952 Si02
#       4
#     4   4   4   4
#     4  11  24  46  73 111 159 200 246 315 386 452
#     4  11  23  43  72 107 145 196 251 307 369 447
#     4  10  24  47  79 114 149 201 259 313 376 454
#     4  10  23  44  69 104 149 191 244 311 375 441
#
# _framework density 27.569769999999998
#
# number of rings (size 3 to 8) (size 9 to 14) (size 15 to 20)
#    0.000    1.500    0.000    4.500    0.000    7.000 
#    0.000   16.250    0.000    4.500    0.000    0.000 
#    0.000    0.000    0.000    0.000    0.000    0.000 
#
# Total GULP energy -44753.510902 kJ/mol
# GULP energy per Si atom -5594.188863 kJ/mol
# Density = 2.750702 g / cm^3
# Si number density = 27.569770 Si / 1000 Ang^3
#
#
#
# Elastic Constant Matrix: (Units=GPa)
#
#
# Indices 1 2 3 4 5 6 
#
# 1 147.3436 13.0764 76.0771 0.0056 -18.4996 0.0002
# 2 13.0764 120.5818 44.9687 -0.0075 -36.3293 -0.0021
# 3 76.0771 44.9687 223.1435 0.0052 -25.8696 0.0101
# 4 0.0056 -0.0075 0.0052 23.6910 0.0069 -26.8462
# 5 -18.4996 -36.3293 -25.8696 0.0069 73.4473 0.0062
# 6 0.0002 -0.0021 0.0101 -26.8462 0.0062 15.6826
#
#
#
# Elastic Compliance Matrix: (Units=1/GPa)
#
#
# Indices 1 2 3 4 5 6 
#
# 1 0.008358 0.000558 -0.002800 0.000000 0.001395 0.000002
# 2 0.000558 0.010265 -0.001724 -0.000003 0.004611 -0.000005
# 3 -0.002800 -0.001724 0.005842 0.000006 0.000499 0.000007
# 4 0.000000 -0.000003 0.000006 -0.044913 0.000011 -0.076883
# 5 0.001395 0.004611 0.000499 0.000011 0.016423 0.000013
# 6 0.000002 -0.000005 0.000007 -0.076883 0.000013 -0.067847
#
#
# Mechanical properties :
#
#
# Convention : Reuss Voigt Hill
#
# Bulk Modulus (GPa) = 60.49042 84.36812 72.42927
# Shear Modulus (GPa) = -85.57450 46.36064 -19.60693
#
# Velocity S-wave (km/s) = -5.57733 4.10515 -2.66968
# Velocity P-wave (km/s) = 4.41441 7.28957 4.10187
#
# Compressibility (1/GPa) = 0.01653154
#
# Stress axis : x y z
#
# Youngs Moduli (GPa) = 119.64017 97.42083 171.18712
#
# Poissons Ratio (x) = -0.05439 0.47940
# Poissons Ratio (y) = -0.06679 0.29520
# Poissons Ratio (z) = 0.33504 0.16799
#
# Static dielectric constant tensor:
#      x y z
#    x 2.346820 -0.000010 0.020620 
#    y -0.000010 2.165390 -0.000010 
#    z 0.020620 -0.000010 2.003280 
# 
# From -- ./inp_files/8099.got.cif
#   From: 2010.05.17/outbox.cif.g08.bks.cpg/sg5_5_cif.got.tgz:8099.got - 2010.06.03 18:56:24.
