data_PCOD9127848
_publ_section_title
;
Structure prediction by ZEFSAII (Michael W. Deem and Ramdas Pophale) SiO2 
 PCOD9127848
Probable space group: C 2
;
_chemical_formula_sum "Si O2"
_cell_formula_units_Z 28
_cell_length_a 11.481717
_cell_length_b 10.644472
_cell_length_c 20.794262
_cell_angle_alpha 90.000000
_cell_angle_beta 149.182261
_cell_angle_gamma 90.000000
_cell_volume 1301.985869
_symmetry_space_group_name_H-M "C 2"
_symmetry_group_IT_number 5
_symmetry_cell_setting 'monoclinic'
loop_
_space_group_symop_operation_xyz
x,y,z
-x,y,-z
1/2+x,1/2+y,z
1/2-x,1/2+y,-z
loop_
_atom_site_type_symbol
_atom_site_label
_atom_site_fract_x
_atom_site_fract_y
_atom_site_fract_z
Si Si1 0.074676 0.128190 0.709078
Si Si2 0.622844 0.202122 0.802862
Si Si3 0.912876 0.612156 0.083033
Si Si4 0.447934 0.701864 0.843393
Si Si5 0.896260 0.969470 0.147752
Si Si6 0.689816 0.595147 0.544083
Si Si7 0.744062 0.818069 0.370678
O O1 0.329431 0.150888 0.805234
O O2 0.921725 0.077360 0.578199
O O3 0.939717 0.247090 0.672876
O O4 0.104333 0.035547 0.783114
O O5 0.633768 0.095419 0.863212
O O6 0.845360 0.215894 0.865111
O O7 0.566247 0.325720 0.817554
O O8 0.419544 0.173911 0.656928
O O9 0.721153 0.712416 0.969635
O O10 0.837439 0.494778 0.002663
O O11 0.424384 0.555203 0.807981
O O12 0.329828 0.794786 0.737657
O O13 0.500000 0.657792 0.500000
O O14 0.742541 0.461274 0.601151
O O15 0.000000 0.764899 0.500000
#
# Coordination Sequence:
#
# PCOD9127848 Si02
#       7
#     4   4   4   4   4   4   4
#     4  11  22  45  70  98 139 180 235 296 356 425
#     4  12  23  44  74 100 143 188 230 298 362 426
#     4  10  23  43  66 105 134 176 239 284 359 427
#     4   9  23  44  68 104 135 181 238 287 354 429
#     4   9  25  42  70 104 134 186 234 288 357 433
#     4  11  25  41  67 101 134 185 234 281 359 426
#     4  10  23  43  68 102 136 182 235 294 349 432
#
# _framework density 21.505607999999999
#
# number of rings (size 3 to 8) (size 9 to 14) (size 15 to 20)
#    0.857    0.857    1.429    1.714    6.000    4.571 
#    0.000    2.857    6.286    0.000    0.000    0.000 
#    0.000    0.000    0.000    0.000    0.000    0.000 
#
# Total GULP energy -78091.730374 kJ/mol
# GULP energy per Si atom -5577.980741 kJ/mol
# Density = 2.145666 g / cm^3
# Si number density = 21.505608 Si / 1000 Ang^3
#
#
#
# Elastic Constant Matrix: (Units=GPa)
#
#
# Indices 1 2 3 4 5 6 
#
# 1 79.3034 28.2581 41.7881 -0.0001 -20.6269 0.0000
# 2 28.2581 67.2617 37.2543 -0.0001 -0.1798 0.0000
# 3 41.7881 37.2543 160.7730 -0.0001 -13.5005 -0.0001
# 4 -0.0001 -0.0001 -0.0001 21.8867 -0.0001 0.9976
# 5 -20.6269 -0.1798 -13.5005 -0.0001 42.0893 -0.0001
# 6 0.0000 0.0000 -0.0001 0.9976 -0.0001 10.0385
#
#
#
# Elastic Compliance Matrix: (Units=1/GPa)
#
#
# Indices 1 2 3 4 5 6 
#
# 1 0.018325 -0.006213 -0.002642 0.000000 0.008106 0.000000
# 2 -0.006213 0.019225 -0.003174 0.000000 -0.003981 0.000000
# 3 -0.002642 -0.003174 0.007741 0.000000 0.001174 0.000000
# 4 0.000000 0.000000 0.000000 0.045898 0.000000 -0.004561
# 5 0.008106 -0.003981 0.001174 0.000000 0.028091 0.000000
# 6 0.000000 0.000000 0.000000 -0.004561 0.000000 0.100069
#
#
# Mechanical properties :
#
#
# Convention : Reuss Voigt Hill
#
# Bulk Modulus (GPa) = 47.10154 57.99325 52.54740
# Shear Modulus (GPa) = 19.96119 28.13875 24.04997
#
# Velocity S-wave (km/s) = 3.04992 3.62116 3.34774
# Velocity P-wave (km/s) = 5.86108 6.67149 6.27937
#
# Compressibility (1/GPa) = 0.02123073
#
# Stress axis : x y z
#
# Youngs Moduli (GPa) = 54.57115 52.01533 129.18366
#
# Poissons Ratio (x) = 0.32319 0.34137
# Poissons Ratio (y) = 0.33907 0.41005
# Poissons Ratio (z) = 0.14420 0.16511
#
# Static dielectric constant tensor:
#      x y z
#    x 1.776740 0.000000 -0.002830 
#    y 0.000000 1.840360 0.000000 
#    z -0.002830 0.000000 1.824640 
# 
# From -- ./inp_files/65318.got.cif
#   From: 2010.05.17/outbox.cif.g08.bks.cpg/sg5_33_cif.got.tgz:65318.got - 2010.06.03 18:56:24.
