data_PCOD9127356
_publ_section_title
;
Structure prediction by ZEFSAII (Michael W. Deem and Ramdas Pophale) SiO2 
 PCOD9127356
Probable space group: C 2
;
_chemical_formula_sum "Si O2"
_cell_formula_units_Z 22
_cell_length_a 5.679225
_cell_length_b 22.439322
_cell_length_c 9.634269
_cell_angle_alpha 90.000000
_cell_angle_beta 125.946918
_cell_angle_gamma 90.000000
_cell_volume 993.956233
_symmetry_space_group_name_H-M "C 2"
_symmetry_group_IT_number 5
_symmetry_cell_setting 'monoclinic'
loop_
_space_group_symop_operation_xyz
x,y,z
-x,y,-z
1/2+x,1/2+y,z
1/2-x,1/2+y,-z
loop_
_atom_site_type_symbol
_atom_site_label
_atom_site_fract_x
_atom_site_fract_y
_atom_site_fract_z
Si Si1 0.000000 0.264830 0.500000
Si Si2 0.328257 0.085047 0.087773
Si Si3 0.000000 0.325580 0.000000
Si Si4 0.043208 0.720268 0.850363
Si Si5 0.286856 0.075399 0.532814
Si Si6 0.159251 0.370776 0.351066
Si Si7 0.000000 0.466526 0.500000
O O1 0.741372 0.227542 0.342000
O O2 0.893566 0.308412 0.586577
O O3 0.324659 0.155258 0.131257
O O4 0.528701 0.055249 0.271702
O O5 0.500000 0.080524 0.000000
O O6 0.000000 0.063664 0.000000
O O7 0.732813 0.279214 0.895314
O O8 0.954203 0.363658 0.844841
O O9 0.000000 0.719541 0.000000
O O10 0.500000 0.110492 0.500000
O O11 0.000000 0.102621 0.500000
O O12 0.236002 0.013623 0.431705
O O13 0.500000 0.384486 0.500000
O O14 0.976315 0.422035 0.363747
#
# Coordination Sequence:
#
# PCOD9127356 Si02
#       7
#     2   4   2   4   4   4   2
#     4  11  22  38  64  94 130 186 214 269 336 396
#     4  11  24  43  68 100 140 176 221 274 338 402
#     4  12  22  40  64  94 138 174 220 274 330 396
#     4  11  23  40  61  98 141 174 222 269 327 400
#     4  10  22  45  71  96 129 172 221 285 335 399
#     4  11  22  40  65  94 128 175 224 281 333 403
#     4   9  24  44  66  90 136 162 234 279 348 386
#
# _framework density 22.133773999999999
#
# number of rings (size 3 to 8) (size 9 to 14) (size 15 to 20)
#    0.545    0.727    4.545    1.636    1.273    0.000 
#    4.909    0.000    0.000    0.000    0.000    0.000 
#    0.000    0.000    0.000    0.000    0.000    0.000 
#
# Total GULP energy -61278.229773 kJ/mol
# GULP energy per Si atom -5570.748161 kJ/mol
# Density = 2.208340 g / cm^3
# Si number density = 22.133774 Si / 1000 Ang^3
#
#
#
# Elastic Constant Matrix: (Units=GPa)
#
#
# Indices 1 2 3 4 5 6 
#
# 1 129.6943 19.7889 67.7965 0.0000 -1.7119 0.0000
# 2 19.7889 55.5971 19.2251 0.0000 -12.9232 0.0000
# 3 67.7965 19.2251 169.9979 0.0000 -9.4452 0.0000
# 4 0.0000 0.0000 0.0000 18.6660 0.0000 -0.5478
# 5 -1.7119 -12.9232 -9.4452 0.0000 47.5586 0.0000
# 6 0.0000 0.0000 0.0000 -0.5478 0.0000 8.4014
#
#
#
# Elastic Compliance Matrix: (Units=1/GPa)
#
#
# Indices 1 2 3 4 5 6 
#
# 1 0.010060 -0.002521 -0.003787 0.000000 -0.001075 0.000000
# 2 -0.002521 0.020459 -0.001016 0.000000 0.005267 0.000000
# 3 -0.003787 -0.001016 0.007568 0.000000 0.001091 0.000000
# 4 0.000000 0.000000 0.000000 0.053676 0.000000 0.003500
# 5 -0.001075 0.005267 0.001091 0.000000 0.022636 0.000000
# 6 0.000000 0.000000 0.000000 0.003500 0.000000 0.119256
#
#
# Mechanical properties :
#
#
# Convention : Reuss Voigt Hill
#
# Bulk Modulus (GPa) = 42.66104 63.21226 52.93665
# Shear Modulus (GPa) = 19.52235 31.49046 25.50640
#
# Velocity S-wave (km/s) = 2.97310 3.77601 3.39835
# Velocity P-wave (km/s) = 5.57690 6.90160 6.27431
#
# Compressibility (1/GPa) = 0.02344059
#
# Stress axis : x y z
#
# Youngs Moduli (GPa) = 99.39900 48.87720 132.13384
#
# Poissons Ratio (x) = 0.12323 0.50036
# Poissons Ratio (y) = 0.25061 0.13420
# Poissons Ratio (z) = 0.37640 0.04964
#
# Static dielectric constant tensor:
#      x y z
#    x 1.923150 0.000000 0.044510 
#    y 0.000000 1.815560 0.000000 
#    z 0.044510 0.000000 1.766410 
# 
# From -- ./inp_files/13111.got.cif
#   From: 2010.05.17/outbox.cif.g08.bks.cpg/sg5_7_cif.got.tgz:13111.got - 2010.06.03 18:56:24.
