data_PCOD9127392
_publ_section_title
;
Structure prediction by ZEFSAII (Michael W. Deem and Ramdas Pophale) SiO2 
 PCOD9127392
Probable space group: C 2
;
_chemical_formula_sum "Si O2"
_cell_formula_units_Z 22
_cell_length_a 22.739437
_cell_length_b 6.417955
_cell_length_c 23.258925
_cell_angle_alpha 90.000000
_cell_angle_beta 161.171221
_cell_angle_gamma 90.000000
_cell_volume 1095.520099
_symmetry_space_group_name_H-M "C 2"
_symmetry_group_IT_number 5
_symmetry_cell_setting 'monoclinic'
loop_
_space_group_symop_operation_xyz
x,y,z
-x,y,-z
1/2+x,1/2+y,z
1/2-x,1/2+y,-z
loop_
_atom_site_type_symbol
_atom_site_label
_atom_site_fract_x
_atom_site_fract_y
_atom_site_fract_z
Si Si1 0.506767 0.550260 0.275671
Si Si2 0.393391 0.877522 0.077433
Si Si3 0.500000 0.206365 0.000000
Si Si4 0.198491 0.459373 0.657193
Si Si5 0.297660 0.231352 0.629841
Si Si6 0.539883 0.800079 0.100567
O O1 0.447278 0.751118 0.183893
O O2 0.624669 0.402659 0.342800
O O3 0.630251 0.614304 0.443860
O O4 0.316231 0.442734 0.115543
O O5 0.426339 0.736291 0.051111
O O6 0.537842 0.067387 0.208206
O O7 0.326703 0.341838 0.822470
O O8 0.509598 0.042144 0.956049
O O9 0.230026 0.339344 0.626110
O O10 0.262299 0.699768 0.706091
O O11 0.000000 0.453283 0.500000
O O12 0.500000 0.717197 0.000000
#
# Coordination Sequence:
#
# PCOD9127392 Si02
#       6
#     4   4   2   4   4   4
#     4  12  26  43  72 101 133 185 225 280 345 398
#     4  12  24  46  70 100 137 183 225 279 345 403
#     4  10  22  46  66  98 138 176 224 270 340 402
#     4  12  26  44  71 103 135 180 229 281 342 398
#     4  12  25  45  68 103 141 170 235 285 329 411
#     4  10  23  45  69  96 138 175 226 281 332 404
#
# _framework density 20.081786999999998
#
# number of rings (size 3 to 8) (size 9 to 14) (size 15 to 20)
#    0.545    0.000    8.182    0.000    2.545    0.727 
#    9.818    0.000    0.000    0.000    0.000    0.000 
#    0.000    0.000    0.000    0.000    0.000    0.000 
#
# Total GULP energy -61252.788564 kJ/mol
# GULP energy per Si atom -5568.435324 kJ/mol
# Density = 2.003608 g / cm^3
# Si number density = 20.081787 Si / 1000 Ang^3
#
#
#
# Elastic Constant Matrix: (Units=GPa)
#
#
# Indices 1 2 3 4 5 6 
#
# 1 119.2108 33.8611 74.5621 0.0008 12.7470 -0.0016
# 2 33.8611 45.9175 39.4850 -0.0012 -3.2796 0.0024
# 3 74.5621 39.4850 142.5675 -0.0006 8.0982 0.0028
# 4 0.0008 -0.0012 -0.0006 45.9539 -0.0008 14.4360
# 5 12.7470 -3.2796 8.0982 -0.0008 32.7218 0.0013
# 6 -0.0016 0.0024 0.0028 14.4360 0.0013 -6.2877
#
#
#
# Elastic Compliance Matrix: (Units=1/GPa)
#
#
# Indices 1 2 3 4 5 6 
#
# 1 0.013957 -0.006015 -0.005366 0.000001 -0.004712 -0.000006
# 2 -0.006015 0.031972 -0.006110 -0.000002 0.007060 0.000009
# 3 -0.005366 -0.006110 0.011592 -0.000001 -0.001391 0.000002
# 4 0.000001 -0.000002 -0.000001 0.012643 -0.000001 0.029026
# 5 -0.004712 0.007060 -0.001391 -0.000001 0.033448 0.000007
# 6 -0.000006 0.000009 0.000002 0.029026 0.000007 -0.092399
#
#
# Mechanical properties :
#
#
# Convention : Reuss Voigt Hill
#
# Bulk Modulus (GPa) = 44.36714 67.05691 55.71203
# Shear Modulus (GPa) = 93.09657 25.13010 59.11334
#
# Velocity S-wave (km/s) = 6.81611 3.54133 5.43141
# Velocity P-wave (km/s) = 9.16990 7.08419 8.19368
#
# Compressibility (1/GPa) = 0.02253920
#
# Stress axis : x y z
#
# Youngs Moduli (GPa) = 71.64860 31.27728 86.26706
#
# Poissons Ratio (x) = 0.18812 0.46291
# Poissons Ratio (y) = 0.43094 0.52712
# Poissons Ratio (z) = 0.38447 0.19111
#
# Static dielectric constant tensor:
#      x y z
#    x 1.719880 0.000000 -0.058900 
#    y 0.000000 1.795960 0.000000 
#    z -0.058900 0.000000 1.661420 
# 
# From -- ./inp_files/69591.got.cif
#   From: 2010.05.17/outbox.cif.g08.bks.cpg/sg5_35_cif.got.tgz:69591.got - 2010.06.03 18:56:24.
