data_PCOD9127990
_publ_section_title
;
Structure prediction by ZEFSAII (Michael W. Deem and Ramdas Pophale) SiO2 
 PCOD9127990
Probable space group: C 2
;
_chemical_formula_sum "Si O2"
_cell_formula_units_Z 20
_cell_length_a 9.671455
_cell_length_b 4.994841
_cell_length_c 14.553068
_cell_angle_alpha 90.000000
_cell_angle_beta 92.941264
_cell_angle_gamma 90.000000
_cell_volume 702.094469
_symmetry_space_group_name_H-M "C 2"
_symmetry_group_IT_number 5
_symmetry_cell_setting 'monoclinic'
loop_
_space_group_symop_operation_xyz
x,y,z
-x,y,-z
1/2+x,1/2+y,z
1/2-x,1/2+y,-z
loop_
_atom_site_type_symbol
_atom_site_label
_atom_site_fract_x
_atom_site_fract_y
_atom_site_fract_z
Si Si1 0.923229 0.148160 0.794780
Si Si2 0.835956 0.445268 0.966429
Si Si3 0.796349 0.257610 0.243260
Si Si4 0.088715 0.120797 0.419392
Si Si5 0.359375 0.258436 0.367226
O O1 0.920577 0.222557 0.686345
O O2 0.085602 0.157025 0.822089
O O3 0.842349 0.337465 0.861379
O O4 0.853209 0.856336 0.795584
O O5 0.737937 0.224826 0.012872
O O6 0.000000 0.453413 0.000000
O O7 0.850397 0.543442 0.285881
O O8 0.804974 0.044310 0.326006
O O9 0.000000 0.240863 0.500000
O O10 0.252162 0.149048 0.439264
O O11 0.013659 0.832101 0.403883
#
# Coordination Sequence:
#
# PCOD9127990 Si02
#       5
#     4   4   4   4   4
#     4  10  24  46  73 104 145 187 236 296 357 423
#     4  12  28  49  76 109 144 188 242 299 362 429
#     4  10  23  44  74 104 140 191 237 291 360 422
#     4  10  24  44  72 105 145 189 239 290 355 426
#     4  10  24  45  67 104 145 191 241 292 346 422
#
# _framework density 28.486196
#
# number of rings (size 3 to 8) (size 9 to 14) (size 15 to 20)
#    0.000    1.600    0.000    1.800    0.000   33.600 
#    0.000    8.000    0.000    0.000    0.000    0.000 
#    0.000    0.000    0.000    0.000    0.000    0.000 
#
# Total GULP energy -55882.535001 kJ/mol
# GULP energy per Si atom -5588.253500 kJ/mol
# Density = 2.842136 g / cm^3
# Si number density = 28.486196 Si / 1000 Ang^3
#
#
#
# Elastic Constant Matrix: (Units=GPa)
#
#
# Indices 1 2 3 4 5 6 
#
# 1 238.5425 69.7721 18.5369 0.0000 -28.7458 0.0000
# 2 69.7721 144.2833 -4.7570 0.0000 18.0076 0.0000
# 3 18.5369 -4.7570 126.0744 0.0000 -11.6369 0.0000
# 4 0.0000 0.0000 0.0000 28.9950 0.0000 -4.4154
# 5 -28.7458 18.0076 -11.6369 0.0000 39.6585 0.0000
# 6 0.0000 0.0000 0.0000 -4.4154 0.0000 76.1031
#
#
#
# Elastic Compliance Matrix: (Units=1/GPa)
#
#
# Indices 1 2 3 4 5 6 
#
# 1 0.006005 -0.003652 -0.000479 0.000000 0.005871 0.000000
# 2 -0.003652 0.009569 0.000260 0.000000 -0.006916 0.000000
# 3 -0.000479 0.000260 0.008191 0.000000 0.001938 0.000000
# 4 0.000000 0.000000 0.000000 0.034796 0.000000 0.002019
# 5 0.005871 -0.006916 0.001938 0.000000 0.033180 0.000000
# 6 0.000000 0.000000 0.000000 0.002019 0.000000 0.013257
#
#
# Mechanical properties :
#
#
# Convention : Reuss Voigt Hill
#
# Bulk Modulus (GPa) = 62.41561 75.11158 68.76360
# Shear Modulus (GPa) = 42.34366 57.30787 49.82576
#
# Velocity S-wave (km/s) = 3.85965 4.49015 4.18678
# Velocity P-wave (km/s) = 6.46691 7.30116 6.89666
#
# Compressibility (1/GPa) = 0.01602163
#
# Stress axis : x y z
#
# Youngs Moduli (GPa) = 166.52548 104.50676 122.08589
#
# Poissons Ratio (x) = 0.38170 0.05846
# Poissons Ratio (y) = 0.60822 -0.03171
# Poissons Ratio (z) = 0.07975 -0.02714
#
# Static dielectric constant tensor:
#      x y z
#    x 2.426010 0.000000 0.117840 
#    y 0.000000 2.202040 0.000000 
#    z 0.117840 0.000000 2.282090 
# 
# From -- ./inp_files/59150.got.cif
#   From: 2010.05.17/outbox.cif.g08.bks.cpg/sg5_30_cif.got.tgz:59150.got - 2010.06.03 18:56:24.
