data_PCOD9127437
_publ_section_title
;
Structure prediction by ZEFSAII (Michael W. Deem and Ramdas Pophale) SiO2 
 PCOD9127437
Probable space group: C 2
;
_chemical_formula_sum "Si O2"
_cell_formula_units_Z 14
_cell_length_a 14.038283
_cell_length_b 4.931093
_cell_length_c 19.180232
_cell_angle_alpha 90.000000
_cell_angle_beta 23.661779
_cell_angle_gamma 90.000000
_cell_volume 532.868559
_symmetry_space_group_name_H-M "C 2"
_symmetry_group_IT_number 5
_symmetry_cell_setting 'monoclinic'
loop_
_space_group_symop_operation_xyz
x,y,z
-x,y,-z
1/2+x,1/2+y,z
1/2-x,1/2+y,-z
loop_
_atom_site_type_symbol
_atom_site_label
_atom_site_fract_x
_atom_site_fract_y
_atom_site_fract_z
Si Si1 0.381983 0.737870 0.941057
Si Si2 0.719209 0.348526 0.427813
Si Si3 0.000000 0.536880 0.000000
Si Si4 0.461099 0.846275 0.649111
O O1 0.641614 0.768882 0.734245
O O2 0.286755 0.438284 0.990838
O O3 0.383158 0.846543 0.019027
O O4 0.617355 0.649121 0.495796
O O5 0.913231 0.325636 0.359555
O O6 0.509158 0.146961 0.590423
O O7 0.801154 0.729442 0.167879
#
# Coordination Sequence:
#
# PCOD9127437 Si02
#       4
#     4   4   2   4
#     4  12  27  48  78 114 155 199 249 321 379 446
#     4  10  22  46  73 103 151 199 236 306 383 434
#     4  12  28  48  82 116 148 198 266 308 376 456
#     4  10  23  43  76 106 145 196 248 301 373 450
#
# _framework density 26.272894999999998
#
# number of rings (size 3 to 8) (size 9 to 14) (size 15 to 20)
#    0.000    1.143    2.857    1.714    8.000    5.714 
#    0.000    2.857    0.000    0.000    0.000    0.000 
#    0.000    0.000    0.000    0.000    0.000    0.000 
#
# Total GULP energy -39331.785452 kJ/mol
# GULP energy per Si atom -5618.826493 kJ/mol
# Density = 2.621310 g / cm^3
# Si number density = 26.272895 Si / 1000 Ang^3
#
#
#
# Elastic Constant Matrix: (Units=GPa)
#
#
# Indices 1 2 3 4 5 6 
#
# 1 124.0323 7.6712 26.7780 -0.0034 -14.5578 -0.0008
# 2 7.6712 56.9255 -17.2186 -0.0212 -2.4640 0.0159
# 3 26.7780 -17.2186 98.5802 -0.0207 9.0463 0.0068
# 4 -0.0034 -0.0212 -0.0207 43.9964 0.0046 1.1283
# 5 -14.5578 -2.4640 9.0463 0.0046 45.3432 -0.0019
# 6 -0.0008 0.0159 0.0068 1.1283 -0.0019 9.9731
#
#
#
# Elastic Compliance Matrix: (Units=1/GPa)
#
#
# Indices 1 2 3 4 5 6 
#
# 1 0.009296 -0.002071 -0.003209 -0.000002 0.003512 0.000007
# 2 -0.002071 0.019014 0.003922 0.000012 -0.000414 -0.000035
# 3 -0.003209 0.003922 0.011995 0.000008 -0.003210 -0.000016
# 4 -0.000002 0.000012 0.000008 0.022795 -0.000004 -0.002579
# 5 0.003512 -0.000414 -0.003210 -0.000004 0.023800 0.000008
# 6 0.000007 -0.000035 -0.000016 -0.002579 0.000008 0.100562
#
#
# Mechanical properties :
#
#
# Convention : Reuss Voigt Hill
#
# Bulk Modulus (GPa) = 26.60425 34.88879 30.74652
# Shear Modulus (GPa) = 24.66597 37.34967 31.00782
#
# Velocity S-wave (km/s) = 3.06737 3.77451 3.43916
# Velocity P-wave (km/s) = 4.76373 5.68367 5.24391
#
# Compressibility (1/GPa) = 0.03758798
#
# Stress axis : x y z
#
# Youngs Moduli (GPa) = 107.57810 52.59204 83.36566
#
# Poissons Ratio (x) = 0.10893 0.26753
# Poissons Ratio (y) = 0.22283 -0.32694
# Poissons Ratio (z) = 0.34523 -0.20626
#
# Static dielectric constant tensor:
#      x y z
#    x 2.057570 0.000000 -0.013000 
#    y 0.000000 1.961900 0.000000 
#    z -0.013000 0.000000 2.016310 
# 
# From -- ./inp_files/22267.got.cif
#   From: 2010.05.17/outbox.cif.g08.bks.cpg/sg5_12_cif.got.tgz:22267.got - 2010.06.03 18:56:24.
