data_PCOD9127736
_publ_section_title
;
Structure prediction by ZEFSAII (Michael W. Deem and Ramdas Pophale) SiO2 
 PCOD9127736
Probable space group: C 2
;
_chemical_formula_sum "Si O2"
_cell_formula_units_Z 26
_cell_length_a 15.892562
_cell_length_b 9.790463
_cell_length_c 22.258292
_cell_angle_alpha 90.000000
_cell_angle_beta 21.029228
_cell_angle_gamma 90.000000
_cell_volume 1242.781688
_symmetry_space_group_name_H-M "C 2"
_symmetry_group_IT_number 5
_symmetry_cell_setting 'monoclinic'
loop_
_space_group_symop_operation_xyz
x,y,z
-x,y,-z
1/2+x,1/2+y,z
1/2-x,1/2+y,-z
loop_
_atom_site_type_symbol
_atom_site_label
_atom_site_fract_x
_atom_site_fract_y
_atom_site_fract_z
Si Si1 0.000000 0.565591 0.500000
Si Si2 0.874793 0.558855 0.177234
Si Si3 0.611360 0.343302 0.776112
Si Si4 0.172695 0.975880 0.194601
Si Si5 0.207214 0.181924 0.590374
Si Si6 0.577862 0.929464 0.161962
Si Si7 0.991069 0.711480 0.280923
O O1 0.211597 0.468295 0.337346
O O2 0.096202 0.653626 0.490956
O O3 0.822684 0.716711 0.225180
O O4 0.685812 0.496636 0.257406
O O5 0.928378 0.476277 0.202740
O O6 0.116421 0.552298 0.979021
O O7 0.623472 0.275992 0.702111
O O8 0.343056 0.390775 0.966198
O O9 0.941287 0.044075 0.321712
O O10 0.194336 0.817606 0.163291
O O11 0.318611 0.215697 0.452128
O O12 0.041290 0.301368 0.725990
O O13 0.575422 0.060867 0.207298
#
# Coordination Sequence:
#
# PCOD9127736 Si02
#       7
#     2   4   4   4   4   4   4
#     4  12  28  44  74 106 154 180 246 304 368 422
#     4  10  23  41  73 102 131 188 242 295 347 426
#     4  11  24  48  72 103 141 196 240 296 360 435
#     4  11  22  44  70 100 139 176 244 295 348 426
#     4  12  26  47  68 104 143 189 230 303 363 429
#     4  11  24  47  75 100 143 194 240 286 367 439
#     4  11  25  45  70 101 144 182 234 302 359 418
#
# _framework density 20.920809999999999
#
# number of rings (size 3 to 8) (size 9 to 14) (size 15 to 20)
#    0.000    0.923    4.615    0.923    6.462    0.000 
#    2.769    0.000    0.000    0.000    0.000    0.000 
#    0.000    0.000    0.000    0.000    0.000    0.000 
#
# Total GULP energy -72663.957373 kJ/mol
# GULP energy per Si atom -5589.535183 kJ/mol
# Density = 2.087319 g / cm^3
# Si number density = 20.920810 Si / 1000 Ang^3
#
#
#
# Elastic Constant Matrix: (Units=GPa)
#
#
# Indices 1 2 3 4 5 6 
#
# 1 116.2084 56.7668 42.5706 0.0033 4.7166 -0.0021
# 2 56.7668 126.1373 38.6279 -0.0271 7.7678 0.0016
# 3 42.5706 38.6279 93.2141 -0.0848 19.6810 0.0106
# 4 0.0033 -0.0271 -0.0848 27.1055 -0.0077 1.1738
# 5 4.7166 7.7678 19.6810 -0.0077 29.8194 -0.0009
# 6 -0.0021 0.0016 0.0106 1.1738 -0.0009 29.6147
#
#
#
# Elastic Compliance Matrix: (Units=1/GPa)
#
#
# Indices 1 2 3 4 5 6 
#
# 1 0.012165 -0.004315 -0.004181 -0.000018 0.001960 0.000003
# 2 -0.004315 0.010611 -0.002309 0.000004 -0.000558 0.000000
# 3 -0.004181 -0.002309 0.015486 0.000044 -0.008958 -0.000008
# 4 -0.000018 0.000004 0.000044 0.036956 -0.000018 -0.001465
# 5 0.001960 -0.000558 -0.008958 -0.000018 0.039283 0.000005
# 6 0.000003 0.000000 -0.000008 -0.001465 0.000005 0.033825
#
#
# Mechanical properties :
#
#
# Convention : Reuss Voigt Hill
#
# Bulk Modulus (GPa) = 60.05415 67.94338 63.99877
# Shear Modulus (GPa) = 28.49198 30.48091 29.48644
#
# Velocity S-wave (km/s) = 3.69439 3.82116 3.75831
# Velocity P-wave (km/s) = 6.85316 7.21217 7.03495
#
# Compressibility (1/GPa) = 0.01665164
#
# Stress axis : x y z
#
# Youngs Moduli (GPa) = 82.20060 94.23992 64.57518
#
# Poissons Ratio (x) = 0.40665 0.27002
# Poissons Ratio (y) = 0.35470 0.14909
# Poissons Ratio (z) = 0.34372 0.21758
#
# Static dielectric constant tensor:
#      x y z
#    x 1.776440 0.000000 -0.009720 
#    y 0.000000 1.761840 0.000010 
#    z -0.009720 0.000010 1.745050 
# 
# From -- ./inp_files/69139.got.cif
#   From: 2010.05.17/outbox.cif.g08.bks.cpg/sg5_35_cif.got.tgz:69139.got - 2010.06.03 18:56:24.
