data_PCOD9127468
_publ_section_title
;
Structure prediction by ZEFSAII (Michael W. Deem and Ramdas Pophale) SiO2 
 PCOD9127468
Probable space group: C 2
;
_chemical_formula_sum "Si O2"
_cell_formula_units_Z 22
_cell_length_a 15.981530
_cell_length_b 10.907485
_cell_length_c 11.806101
_cell_angle_alpha 90.000000
_cell_angle_beta 23.799170
_cell_angle_gamma 90.000000
_cell_volume 830.476788
_symmetry_space_group_name_H-M "C 2"
_symmetry_group_IT_number 5
_symmetry_cell_setting 'monoclinic'
loop_
_space_group_symop_operation_xyz
x,y,z
-x,y,-z
1/2+x,1/2+y,z
1/2-x,1/2+y,-z
loop_
_atom_site_type_symbol
_atom_site_label
_atom_site_fract_x
_atom_site_fract_y
_atom_site_fract_z
Si Si1 0.846709 0.761100 0.441120
Si Si2 0.500000 0.484205 0.000000
Si Si3 0.655400 0.094861 0.905971
Si Si4 0.796764 0.879687 0.897549
Si Si5 0.222383 0.640919 0.235382
Si Si6 0.618086 0.804177 0.509388
O O1 0.773265 0.691471 0.642806
O O2 0.654439 0.785156 0.598609
O O3 0.010164 0.680548 0.165628
O O4 0.977998 0.877486 0.323533
O O5 0.573850 0.559281 0.019244
O O6 0.699486 0.400536 0.737141
O O7 0.820743 0.183030 0.637004
O O8 0.500000 0.044850 0.000000
O O9 0.751165 0.991666 0.869401
O O10 0.611434 0.858288 0.216867
O O11 0.793211 0.753127 0.830757
O O12 0.000000 0.575379 0.500000
#
# Coordination Sequence:
#
# PCOD9127468 Si02
#       6
#     4   2   4   4   4   4
#     4  10  22  47  65 101 140 178 240 293 358 437
#     4  12  22  42  68  92 138 186 230 298 352 432
#     4  10  23  47  69 105 148 185 245 306 362 444
#     4  11  25  44  73 103 143 190 235 306 364 441
#     4  10  24  44  67 102 136 182 243 293 364 435
#     4  11  24  45  69 103 139 189 239 291 376 432
#
# _framework density 26.490805000000002
#
# number of rings (size 3 to 8) (size 9 to 14) (size 15 to 20)
#    0.000    1.455    2.727    2.182    3.818    6.545 
#    9.818    0.000    0.000    0.000    0.000    0.000 
#    0.000    0.000    0.000    0.000    0.000    0.000 
#
# Total GULP energy -61608.856187 kJ/mol
# GULP energy per Si atom -5600.805108 kJ/mol
# Density = 2.643051 g / cm^3
# Si number density = 26.490805 Si / 1000 Ang^3
#
#
#
# Elastic Constant Matrix: (Units=GPa)
#
#
# Indices 1 2 3 4 5 6 
#
# 1 61.8522 34.9256 15.8526 -0.0017 -1.4520 0.0016
# 2 34.9256 97.2742 22.5863 -0.0013 -10.8162 0.0005
# 3 15.8526 22.5863 103.3087 -0.0031 -15.3635 0.0021
# 4 -0.0017 -0.0013 -0.0031 10.1074 0.0012 35.4734
# 5 -1.4520 -10.8162 -15.3635 0.0012 51.3447 -0.0010
# 6 0.0016 0.0005 0.0021 35.4734 -0.0010 21.9857
#
#
#
# Elastic Compliance Matrix: (Units=1/GPa)
#
#
# Indices 1 2 3 4 5 6 
#
# 1 0.020637 -0.007150 -0.001822 -0.000001 -0.001468 0.000001
# 2 -0.007150 0.013442 -0.001518 0.000000 0.002175 0.000000
# 3 -0.001822 -0.001518 0.010713 -0.000001 0.002834 0.000001
# 4 -0.000001 0.000000 -0.000001 -0.021219 0.000001 0.034236
# 5 -0.001468 0.002175 0.002834 0.000001 0.020741 -0.000001
# 6 0.000001 0.000000 0.000001 0.034236 -0.000001 -0.009755
#
#
# Mechanical properties :
#
#
# Convention : Reuss Voigt Hill
#
# Bulk Modulus (GPa) = 41.99571 45.46267 43.72919
# Shear Modulus (GPa) = 78.76995 29.29227 54.03111
#
# Velocity S-wave (km/s) = 5.45888 3.32889 4.52111
# Velocity P-wave (km/s) = 7.45787 5.65458 6.61794
#
# Compressibility (1/GPa) = 0.02381195
#
# Stress axis : x y z
#
# Youngs Moduli (GPa) = 48.45597 74.39548 93.34738
#
# Poissons Ratio (x) = 0.53192 0.17007
# Poissons Ratio (y) = 0.34645 0.14171
# Poissons Ratio (z) = 0.08828 0.11294
#
# Static dielectric constant tensor:
#      x y z
#    x 2.167660 0.000000 0.045870 
#    y 0.000000 2.187030 0.000000 
#    z 0.045870 0.000000 2.074040 
# 
# From -- ./inp_files/42643.got.cif
#   From: 2010.05.17/outbox.cif.g08.bks.cpg/sg5_22_cif.got.tgz:42643.got - 2010.06.03 18:56:24.
