data_PCOD9127019
_publ_section_title
;
Structure prediction by ZEFSAII (Michael W. Deem and Ramdas Pophale) SiO2 
 PCOD9127019
Probable space group: C 2
;
_chemical_formula_sum "Si O2"
_cell_formula_units_Z 24
_cell_length_a 7.948844
_cell_length_b 13.004802
_cell_length_c 13.668983
_cell_angle_alpha 90.000000
_cell_angle_beta 40.499317
_cell_angle_gamma 90.000000
_cell_volume 917.661002
_symmetry_space_group_name_H-M "C 2"
_symmetry_group_IT_number 5
_symmetry_cell_setting 'monoclinic'
loop_
_space_group_symop_operation_xyz
x,y,z
-x,y,-z
1/2+x,1/2+y,z
1/2-x,1/2+y,-z
loop_
_atom_site_type_symbol
_atom_site_label
_atom_site_fract_x
_atom_site_fract_y
_atom_site_fract_z
Si Si1 0.995513 0.049550 0.817828
Si Si2 0.087780 0.666755 0.124185
Si Si3 0.500000 0.810231 0.000000
Si Si4 0.746080 0.351629 0.743317
Si Si5 0.180378 0.837963 0.536869
Si Si6 0.000000 0.649044 0.500000
Si Si7 0.822092 0.464557 0.224222
O O1 0.263617 0.087028 0.651397
O O2 0.078836 0.950615 0.844629
O O3 0.802166 0.016221 0.817743
O O4 0.826334 0.130358 0.951841
O O5 0.244957 0.741660 0.127017
O O6 0.875479 0.743103 0.170620
O O7 0.952929 0.561605 0.219854
O O8 0.514678 0.880326 0.091218
O O9 0.728901 0.346704 0.631700
O O10 0.047071 0.366588 0.635038
O O11 0.121301 0.722912 0.528692
O O12 0.928689 0.905978 0.624965
#
# Coordination Sequence:
#
# PCOD9127019 Si02
#       7
#     4   4   2   4   4   2   4
#     4  11  22  40  69  97 133 185 233 285 352 422
#     4  12  22  39  73 100 131 188 234 278 361 415
#     4  12  22  42  64 100 144 174 230 288 338 412
#     4  10  22  44  70  96 135 186 236 289 354 423
#     4  10  22  43  66  95 137 183 230 296 351 418
#     4  12  24  40  66 100 136 186 238 290 358 418
#     4  11  21  44  67  97 138 182 227 293 349 411
#
# _framework density 26.153448999999998
#
# number of rings (size 3 to 8) (size 9 to 14) (size 15 to 20)
#    0.000    1.000    5.000    4.000    0.000    0.000 
#    3.000    5.000    7.333    0.000    0.000    0.000 
#    0.000    0.000    0.000    0.000    0.000    0.000 
#
# Total GULP energy -67167.806909 kJ/mol
# GULP energy per Si atom -5597.317242 kJ/mol
# Density = 2.609392 g / cm^3
# Si number density = 26.153449 Si / 1000 Ang^3
#
#
#
# Elastic Constant Matrix: (Units=GPa)
#
#
# Indices 1 2 3 4 5 6 
#
# 1 63.3808 26.7994 25.8195 -0.0001 -24.7944 -0.0009
# 2 26.7994 180.0025 84.0480 -0.0065 -24.8714 0.0002
# 3 25.8195 84.0480 185.4283 -0.0160 -41.6605 -0.0015
# 4 -0.0001 -0.0065 -0.0160 51.3825 0.0005 -15.4360
# 5 -24.7944 -24.8714 -41.6605 0.0005 52.6635 0.0018
# 6 -0.0009 0.0002 -0.0015 -15.4360 0.0018 42.8785
#
#
#
# Elastic Compliance Matrix: (Units=1/GPa)
#
#
# Indices 1 2 3 4 5 6 
#
# 1 0.019860 -0.001755 -0.000067 0.000000 0.008468 0.000000
# 2 -0.001755 0.007243 -0.002987 0.000000 0.000232 0.000000
# 3 -0.000067 -0.002987 0.007822 0.000002 0.004746 0.000001
# 4 0.000000 0.000000 0.000002 0.021822 0.000001 0.007856
# 5 0.008468 0.000232 0.004746 0.000001 0.026839 0.000000
# 6 0.000000 0.000000 0.000001 0.007856 0.000000 0.026150
#
#
# Mechanical properties :
#
#
# Convention : Reuss Voigt Hill
#
# Bulk Modulus (GPa) = 39.51462 78.01618 58.76540
# Shear Modulus (GPa) = 39.12657 48.86122 43.99389
#
# Velocity S-wave (km/s) = 3.87206 4.32702 4.10585
# Velocity P-wave (km/s) = 5.92723 7.40669 6.70787
#
# Compressibility (1/GPa) = 0.02530709
#
# Stress axis : x y z
#
# Youngs Moduli (GPa) = 50.35273 138.05646 127.83985
#
# Poissons Ratio (x) = 0.24235 0.00858
# Poissons Ratio (y) = 0.08839 0.38182
# Poissons Ratio (z) = 0.00338 0.41233
#
# Static dielectric constant tensor:
#      x y z
#    x 2.115650 0.000000 0.054600 
#    y 0.000000 2.083120 0.000000 
#    z 0.054600 0.000000 2.053500 
# 
# From -- ./inp_files/65190.got.cif
#   From: 2010.05.17/outbox.cif.g08.bks.cpg/sg5_33_cif.got.tgz:65190.got - 2010.06.03 18:56:24.
