data_PCOD9127761
_publ_section_title
;
Structure prediction by ZEFSAII (Michael W. Deem and Ramdas Pophale) SiO2 
 PCOD9127761
Probable space group: C 2
;
_chemical_formula_sum "Si O2"
_cell_formula_units_Z 26
_cell_length_a 17.969247
_cell_length_b 7.068128
_cell_length_c 16.927108
_cell_angle_alpha 90.000000
_cell_angle_beta 146.296257
_cell_angle_gamma 90.000000
_cell_volume 1192.973553
_symmetry_space_group_name_H-M "C 2"
_symmetry_group_IT_number 5
_symmetry_cell_setting 'monoclinic'
loop_
_space_group_symop_operation_xyz
x,y,z
-x,y,-z
1/2+x,1/2+y,z
1/2-x,1/2+y,-z
loop_
_atom_site_type_symbol
_atom_site_label
_atom_site_fract_x
_atom_site_fract_y
_atom_site_fract_z
Si Si1 0.762906 0.565240 0.888478
Si Si2 0.428771 0.605801 0.856768
Si Si3 0.985092 0.160281 0.568391
Si Si4 0.135195 0.268034 0.922416
Si Si5 0.194402 0.812019 0.560002
Si Si6 0.086878 0.465704 0.366278
Si Si7 0.500000 0.242832 0.000000
O O1 0.633797 0.598512 0.722335
O O2 0.726636 0.683397 0.935242
O O3 0.897038 0.627953 0.962434
O O4 0.777286 0.352099 0.930227
O O5 0.529768 0.627310 0.871435
O O6 0.292927 0.707263 0.709376
O O7 0.415410 0.386058 0.868974
O O8 0.500000 0.686601 0.000000
O O9 0.000000 0.270234 0.500000
O O10 0.897392 0.971711 0.482631
O O11 0.710799 0.922597 0.418363
O O12 0.045313 0.436513 0.804539
O O13 0.110541 0.657676 0.435544
O O14 0.425199 0.794359 0.582253
#
# Coordination Sequence:
#
# PCOD9127761 Si02
#       7
#     4   4   4   4   4   4   2
#     4  11  25  43  67  98 133 180 223 286 341 400
#     4   9  23  42  68  99 130 172 229 271 343 402
#     4  11  27  42  63 105 137 173 230 278 343 407
#     4  10  23  42  65  95 131 169 226 277 335 405
#     4  11  22  44  71  95 136 181 223 282 333 415
#     4  10  23  43  70  96 128 179 227 276 336 405
#     4  10  24  42  68 100 132 176 228 280 344 406
#
# _framework density 21.794281000000002
#
# number of rings (size 3 to 8) (size 9 to 14) (size 15 to 20)
#    0.462    1.231    1.538    0.923    7.538    3.077 
#    2.769    0.000    0.000    0.000    0.000    0.000 
#    0.000    0.000    0.000    0.000    0.000    0.000 
#
# Total GULP energy -72597.679067 kJ/mol
# GULP energy per Si atom -5584.436851 kJ/mol
# Density = 2.174468 g / cm^3
# Si number density = 21.794281 Si / 1000 Ang^3
#
#
#
# Elastic Constant Matrix: (Units=GPa)
#
#
# Indices 1 2 3 4 5 6 
#
# 1 128.2941 15.6209 36.7369 0.0000 0.7088 0.0000
# 2 15.6209 26.8376 -1.5949 0.0000 4.7311 0.0000
# 3 36.7369 -1.5949 31.7410 0.0000 -9.8962 0.0000
# 4 0.0000 0.0000 0.0000 17.6007 0.0000 4.7978
# 5 0.7088 4.7311 -9.8962 0.0000 28.1980 0.0000
# 6 0.0000 0.0000 0.0000 4.7978 0.0000 3.7747
#
#
#
# Elastic Compliance Matrix: (Units=1/GPa)
#
#
# Indices 1 2 3 4 5 6 
#
# 1 0.014133 -0.008366 -0.018472 0.000000 -0.005434 0.000000
# 2 -0.008366 0.043349 0.010845 0.000000 -0.003257 0.000000
# 3 -0.018472 0.010845 0.059519 0.000000 0.019533 0.000000
# 4 0.000000 0.000000 0.000000 0.086937 0.000000 -0.110501
# 5 -0.005434 -0.003257 0.019533 0.000000 0.043002 0.000000
# 6 0.000000 0.000000 0.000000 -0.110501 0.000000 0.405377
#
#
# Mechanical properties :
#
#
# Convention : Reuss Voigt Hill
#
# Bulk Modulus (GPa) = 11.76248 32.04428 21.90338
# Shear Modulus (GPa) = 7.01617 18.98866 13.00242
#
# Velocity S-wave (km/s) = 1.79618 2.95493 2.44518
# Velocity P-wave (km/s) = 3.11616 5.13587 4.24780
#
# Compressibility (1/GPa) = 0.08501608
#
# Stress axis : x y z
#
# Youngs Moduli (GPa) = 70.75886 23.06860 16.80140
#
# Poissons Ratio (x) = 0.19298 0.31035
# Poissons Ratio (y) = 0.59194 -0.18221
# Poissons Ratio (z) = 1.30703 -0.25018
#
# Static dielectric constant tensor:
#      x y z
#    x 1.763770 0.000000 -0.007810 
#    y 0.000000 1.770430 0.000000 
#    z -0.007810 0.000000 1.809990 
# 
# From -- ./inp_files/54271.got.cif
#   From: 2010.05.17/outbox.cif.g08.bks.cpg/sg5_28_cif.got.tgz:54271.got - 2010.06.03 18:56:24.
