data_PCOD9127565
_publ_section_title
;
Structure prediction by ZEFSAII (Michael W. Deem and Ramdas Pophale) SiO2 
 PCOD9127565
Probable space group: C 2
;
_chemical_formula_sum "Si O2"
_cell_formula_units_Z 28
_cell_length_a 10.354209
_cell_length_b 10.950553
_cell_length_c 18.707309
_cell_angle_alpha 90.000000
_cell_angle_beta 33.044586
_cell_angle_gamma 90.000000
_cell_volume 1156.626202
_symmetry_space_group_name_H-M "C 2"
_symmetry_group_IT_number 5
_symmetry_cell_setting 'monoclinic'
loop_
_space_group_symop_operation_xyz
x,y,z
-x,y,-z
1/2+x,1/2+y,z
1/2-x,1/2+y,-z
loop_
_atom_site_type_symbol
_atom_site_label
_atom_site_fract_x
_atom_site_fract_y
_atom_site_fract_z
Si Si1 0.678803 0.511740 0.833951
Si Si2 0.561708 0.469502 0.678276
Si Si3 0.525428 0.847570 0.595088
Si Si4 0.816288 0.290691 0.180686
Si Si5 0.260523 0.713253 0.365044
Si Si6 0.656562 0.591538 0.356786
Si Si7 0.344329 0.957143 0.906856
O O1 0.711923 0.654656 0.835137
O O2 0.752254 0.429945 0.868996
O O3 0.860220 0.461492 0.691571
O O4 0.400455 0.505379 0.946823
O O5 0.787027 0.387545 0.552024
O O6 0.343377 0.379665 0.792445
O O7 0.582947 0.591329 0.715830
O O8 0.501078 0.531968 0.631054
O O9 0.656934 0.796584 0.606367
O O10 0.358679 0.736266 0.648267
O O11 0.737442 0.283675 0.301061
O O12 0.069642 0.351034 0.079365
O O13 0.000000 0.664600 0.500000
O O14 0.500000 0.563889 0.500000
O O15 0.923214 0.541294 0.218479
#
# Coordination Sequence:
#
# PCOD9127565 Si02
#       7
#     4   4   4   4   4   4   4
#     4  11  24  42  67  92 124 173 219 253 320 392
#     4  10  23  38  61  99 126 162 217 258 318 387
#     4  11  22  37  63  97 128 163 217 260 315 390
#     4  11  23  43  67  88 132 168 207 270 316 377
#     4  11  21  39  64  93 130 169 204 262 327 368
#     4  10  23  38  64  93 129 165 206 273 322 370
#     4  10  24  45  65  91 128 169 212 265 318 379
#
# _framework density 24.208341000000001
#
# number of rings (size 3 to 8) (size 9 to 14) (size 15 to 20)
#    0.000    1.429    2.857    1.714    8.000    1.714 
#    0.000    0.000    0.000    0.000    0.000    0.000 
#    0.000    0.000    0.000    0.000    0.000    0.000 
#
# Total GULP energy -78112.512127 kJ/mol
# GULP energy per Si atom -5579.465152 kJ/mol
# Density = 2.415324 g / cm^3
# Si number density = 24.208341 Si / 1000 Ang^3
#
#
#
# Elastic Constant Matrix: (Units=GPa)
#
#
# Indices 1 2 3 4 5 6 
#
# 1 69.4639 23.0875 31.4444 -0.0012 -10.4551 0.0001
# 2 23.0875 124.0579 13.2613 -0.0003 -21.2840 -0.0001
# 3 31.4444 13.2613 60.6859 -0.0046 -5.0594 0.0019
# 4 -0.0012 -0.0003 -0.0046 17.7958 0.0016 -5.1308
# 5 -10.4551 -21.2840 -5.0594 0.0016 33.9143 -0.0008
# 6 0.0001 -0.0001 0.0019 -5.1308 -0.0008 27.0923
#
#
#
# Elastic Compliance Matrix: (Units=1/GPa)
#
#
# Indices 1 2 3 4 5 6 
#
# 1 0.019950 -0.002104 -0.009594 -0.000001 0.003398 0.000000
# 2 -0.002104 0.009396 -0.000532 -0.000001 0.005169 0.000000
# 3 -0.009594 -0.000532 0.021559 0.000005 -0.000075 -0.000001
# 4 -0.000001 -0.000001 0.000005 0.059439 -0.000003 0.011257
# 5 0.003398 0.005169 -0.000075 -0.000003 0.033766 0.000000
# 6 0.000000 0.000000 -0.000001 0.011257 0.000000 0.039043
#
#
# Mechanical properties :
#
#
# Convention : Reuss Voigt Hill
#
# Bulk Modulus (GPa) = 37.81436 43.31046 40.56241
# Shear Modulus (GPa) = 23.10244 28.18811 25.64528
#
# Velocity S-wave (km/s) = 3.09255 3.41603 3.25831
# Velocity P-wave (km/s) = 5.32974 5.78693 5.56303
#
# Compressibility (1/GPa) = 0.02644498
#
# Stress axis : x y z
#
# Youngs Moduli (GPa) = 50.12623 106.42859 46.38366
#
# Poissons Ratio (x) = 0.22394 0.44499
# Poissons Ratio (y) = 0.10547 0.02468
# Poissons Ratio (z) = 0.48090 0.05663
#
# Static dielectric constant tensor:
#      x y z
#    x 2.005020 0.000000 0.008150 
#    y 0.000000 1.994210 0.000000 
#    z 0.008150 0.000000 1.975030 
# 
# From -- ./inp_files/65273.got.cif
#   From: 2010.05.17/outbox.cif.g08.bks.cpg/sg5_33_cif.got.tgz:65273.got - 2010.06.03 18:56:24.
