data_PCOD9127899
_publ_section_title
;
Structure prediction by ZEFSAII (Michael W. Deem and Ramdas Pophale) SiO2 
 PCOD9127899
Probable space group: C 2
;
_chemical_formula_sum "Si O2"
_cell_formula_units_Z 20
_cell_length_a 16.868396
_cell_length_b 5.355969
_cell_length_c 9.435630
_cell_angle_alpha 90.000000
_cell_angle_beta 105.715220
_cell_angle_gamma 90.000000
_cell_volume 820.611406
_symmetry_space_group_name_H-M "C 2"
_symmetry_group_IT_number 5
_symmetry_cell_setting 'monoclinic'
loop_
_space_group_symop_operation_xyz
x,y,z
-x,y,-z
1/2+x,1/2+y,z
1/2-x,1/2+y,-z
loop_
_atom_site_type_symbol
_atom_site_label
_atom_site_fract_x
_atom_site_fract_y
_atom_site_fract_z
Si Si1 0.222836 0.538670 0.149716
Si Si2 0.622244 0.297876 0.883225
Si Si3 0.471940 0.363976 0.640277
Si Si4 0.924320 0.175404 0.886829
Si Si5 0.708619 0.257747 0.424520
O O1 0.317399 0.466232 0.182025
O O2 0.158864 0.330343 0.171862
O O3 0.215629 0.761154 0.257963
O O4 0.184979 0.597373 0.977716
O O5 0.545942 0.213109 0.751632
O O6 0.613346 0.218321 0.417691
O O7 0.500000 0.454371 0.500000
O O8 0.451915 0.575336 0.747504
O O9 0.909243 0.955313 0.995657
O O10 0.000000 0.324261 0.000000
O O11 0.739978 0.517853 0.501526
#
# Coordination Sequence:
#
# PCOD9127899 Si02
#       5
#     4   4   4   4   4
#     4  12  24  44  77 108 149 196 259 309 385 451
#     4  11  24  44  73 110 144 198 251 310 380 451
#     4  11  25  48  73 106 152 197 259 309 382 449
#     4  10  23  43  72 106 148 197 248 315 371 449
#     4  12  28  50  78 109 158 204 252 315 384 449
#
# _framework density 24.372074000000001
#
# number of rings (size 3 to 8) (size 9 to 14) (size 15 to 20)
#    0.000    0.800    4.000    2.400    2.800    1.600 
#    0.000    4.000    0.000    0.000    0.000    0.000 
#    0.000    0.000    0.000    0.000    0.000    0.000 
#
# Total GULP energy -55956.458507 kJ/mol
# GULP energy per Si atom -5595.645851 kJ/mol
# Density = 2.431660 g / cm^3
# Si number density = 24.372074 Si / 1000 Ang^3
#
#
#
# Elastic Constant Matrix: (Units=GPa)
#
#
# Indices 1 2 3 4 5 6 
#
# 1 145.1340 7.9345 53.0763 0.0000 6.8061 0.0000
# 2 7.9345 44.4609 24.1161 0.0000 9.1198 0.0000
# 3 53.0763 24.1161 134.8301 0.0000 -3.6914 0.0000
# 4 0.0000 0.0000 0.0000 34.5057 0.0000 -8.6849
# 5 6.8061 9.1198 -3.6914 0.0000 65.4454 0.0000
# 6 0.0000 0.0000 0.0000 -8.6849 0.0000 17.3196
#
#
#
# Elastic Compliance Matrix: (Units=1/GPa)
#
#
# Indices 1 2 3 4 5 6 
#
# 1 0.008130 0.000587 -0.003336 0.000000 -0.001116 0.000000
# 2 0.000587 0.025893 -0.004971 0.000000 -0.003950 0.000000
# 3 -0.003336 -0.004971 0.009663 0.000000 0.001585 0.000000
# 4 0.000000 0.000000 0.000000 0.033167 0.000000 0.016631
# 5 -0.001116 -0.003950 0.001585 0.000000 0.016036 0.000000
# 6 0.000000 0.000000 0.000000 0.016631 0.000000 0.066078
#
#
# Mechanical properties :
#
#
# Convention : Reuss Voigt Hill
#
# Bulk Modulus (GPa) = 35.40176 54.96432 45.18304
# Shear Modulus (GPa) = 27.20038 39.40734 33.30386
#
# Velocity S-wave (km/s) = 3.34435 4.02544 3.70060
# Velocity P-wave (km/s) = 5.42863 6.64881 6.06946
#
# Compressibility (1/GPa) = 0.02824719
#
# Stress axis : x y z
#
# Youngs Moduli (GPa) = 122.99448 38.62027 103.49287
#
# Poissons Ratio (x) = -0.02269 0.34527
# Poissons Ratio (y) = -0.07225 0.51443
# Poissons Ratio (z) = 0.41033 0.19197
#
# Static dielectric constant tensor:
#      x y z
#    x 1.977310 0.000000 0.035130 
#    y 0.000000 1.966780 0.000000 
#    z 0.035130 0.000000 1.954710 
# 
# From -- ./inp_files/28190.got.cif
#   From: 2010.05.17/outbox.cif.g08.bks.cpg/sg5_15_cif.got.tgz:28190.got - 2010.06.03 18:56:24.
