data_PCOD9127486
_publ_section_title
;
Structure prediction by ZEFSAII (Michael W. Deem and Ramdas Pophale) SiO2 
 PCOD9127486
Probable space group: C 2
;
_chemical_formula_sum "Si O2"
_cell_formula_units_Z 32
_cell_length_a 21.372936
_cell_length_b 6.660514
_cell_length_c 21.924493
_cell_angle_alpha 90.000000
_cell_angle_beta 155.379769
_cell_angle_gamma 90.000000
_cell_volume 1300.237382
_symmetry_space_group_name_H-M "C 2"
_symmetry_group_IT_number 5
_symmetry_cell_setting 'monoclinic'
loop_
_space_group_symop_operation_xyz
x,y,z
-x,y,-z
1/2+x,1/2+y,z
1/2-x,1/2+y,-z
loop_
_atom_site_type_symbol
_atom_site_label
_atom_site_fract_x
_atom_site_fract_y
_atom_site_fract_z
Si Si1 0.768552 0.706610 0.898378
Si Si2 0.660565 0.657853 0.164695
Si Si3 0.064588 0.188106 0.830516
Si Si4 0.257189 0.676402 0.893282
Si Si5 0.929640 0.551650 0.633100
Si Si6 0.402811 0.038627 0.818342
Si Si7 0.826800 0.831590 0.640484
Si Si8 0.846060 0.264822 0.329054
O O1 0.688756 0.633606 0.889317
O O2 0.647478 0.711765 0.736580
O O3 0.805071 0.942204 0.936881
O O4 0.924642 0.601047 0.021428
O O5 0.626083 0.803222 0.191379
O O6 0.714631 0.759881 0.149296
O O7 0.786213 0.491159 0.287396
O O8 0.500000 0.567839 0.000000
O O9 0.150361 0.257059 0.967450
O O10 0.956049 0.001595 0.750223
O O11 0.079235 0.666717 0.745846
O O12 0.827679 0.712391 0.577524
O O13 0.831096 0.446543 0.493561
O O14 0.981927 0.377807 0.726469
O O15 0.354865 0.157815 0.714700
O O16 0.292159 0.136449 0.769003
O O17 0.000000 0.225511 0.500000
#
# Coordination Sequence:
#
# PCOD9127486 Si02
#       8
#     4   4   4   4   4   4   4   4
#     4  10  22  47  74 111 147 194 250 306 375 441
#     4  11  26  47  73 106 141 193 257 312 365 448
#     4  11  24  47  76 110 156 195 243 314 376 454
#     4  10  23  45  75 109 146 195 245 312 376 441
#     4  11  26  45  72 112 153 198 245 307 376 455
#     4  12  26  46  75 109 147 200 253 312 364 454
#     4  12  26  45  73 113 153 202 247 299 388 452
#     4  11  26  46  75 104 154 200 244 309 381 437
#
# _framework density 24.610892
#
# number of rings (size 3 to 8) (size 9 to 14) (size 15 to 20)
#    0.000    1.000    2.500    3.375    8.750    2.500 
#    0.000    0.000    0.000    0.000    0.000    0.000 
#    0.000    0.000    0.000    0.000    0.000    0.000 
#
# Total GULP energy -89489.756549 kJ/mol
# GULP energy per Si atom -5593.109784 kJ/mol
# Density = 2.455488 g / cm^3
# Si number density = 24.610892 Si / 1000 Ang^3
#
#
#
# Elastic Constant Matrix: (Units=GPa)
#
#
# Indices 1 2 3 4 5 6 
#
# 1 124.3723 19.2455 50.0522 0.0000 2.1142 0.0000
# 2 19.2455 84.0904 13.9863 0.0000 -0.9010 0.0000
# 3 50.0522 13.9863 130.8718 -0.0001 -2.5131 -0.0001
# 4 0.0000 0.0000 -0.0001 25.5229 0.0000 0.7675
# 5 2.1142 -0.9010 -2.5131 0.0000 27.1947 0.0000
# 6 0.0000 0.0000 -0.0001 0.7675 0.0000 33.3285
#
#
#
# Elastic Compliance Matrix: (Units=1/GPa)
#
#
# Indices 1 2 3 4 5 6 
#
# 1 0.009754 -0.001650 -0.003576 0.000000 -0.001143 0.000000
# 2 -0.001650 0.012388 -0.000684 0.000000 0.000476 0.000000
# 3 -0.003576 -0.000684 0.009103 0.000000 0.001097 0.000000
# 4 0.000000 0.000000 0.000000 0.039208 0.000000 -0.000903
# 5 -0.001143 0.000476 0.001097 0.000000 0.036978 0.000000
# 6 0.000000 0.000000 0.000000 -0.000903 0.000000 0.030025
#
#
# Mechanical properties :
#
#
# Convention : Reuss Voigt Hill
#
# Bulk Modulus (GPa) = 51.47780 56.21139 53.84459
# Shear Modulus (GPa) = 32.10245 34.27926 33.19085
#
# Velocity S-wave (km/s) = 3.61557 3.73614 3.67635
# Velocity P-wave (km/s) = 6.19611 6.44215 6.32033
#
# Compressibility (1/GPa) = 0.01942585
#
# Stress axis : x y z
#
# Youngs Moduli (GPa) = 102.51873 80.72072 109.85479
#
# Poissons Ratio (x) = 0.13318 0.39286
# Poissons Ratio (y) = 0.16914 0.07512
# Poissons Ratio (z) = 0.36663 0.05520
#
# Static dielectric constant tensor:
#      x y z
#    x 1.995290 0.000000 -0.016610 
#    y 0.000000 2.043680 0.000000 
#    z -0.016610 0.000000 1.914390 
# 
# From -- ./inp_files/62380.got.cif
#   From: 2010.05.17/outbox.cif.g08.bks.cpg/sg5_32_cif.got.tgz:62380.got - 2010.06.03 18:56:24.
