data_PCOD9127441
_publ_section_title
;
Structure prediction by ZEFSAII (Michael W. Deem and Ramdas Pophale) SiO2 
 PCOD9127441
Probable space group: C 2
;
_chemical_formula_sum "Si O2"
_cell_formula_units_Z 20
_cell_length_a 17.685968
_cell_length_b 8.727251
_cell_length_c 4.984502
_cell_angle_alpha 90.000000
_cell_angle_beta 93.974485
_cell_angle_gamma 90.000000
_cell_volume 767.507003
_symmetry_space_group_name_H-M "C 2"
_symmetry_group_IT_number 5
_symmetry_cell_setting 'monoclinic'
loop_
_space_group_symop_operation_xyz
x,y,z
-x,y,-z
1/2+x,1/2+y,z
1/2-x,1/2+y,-z
loop_
_atom_site_type_symbol
_atom_site_label
_atom_site_fract_x
_atom_site_fract_y
_atom_site_fract_z
Si Si1 0.113879 0.486810 0.733334
Si Si2 0.141820 0.745534 0.317296
Si Si3 0.500000 0.729177 0.500000
Si Si4 0.000000 0.710685 0.000000
Si Si5 0.783521 0.241817 0.995060
Si Si6 0.348624 0.576815 0.510637
O O1 0.140299 0.584359 0.478995
O O2 0.054997 0.348064 0.665511
O O3 0.180297 0.406815 0.920377
O O4 0.060901 0.605316 0.870710
O O5 0.197633 0.738057 0.076127
O O6 0.055276 0.790193 0.221271
O O7 0.168937 0.897696 0.476819
O O8 0.435137 0.621677 0.609442
O O9 0.828440 0.126942 0.205215
O O10 0.799104 0.181873 0.700914
#
# Coordination Sequence:
#
# PCOD9127441 Si02
#       6
#     4   4   2   2   4   4
#     4  11  24  48  73 110 146 209 250 315 380 472
#     4  12  28  45  77 113 153 200 261 323 381 464
#     4  10  22  46  74 100 156 194 256 298 394 452
#     4  12  26  42  80 102 154 190 262 306 390 444
#     4  11  28  49  78 108 159 200 259 310 396 455
#     4  11  28  48  75 115 151 204 253 327 379 463
#
# _framework density 26.058394
#
# number of rings (size 3 to 8) (size 9 to 14) (size 15 to 20)
#    0.000    0.800    2.000    2.400   14.000    4.000 
#    0.000    0.000    0.000    0.000    0.000    0.000 
#    0.000    0.000    0.000    0.000    0.000    0.000 
#
# Total GULP energy -55953.868813 kJ/mol
# GULP energy per Si atom -5595.386881 kJ/mol
# Density = 2.599908 g / cm^3
# Si number density = 26.058394 Si / 1000 Ang^3
#
#
#
# Elastic Constant Matrix: (Units=GPa)
#
#
# Indices 1 2 3 4 5 6 
#
# 1 180.3336 38.3664 17.7891 0.0000 -15.2603 0.0000
# 2 38.3664 131.1592 18.4083 0.0000 3.1993 0.0000
# 3 17.7891 18.4083 60.1725 0.0000 -17.6590 0.0000
# 4 0.0000 0.0000 0.0000 14.1580 0.0000 6.8215
# 5 -15.2603 3.1993 -17.6590 0.0000 44.0926 0.0000
# 6 0.0000 0.0000 0.0000 6.8215 0.0000 46.6782
#
#
#
# Elastic Compliance Matrix: (Units=1/GPa)
#
#
# Indices 1 2 3 4 5 6 
#
# 1 0.006154 -0.001749 -0.000705 0.000000 0.001975 0.000000
# 2 -0.001749 0.008586 -0.002799 0.000000 -0.002349 0.000000
# 3 -0.000705 -0.002799 0.020025 0.000000 0.007979 0.000000
# 4 0.000000 0.000000 0.000000 0.075982 0.000000 -0.011104
# 5 0.001975 -0.002349 0.007979 0.000000 0.026729 0.000000
# 6 0.000000 0.000000 0.000000 -0.011104 0.000000 0.023046
#
#
# Mechanical properties :
#
#
# Convention : Reuss Voigt Hill
#
# Bulk Modulus (GPa) = 41.22149 57.86589 49.54369
# Shear Modulus (GPa) = 27.91503 40.79253 34.35378
#
# Velocity S-wave (km/s) = 3.27654 3.96084 3.63483
# Velocity P-wave (km/s) = 5.49250 6.57055 6.05556
#
# Compressibility (1/GPa) = 0.02425919
#
# Stress axis : x y z
#
# Youngs Moduli (GPa) = 162.49370 116.46558 49.93701
#
# Poissons Ratio (x) = 0.20375 0.03519
# Poissons Ratio (y) = 0.28427 0.13978
# Poissons Ratio (z) = 0.11450 0.32600
#
# Static dielectric constant tensor:
#      x y z
#    x 2.054580 0.000000 0.129040 
#    y 0.000000 2.084490 0.000000 
#    z 0.129040 0.000000 2.243610 
# 
# From -- ./inp_files/8014.got.cif
#   From: 2010.05.17/outbox.cif.g08.bks.cpg/sg5_5_cif.got.tgz:8014.got - 2010.06.03 18:56:24.
