data_PCOD9127571
_publ_section_title
;
Structure prediction by ZEFSAII (Michael W. Deem and Ramdas Pophale) SiO2 
 PCOD9127571
Probable space group: C 2
;
_chemical_formula_sum "Si O2"
_cell_formula_units_Z 18
_cell_length_a 8.056485
_cell_length_b 20.196496
_cell_length_c 7.934307
_cell_angle_alpha 90.000000
_cell_angle_beta 36.549461
_cell_angle_gamma 90.000000
_cell_volume 768.819572
_symmetry_space_group_name_H-M "C 2"
_symmetry_group_IT_number 5
_symmetry_cell_setting 'monoclinic'
loop_
_space_group_symop_operation_xyz
x,y,z
-x,y,-z
1/2+x,1/2+y,z
1/2-x,1/2+y,-z
loop_
_atom_site_type_symbol
_atom_site_label
_atom_site_fract_x
_atom_site_fract_y
_atom_site_fract_z
Si Si1 0.500000 0.576620 0.000000
Si Si2 0.516660 0.742123 0.780461
Si Si3 0.815154 0.383195 0.314912
Si Si4 0.977704 0.655381 0.771564
Si Si5 0.206670 0.022521 0.484105
O O1 0.233691 0.622447 0.189457
O O2 0.445911 0.538661 0.216636
O O3 0.565546 0.818179 0.690306
O O4 0.781763 0.701977 0.496509
O O5 0.500000 0.746253 0.000000
O O6 0.240092 0.701923 0.947889
O O7 0.500000 0.369236 0.500000
O O8 0.847467 0.451143 0.392189
O O9 0.000000 0.394911 0.000000
O O10 0.123105 0.587534 0.713938
O O11 0.000000 0.009985 0.500000
#
# Coordination Sequence:
#
# PCOD9127571 Si02
#       5
#     2   4   4   4   4
#     4  12  24  44  70 104 134 184 228 288 342 402
#     4  11  19  37  64 100 136 173 232 283 333 409
#     4  10  23  38  64 102 139 180 229 284 341 407
#     4  12  23  39  69 104 134 180 232 284 343 401
#     4  11  26  44  70 107 143 178 232 282 348 414
#
# _framework density 23.412513000000001
#
# number of rings (size 3 to 8) (size 9 to 14) (size 15 to 20)
#    0.000    0.889    3.333    5.333    6.222    0.000 
#    0.000    0.000    0.000    5.333    0.000    0.000 
#    0.000    0.000    0.000    0.000    0.000    0.000 
#
# Total GULP energy -50246.096097 kJ/mol
# GULP energy per Si atom -5582.899566 kJ/mol
# Density = 2.335923 g / cm^3
# Si number density = 23.412513 Si / 1000 Ang^3
#
#
#
# Elastic Constant Matrix: (Units=GPa)
#
#
# Indices 1 2 3 4 5 6 
#
# 1 37.1473 18.7877 23.1422 0.0000 6.9865 0.0000
# 2 18.7877 256.5793 77.8308 0.0000 4.2381 0.0000
# 3 23.1422 77.8308 182.5496 0.0000 -10.5467 0.0000
# 4 0.0000 0.0000 0.0000 99.0657 0.0000 55.3830
# 5 6.9865 4.2381 -10.5467 0.0000 31.1056 0.0000
# 6 0.0000 0.0000 0.0000 55.3830 0.0000 58.3690
#
#
#
# Elastic Compliance Matrix: (Units=1/GPa)
#
#
# Indices 1 2 3 4 5 6 
#
# 1 0.031498 -0.000932 -0.004077 0.000000 -0.008330 0.000000
# 2 -0.000932 0.004555 -0.001884 0.000000 -0.001050 0.000000
# 3 -0.004077 -0.001884 0.007003 0.000000 0.003547 0.000000
# 4 0.000000 0.000000 0.000000 0.021498 0.000000 -0.020398
# 5 -0.008330 -0.001050 0.003547 0.000000 0.035365 0.000000
# 6 0.000000 0.000000 0.000000 -0.020398 0.000000 0.036487
#
#
# Mechanical properties :
#
#
# Convention : Reuss Voigt Hill
#
# Bulk Modulus (GPa) = 34.16609 79.53307 56.84958
# Shear Modulus (GPa) = 31.25996 61.47575 46.36786
#
# Velocity S-wave (km/s) = 3.65798 5.12978 4.45508
# Velocity P-wave (km/s) = 5.69788 8.31446 7.12728
#
# Compressibility (1/GPa) = 0.02926879
#
# Stress axis : x y z
#
# Youngs Moduli (GPa) = 31.74825 219.55624 142.79307
#
# Poissons Ratio (x) = 0.20465 0.58215
# Poissons Ratio (y) = 0.02959 0.26908
# Poissons Ratio (z) = 0.12943 0.41373
#
# Static dielectric constant tensor:
#      x y z
#    x 0.993170 0.000000 0.507170 
#    y 0.000000 1.960480 0.000000 
#    z 0.507170 0.000000 1.620590 
# 
# From -- ./inp_files/16643.got.cif
#   From: 2010.05.17/outbox.cif.g08.bks.cpg/sg5_9_cif.got.tgz:16643.got - 2010.06.03 18:56:24.
