data_PCOD9127372
_publ_section_title
;
Structure prediction by ZEFSAII (Michael W. Deem and Ramdas Pophale) SiO2 
 PCOD9127372
Probable space group: C 2
;
_chemical_formula_sum "Si O2"
_cell_formula_units_Z 20
_cell_length_a 24.568817
_cell_length_b 7.428704
_cell_length_c 7.325420
_cell_angle_alpha 90.000000
_cell_angle_beta 145.880720
_cell_angle_gamma 90.000000
_cell_volume 749.944113
_symmetry_space_group_name_H-M "C 2"
_symmetry_group_IT_number 5
_symmetry_cell_setting 'monoclinic'
loop_
_space_group_symop_operation_xyz
x,y,z
-x,y,-z
1/2+x,1/2+y,z
1/2-x,1/2+y,-z
loop_
_atom_site_type_symbol
_atom_site_label
_atom_site_fract_x
_atom_site_fract_y
_atom_site_fract_z
Si Si1 0.934975 0.329250 0.479425
Si Si2 0.171990 0.241686 0.486094
Si Si3 0.162873 0.944787 0.188529
Si Si4 0.775435 0.876235 0.251823
Si Si5 0.522854 0.232742 0.283721
O O1 0.029988 0.533621 0.386283
O O2 0.000000 0.248834 0.500000
O O3 0.079118 0.256118 0.356165
O O4 0.825509 0.308934 0.100914
O O5 0.240137 0.417906 0.663206
O O6 0.143389 0.141967 0.218097
O O7 0.238487 0.090461 0.765668
O O8 0.197437 0.831078 0.464146
O O9 0.063203 0.847325 0.861885
O O10 0.872165 0.827558 0.410350
O O11 0.500000 0.222393 0.000000
#
# Coordination Sequence:
#
# PCOD9127372 Si02
#       5
#     4   4   4   4   4
#     4  12  25  43  70 104 145 191 231 283 361 421
#     4  10  23  42  71 104 142 178 239 291 345 417
#     4   9  22  45  69 109 132 187 237 295 344 407
#     4   9  22  44  67 106 143 180 229 294 358 409
#     4  10  22  45  74  99 144 185 236 290 347 420
#
# _framework density 26.668652999999999
#
# number of rings (size 3 to 8) (size 9 to 14) (size 15 to 20)
#    1.200    0.800    0.000    2.400    5.600    0.000 
#   10.800    1.000    0.000    0.000    0.000    0.000 
#    0.000    0.000    0.000    0.000    0.000    0.000 
#
# Total GULP energy -55827.778122 kJ/mol
# GULP energy per Si atom -5582.777812 kJ/mol
# Density = 2.660795 g / cm^3
# Si number density = 26.668653 Si / 1000 Ang^3
#
#
#
# Elastic Constant Matrix: (Units=GPa)
#
#
# Indices 1 2 3 4 5 6 
#
# 1 135.1828 19.3085 50.0276 0.0000 31.7928 0.0000
# 2 19.3085 46.2724 10.4378 0.0000 7.2833 0.0000
# 3 50.0276 10.4378 158.5353 0.0000 8.2204 0.0000
# 4 0.0000 0.0000 0.0000 29.0803 0.0000 -9.6520
# 5 31.7928 7.2833 8.2204 0.0000 44.1910 0.0000
# 6 0.0000 0.0000 0.0000 -9.6520 0.0000 26.0462
#
#
#
# Elastic Compliance Matrix: (Units=1/GPa)
#
#
# Indices 1 2 3 4 5 6 
#
# 1 0.010316 -0.002667 -0.002744 0.000000 -0.006472 0.000000
# 2 -0.002667 0.023138 -0.000589 0.000000 -0.001785 0.000000
# 3 -0.002744 -0.000589 0.007174 0.000000 0.000737 0.000000
# 4 0.000000 0.000000 0.000000 0.039210 0.000000 0.014530
# 5 -0.006472 -0.001785 0.000737 0.000000 0.027442 0.000000
# 6 0.000000 0.000000 0.000000 0.014530 0.000000 0.043778
#
#
# Mechanical properties :
#
#
# Convention : Reuss Voigt Hill
#
# Bulk Modulus (GPa) = 34.93152 55.50426 45.21789
# Shear Modulus (GPa) = 28.96847 37.21127 33.08987
#
# Velocity S-wave (km/s) = 3.29939 3.73945 3.52629
# Velocity P-wave (km/s) = 5.25751 6.28509 5.79412
#
# Compressibility (1/GPa) = 0.02862744
#
# Stress axis : x y z
#
# Youngs Moduli (GPa) = 96.93790 43.21910 139.38688
#
# Poissons Ratio (x) = 0.11526 0.38250
# Poissons Ratio (y) = 0.25853 0.08213
# Poissons Ratio (z) = 0.26601 0.02547
#
# Static dielectric constant tensor:
#      x y z
#    x 2.259050 0.000000 -0.028970 
#    y 0.000000 2.082990 0.000000 
#    z -0.028970 0.000000 2.061130 
# 
# From -- ./inp_files/29053.got.cif
#   From: 2010.05.17/outbox.cif.g08.bks.cpg/sg5_15_cif.got.tgz:29053.got - 2010.06.03 18:56:24.
