data_PCOD9127676
_publ_section_title
;
Structure prediction by ZEFSAII (Michael W. Deem and Ramdas Pophale) SiO2 
 PCOD9127676
Probable space group: C 2
;
_chemical_formula_sum "Si O2"
_cell_formula_units_Z 26
_cell_length_a 11.213158
_cell_length_b 9.455265
_cell_length_c 25.623995
_cell_angle_alpha 90.000000
_cell_angle_beta 151.282021
_cell_angle_gamma 90.000000
_cell_volume 1305.391316
_symmetry_space_group_name_H-M "C 2"
_symmetry_group_IT_number 5
_symmetry_cell_setting 'monoclinic'
loop_
_space_group_symop_operation_xyz
x,y,z
-x,y,-z
1/2+x,1/2+y,z
1/2-x,1/2+y,-z
loop_
_atom_site_type_symbol
_atom_site_label
_atom_site_fract_x
_atom_site_fract_y
_atom_site_fract_z
Si Si1 0.886663 0.454750 0.829475
Si Si2 0.718849 0.992437 0.050760
Si Si3 0.725995 0.796826 0.877840
Si Si4 0.035480 0.711824 0.727545
Si Si5 0.820385 0.165647 0.324440
Si Si6 0.771438 0.411452 0.236451
Si Si7 0.000000 0.192212 0.500000
O O1 0.738019 0.331553 0.801475
O O2 0.695684 0.562302 0.730119
O O3 0.030406 0.379161 0.837743
O O4 0.081925 0.527390 0.943509
O O5 0.784050 0.132248 0.109299
O O6 0.500000 0.917199 0.000000
O O7 0.977070 0.918996 0.136007
O O8 0.690652 0.830097 0.803663
O O9 0.000000 0.846070 0.000000
O O10 0.122513 0.569260 0.731679
O O11 0.955833 0.674728 0.756012
O O12 0.768772 0.766095 0.602783
O O13 0.889046 0.319869 0.328536
O O14 0.978616 0.116000 0.435428
#
# Coordination Sequence:
#
# PCOD9127676 Si02
#       7
#     4   4   4   4   4   4   2
#     4  12  22  40  66  93 133 173 209 264 321 387
#     4  11  24  38  59  96 133 167 214 254 307 395
#     4  11  21  38  59  90 128 171 210 244 309 382
#     4  10  23  43  65  94 123 168 217 267 325 379
#     4  10  23  41  65  93 123 167 215 270 323 373
#     4  12  22  41  68  91 134 172 207 266 323 386
#     4   8  22  48  64  92 124 162 230 276 316 384
#
# _framework density 19.917400000000001
#
# number of rings (size 3 to 8) (size 9 to 14) (size 15 to 20)
#    0.923    0.308    4.615    2.769    0.000    1.231 
#    0.000    0.000    0.000    1.846    0.000    0.000 
#    0.000    0.000    0.000    0.000    0.000    0.000 
#
# Total GULP energy -72369.359782 kJ/mol
# GULP energy per Si atom -5566.873829 kJ/mol
# Density = 1.987207 g / cm^3
# Si number density = 19.917400 Si / 1000 Ang^3
#
#
#
# Elastic Constant Matrix: (Units=GPa)
#
#
# Indices 1 2 3 4 5 6 
#
# 1 96.1695 25.3118 16.9514 0.0000 -0.8763 0.0000
# 2 25.3118 75.9929 18.0122 0.0000 -6.4049 0.0000
# 3 16.9514 18.0122 70.9819 0.0000 -16.0419 0.0001
# 4 0.0000 0.0000 0.0000 12.8765 0.0000 -7.2586
# 5 -0.8763 -6.4049 -16.0419 0.0000 35.8548 0.0000
# 6 0.0000 0.0000 0.0001 -7.2586 0.0000 10.5225
#
#
#
# Elastic Compliance Matrix: (Units=1/GPa)
#
#
# Indices 1 2 3 4 5 6 
#
# 1 0.011692 -0.003483 -0.002208 0.000000 -0.001324 0.000000
# 2 -0.003483 0.015072 -0.002674 0.000000 0.001411 0.000000
# 3 -0.002208 -0.002674 0.016881 0.000000 0.007021 0.000000
# 4 0.000000 0.000000 0.000000 0.127075 0.000000 0.087658
# 5 -0.001324 0.001411 0.007021 0.000000 0.031251 0.000000
# 6 0.000000 0.000000 0.000000 0.087658 0.000000 0.155503
#
#
# Mechanical properties :
#
#
# Convention : Reuss Voigt Hill
#
# Bulk Modulus (GPa) = 37.15315 40.41058 38.78186
# Shear Modulus (GPa) = 13.04889 24.04201 18.54545
#
# Velocity S-wave (km/s) = 2.56237 3.47808 3.05473
# Velocity P-wave (km/s) = 5.23912 6.03842 5.65292
#
# Compressibility (1/GPa) = 0.02691562
#
# Stress axis : x y z
#
# Youngs Moduli (GPa) = 85.52829 66.34867 59.23956
#
# Poissons Ratio (x) = 0.23107 0.13078
# Poissons Ratio (y) = 0.29787 0.15841
# Poissons Ratio (z) = 0.18882 0.17742
#
# Static dielectric constant tensor:
#      x y z
#    x 1.744040 0.000000 -0.013430 
#    y 0.000000 1.729470 0.000000 
#    z -0.013430 0.000000 1.710180 
# 
# From -- ./inp_files/70370.got.cif
#   From: 2010.05.17/outbox.cif.g08.bks.cpg/sg5_36_cif.got.tgz:70370.got - 2010.06.03 18:56:24.
