data_PCOD9127132
_publ_section_title
;
Structure prediction by ZEFSAII (Michael W. Deem and Ramdas Pophale) SiO2 
 PCOD9127132
Probable space group: C 2
;
_chemical_formula_sum "Si O2"
_cell_formula_units_Z 22
_cell_length_a 21.029993
_cell_length_b 9.475918
_cell_length_c 13.028124
_cell_angle_alpha 90.000000
_cell_angle_beta 24.074972
_cell_angle_gamma 90.000000
_cell_volume 1059.082362
_symmetry_space_group_name_H-M "C 2"
_symmetry_group_IT_number 5
_symmetry_cell_setting 'monoclinic'
loop_
_space_group_symop_operation_xyz
x,y,z
-x,y,-z
1/2+x,1/2+y,z
1/2-x,1/2+y,-z
loop_
_atom_site_type_symbol
_atom_site_label
_atom_site_fract_x
_atom_site_fract_y
_atom_site_fract_z
Si Si1 0.169017 0.121740 0.200856
Si Si2 0.906235 0.869237 0.830434
Si Si3 0.500000 0.737531 0.000000
Si Si4 0.239151 0.938696 0.290494
Si Si5 0.726637 0.550260 0.530278
Si Si6 0.437021 0.282634 0.204515
O O1 0.250840 0.028642 0.170059
O O2 0.000000 0.160828 0.500000
O O3 0.144333 0.017945 0.141274
O O4 0.274627 0.251925 0.010414
O O5 0.944952 0.861386 0.894262
O O6 0.077663 0.848452 0.526096
O O7 0.592323 0.635887 0.786012
O O8 0.618902 0.837802 0.887431
O O9 0.217378 0.044608 0.420039
O O10 0.711476 0.387149 0.582998
O O11 0.883169 0.633012 0.327602
O O12 0.500000 0.262212 0.000000
#
# Coordination Sequence:
#
# PCOD9127132 Si02
#       6
#     4   4   2   4   4   4
#     4  10  23  44  65  91 127 175 221 269 313 384
#     4  10  22  44  65  92 128 170 222 263 318 382
#     4  12  22  38  64 100 136 170 206 276 332 386
#     4  10  24  40  65  95 135 169 213 267 328 390
#     4  11  22  38  59  96 130 165 210 256 325 389
#     4  11  23  39  63  94 132 164 209 269 320 387
#
# _framework density 20.772698999999999
#
# number of rings (size 3 to 8) (size 9 to 14) (size 15 to 20)
#    0.000    1.455    4.545    1.091    3.818    4.364 
#    0.000    8.182    0.000    0.000    0.000    0.000 
#    0.000    0.000    0.000    0.000    0.000    0.000 
#
# Total GULP energy -61376.171970 kJ/mol
# GULP energy per Si atom -5579.651997 kJ/mol
# Density = 2.072542 g / cm^3
# Si number density = 20.772699 Si / 1000 Ang^3
#
#
#
# Elastic Constant Matrix: (Units=GPa)
#
#
# Indices 1 2 3 4 5 6 
#
# 1 36.3975 11.1116 32.7475 0.0000 -1.2663 0.0000
# 2 11.1116 77.7409 47.1710 0.0000 -10.2920 0.0000
# 3 32.7475 47.1710 76.5096 0.0000 -5.9988 0.0000
# 4 0.0000 0.0000 0.0000 35.0409 0.0000 -3.7137
# 5 -1.2663 -10.2920 -5.9988 0.0000 28.4104 0.0000
# 6 0.0000 0.0000 0.0000 -3.7137 0.0000 25.5990
#
#
#
# Elastic Compliance Matrix: (Units=1/GPa)
#
#
# Indices 1 2 3 4 5 6 
#
# 1 0.048340 0.009002 -0.026250 0.000000 -0.000127 0.000000
# 2 0.009002 0.022907 -0.017585 0.000000 0.004986 0.000000
# 3 -0.026250 -0.017585 0.035138 0.000000 -0.000121 0.000000
# 4 0.000000 0.000000 0.000000 0.028984 0.000000 0.004205
# 5 -0.000127 0.004986 -0.000121 0.000000 0.036974 0.000000
# 6 0.000000 0.000000 0.000000 0.004205 0.000000 0.039674
#
#
# Mechanical properties :
#
#
# Convention : Reuss Voigt Hill
#
# Bulk Modulus (GPa) = 27.23460 41.41203 34.32332
# Shear Modulus (GPa) = 17.01137 24.45126 20.73131
#
# Velocity S-wave (km/s) = 2.86480 3.43459 3.16255
# Velocity P-wave (km/s) = 4.90734 5.97559 5.46761
#
# Compressibility (1/GPa) = 0.03671799
#
# Stress axis : x y z
#
# Youngs Moduli (GPa) = 20.68698 43.65529 28.45922
#
# Poissons Ratio (x) = -0.39297 0.74706
# Poissons Ratio (y) = -0.18622 0.50045
# Poissons Ratio (z) = 0.54304 0.76767
#
# Static dielectric constant tensor:
#      x y z
#    x 1.752050 0.000000 -0.028800 
#    y 0.000000 1.738900 0.000000 
#    z -0.028800 0.000000 1.808420 
# 
# From -- ./inp_files/38070.got.cif
#   From: 2010.05.17/outbox.cif.g08.bks.cpg/sg5_20_cif.got.tgz:38070.got - 2010.06.03 18:56:24.
