data_PCOD9127497
_publ_section_title
;
Structure prediction by ZEFSAII (Michael W. Deem and Ramdas Pophale) SiO2 
 PCOD9127497
Probable space group: C 2
;
_chemical_formula_sum "Si O2"
_cell_formula_units_Z 26
_cell_length_a 11.671570
_cell_length_b 8.869305
_cell_length_c 22.942382
_cell_angle_alpha 90.000000
_cell_angle_beta 30.700651
_cell_angle_gamma 90.000000
_cell_volume 1212.545215
_symmetry_space_group_name_H-M "C 2"
_symmetry_group_IT_number 5
_symmetry_cell_setting 'monoclinic'
loop_
_space_group_symop_operation_xyz
x,y,z
-x,y,-z
1/2+x,1/2+y,z
1/2-x,1/2+y,-z
loop_
_atom_site_type_symbol
_atom_site_label
_atom_site_fract_x
_atom_site_fract_y
_atom_site_fract_z
Si Si1 0.500000 0.005131 0.500000
Si Si2 0.421865 0.196070 0.830263
Si Si3 0.187688 0.752371 0.594818
Si Si4 0.000000 0.412184 0.000000
Si Si5 0.334790 0.843403 0.872279
Si Si6 0.309120 0.256156 0.663105
Si Si7 0.593567 0.194223 0.880087
Si Si8 0.000000 0.006110 0.500000
O O1 0.344181 0.109605 0.608217
O O2 0.342374 0.899490 0.529995
O O3 0.557165 0.235239 0.712999
O O4 0.210218 0.308783 0.925928
O O5 0.584918 0.205570 0.814878
O O6 0.338116 0.023086 0.866892
O O7 0.356451 0.611106 0.520001
O O8 0.007001 0.756667 0.623202
O O9 0.068225 0.525556 0.917305
O O10 0.563785 0.774513 0.797264
O O11 0.299487 0.772747 0.823168
O O12 0.126388 0.783619 0.000789
O O13 0.339480 0.399286 0.607497
#
# Coordination Sequence:
#
# PCOD9127497 Si02
#       8
#     2   4   4   2   4   4   4   2
#     4  10  26  44  64  96 128 170 214 266 324 374
#     4  12  24  40  68  96 128 171 209 268 319 378
#     4  11  25  41  67 100 126 165 216 267 320 381
#     4  10  24  40  64  94 128 174 214 258 318 374
#     4  10  23  45  65  96 128 174 214 255 326 375
#     4  11  23  44  70  91 129 170 212 266 320 385
#     4  10  25  45  62  94 139 166 213 264 309 393
#     4  10  22  48  60  96 128 166 212 266 330 370
#
# _framework density 21.442499999999999
#
# number of rings (size 3 to 8) (size 9 to 14) (size 15 to 20)
#    0.000    1.538    1.538    2.769    8.615    1.231 
#   11.077    0.000    0.000    0.000    0.000    0.000 
#    0.000    0.000    0.000    0.000    0.000    0.000 
#
# Total GULP energy -72727.074117 kJ/mol
# GULP energy per Si atom -5594.390317 kJ/mol
# Density = 2.139370 g / cm^3
# Si number density = 21.442500 Si / 1000 Ang^3
#
#
#
# Elastic Constant Matrix: (Units=GPa)
#
#
# Indices 1 2 3 4 5 6 
#
# 1 42.1813 16.4892 -15.1633 -0.0002 -13.4660 0.0001
# 2 16.4892 119.9693 11.1924 0.0000 -10.9447 0.0000
# 3 -15.1633 11.1924 31.8516 -0.0003 -17.3617 0.0000
# 4 -0.0002 0.0000 -0.0003 10.0537 0.0000 -4.8321
# 5 -13.4660 -10.9447 -17.3617 0.0000 38.0735 0.0000
# 6 0.0001 0.0000 0.0000 -4.8321 0.0000 17.0974
#
#
#
# Elastic Compliance Matrix: (Units=1/GPa)
#
#
# Indices 1 2 3 4 5 6 
#
# 1 0.064099 -0.010091 0.059668 0.000003 0.046979 0.000001
# 2 -0.010091 0.010268 -0.011642 -0.000001 -0.005926 0.000000
# 3 0.059668 -0.011642 0.097907 0.000004 0.062403 0.000001
# 4 0.000003 -0.000001 0.000004 0.115101 0.000003 0.032530
# 5 0.046979 -0.005926 0.062403 0.000003 0.069634 0.000001
# 6 0.000001 0.000000 0.000001 0.032530 0.000001 0.067682
#
#
# Mechanical properties :
#
#
# Convention : Reuss Voigt Hill
#
# Bulk Modulus (GPa) = 4.02991 24.33764 14.18377
# Shear Modulus (GPa) = 11.58655 25.14385 18.36520
#
# Velocity S-wave (km/s) = 2.32707 3.42807 2.92975
# Velocity P-wave (km/s) = 3.01726 5.20035 4.25132
#
# Compressibility (1/GPa) = 0.24814478
#
# Stress axis : x y z
#
# Youngs Moduli (GPa) = 15.60086 97.39084 10.21374
#
# Poissons Ratio (x) = 0.98276 -0.60944
# Poissons Ratio (y) = 0.15743 0.11891
# Poissons Ratio (z) = -0.93088 1.13385
#
# Static dielectric constant tensor:
#      x y z
#    x 1.773250 0.000000 -0.001640 
#    y 0.000000 1.759270 0.000000 
#    z -0.001640 0.000000 1.771320 
# 
# From -- ./inp_files/64318.got.cif
#   From: 2010.05.17/outbox.cif.g08.bks.cpg/sg5_33_cif.got.tgz:64318.got - 2010.06.03 18:56:24.
