data_PCOD9127383
_publ_section_title
;
Structure prediction by ZEFSAII (Michael W. Deem and Ramdas Pophale) SiO2 
 PCOD9127383
Probable space group: C 2
;
_chemical_formula_sum "Si O2"
_cell_formula_units_Z 28
_cell_length_a 17.945723
_cell_length_b 8.500036
_cell_length_c 10.774704
_cell_angle_alpha 90.000000
_cell_angle_beta 139.072374
_cell_angle_gamma 90.000000
_cell_volume 1076.708419
_symmetry_space_group_name_H-M "C 2"
_symmetry_group_IT_number 5
_symmetry_cell_setting 'monoclinic'
loop_
_space_group_symop_operation_xyz
x,y,z
-x,y,-z
1/2+x,1/2+y,z
1/2-x,1/2+y,-z
loop_
_atom_site_type_symbol
_atom_site_label
_atom_site_fract_x
_atom_site_fract_y
_atom_site_fract_z
Si Si1 0.181227 0.181650 0.531572
Si Si2 0.869429 0.384962 0.311597
Si Si3 0.177461 0.837786 0.904504
Si Si4 0.147035 0.411575 0.284647
Si Si5 0.507037 0.151747 0.215934
Si Si6 0.694536 0.207207 0.667106
Si Si7 0.998941 0.990545 0.140868
O O1 0.144594 0.232211 0.620853
O O2 0.197929 0.342649 0.476838
O O3 0.088136 0.089867 0.333214
O O4 0.288261 0.069606 0.671359
O O5 0.796514 0.531560 0.270570
O O6 0.000000 0.432170 0.500000
O O7 0.810003 0.345125 0.106821
O O8 0.118305 0.678909 0.886142
O O9 0.158308 0.821896 0.733993
O O10 0.105855 0.968271 0.891851
O O11 0.190128 0.281093 0.242753
O O12 0.025773 0.484241 0.173069
O O13 0.598066 0.185084 0.440792
O O14 0.529309 0.306289 0.162793
O O15 0.000000 0.051571 0.000000
#
# Coordination Sequence:
#
# PCOD9127383 Si02
#       7
#     4   4   4   4   4   4   4
#     4  12  24  45  73 113 151 204 259 324 395 470
#     4  12  29  50  79 111 157 207 273 330 403 480
#     4  10  27  48  80 105 162 212 259 332 405 465
#     4  12  23  40  80 112 153 202 261 313 398 471
#     4  10  22  45  78 113 149 214 258 316 404 468
#     4  12  24  49  81 115 164 204 265 327 402 477
#     4  10  25  46  78 110 159 205 265 323 402 475
#
# _framework density 26.005181
#
# number of rings (size 3 to 8) (size 9 to 14) (size 15 to 20)
#    0.857    0.000    4.286    1.286    6.000    3.429 
#    0.000    2.143    0.000    0.000    0.000    0.000 
#    0.000    0.000    0.000    0.000    0.000    0.000 
#
# Total GULP energy -78125.698511 kJ/mol
# GULP energy per Si atom -5580.407037 kJ/mol
# Density = 2.594599 g / cm^3
# Si number density = 26.005181 Si / 1000 Ang^3
#
#
#
# Elastic Constant Matrix: (Units=GPa)
#
#
# Indices 1 2 3 4 5 6 
#
# 1 102.0487 33.4405 39.5347 0.0000 -0.6990 0.0000
# 2 33.4405 88.7439 14.4944 0.0000 11.2365 0.0000
# 3 39.5347 14.4944 95.6390 0.0000 -12.4046 0.0000
# 4 0.0000 0.0000 0.0000 24.0137 0.0000 7.4109
# 5 -0.6990 11.2365 -12.4046 0.0000 36.9414 0.0000
# 6 0.0000 0.0000 0.0000 7.4109 0.0000 48.1642
#
#
#
# Elastic Compliance Matrix: (Units=1/GPa)
#
#
# Indices 1 2 3 4 5 6 
#
# 1 0.012987 -0.004103 -0.004760 0.000000 -0.000105 0.000000
# 2 -0.004103 0.013540 -0.000941 0.000000 -0.004512 0.000000
# 3 -0.004760 -0.000941 0.013165 0.000000 0.004617 0.000000
# 4 0.000000 0.000000 0.000000 0.043719 0.000000 -0.006727
# 5 -0.000105 -0.004512 0.004617 0.000000 0.029991 0.000000
# 6 0.000000 0.000000 0.000000 -0.006727 0.000000 0.021797
#
#
# Mechanical properties :
#
#
# Convention : Reuss Voigt Hill
#
# Bulk Modulus (GPa) = 49.79332 51.26341 50.52836
# Shear Modulus (GPa) = 30.95932 35.08799 33.02366
#
# Velocity S-wave (km/s) = 3.45411 3.67723 3.56741
# Velocity P-wave (km/s) = 5.92426 6.14694 6.03663
#
# Compressibility (1/GPa) = 0.02008302
#
# Stress axis : x y z
#
# Youngs Moduli (GPa) = 76.99843 73.85789 75.95767
#
# Poissons Ratio (x) = 0.30305 0.36158
# Poissons Ratio (y) = 0.31593 0.07148
# Poissons Ratio (z) = 0.36654 0.06950
#
# Static dielectric constant tensor:
#      x y z
#    x 2.140690 0.000000 0.080440 
#    y 0.000000 2.034500 0.000000 
#    z 0.080440 0.000000 2.099530 
# 
# From -- ./inp_files/46171.got.cif
#   From: 2010.05.17/outbox.cif.g08.bks.cpg/sg5_24_cif.got.tgz:46171.got - 2010.06.03 18:56:24.
