data_PCOD9127713
_publ_section_title
;
Structure prediction by ZEFSAII (Michael W. Deem and Ramdas Pophale) SiO2 
 PCOD9127713
Probable space group: C 2
;
_chemical_formula_sum "Si O2"
_cell_formula_units_Z 22
_cell_length_a 10.175087
_cell_length_b 10.991127
_cell_length_c 14.205978
_cell_angle_alpha 90.000000
_cell_angle_beta 32.835955
_cell_angle_gamma 90.000000
_cell_volume 861.468719
_symmetry_space_group_name_H-M "C 2"
_symmetry_group_IT_number 5
_symmetry_cell_setting 'monoclinic'
loop_
_space_group_symop_operation_xyz
x,y,z
-x,y,-z
1/2+x,1/2+y,z
1/2-x,1/2+y,-z
loop_
_atom_site_type_symbol
_atom_site_label
_atom_site_fract_x
_atom_site_fract_y
_atom_site_fract_z
Si Si1 0.000000 0.783650 0.500000
Si Si2 0.022004 0.905396 0.846098
Si Si3 0.297985 0.574436 0.411183
Si Si4 0.575270 0.035977 0.215706
Si Si5 0.231902 0.798098 0.181070
Si Si6 0.306028 0.149085 0.197933
O O1 0.170793 0.702020 0.463487
O O2 0.163228 0.846664 0.324877
O O3 0.929049 0.852044 0.803519
O O4 0.177881 0.795893 0.796037
O O5 0.165100 0.018637 0.715419
O O6 0.788663 0.948338 0.047921
O O7 0.117651 0.497825 0.587456
O O8 0.545914 0.605187 0.317037
O O9 0.712215 0.153099 0.177723
O O10 0.411597 0.087173 0.228504
O O11 0.500000 0.837296 0.000000
O O12 0.500000 0.122785 0.000000
#
# Coordination Sequence:
#
# PCOD9127713 Si02
#       6
#     2   4   4   4   4   4
#     4  10  24  46  70  98 142 192 234 308 368 428
#     4  11  25  44  71 109 141 194 245 292 375 445
#     4  11  24  48  72 102 151 192 243 313 365 441
#     4  10  23  47  69 103 147 192 241 306 365 436
#     4  10  23  41  69  96 139 186 235 298 357 431
#     4  11  24  46  74 107 153 197 240 312 372 439
#
# _framework density 25.537782
#
# number of rings (size 3 to 8) (size 9 to 14) (size 15 to 20)
#    0.000    1.455    1.818    1.636    5.091    5.091 
#   19.636    0.000    0.000    0.000    0.000    0.000 
#    0.000    0.000    0.000    0.000    0.000    0.000 
#
# Total GULP energy -61576.638251 kJ/mol
# GULP energy per Si atom -5597.876205 kJ/mol
# Density = 2.547966 g / cm^3
# Si number density = 25.537782 Si / 1000 Ang^3
#
#
#
# Elastic Constant Matrix: (Units=GPa)
#
#
# Indices 1 2 3 4 5 6 
#
# 1 128.3938 36.0436 55.1150 -0.0021 18.5446 -0.0005
# 2 36.0436 91.4856 45.6838 -0.0028 8.6683 0.0007
# 3 55.1150 45.6838 202.4288 -0.0111 21.9168 0.0035
# 4 -0.0021 -0.0028 -0.0111 136.0064 0.0049 -8.8626
# 5 18.5446 8.6683 21.9168 0.0049 32.1861 -0.0003
# 6 -0.0005 0.0007 0.0035 -8.8626 -0.0003 43.7185
#
#
#
# Elastic Compliance Matrix: (Units=1/GPa)
#
#
# Indices 1 2 3 4 5 6 
#
# 1 0.009798 -0.002675 -0.001653 0.000000 -0.003799 0.000000
# 2 -0.002675 0.013120 -0.002177 0.000000 -0.000510 0.000000
# 3 -0.001653 -0.002177 0.006170 0.000001 -0.002663 0.000000
# 4 0.000000 0.000000 0.000001 0.007451 -0.000002 0.001510
# 5 -0.003799 -0.000510 -0.002663 -0.000002 0.035209 0.000000
# 6 0.000000 0.000000 0.000000 0.001510 0.000000 0.023180
#
#
# Mechanical properties :
#
#
# Convention : Reuss Voigt Hill
#
# Bulk Modulus (GPa) = 62.19845 77.33254 69.76549
# Shear Modulus (GPa) = 44.13223 61.41325 52.77274
#
# Velocity S-wave (km/s) = 4.16157 4.90920 4.55076
# Velocity P-wave (km/s) = 6.89202 7.90449 7.41555
#
# Compressibility (1/GPa) = 0.01607757
#
# Stress axis : x y z
#
# Youngs Moduli (GPa) = 102.06584 76.21865 162.08412
#
# Poissons Ratio (x) = 0.20387 0.26785
# Poissons Ratio (y) = 0.27301 0.35294
# Poissons Ratio (z) = 0.16867 0.16597
#
# Static dielectric constant tensor:
#      x y z
#    x 1.935010 0.000000 -0.002810 
#    y 0.000000 2.150260 0.000000 
#    z -0.002810 0.000000 1.913590 
# 
# From -- ./inp_files/52860.got.cif
#   From: 2010.05.17/outbox.cif.g08.bks.cpg/sg5_27_cif.got.tgz:52860.got - 2010.06.03 18:56:24.
