data_PCOD9127959
_publ_section_title
;
Structure prediction by ZEFSAII (Michael W. Deem and Ramdas Pophale) SiO2 
 PCOD9127959
Probable space group: C 2
;
_chemical_formula_sum "Si O2"
_cell_formula_units_Z 20
_cell_length_a 22.329787
_cell_length_b 5.028545
_cell_length_c 9.360822
_cell_angle_alpha 90.000000
_cell_angle_beta 126.685560
_cell_angle_gamma 90.000000
_cell_volume 842.898596
_symmetry_space_group_name_H-M "C 2"
_symmetry_group_IT_number 5
_symmetry_cell_setting 'monoclinic'
loop_
_space_group_symop_operation_xyz
x,y,z
-x,y,-z
1/2+x,1/2+y,z
1/2-x,1/2+y,-z
loop_
_atom_site_type_symbol
_atom_site_label
_atom_site_fract_x
_atom_site_fract_y
_atom_site_fract_z
Si Si1 0.175224 0.417790 0.783114
Si Si2 0.424141 0.431315 0.810076
Si Si3 0.842676 0.775681 0.967978
Si Si4 0.926262 0.432125 0.618078
Si Si5 0.053438 0.057246 0.683309
O O1 0.163170 0.528855 0.927328
O O2 0.131569 0.536627 0.585046
O O3 0.131024 0.138206 0.718934
O O4 0.262299 0.410210 0.876391
O O5 0.397906 0.686830 0.679081
O O6 0.444755 0.184717 0.739035
O O7 0.500000 0.518400 0.000000
O O8 0.362775 0.298978 0.829690
O O9 0.914230 0.922232 0.133624
O O10 0.000368 0.302809 0.652376
O O11 0.000000 0.898371 0.500000
#
# Coordination Sequence:
#
# PCOD9127959 Si02
#       5
#     4   4   4   4   4
#     4  11  26  44  72 105 145 192 245 303 365 435
#     4  12  26  45  74 105 145 190 246 299 369 437
#     4  12  25  43  75 104 147 190 247 304 363 436
#     4  11  27  47  72 106 146 192 241 303 368 440
#     4  10  23  44  70 103 136 184 242 297 358 425
#
# _framework density 23.727647000000001
#
# number of rings (size 3 to 8) (size 9 to 14) (size 15 to 20)
#    0.000    0.800    4.000    1.800    8.400    2.400 
#    0.000    0.000    0.000    0.000    0.000    0.000 
#    0.000    0.000    0.000    0.000    0.000    0.000 
#
# Total GULP energy -55733.330739 kJ/mol
# GULP energy per Si atom -5573.333074 kJ/mol
# Density = 2.367364 g / cm^3
# Si number density = 23.727647 Si / 1000 Ang^3
#
#
#
# Elastic Constant Matrix: (Units=GPa)
#
#
# Indices 1 2 3 4 5 6 
#
# 1 166.4064 29.1870 62.7867 0.0000 4.7859 0.0000
# 2 29.1870 87.9270 39.2205 0.0000 5.9889 0.0000
# 3 62.7867 39.2205 95.1177 0.0000 10.0676 0.0000
# 4 0.0000 0.0000 0.0000 37.0143 0.0000 -12.4423
# 5 4.7859 5.9889 10.0676 0.0000 41.2559 0.0000
# 6 0.0000 0.0000 0.0000 -12.4423 0.0000 30.3983
#
#
#
# Elastic Compliance Matrix: (Units=1/GPa)
#
#
# Indices 1 2 3 4 5 6 
#
# 1 0.008018 -0.000378 -0.005178 0.000000 0.000388 0.000000
# 2 -0.000378 0.013971 -0.005441 0.000000 -0.000656 0.000000
# 3 -0.005178 -0.005441 0.016453 0.000000 -0.002624 0.000000
# 4 0.000000 0.000000 0.000000 0.031327 0.000000 0.012822
# 5 0.000388 -0.000656 -0.002624 0.000000 0.024930 0.000000
# 6 0.000000 0.000000 0.000000 0.012822 0.000000 0.038145
#
#
# Mechanical properties :
#
#
# Convention : Reuss Voigt Hill
#
# Bulk Modulus (GPa) = 60.80440 67.98216 64.39328
# Shear Modulus (GPa) = 31.18768 36.28417 33.73592
#
# Velocity S-wave (km/s) = 3.62940 3.91473 3.77476
# Velocity P-wave (km/s) = 6.57609 7.01047 6.79676
#
# Compressibility (1/GPa) = 0.01644618
#
# Stress axis : x y z
#
# Youngs Moduli (GPa) = 124.71557 71.57934 60.78083
#
# Poissons Ratio (x) = 0.02709 0.31471
# Poissons Ratio (y) = 0.04720 0.33072
# Poissons Ratio (z) = 0.64576 0.38948
#
# Static dielectric constant tensor:
#      x y z
#    x 1.928600 0.000000 -0.161590 
#    y 0.000000 2.028620 0.000000 
#    z -0.161590 0.000000 2.118020 
# 
# From -- ./inp_files/28375.got.cif
#   From: 2010.05.17/outbox.cif.g08.bks.cpg/sg5_15_cif.got.tgz:28375.got - 2010.06.03 18:56:24.
