data_PCOD9127634
_publ_section_title
;
Structure prediction by ZEFSAII (Michael W. Deem and Ramdas Pophale) SiO2 
 PCOD9127634
Probable space group: C 2
;
_chemical_formula_sum "Si O2"
_cell_formula_units_Z 20
_cell_length_a 19.145928
_cell_length_b 7.468809
_cell_length_c 17.363506
_cell_angle_alpha 90.000000
_cell_angle_beta 160.929366
_cell_angle_gamma 90.000000
_cell_volume 811.257849
_symmetry_space_group_name_H-M "C 2"
_symmetry_group_IT_number 5
_symmetry_cell_setting 'monoclinic'
loop_
_space_group_symop_operation_xyz
x,y,z
-x,y,-z
1/2+x,1/2+y,z
1/2-x,1/2+y,-z
loop_
_atom_site_type_symbol
_atom_site_label
_atom_site_fract_x
_atom_site_fract_y
_atom_site_fract_z
Si Si1 0.821869 0.267150 0.251177
Si Si2 0.508895 0.549237 0.883961
Si Si3 0.839586 0.858765 0.264592
Si Si4 0.071545 0.444158 0.374769
Si Si5 0.546876 0.325039 0.317907
O O1 0.931468 0.320381 0.283458
O O2 0.000000 0.308333 0.500000
O O3 0.617871 0.392470 0.046452
O O4 0.763060 0.060276 0.199161
O O5 0.857896 0.224948 0.956080
O O6 0.547297 0.474669 0.837016
O O7 0.252740 0.536657 0.619449
O O8 0.000000 0.801252 0.500000
O O9 0.982406 0.869357 0.336561
O O10 0.204619 0.333843 0.449792
O O11 0.975076 0.618681 0.232182
#
# Coordination Sequence:
#
# PCOD9127634 Si02
#       5
#     4   4   4   4   4
#     4  11  24  45  71 103 147 182 236 294 356 420
#     4  10  25  42  72  97 139 191 231 281 356 418
#     4  11  24  46  72 104 142 188 231 292 356 419
#     4  10  23  43  67 104 143 181 240 294 346 419
#     4  10  23  40  68 100 138 184 237 286 343 421
#
# _framework density 24.653075000000001
#
# number of rings (size 3 to 8) (size 9 to 14) (size 15 to 20)
#    1.200    0.400    2.000    1.800    2.800    2.400 
#    0.000    0.000    0.000    0.000    0.000    0.000 
#    0.000    0.000    0.000    0.000    0.000    0.000 
#
# Total GULP energy -55846.168495 kJ/mol
# GULP energy per Si atom -5584.616849 kJ/mol
# Density = 2.459696 g / cm^3
# Si number density = 24.653075 Si / 1000 Ang^3
#
#
#
# Elastic Constant Matrix: (Units=GPa)
#
#
# Indices 1 2 3 4 5 6 
#
# 1 66.6709 4.9936 3.7684 0.0015 -3.2155 0.0011
# 2 4.9936 135.3246 52.3213 0.0019 5.2114 0.0018
# 3 3.7684 52.3213 123.2557 0.0014 -1.9507 0.0015
# 4 0.0015 0.0019 0.0014 14.9256 0.0010 -46.6182
# 5 -3.2155 5.2114 -1.9507 0.0010 28.5275 0.0009
# 6 0.0011 0.0018 0.0015 -46.6182 0.0009 -33.0442
#
#
#
# Elastic Compliance Matrix: (Units=1/GPa)
#
#
# Indices 1 2 3 4 5 6 
#
# 1 0.015138 -0.000550 -0.000201 0.000000 0.001793 0.000000
# 2 -0.000550 0.008962 -0.003818 0.000000 -0.001960 0.000000
# 3 -0.000201 -0.003818 0.009762 0.000000 0.001342 0.000000
# 4 0.000000 0.000000 0.000000 0.012393 0.000000 -0.017483
# 5 0.001793 -0.001960 0.001342 0.000000 0.035706 0.000001
# 6 0.000000 0.000000 0.000000 -0.017483 0.000001 -0.005598
#
#
# Mechanical properties :
#
#
# Convention : Reuss Voigt Hill
#
# Bulk Modulus (GPa) = 40.44884 49.71310 45.08097
# Shear Modulus (GPa) = 53.33796 19.69296 36.51546
#
# Velocity S-wave (km/s) = 4.65644 2.82938 3.85278
# Velocity P-wave (km/s) = 6.73444 5.55722 6.17395
#
# Compressibility (1/GPa) = 0.02472259
#
# Stress axis : x y z
#
# Youngs Moduli (GPa) = 66.05862 111.58522 102.44320
#
# Poissons Ratio (x) = 0.06137 0.02059
# Poissons Ratio (y) = 0.03633 0.39117
# Poissons Ratio (z) = 0.01328 0.42608
#
# Static dielectric constant tensor:
#      x y z
#    x 1.993140 0.000000 -0.032700 
#    y 0.000000 1.962220 0.000000 
#    z -0.032700 0.000000 2.080520 
# 
# From -- ./inp_files/28837.got.cif
#   From: 2010.05.17/outbox.cif.g08.bks.cpg/sg5_15_cif.got.tgz:28837.got - 2010.06.03 18:56:24.
