data_PCOD9127603
_publ_section_title
;
Structure prediction by ZEFSAII (Michael W. Deem and Ramdas Pophale) SiO2 
 PCOD9127603
Probable space group: C 2
;
_chemical_formula_sum "Si O2"
_cell_formula_units_Z 20
_cell_length_a 12.433228
_cell_length_b 5.152106
_cell_length_c 13.633404
_cell_angle_alpha 90.000000
_cell_angle_beta 69.384473
_cell_angle_gamma 90.000000
_cell_volume 817.395435
_symmetry_space_group_name_H-M "C 2"
_symmetry_group_IT_number 5
_symmetry_cell_setting 'monoclinic'
loop_
_space_group_symop_operation_xyz
x,y,z
-x,y,-z
1/2+x,1/2+y,z
1/2-x,1/2+y,-z
loop_
_atom_site_type_symbol
_atom_site_label
_atom_site_fract_x
_atom_site_fract_y
_atom_site_fract_z
Si Si1 0.904544 0.129440 0.733503
Si Si2 0.152297 0.487332 0.758513
Si Si3 0.870479 0.817493 0.409697
Si Si4 0.620579 0.004826 0.418305
Si Si5 0.475243 0.496494 0.122261
O O1 0.786778 0.004302 0.735263
O O2 0.889555 0.418944 0.691858
O O3 0.915321 0.079161 0.846229
O O4 0.020529 0.987720 0.657977
O O5 0.125395 0.546005 0.652913
O O6 0.113232 0.213928 0.812269
O O7 0.079971 0.717097 0.834662
O O8 0.745400 0.911668 0.415763
O O9 0.878206 0.777201 0.523348
O O10 0.500000 0.890882 0.500000
O O11 0.500000 0.513288 0.000000
#
# Coordination Sequence:
#
# PCOD9127603 Si02
#       5
#     4   4   4   4   4
#     4  10  24  43  64  95 136 179 224 276 333 395
#     4  10  24  44  68  98 134 174 221 277 336 397
#     4  10  23  40  61  94 133 177 229 276 325 393
#     4  11  22  38  62  89 127 175 221 269 325 387
#     4  11  24  45  72 102 134 171 222 280 336 400
#
# _framework density 24.467962
#
# number of rings (size 3 to 8) (size 9 to 14) (size 15 to 20)
#    0.000    1.600    0.000    3.000    0.000   16.800 
#    0.000    2.000    0.000    0.000    0.000    0.000 
#    0.000    0.000    0.000    0.000    0.000    0.000 
#
# Total GULP energy -55802.406804 kJ/mol
# GULP energy per Si atom -5580.240680 kJ/mol
# Density = 2.441227 g / cm^3
# Si number density = 24.467962 Si / 1000 Ang^3
#
#
#
# Elastic Constant Matrix: (Units=GPa)
#
#
# Indices 1 2 3 4 5 6 
#
# 1 210.6054 23.7352 25.7151 0.0002 25.1079 0.0004
# 2 23.7352 54.6884 20.8217 0.0009 9.5757 0.0019
# 3 25.7151 20.8217 133.0448 0.0000 40.7914 0.0007
# 4 0.0002 0.0009 0.0000 36.1412 0.0000 -6.6395
# 5 25.1079 9.5757 40.7914 0.0000 37.1783 0.0003
# 6 0.0004 0.0019 0.0007 -6.6395 0.0003 39.0840
#
#
#
# Elastic Compliance Matrix: (Units=1/GPa)
#
#
# Indices 1 2 3 4 5 6 
#
# 1 0.005330 -0.001826 0.000324 0.000000 -0.003485 0.000000
# 2 -0.001826 0.020227 -0.002401 -0.000001 -0.001342 -0.000001
# 3 0.000324 -0.002401 0.011614 0.000000 -0.012343 0.000000
# 4 0.000000 -0.000001 0.000000 0.028561 0.000000 0.004852
# 5 -0.003485 -0.001342 -0.012343 0.000000 0.043139 0.000000
# 6 0.000000 -0.000001 0.000000 0.004852 0.000000 0.026410
#
#
# Mechanical properties :
#
#
# Convention : Reuss Voigt Hill
#
# Bulk Modulus (GPa) = 34.05574 59.87583 46.96578
# Shear Modulus (GPa) = 32.70641 44.35180 38.52911
#
# Velocity S-wave (km/s) = 3.66006 4.26214 3.97252
# Velocity P-wave (km/s) = 5.64005 6.98179 6.34647
#
# Compressibility (1/GPa) = 0.02936363
#
# Stress axis : x y z
#
# Youngs Moduli (GPa) = 187.62016 49.43820 86.10521
#
# Poissons Ratio (x) = 0.09030 -0.02790
# Poissons Ratio (y) = 0.34268 0.20676
# Poissons Ratio (z) = -0.06080 0.11871
#
# Static dielectric constant tensor:
#      x y z
#    x 1.950660 0.000000 0.022100 
#    y 0.000000 2.072660 0.000000 
#    z 0.022100 0.000000 1.976430 
# 
# From -- ./inp_files/51790.got.cif
#   From: 2010.05.17/outbox.cif.g08.bks.cpg/sg5_26_cif.got.tgz:51790.got - 2010.06.03 18:56:24.
