data_PCOD9127306
_publ_section_title
;
Structure prediction by ZEFSAII (Michael W. Deem and Ramdas Pophale) SiO2 
 PCOD9127306
Probable space group: C 2
;
_chemical_formula_sum "Si O2"
_cell_formula_units_Z 32
_cell_length_a 13.729998
_cell_length_b 12.549945
_cell_length_c 14.462168
_cell_angle_alpha 90.000000
_cell_angle_beta 147.960554
_cell_angle_gamma 90.000000
_cell_volume 1322.006325
_symmetry_space_group_name_H-M "C 2"
_symmetry_group_IT_number 5
_symmetry_cell_setting 'monoclinic'
loop_
_space_group_symop_operation_xyz
x,y,z
-x,y,-z
1/2+x,1/2+y,z
1/2-x,1/2+y,-z
loop_
_atom_site_type_symbol
_atom_site_label
_atom_site_fract_x
_atom_site_fract_y
_atom_site_fract_z
Si Si1 0.861594 0.868140 0.032508
Si Si2 0.701031 0.875687 0.626710
Si Si3 0.194491 0.099708 0.205678
Si Si4 0.108242 0.938465 0.733605
Si Si5 0.116943 0.580906 0.813796
Si Si6 0.166281 0.653793 0.060377
Si Si7 0.185478 0.431913 0.414205
Si Si8 0.859930 0.321758 0.801771
O O1 0.855466 0.875719 0.139794
O O2 0.763009 0.775233 0.893589
O O3 0.078688 0.849773 0.179940
O O4 0.757719 0.979092 0.924931
O O5 0.500000 0.834511 0.500000
O O6 0.685247 0.859580 0.504136
O O7 0.714217 0.998298 0.673772
O O8 0.318304 0.146096 0.222169
O O9 0.163106 0.199604 0.246997
O O10 0.000000 0.074918 0.000000
O O11 0.185420 0.875979 0.708242
O O12 0.892511 0.952187 0.554389
O O13 0.200293 0.055560 0.809986
O O14 0.115408 0.633639 0.912030
O O15 0.915610 0.537664 0.635739
O O16 0.000000 0.646497 0.000000
O O17 0.082146 0.387548 0.241266
O O18 0.000000 0.325126 0.000000
#
# Coordination Sequence:
#
# PCOD9127306 Si02
#       8
#     4   4   4   4   4   4   4   4
#     4  10  23  42  69  98 134 189 243 282 352 426
#     4  11  23  43  66 102 147 183 228 306 365 400
#     4  11  23  42  74 103 134 184 250 292 349 422
#     4  10  22  45  65  97 147 175 235 300 354 408
#     4  11  22  43  68  95 137 184 237 294 344 421
#     4  11  24  41  69  99 135 189 239 287 350 439
#     4  11  24  42  67  99 144 183 222 298 364 407
#     4  11  23  43  74 105 137 188 241 288 349 436
#
# _framework density 24.205632000000001
#
# number of rings (size 3 to 8) (size 9 to 14) (size 15 to 20)
#    0.000    1.250    2.500    3.750    1.750    2.000 
#    4.500    1.250    0.000    0.000    0.000    0.000 
#    0.000    0.000    0.000    0.000    0.000    0.000 
#
# Total GULP energy -89281.779353 kJ/mol
# GULP energy per Si atom -5580.111210 kJ/mol
# Density = 2.415054 g / cm^3
# Si number density = 24.205632 Si / 1000 Ang^3
#
#
#
# Elastic Constant Matrix: (Units=GPa)
#
#
# Indices 1 2 3 4 5 6 
#
# 1 128.6941 35.2546 33.3858 0.0002 12.1873 0.0001
# 2 35.2546 64.9643 8.7025 0.0008 -1.3903 0.0005
# 3 33.3858 8.7025 83.7024 0.0010 12.9374 0.0005
# 4 0.0002 0.0008 0.0010 8.3348 0.0006 -0.0858
# 5 12.1873 -1.3903 12.9374 0.0006 41.2203 0.0002
# 6 0.0001 0.0005 0.0005 -0.0858 0.0002 23.1364
#
#
#
# Elastic Compliance Matrix: (Units=1/GPa)
#
#
# Indices 1 2 3 4 5 6 
#
# 1 0.010224 -0.005166 -0.003202 0.000001 -0.002192 0.000000
# 2 -0.005166 0.018268 -0.000179 -0.000002 0.002200 0.000000
# 3 -0.003202 -0.000179 0.013765 -0.000001 -0.003380 0.000000
# 4 0.000001 -0.000002 -0.000001 0.119984 -0.000001 0.000445
# 5 -0.002192 0.002200 -0.003380 -0.000001 0.026043 0.000000
# 6 0.000000 0.000000 0.000000 0.000445 0.000000 0.043224
#
#
# Mechanical properties :
#
#
# Convention : Reuss Voigt Hill
#
# Bulk Modulus (GPa) = 39.74087 48.00518 43.87303
# Shear Modulus (GPa) = 19.45611 27.87282 23.66446
#
# Velocity S-wave (km/s) = 2.83818 3.39706 3.13012
# Velocity P-wave (km/s) = 5.21479 5.93818 5.58820
#
# Compressibility (1/GPa) = 0.02516301
#
# Stress axis : x y z
#
# Youngs Moduli (GPa) = 97.81051 54.74149 72.64703
#
# Poissons Ratio (x) = 0.28281 0.23261
# Poissons Ratio (y) = 0.50531 0.01298
# Poissons Ratio (z) = 0.31319 0.00978
#
# Static dielectric constant tensor:
#      x y z
#    x 1.967220 0.000000 -0.032200 
#    y 0.000000 1.967520 0.000000 
#    z -0.032200 0.000000 1.981090 
# 
# From -- ./inp_files/61712.got.cif
#   From: 2010.05.17/outbox.cif.g08.bks.cpg/sg5_31_cif.got.tgz:61712.got - 2010.06.03 18:56:24.
