data_PCOD9127809
_publ_section_title
;
Structure prediction by ZEFSAII (Michael W. Deem and Ramdas Pophale) SiO2 
 PCOD9127809
Probable space group: C 2
;
_chemical_formula_sum "Si O2"
_cell_formula_units_Z 30
_cell_length_a 13.488898
_cell_length_b 13.126462
_cell_length_c 9.725838
_cell_angle_alpha 90.000000
_cell_angle_beta 58.988881
_cell_angle_gamma 90.000000
_cell_volume 1475.931259
_symmetry_space_group_name_H-M "C 2"
_symmetry_group_IT_number 5
_symmetry_cell_setting 'monoclinic'
loop_
_space_group_symop_operation_xyz
x,y,z
-x,y,-z
1/2+x,1/2+y,z
1/2-x,1/2+y,-z
loop_
_atom_site_type_symbol
_atom_site_label
_atom_site_fract_x
_atom_site_fract_y
_atom_site_fract_z
Si Si1 0.092818 0.378990 0.214804
Si Si2 0.703617 0.392871 0.708608
Si Si3 0.661670 0.662089 0.061636
Si Si4 0.284619 0.984886 0.122994
Si Si5 0.139677 0.488764 0.618938
Si Si6 0.608787 0.225328 0.597524
Si Si7 0.844668 0.780835 0.744378
Si Si8 0.500000 0.515142 0.000000
O O1 0.192425 0.395249 0.256392
O O2 0.097984 0.260487 0.169571
O O3 0.966410 0.416048 0.347942
O O4 0.128207 0.448008 0.058162
O O5 0.747087 0.454314 0.544385
O O6 0.673691 0.280196 0.676266
O O7 0.591784 0.445165 0.854547
O O8 0.730149 0.593034 0.122250
O O9 0.572535 0.587931 0.049183
O O10 0.754791 0.707939 0.887371
O O11 0.341956 0.983582 0.231114
O O12 0.187765 0.896384 0.195898
O O13 0.113022 0.604394 0.599460
O O14 0.475029 0.258065 0.695701
O O15 0.661407 0.262002 0.414535
#
# Coordination Sequence:
#
# PCOD9127809 Si02
#       8
#     4   4   4   4   4   4   4   2
#     4  11  26  43  70 104 144 177 235 290 341 421
#     4  12  26  48  68 102 142 179 237 289 346 419
#     4  11  24  43  71 101 141 183 225 293 347 416
#     4  11  22  46  66 102 140 179 234 282 348 419
#     4  12  26  44  72 103 140 184 232 289 350 407
#     4  11  24  42  71  99 136 188 228 290 343 413
#     4  10  23  42  70 101 138 177 238 281 349 409
#     4  12  26  44  74 102 134 190 232 290 356 412
#
# _framework density 20.326150999999999
#
# number of rings (size 3 to 8) (size 9 to 14) (size 15 to 20)
#    0.000    0.800    2.667    4.000    9.333    1.067 
#    2.400    1.333    0.000    0.000    0.000    0.000 
#    0.000    0.000    0.000    0.000    0.000    0.000 
#
# Total GULP energy -83941.842756 kJ/mol
# GULP energy per Si atom -5596.122850 kJ/mol
# Density = 2.027989 g / cm^3
# Si number density = 20.326151 Si / 1000 Ang^3
#
#
#
# Elastic Constant Matrix: (Units=GPa)
#
#
# Indices 1 2 3 4 5 6 
#
# 1 90.3632 30.0711 50.8373 0.0000 0.5360 0.0000
# 2 30.0711 114.5653 39.8806 0.0000 -21.2127 0.0000
# 3 50.8373 39.8806 99.0219 0.0000 -6.3829 0.0000
# 4 0.0000 0.0000 0.0000 21.8693 0.0000 13.8147
# 5 0.5360 -21.2127 -6.3829 0.0000 32.8277 0.0000
# 6 0.0000 0.0000 0.0000 13.8147 0.0000 28.8237
#
#
#
# Elastic Compliance Matrix: (Units=1/GPa)
#
#
# Indices 1 2 3 4 5 6 
#
# 1 0.016069 -0.002158 -0.007582 0.000000 -0.003131 0.000000
# 2 -0.002158 0.011682 -0.003147 0.000000 0.006972 0.000000
# 3 -0.007582 -0.003147 0.015328 0.000000 0.001070 0.000000
# 4 0.000000 0.000000 0.000000 0.065582 0.000000 -0.031432
# 5 -0.003131 0.006972 0.001070 0.000000 0.035226 0.000000
# 6 0.000000 0.000000 0.000000 -0.031432 0.000000 0.049758
#
#
# Mechanical properties :
#
#
# Convention : Reuss Voigt Hill
#
# Bulk Modulus (GPa) = 57.79350 60.61425 59.20388
# Shear Modulus (GPa) = 22.20362 28.91489 25.55925
#
# Velocity S-wave (km/s) = 3.30868 3.77576 3.54991
# Velocity P-wave (km/s) = 6.56440 6.99243 6.78179
#
# Compressibility (1/GPa) = 0.01730298
#
# Stress axis : x y z
#
# Youngs Moduli (GPa) = 62.23177 85.60482 65.23958
#
# Poissons Ratio (x) = 0.18474 0.49467
# Poissons Ratio (y) = 0.13430 0.20533
# Poissons Ratio (z) = 0.47187 0.26943
#
# Static dielectric constant tensor:
#      x y z
#    x 1.704610 0.000000 0.016790 
#    y 0.000000 1.689560 0.000000 
#    z 0.016790 0.000000 1.718650 
# 
# From -- ./inp_files/23813.got.cif
#   From: 2010.05.17/outbox.cif.g08.bks.cpg/sg5_12_cif.got.tgz:23813.got - 2010.06.03 18:56:24.
