data_PCOD9127539
_publ_section_title
;
Structure prediction by ZEFSAII (Michael W. Deem and Ramdas Pophale) SiO2 
 PCOD9127539
Probable space group: C 2
;
_chemical_formula_sum "Si O2"
_cell_formula_units_Z 26
_cell_length_a 8.290270
_cell_length_b 22.340526
_cell_length_c 8.458011
_cell_angle_alpha 90.000000
_cell_angle_beta 53.132677
_cell_angle_gamma 90.000000
_cell_volume 1253.241991
_symmetry_space_group_name_H-M "C 2"
_symmetry_group_IT_number 5
_symmetry_cell_setting 'monoclinic'
loop_
_space_group_symop_operation_xyz
x,y,z
-x,y,-z
1/2+x,1/2+y,z
1/2-x,1/2+y,-z
loop_
_atom_site_type_symbol
_atom_site_label
_atom_site_fract_x
_atom_site_fract_y
_atom_site_fract_z
Si Si1 0.573852 0.655560 0.275464
Si Si2 0.500000 0.589387 0.000000
Si Si3 0.349884 0.998048 0.881274
Si Si4 0.000000 0.423665 0.500000
Si Si5 0.509792 0.783761 0.804727
Si Si6 0.169549 0.879515 0.027250
Si Si7 0.636985 0.352528 0.550885
Si Si8 0.500000 0.091594 0.000000
O O1 0.500000 0.642497 0.500000
O O2 0.559857 0.726291 0.251693
O O3 0.462018 0.626881 0.185165
O O4 0.802007 0.631884 0.121282
O O5 0.678263 0.544805 0.939108
O O6 0.422660 0.964469 0.685519
O O7 0.517318 0.042539 0.850353
O O8 0.262591 0.942221 0.036969
O O9 0.809155 0.388071 0.542603
O O10 0.733804 0.801915 0.614523
O O11 0.500000 0.773694 0.000000
O O12 0.356861 0.839041 0.862544
O O13 0.036739 0.837977 0.221144
O O14 0.000000 0.897888 0.000000
O O15 0.500000 0.386046 0.500000
#
# Coordination Sequence:
#
# PCOD9127539 Si02
#       8
#     4   2   4   2   4   4   4   2
#     4  11  27  49  73 100 137 192 250 304 358 427
#     4  10  22  50  68  98 140 188 240 302 360 422
#     4  11  23  43  71 100 146 181 233 299 365 433
#     4  12  24  42  68 110 144 190 234 294 358 462
#     4  12  26  46  69 101 145 182 241 303 356 442
#     4  12  24  43  69 107 143 184 223 296 367 440
#     4  12  25  42  68 106 145 189 232 277 377 437
#     4  10  28  48  68 104 136 192 246 298 358 432
#
# _framework density 20.746193000000002
#
# number of rings (size 3 to 8) (size 9 to 14) (size 15 to 20)
#    0.000    0.615    6.154    0.000    9.692    0.000 
#    0.000    0.000    0.000    0.000    0.000    0.000 
#    0.000    0.000    0.000    0.000    0.000    0.000 
#
# Total GULP energy -72394.143280 kJ/mol
# GULP energy per Si atom -5568.780252 kJ/mol
# Density = 2.069897 g / cm^3
# Si number density = 20.746193 Si / 1000 Ang^3
#
#
#
# Elastic Constant Matrix: (Units=GPa)
#
#
# Indices 1 2 3 4 5 6 
#
# 1 74.2227 45.0059 13.4504 0.0000 -1.3967 0.0000
# 2 45.0059 118.7748 40.8625 0.0000 -3.9747 0.0000
# 3 13.4504 40.8625 129.1287 0.0000 -3.2282 0.0000
# 4 0.0000 0.0000 0.0000 38.6828 0.0000 277.8157
# 5 -1.3967 -3.9747 -3.2282 0.0000 33.7775 0.0000
# 6 0.0000 0.0000 0.0000 277.8157 0.0000 3164.7458
#
#
#
# Elastic Compliance Matrix: (Units=1/GPa)
#
#
# Indices 1 2 3 4 5 6 
#
# 1 0.017503 -0.006740 0.000309 0.000000 -0.000040 0.000000
# 2 -0.006740 0.012066 -0.003095 0.000000 0.000845 0.000000
# 3 0.000309 -0.003095 0.008704 0.000000 0.000480 0.000000
# 4 0.000000 0.000000 0.000000 0.069955 0.000000 -0.006141
# 5 -0.000040 0.000845 0.000480 0.000000 0.029749 0.000000
# 6 0.000000 0.000000 0.000000 -0.006141 0.000000 0.000855
#
#
# Mechanical properties :
#
#
# Convention : Reuss Voigt Hill
#
# Bulk Modulus (GPa) = 52.02853 57.86265 54.94559
# Shear Modulus (GPa) = 30.43366 662.29503 346.36435
#
# Velocity S-wave (km/s) = 3.83424 17.88659 12.93506
# Velocity P-wave (km/s) = 6.68841 21.31958 15.79967
#
# Compressibility (1/GPa) = 0.01922022
#
# Stress axis : x y z
#
# Youngs Moduli (GPa) = 57.13301 82.87601 114.89586
#
# Poissons Ratio (x) = 0.55856 -0.03546
# Poissons Ratio (y) = 0.38506 0.35562
# Poissons Ratio (z) = -0.01763 0.25651
#
# Static dielectric constant tensor:
#      x y z
#    x -8.083860 0.000000 4.011420 
#    y 0.000000 1.711080 0.000000 
#    z 4.011420 0.000000 0.279000 
# 
# From -- ./inp_files/17046.got.cif
#   From: 2010.05.17/outbox.cif.g08.bks.cpg/sg5_9_cif.got.tgz:17046.got - 2010.06.03 18:56:24.
