data_PCOD9127626
_publ_section_title
;
Structure prediction by ZEFSAII (Michael W. Deem and Ramdas Pophale) SiO2 
 PCOD9127626
Probable space group: C 2
;
_chemical_formula_sum "Si O2"
_cell_formula_units_Z 28
_cell_length_a 13.240935
_cell_length_b 14.890062
_cell_length_c 5.198695
_cell_angle_alpha 90.000000
_cell_angle_beta 87.858946
_cell_angle_gamma 90.000000
_cell_volume 1024.250544
_symmetry_space_group_name_H-M "C 2"
_symmetry_group_IT_number 5
_symmetry_cell_setting 'monoclinic'
loop_
_space_group_symop_operation_xyz
x,y,z
-x,y,-z
1/2+x,1/2+y,z
1/2-x,1/2+y,-z
loop_
_atom_site_type_symbol
_atom_site_label
_atom_site_fract_x
_atom_site_fract_y
_atom_site_fract_z
Si Si1 0.657835 0.635470 0.064476
Si Si2 0.626367 0.469990 0.319017
Si Si3 0.235026 0.914733 0.827725
Si Si4 0.465725 0.968900 0.754998
Si Si5 0.595218 0.286758 0.127051
Si Si6 0.426834 0.778281 0.284009
Si Si7 0.760015 0.687512 0.553905
O O1 0.583367 0.564717 0.219038
O O2 0.741724 0.647863 0.277768
O O3 0.596813 0.725456 0.981078
O O4 0.712969 0.622653 0.781914
O O5 0.667057 0.451313 0.598505
O O6 0.561656 0.383585 0.245667
O O7 0.717288 0.465111 0.102127
O O8 0.351564 0.933758 0.757705
O O9 0.185888 0.818336 0.922124
O O10 0.500000 0.020060 0.500000
O O11 0.536727 0.879204 0.754588
O O12 0.500000 0.021801 0.000000
O O13 0.636972 0.224193 0.346506
O O14 0.500000 0.246054 0.000000
O O15 0.500000 0.738314 0.500000
O O16 0.315714 0.773372 0.422725
#
# Coordination Sequence:
#
# PCOD9127626 Si02
#       7
#     4   4   4   4   4   4   4
#     4  10  23  43  65 101 135 184 214 278 351 414
#     4  10  23  44  68  92 141 177 225 275 344 405
#     4  10  23  40  67  96 135 175 222 272 335 406
#     4  11  22  34  61  98 140 160 207 277 336 410
#     4  10  25  45  71 101 128 183 238 289 329 388
#     4   9  23  35  64 100 140 164 214 271 345 410
#     4  10  23  40  67 100 135 173 229 279 340 399
#
# _framework density 27.337060000000001
#
# number of rings (size 3 to 8) (size 9 to 14) (size 15 to 20)
#    1.714    0.286    0.000    2.571   10.000    0.571 
#    2.571    0.000    0.000    8.571    0.000    0.000 
#    0.000    0.000    0.000    0.000    0.000    0.000 
#
# Total GULP energy -78100.475447 kJ/mol
# GULP energy per Si atom -5578.605389 kJ/mol
# Density = 2.727484 g / cm^3
# Si number density = 27.337060 Si / 1000 Ang^3
#
#
#
# Elastic Constant Matrix: (Units=GPa)
#
#
# Indices 1 2 3 4 5 6 
#
# 1 96.0481 -11.6467 40.2230 0.0000 9.4062 0.0000
# 2 -11.6467 77.2718 38.4126 0.0000 2.7238 0.0000
# 3 40.2230 38.4126 254.0749 0.0000 6.4736 0.0000
# 4 0.0000 0.0000 0.0000 33.3587 0.0000 -7.1063
# 5 9.4062 2.7238 6.4736 0.0000 59.7524 0.0000
# 6 0.0000 0.0000 0.0000 -7.1063 0.0000 1.2643
#
#
#
# Elastic Compliance Matrix: (Units=1/GPa)
#
#
# Indices 1 2 3 4 5 6 
#
# 1 0.011908 0.002997 -0.002293 0.000000 -0.001763 0.000000
# 2 0.002997 0.014757 -0.002684 0.000000 -0.000854 0.000000
# 3 -0.002293 -0.002684 0.004705 0.000000 -0.000026 0.000000
# 4 0.000000 0.000000 0.000000 -0.151888 0.000000 -0.853713
# 5 -0.001763 -0.000854 -0.000026 0.000000 0.017055 0.000000
# 6 0.000000 0.000000 0.000000 -0.853713 0.000000 -4.007518
#
#
# Mechanical properties :
#
#
# Convention : Reuss Voigt Hill
#
# Bulk Modulus (GPa) = 36.48278 62.37472 49.42875
# Shear Modulus (GPa) = -1.22014 42.90214 20.84100
#
# Velocity S-wave (km/s) = -0.66881 3.96583 2.76410
# Velocity P-wave (km/s) = 3.57465 6.62094 5.32048
#
# Compressibility (1/GPa) = 0.02741019
#
# Stress axis : x y z
#
# Youngs Moduli (GPa) = 83.97788 67.76314 212.52456
#
# Poissons Ratio (x) = -0.20309 0.48739
# Poissons Ratio (y) = -0.25168 0.57037
# Poissons Ratio (z) = 0.19259 0.18186
#
# Static dielectric constant tensor:
#      x y z
#    x 2.265320 0.000000 -0.150770 
#    y 0.000000 2.494670 0.000000 
#    z -0.150770 0.000000 2.207040 
# 
# From -- ./inp_files/8941.got.cif
#   From: 2010.05.17/outbox.cif.g08.bks.cpg/sg5_5_cif.got.tgz:8941.got - 2010.06.03 18:56:24.
