data_PCOD9127458
_publ_section_title
;
Structure prediction by ZEFSAII (Michael W. Deem and Ramdas Pophale) SiO2 
 PCOD9127458
Probable space group: C 2
;
_chemical_formula_sum "Si O2"
_cell_formula_units_Z 22
_cell_length_a 30.404047
_cell_length_b 4.911855
_cell_length_c 5.507544
_cell_angle_alpha 90.000000
_cell_angle_beta 86.289188
_cell_angle_gamma 90.000000
_cell_volume 820.773679
_symmetry_space_group_name_H-M "C 2"
_symmetry_group_IT_number 5
_symmetry_cell_setting 'monoclinic'
loop_
_space_group_symop_operation_xyz
x,y,z
-x,y,-z
1/2+x,1/2+y,z
1/2-x,1/2+y,-z
loop_
_atom_site_type_symbol
_atom_site_label
_atom_site_fract_x
_atom_site_fract_y
_atom_site_fract_z
Si Si1 0.758009 0.995020 0.850774
Si Si2 0.928176 0.700651 0.234357
Si Si3 0.332278 0.081878 0.274952
Si Si4 0.846038 0.258712 0.761047
Si Si5 0.500000 0.504506 0.500000
Si Si6 0.941070 0.182166 0.909643
O O1 0.720359 0.137295 0.699444
O O2 0.809116 0.024314 0.768506
O O3 0.746925 0.682967 0.905618
O O4 0.875694 0.773029 0.272851
O O5 0.959151 0.808797 0.437986
O O6 0.933231 0.393456 0.133679
O O7 0.945391 0.880516 0.008243
O O8 0.339914 0.904597 0.509266
O O9 0.336777 0.936764 0.008506
O O10 0.896723 0.187477 0.768435
O O11 0.482453 0.703592 0.718470
#
# Coordination Sequence:
#
# PCOD9127458 Si02
#       6
#     4   4   4   4   2   4
#     4  10  22  46  76 112 152 200 250 308 378 464
#     4  11  28  52  75 112 154 200 262 327 394 471
#     4  10  24  47  75 111 153 200 251 313 385 462
#     4  10  24  47  75 111 153 200 251 313 385 462
#     4  12  30  50  84 112 152 214 270 334 406 472
#     4  11  28  52  75 112 154 200 262 327 394 471
#
# _framework density 26.803975000000001
#
# number of rings (size 3 to 8) (size 9 to 14) (size 15 to 20)
#    0.000    1.455    0.000    1.636   10.182   10.182 
#    3.273    0.000    0.000    0.000    0.000    0.000 
#    0.000    0.000    0.000    0.000    0.000    0.000 
#
# Total GULP energy -61503.113963 kJ/mol
# GULP energy per Si atom -5591.192178 kJ/mol
# Density = 2.674297 g / cm^3
# Si number density = 26.803975 Si / 1000 Ang^3
#
#
#
# Elastic Constant Matrix: (Units=GPa)
#
#
# Indices 1 2 3 4 5 6 
#
# 1 198.4108 32.0151 18.5801 0.0000 47.8908 0.0000
# 2 32.0151 54.3524 29.4026 0.0000 1.2450 0.0000
# 3 18.5801 29.4026 108.5852 0.0000 11.5846 0.0000
# 4 0.0000 0.0000 0.0000 18.9872 0.0000 5.7991
# 5 47.8908 1.2450 11.5846 0.0000 53.5860 0.0000
# 6 0.0000 0.0000 0.0000 5.7991 0.0000 43.4759
#
#
#
# Elastic Compliance Matrix: (Units=1/GPa)
#
#
# Indices 1 2 3 4 5 6 
#
# 1 0.007285 -0.004505 0.000672 0.000000 -0.006552 0.000000
# 2 -0.004505 0.024373 -0.006344 0.000000 0.004831 0.000000
# 3 0.000672 -0.006344 0.011117 0.000000 -0.002857 0.000000
# 4 0.000000 0.000000 0.000000 0.054904 0.000000 -0.007323
# 5 -0.006552 0.004831 -0.002857 0.000000 0.025022 0.000000
# 6 0.000000 0.000000 0.000000 -0.007323 0.000000 0.023978
#
#
# Mechanical properties :
#
#
# Convention : Reuss Voigt Hill
#
# Bulk Modulus (GPa) = 44.59974 57.92711 51.26342
# Shear Modulus (GPa) = 28.65197 41.96653 35.30925
#
# Velocity S-wave (km/s) = 3.27302 3.96116 3.63342
# Velocity P-wave (km/s) = 5.56407 6.52529 6.06376
#
# Compressibility (1/GPa) = 0.02242166
#
# Stress axis : x y z
#
# Youngs Moduli (GPa) = 137.26081 41.02837 89.95195
#
# Poissons Ratio (x) = 0.18483 -0.06047
# Poissons Ratio (y) = 0.61834 0.57069
# Poissons Ratio (z) = -0.09227 0.26030
#
# Static dielectric constant tensor:
#      x y z
#    x 2.359290 0.000000 -0.007120 
#    y 0.000000 2.123680 0.000000 
#    z -0.007120 0.000000 2.115680 
# 
# From -- ./inp_files/11022.got.cif
#   From: 2010.05.17/outbox.cif.g08.bks.cpg/sg5_6_cif.got.tgz:11022.got - 2010.06.03 18:56:24.
