data_PCOD9127563
_publ_section_title
;
Structure prediction by ZEFSAII (Michael W. Deem and Ramdas Pophale) SiO2 
 PCOD9127563
Probable space group: C 2
;
_chemical_formula_sum "Si O2"
_cell_formula_units_Z 32
_cell_length_a 19.701193
_cell_length_b 10.425587
_cell_length_c 20.998117
_cell_angle_alpha 90.000000
_cell_angle_beta 160.594691
_cell_angle_gamma 90.000000
_cell_volume 1432.967895
_symmetry_space_group_name_H-M "C 2"
_symmetry_group_IT_number 5
_symmetry_cell_setting 'monoclinic'
loop_
_space_group_symop_operation_xyz
x,y,z
-x,y,-z
1/2+x,1/2+y,z
1/2-x,1/2+y,-z
loop_
_atom_site_type_symbol
_atom_site_label
_atom_site_fract_x
_atom_site_fract_y
_atom_site_fract_z
Si Si1 0.083560 0.316440 0.175565
Si Si2 0.086339 0.018140 0.178537
Si Si3 0.831330 0.836508 0.275880
Si Si4 0.089687 0.526935 0.890010
Si Si5 0.168726 0.540610 0.726768
Si Si6 0.397534 0.291872 0.702410
Si Si7 0.424230 0.940357 0.622239
Si Si8 0.499295 0.462278 0.690418
O O1 0.110755 0.168279 0.220374
O O2 0.264169 0.364911 0.288747
O O3 0.037769 0.411309 0.192013
O O4 0.879359 0.329234 0.951609
O O5 0.264801 0.993326 0.284192
O O6 0.079189 0.908006 0.225950
O O7 0.875641 0.022095 0.951564
O O8 0.894670 0.688835 0.333898
O O9 0.975876 0.927565 0.361617
O O10 0.100658 0.482438 0.826351
O O11 0.530999 0.158370 0.208171
O O12 0.310013 0.544258 0.117015
O O13 0.992834 0.479877 0.613268
O O14 0.166192 0.298312 0.469807
O O15 0.531506 0.328238 0.758691
O O16 0.220501 0.002036 0.475412
#
# Coordination Sequence:
#
# PCOD9127563 Si02
#       8
#     4   4   4   4   4   4   4   4
#     4   8  17  32  66  89 115 160 197 248 306 354
#     4   9  18  37  62  96 116 159 209 244 306 361
#     4   8  14  34  60  90 115 150 211 248 287 361
#     4  11  21  42  63  88 126 161 195 257 310 358
#     4   9  17  35  64  86 122 159 203 256 290 361
#     4  10  23  38  58  92 124 153 208 247 304 373
#     4  10  23  38  58  88 121 162 203 248 300 361
#     4   9  21  38  59  87 123 159 198 249 297 364
#
# _framework density 22.331275000000002
#
# number of rings (size 3 to 8) (size 9 to 14) (size 15 to 20)
#    0.750    2.000    0.000    3.000    0.000    3.500 
#    4.500    5.625    2.750    0.000    0.000    0.000 
#    0.000    0.000    0.000    0.000    0.000    0.000 
#
# Total GULP energy -89144.866516 kJ/mol
# GULP energy per Si atom -5571.554157 kJ/mol
# Density = 2.228045 g / cm^3
# Si number density = 22.331275 Si / 1000 Ang^3
#
#
#
# Elastic Constant Matrix: (Units=GPa)
#
#
# Indices 1 2 3 4 5 6 
#
# 1 135.2019 46.6289 25.7401 -0.0022 10.7503 -0.0007
# 2 46.6289 70.9509 15.2517 -0.0096 1.5487 -0.0006
# 3 25.7401 15.2517 88.8496 -0.0038 11.1307 0.0004
# 4 -0.0022 -0.0096 -0.0038 6.8195 0.0013 -10.3479
# 5 10.7503 1.5487 11.1307 0.0013 44.1243 0.0004
# 6 -0.0007 -0.0006 0.0004 -10.3479 0.0004 23.7030
#
#
#
# Elastic Compliance Matrix: (Units=1/GPa)
#
#
# Indices 1 2 3 4 5 6 
#
# 1 0.009974 -0.006170 -0.001604 -0.000017 -0.001809 -0.000007
# 2 -0.006170 0.018452 -0.001536 0.000069 0.001243 0.000030
# 3 -0.001604 -0.001536 0.012317 0.000013 -0.002662 0.000005
# 4 -0.000017 0.000069 0.000013 0.434407 -0.000016 0.189648
# 5 -0.001809 0.001243 -0.002662 -0.000016 0.023732 -0.000008
# 6 -0.000007 0.000030 0.000005 0.189648 -0.000008 0.124983
#
#
# Mechanical properties :
#
#
# Convention : Reuss Voigt Hill
#
# Bulk Modulus (GPa) = 45.20101 52.24933 48.72517
# Shear Modulus (GPa) = 7.69399 28.75482 18.22440
#
# Velocity S-wave (km/s) = 1.85819 3.59227 2.85983
# Velocity P-wave (km/s) = 4.98888 6.37606 5.72464
#
# Compressibility (1/GPa) = 0.02212340
#
# Stress axis : x y z
#
# Youngs Moduli (GPa) = 100.26530 54.19342 81.19072
#
# Poissons Ratio (x) = 0.33440 0.13020
# Poissons Ratio (y) = 0.61868 0.12468
# Poissons Ratio (z) = 0.16078 0.08322
#
# Static dielectric constant tensor:
#      x y z
#    x 1.847430 0.000000 -0.013610 
#    y 0.000000 1.798770 -0.000010 
#    z -0.013610 -0.000010 1.980530 
# 
# From -- ./inp_files/69499.got.cif
#   From: 2010.05.17/outbox.cif.g08.bks.cpg/sg5_35_cif.got.tgz:69499.got - 2010.06.03 18:56:24.
