data_PCOD9127346
_publ_section_title
;
Structure prediction by ZEFSAII (Michael W. Deem and Ramdas Pophale) SiO2 
 PCOD9127346
Probable space group: C 2
;
_chemical_formula_sum "Si O2"
_cell_formula_units_Z 30
_cell_length_a 11.202340
_cell_length_b 8.506674
_cell_length_c 14.835093
_cell_angle_alpha 90.000000
_cell_angle_beta 76.654879
_cell_angle_gamma 90.000000
_cell_volume 1375.531355
_symmetry_space_group_name_H-M "C 2"
_symmetry_group_IT_number 5
_symmetry_cell_setting 'monoclinic'
loop_
_space_group_symop_operation_xyz
x,y,z
-x,y,-z
1/2+x,1/2+y,z
1/2-x,1/2+y,-z
loop_
_atom_site_type_symbol
_atom_site_label
_atom_site_fract_x
_atom_site_fract_y
_atom_site_fract_z
Si Si1 0.862255 0.033360 0.050350
Si Si2 0.662939 0.125742 0.752735
Si Si3 0.357945 0.156897 0.036324
Si Si4 0.387371 0.706214 0.416434
Si Si5 0.000000 0.720229 0.500000
Si Si6 0.022284 0.492250 0.348100
Si Si7 0.179812 0.962038 0.417611
Si Si8 0.690122 0.498018 0.732752
O O1 0.839329 0.054008 0.161004
O O2 0.861159 0.846204 0.032264
O O3 0.747041 0.101958 0.014670
O O4 0.000000 0.091548 0.000000
O O5 0.678078 0.107623 0.856298
O O6 0.543636 0.035220 0.734126
O O7 0.772805 0.045369 0.679323
O O8 0.658652 0.312384 0.732862
O O9 0.500000 0.102442 0.000000
O O10 0.361465 0.589974 0.502612
O O11 0.379562 0.600963 0.328551
O O12 0.506673 0.814483 0.385632
O O13 0.282607 0.840644 0.435806
O O14 0.049860 0.599964 0.565846
O O15 0.928744 0.839567 0.576520
O O16 0.166139 0.522725 0.315416
#
# Coordination Sequence:
#
# PCOD9127346 Si02
#       8
#     4   4   4   4   2   4   4   4
#     4  10  24  44  70 102 136 172 227 284 347 401
#     4  10  24  42  63  96 135 168 228 271 336 402
#     4  10  22  45  71 100 135 179 221 286 342 409
#     4  11  23  41  64  90 135 173 224 267 333 392
#     4  12  24  40  62  94 132 178 226 266 336 392
#     4  11  25  41  63  95 129 175 223 275 324 404
#     4  11  23  40  61  94 130 179 216 276 324 397
#     4  11  23  43  66  95 130 175 218 278 333 404
#
# _framework density 21.809754000000002
#
# number of rings (size 3 to 8) (size 9 to 14) (size 15 to 20)
#    0.000    1.333    1.333    4.000    3.733    4.800 
#    7.200    0.000    0.000    0.000    0.000    0.000 
#    0.000    0.000    0.000    0.000    0.000    0.000 
#
# Total GULP energy -83779.333693 kJ/mol
# GULP energy per Si atom -5585.288913 kJ/mol
# Density = 2.176011 g / cm^3
# Si number density = 21.809754 Si / 1000 Ang^3
#
#
#
# Elastic Constant Matrix: (Units=GPa)
#
#
# Indices 1 2 3 4 5 6 
#
# 1 74.7203 31.2236 48.1223 0.0000 -6.1849 0.0000
# 2 31.2236 103.5374 74.1286 0.0000 -1.1278 0.0000
# 3 48.1223 74.1286 138.4279 0.0000 -1.2348 0.0000
# 4 0.0000 0.0000 0.0000 34.5549 0.0000 6.9161
# 5 -6.1849 -1.1278 -1.2348 0.0000 25.8188 0.0000
# 6 0.0000 0.0000 0.0000 6.9161 0.0000 40.9003
#
#
#
# Elastic Compliance Matrix: (Units=1/GPa)
#
#
# Indices 1 2 3 4 5 6 
#
# 1 0.017775 -0.001490 -0.005346 0.000000 0.003937 0.000000
# 2 -0.001490 0.015791 -0.007939 0.000000 -0.000047 0.000000
# 3 -0.005346 -0.007939 0.013325 0.000000 -0.000990 0.000000
# 4 0.000000 0.000000 0.000000 0.029953 0.000000 -0.005065
# 5 0.003937 -0.000047 -0.000990 0.000000 0.039625 0.000000
# 6 0.000000 0.000000 0.000000 -0.005065 0.000000 0.025306
#
#
# Mechanical properties :
#
#
# Convention : Reuss Voigt Hill
#
# Bulk Modulus (GPa) = 57.66570 69.29273 63.47921
# Shear Modulus (GPa) = 28.23193 31.13555 29.68374
#
# Velocity S-wave (km/s) = 3.60177 3.78246 3.69322
# Velocity P-wave (km/s) = 6.61776 7.13557 6.88154
#
# Compressibility (1/GPa) = 0.01734133
#
# Stress axis : x y z
#
# Youngs Moduli (GPa) = 56.25936 63.32817 75.04803
#
# Poissons Ratio (x) = 0.09434 0.40123
# Poissons Ratio (y) = 0.08381 0.59577
# Poissons Ratio (z) = 0.30078 0.50273
#
# Static dielectric constant tensor:
#      x y z
#    x 1.931050 0.000000 -0.006070 
#    y 0.000000 1.775890 0.000000 
#    z -0.006070 0.000000 1.784100 
# 
# From -- ./inp_files/52410.got.cif
#   From: 2010.05.17/outbox.cif.g08.bks.cpg/sg5_27_cif.got.tgz:52410.got - 2010.06.03 18:56:24.
