data_PCOD9127707
_publ_section_title
;
Structure prediction by ZEFSAII (Michael W. Deem and Ramdas Pophale) SiO2 
 PCOD9127707
Probable space group: C 2
;
_chemical_formula_sum "Si O2"
_cell_formula_units_Z 20
_cell_length_a 16.299845
_cell_length_b 7.486628
_cell_length_c 10.862025
_cell_angle_alpha 90.000000
_cell_angle_beta 34.463472
_cell_angle_gamma 90.000000
_cell_volume 750.076258
_symmetry_space_group_name_H-M "C 2"
_symmetry_group_IT_number 5
_symmetry_cell_setting 'monoclinic'
loop_
_space_group_symop_operation_xyz
x,y,z
-x,y,-z
1/2+x,1/2+y,z
1/2-x,1/2+y,-z
loop_
_atom_site_type_symbol
_atom_site_label
_atom_site_fract_x
_atom_site_fract_y
_atom_site_fract_z
Si Si1 0.077116 0.302720 0.030490
Si Si2 0.172017 0.011264 0.387685
Si Si3 0.369300 0.065708 0.385319
Si Si4 0.056855 0.919479 0.160788
Si Si5 0.663523 0.921567 0.321932
O O1 0.238369 0.378564 0.811169
O O2 0.000000 0.357392 0.000000
O O3 0.991602 0.413490 0.238533
O O4 0.037353 0.098930 0.105304
O O5 0.009525 0.955005 0.623526
O O6 0.256804 0.021090 0.415965
O O7 0.170886 0.214451 0.348377
O O8 0.462673 0.244756 0.239324
O O9 0.291982 0.044146 0.614213
O O10 0.229463 0.914165 0.928104
O O11 0.500000 0.979565 0.500000
#
# Coordination Sequence:
#
# PCOD9127707 Si02
#       5
#     4   4   4   4   4
#     4  10  23  41  69 111 144 182 241 300 363 428
#     4  11  24  45  72 112 145 189 249 307 360 441
#     4  11  24  45  73 109 146 187 248 301 365 437
#     4  12  25  42  75 100 150 196 237 305 368 424
#     4  12  28  48  72 109 150 198 247 295 369 442
#
# _framework density 26.663955999999999
#
# number of rings (size 3 to 8) (size 9 to 14) (size 15 to 20)
#    0.000    0.800    4.000    2.400    8.400    1.600 
#    0.000    2.000    0.000    0.000    0.000    0.000 
#    0.000    0.000    0.000    0.000    0.000    0.000 
#
# Total GULP energy -55898.510961 kJ/mol
# GULP energy per Si atom -5589.851096 kJ/mol
# Density = 2.660327 g / cm^3
# Si number density = 26.663956 Si / 1000 Ang^3
#
#
#
# Elastic Constant Matrix: (Units=GPa)
#
#
# Indices 1 2 3 4 5 6 
#
# 1 82.2954 8.1281 44.0372 0.0000 -2.9483 0.0000
# 2 8.1281 115.9673 36.8308 0.0000 -5.5311 0.0000
# 3 44.0372 36.8308 232.3875 0.0000 0.7032 0.0000
# 4 0.0000 0.0000 0.0000 53.6951 0.0000 3.4017
# 5 -2.9483 -5.5311 0.7032 0.0000 39.7512 0.0000
# 6 0.0000 0.0000 0.0000 3.4017 0.0000 1.2664
#
#
#
# Elastic Compliance Matrix: (Units=1/GPa)
#
#
# Indices 1 2 3 4 5 6 
#
# 1 0.013567 -0.000088 -0.002560 0.000000 0.001039 0.000000
# 2 -0.000088 0.009147 -0.001437 0.000000 0.001292 0.000000
# 3 -0.002560 -0.001437 0.005017 0.000000 -0.000479 0.000000
# 4 0.000000 0.000000 0.000000 0.022443 0.000000 -0.060281
# 5 0.001039 0.001292 -0.000479 0.000000 0.025422 0.000000
# 6 0.000000 0.000000 0.000000 -0.060281 0.000000 0.951532
#
#
# Mechanical properties :
#
#
# Convention : Reuss Voigt Hill
#
# Bulk Modulus (GPa) = 51.12118 67.62694 59.37406
# Shear Modulus (GPa) = 4.79930 41.71950 23.25940
#
# Velocity S-wave (km/s) = 1.34307 3.95984 2.95670
# Velocity P-wave (km/s) = 4.64964 6.80624 5.82855
#
# Compressibility (1/GPa) = 0.01956137
#
# Stress axis : x y z
#
# Youngs Moduli (GPa) = 73.70687 109.32222 199.30304
#
# Poissons Ratio (x) = 0.00965 0.51024
# Poissons Ratio (y) = 0.00651 0.28638
# Poissons Ratio (z) = 0.18870 0.15709
#
# Static dielectric constant tensor:
#      x y z
#    x 2.113080 0.000000 -0.065620 
#    y 0.000000 2.117730 0.000000 
#    z -0.065620 0.000000 2.180910 
# 
# From -- ./inp_files/44283.got.cif
#   From: 2010.05.17/outbox.cif.g08.bks.cpg/sg5_23_cif.got.tgz:44283.got - 2010.06.03 18:56:24.
