data_PCOD9127064
_publ_section_title
;
Structure prediction by ZEFSAII (Michael W. Deem and Ramdas Pophale) SiO2 
 PCOD9127064
Probable space group: C 2
;
_chemical_formula_sum "Si O2"
_cell_formula_units_Z 28
_cell_length_a 18.587693
_cell_length_b 5.393216
_cell_length_c 11.484712
_cell_angle_alpha 90.000000
_cell_angle_beta 111.358746
_cell_angle_gamma 90.000000
_cell_volume 1072.238871
_symmetry_space_group_name_H-M "C 2"
_symmetry_group_IT_number 5
_symmetry_cell_setting 'monoclinic'
loop_
_space_group_symop_operation_xyz
x,y,z
-x,y,-z
1/2+x,1/2+y,z
1/2-x,1/2+y,-z
loop_
_atom_site_type_symbol
_atom_site_label
_atom_site_fract_x
_atom_site_fract_y
_atom_site_fract_z
Si Si1 0.090793 0.073760 0.186826
Si Si2 0.312980 0.308579 0.923270
Si Si3 0.656386 0.536804 0.572214
Si Si4 0.000000 0.760060 0.500000
Si Si5 0.983787 0.687143 0.740958
Si Si6 0.282629 0.315782 0.158806
Si Si7 0.000000 0.454422 0.000000
Si Si8 0.826984 0.405982 0.589647
O O1 0.154091 0.179348 0.311682
O O2 0.117987 0.845099 0.124765
O O3 0.021601 0.977335 0.227002
O O4 0.069017 0.272489 0.077971
O O5 0.254091 0.538844 0.856966
O O6 0.280625 0.033761 0.890565
O O7 0.330901 0.336347 0.069027
O O8 0.572041 0.426620 0.499493
O O9 0.671437 0.422998 0.706419
O O10 0.737280 0.466020 0.554459
O O11 0.654537 0.824149 0.531867
O O12 0.020550 0.627211 0.636094
O O13 0.015995 0.569960 0.880411
O O14 0.893629 0.597360 0.668028
#
# Coordination Sequence:
#
# PCOD9127064 Si02
#       8
#     4   4   4   2   4   4   2   4
#     4  11  22  46  72 103 143 191 260 309 367 470
#     4  10  22  43  69 108 142 190 249 330 367 455
#     4  12  25  46  72 108 145 204 253 311 386 466
#     4  12  28  48  72 114 164 190 246 330 404 450
#     4  11  25  51  75 112 149 200 252 323 384 475
#     4  10  23  42  68 104 150 188 250 312 396 443
#     4  10  26  44  76 108 142 200 252 312 390 458
#     4  11  25  45  76 103 141 203 261 302 369 467
#
# _framework density 26.113582999999998
#
# number of rings (size 3 to 8) (size 9 to 14) (size 15 to 20)
#    0.000    1.143    2.857    2.143    4.000    4.000 
#    7.714    0.000    0.000    0.000    0.000    0.000 
#    0.000    0.000    0.000    0.000    0.000    0.000 
#
# Total GULP energy -78101.573115 kJ/mol
# GULP energy per Si atom -5578.683794 kJ/mol
# Density = 2.605415 g / cm^3
# Si number density = 26.113583 Si / 1000 Ang^3
#
#
#
# Elastic Constant Matrix: (Units=GPa)
#
#
# Indices 1 2 3 4 5 6 
#
# 1 95.2662 32.3465 57.6279 0.0000 -12.6416 0.0000
# 2 32.3465 81.9198 43.3542 0.0000 -4.2430 0.0000
# 3 57.6279 43.3542 174.4903 0.0000 -13.7319 0.0000
# 4 0.0000 0.0000 0.0000 46.8782 0.0000 -4.0600
# 5 -12.6416 -4.2430 -13.7319 0.0000 30.4144 0.0000
# 6 0.0000 0.0000 0.0000 -4.0600 0.0000 22.2661
#
#
#
# Elastic Compliance Matrix: (Units=1/GPa)
#
#
# Indices 1 2 3 4 5 6 
#
# 1 0.014380 -0.003599 -0.003550 0.000000 0.003872 0.000000
# 2 -0.003599 0.014960 -0.002574 0.000000 -0.000571 0.000000
# 3 -0.003550 -0.002574 0.007671 0.000000 0.001629 0.000000
# 4 0.000000 0.000000 0.000000 0.021674 0.000000 0.003952
# 5 0.003872 -0.000571 0.001629 0.000000 0.035144 0.000000
# 6 0.000000 0.000000 0.000000 0.003952 0.000000 0.045632
#
#
# Mechanical properties :
#
#
# Convention : Reuss Voigt Hill
#
# Bulk Modulus (GPa) = 56.92573 68.70372 62.81473
# Shear Modulus (GPa) = 30.34661 34.46824 32.40743
#
# Velocity S-wave (km/s) = 3.41266 3.63703 3.52663
# Velocity P-wave (km/s) = 6.11350 6.63355 6.37883
#
# Compressibility (1/GPa) = 0.01756675
#
# Stress axis : x y z
#
# Youngs Moduli (GPa) = 69.53952 66.84307 130.35830
#
# Poissons Ratio (x) = 0.24054 0.46283
# Poissons Ratio (y) = 0.25024 0.33548
# Poissons Ratio (z) = 0.24690 0.17202
#
# Static dielectric constant tensor:
#      x y z
#    x 2.088670 0.000000 0.031950 
#    y 0.000000 2.210440 0.000000 
#    z 0.031950 0.000000 2.149720 
# 
# From -- ./inp_files/45766.got.cif
#   From: 2010.05.17/outbox.cif.g08.bks.cpg/sg5_23_cif.got.tgz:45766.got - 2010.06.03 18:56:24.
