data_PCOD9127298
_publ_section_title
;
Structure prediction by ZEFSAII (Michael W. Deem and Ramdas Pophale) SiO2 
 PCOD9127298
Probable space group: C 2
;
_chemical_formula_sum "Si O2"
_cell_formula_units_Z 28
_cell_length_a 11.331046
_cell_length_b 8.034265
_cell_length_c 16.890365
_cell_angle_alpha 90.000000
_cell_angle_beta 58.255647
_cell_angle_gamma 90.000000
_cell_volume 1307.616906
_symmetry_space_group_name_H-M "C 2"
_symmetry_group_IT_number 5
_symmetry_cell_setting 'monoclinic'
loop_
_space_group_symop_operation_xyz
x,y,z
-x,y,-z
1/2+x,1/2+y,z
1/2-x,1/2+y,-z
loop_
_atom_site_type_symbol
_atom_site_label
_atom_site_fract_x
_atom_site_fract_y
_atom_site_fract_z
Si Si1 0.354066 0.056640 0.588398
Si Si2 0.176421 0.170310 0.394844
Si Si3 0.659245 0.033313 0.794768
Si Si4 0.334739 0.272839 0.061503
Si Si5 0.647505 0.081471 0.103257
Si Si6 0.395718 0.262356 0.721777
Si Si7 0.092436 0.042398 0.587398
O O1 0.500000 0.115963 0.500000
O O2 0.371586 0.103610 0.673687
O O3 0.209987 0.123098 0.601787
O O4 0.336019 0.861115 0.575560
O O5 0.312574 0.126555 0.298018
O O6 0.158465 0.045974 0.475587
O O7 0.047387 0.146448 0.380026
O O8 0.698510 0.157105 0.852053
O O9 0.498638 0.991229 0.863779
O O10 0.761357 0.878411 0.756861
O O11 0.256089 0.446121 0.093729
O O12 0.500000 0.299931 0.000000
O O13 0.299145 0.176081 0.993160
O O14 0.609375 0.211469 0.185315
O O15 0.528413 0.370589 0.644696
#
# Coordination Sequence:
#
# PCOD9127298 Si02
#       7
#     4   4   4   4   4   4   4
#     4  12  26  37  62  91 124 171 225 263 316 369
#     4  10  22  45  62  89 128 179 212 269 320 366
#     4  10  23  41  65  93 129 164 213 259 322 379
#     4  10  23  43  68  98 126 162 208 262 326 393
#     4  11  23  43  70  94 131 164 206 268 324 387
#     4  11  26  40  63  98 126 172 219 261 319 380
#     4  10  24  43  61  88 133 171 221 267 308 374
#
# _framework density 21.412998999999999
#
# number of rings (size 3 to 8) (size 9 to 14) (size 15 to 20)
#    0.000    1.429    1.429    2.571    8.000    5.714 
#    0.000    0.000    0.000    0.000    0.000    0.000 
#    0.000    0.000    0.000    0.000    0.000    0.000 
#
# Total GULP energy -78159.253994 kJ/mol
# GULP energy per Si atom -5582.803857 kJ/mol
# Density = 2.136426 g / cm^3
# Si number density = 21.412999 Si / 1000 Ang^3
#
#
#
# Elastic Constant Matrix: (Units=GPa)
#
#
# Indices 1 2 3 4 5 6 
#
# 1 32.0372 -4.8826 -18.4999 0.0000 -0.1917 0.0000
# 2 -4.8826 56.9867 24.2770 0.0000 -1.6202 0.0000
# 3 -18.4999 24.2770 104.8546 0.0000 1.6862 0.0000
# 4 0.0000 0.0000 0.0000 28.2404 0.0000 3.8597
# 5 -0.1917 -1.6202 1.6862 0.0000 22.7318 0.0000
# 6 0.0000 0.0000 0.0000 3.8597 0.0000 24.3341
#
#
#
# Elastic Compliance Matrix: (Units=1/GPa)
#
#
# Indices 1 2 3 4 5 6 
#
# 1 0.034763 0.000401 0.006043 0.000000 -0.000127 0.000000
# 2 0.000401 0.019541 -0.004481 0.000000 0.001729 0.000000
# 3 0.006043 -0.004481 0.011659 0.000000 -0.001133 0.000000
# 4 0.000000 0.000000 0.000000 0.036195 0.000000 -0.005741
# 5 -0.000127 0.001729 -0.001133 0.000000 0.044197 0.000000
# 6 0.000000 0.000000 0.000000 -0.005741 0.000000 0.042005
#
#
# Mechanical properties :
#
#
# Convention : Reuss Voigt Hill
#
# Bulk Modulus (GPa) = 14.30884 21.74084 18.02484
# Shear Modulus (GPa) = 24.06949 27.92686 25.99818
#
# Velocity S-wave (km/s) = 3.35634 3.61529 3.48822
# Velocity P-wave (km/s) = 4.66013 5.25378 4.96584
#
# Compressibility (1/GPa) = 0.06988685
#
# Stress axis : x y z
#
# Youngs Moduli (GPa) = 28.76593 51.17566 85.77114
#
# Poissons Ratio (x) = -0.02050 -0.51829
# Poissons Ratio (y) = -0.01153 0.38437
# Poissons Ratio (z) = -0.17382 0.22933
#
# Static dielectric constant tensor:
#      x y z
#    x 1.805580 0.000000 0.011830 
#    y 0.000000 1.761270 0.000000 
#    z 0.011830 0.000000 1.776620 
# 
# From -- ./inp_files/52369.got.cif
#   From: 2010.05.17/outbox.cif.g08.bks.cpg/sg5_27_cif.got.tgz:52369.got - 2010.06.03 18:56:24.
