data_PCOD9127246
_publ_section_title
;
Structure prediction by ZEFSAII (Michael W. Deem and Ramdas Pophale) SiO2 
 PCOD9127246
Probable space group: C 2
;
_chemical_formula_sum "Si O2"
_cell_formula_units_Z 32
_cell_length_a 22.693141
_cell_length_b 8.950440
_cell_length_c 15.351305
_cell_angle_alpha 90.000000
_cell_angle_beta 153.288990
_cell_angle_gamma 90.000000
_cell_volume 1401.538301
_symmetry_space_group_name_H-M "C 2"
_symmetry_group_IT_number 5
_symmetry_cell_setting 'monoclinic'
loop_
_space_group_symop_operation_xyz
x,y,z
-x,y,-z
1/2+x,1/2+y,z
1/2-x,1/2+y,-z
loop_
_atom_site_type_symbol
_atom_site_label
_atom_site_fract_x
_atom_site_fract_y
_atom_site_fract_z
Si Si1 0.833300 0.254880 0.100061
Si Si2 0.600644 0.605435 0.462705
Si Si3 0.984009 0.746580 0.078742
Si Si4 0.770819 0.294964 0.508522
Si Si5 0.180765 0.767863 0.575249
Si Si6 0.147531 0.660791 0.704593
Si Si7 0.994106 0.521510 0.742223
Si Si8 0.794043 0.321562 0.245617
O O1 0.795648 0.252740 0.151368
O O2 0.950590 0.137256 0.241156
O O3 0.897799 0.414464 0.158103
O O4 0.713927 0.211755 0.880994
O O5 0.691135 0.653468 0.500743
O O6 0.625644 0.433749 0.513083
O O7 0.636389 0.714546 0.591448
O O8 0.117635 0.824915 0.286730
O O9 0.960888 0.605346 0.111157
O O10 0.854265 0.844006 0.917688
O O11 0.000000 0.701344 0.000000
O O12 0.777442 0.266787 0.620220
O O13 0.870283 0.419466 0.606231
O O14 0.234967 0.722092 0.740210
O O15 0.066701 0.648369 0.400525
O O16 0.143393 0.483390 0.684148
O O17 0.000000 0.720891 0.500000
#
# Coordination Sequence:
#
# PCOD9127246 Si02
#       8
#     4   4   4   4   4   4   4   4
#     4  11  28  47  75 105 141 194 243 298 379 429
#     4  11  24  47  72 109 143 191 243 303 365 441
#     4  11  24  42  74 109 140 192 244 290 367 429
#     4  10  22  44  72 102 148 188 238 296 367 429
#     4  11  24  42  73 104 141 192 240 299 365 428
#     4  12  29  48  70 105 145 193 249 305 367 440
#     4  10  24  47  74 102 148 190 239 307 358 438
#     4  12  27  48  74 103 152 191 240 308 366 444
#
# _framework density 22.832055
#
# number of rings (size 3 to 8) (size 9 to 14) (size 15 to 20)
#    0.000    1.000    1.250    4.875   10.500    1.000 
#    0.000    1.875    0.000    0.000    0.000    0.000 
#    0.000    0.000    0.000    0.000    0.000    0.000 
#
# Total GULP energy -89580.617273 kJ/mol
# GULP energy per Si atom -5598.788580 kJ/mol
# Density = 2.278009 g / cm^3
# Si number density = 22.832055 Si / 1000 Ang^3
#
#
#
# Elastic Constant Matrix: (Units=GPa)
#
#
# Indices 1 2 3 4 5 6 
#
# 1 118.8447 15.6106 40.6234 0.0000 -9.8452 0.0000
# 2 15.6106 105.7657 9.2569 0.0000 0.5530 0.0000
# 3 40.6234 9.2569 83.9173 0.0000 9.7030 0.0000
# 4 0.0000 0.0000 0.0000 20.9081 0.0000 -10.2773
# 5 -9.8452 0.5530 9.7030 0.0000 46.5031 0.0000
# 6 0.0000 0.0000 0.0000 -10.2773 0.0000 26.5476
#
#
#
# Elastic Compliance Matrix: (Units=1/GPa)
#
#
# Indices 1 2 3 4 5 6 
#
# 1 0.010710 -0.001121 -0.005456 0.000000 0.003419 0.000000
# 2 -0.001121 0.009665 -0.000495 0.000000 -0.000249 0.000000
# 3 -0.005456 -0.000495 0.015110 0.000000 -0.004302 0.000000
# 4 0.000000 0.000000 0.000000 0.059069 0.000000 0.022867
# 5 0.003419 -0.000249 -0.004302 0.000000 0.023128 0.000000
# 6 0.000000 0.000000 0.000000 0.022867 0.000000 0.046521
#
#
# Mechanical properties :
#
#
# Convention : Reuss Voigt Hill
#
# Bulk Modulus (GPa) = 46.85879 48.83440 47.84659
# Shear Modulus (GPa) = 26.96008 34.99422 30.97715
#
# Velocity S-wave (km/s) = 3.44000 3.91919 3.68739
# Velocity P-wave (km/s) = 6.02876 6.47418 6.25544
#
# Compressibility (1/GPa) = 0.02134072
#
# Stress axis : x y z
#
# Youngs Moduli (GPa) = 93.37173 103.46700 66.18240
#
# Poissons Ratio (x) = 0.11599 0.36110
# Poissons Ratio (y) = 0.10468 0.03274
# Poissons Ratio (z) = 0.50946 0.05118
#
# Static dielectric constant tensor:
#      x y z
#    x 1.863220 0.000000 -0.013140 
#    y 0.000000 1.854370 0.000000 
#    z -0.013140 0.000000 1.849690 
# 
# From -- ./inp_files/57707.got.cif
#   From: 2010.05.17/outbox.cif.g08.bks.cpg/sg5_29_cif.got.tgz:57707.got - 2010.06.03 18:56:24.
