data_PCOD9127827
_publ_section_title
;
Structure prediction by ZEFSAII (Michael W. Deem and Ramdas Pophale) SiO2 
 PCOD9127827
Probable space group: C 2
;
_chemical_formula_sum "Si O2"
_cell_formula_units_Z 24
_cell_length_a 16.253546
_cell_length_b 9.648117
_cell_length_c 14.671182
_cell_angle_alpha 90.000000
_cell_angle_beta 156.235618
_cell_angle_gamma 90.000000
_cell_volume 927.118908
_symmetry_space_group_name_H-M "C 2"
_symmetry_group_IT_number 5
_symmetry_cell_setting 'monoclinic'
loop_
_space_group_symop_operation_xyz
x,y,z
-x,y,-z
1/2+x,1/2+y,z
1/2-x,1/2+y,-z
loop_
_atom_site_type_symbol
_atom_site_label
_atom_site_fract_x
_atom_site_fract_y
_atom_site_fract_z
Si Si1 0.500000 0.453400 0.000000
Si Si2 0.500000 0.148460 0.500000
Si Si3 0.723745 0.237004 0.322218
Si Si4 0.509752 0.951216 0.684659
Si Si5 0.625084 0.708695 0.016641
Si Si6 0.095726 0.819245 0.846900
Si Si7 0.286200 0.941410 0.639264
O O1 0.316954 0.344497 0.801128
O O2 0.475848 0.562194 0.058074
O O3 0.478838 0.050100 0.566817
O O4 0.295183 0.231899 0.268749
O O5 0.924357 0.297876 0.572821
O O6 0.535656 0.266228 0.200997
O O7 0.731574 0.074024 0.312971
O O8 0.740886 0.214288 0.939016
O O9 0.367577 0.999887 0.623866
O O10 0.762010 0.428151 0.050073
O O11 0.456766 0.828484 0.838422
O O12 0.931383 0.875767 0.607037
#
# Coordination Sequence:
#
# PCOD9127827 Si02
#       7
#     2   2   4   4   4   4   4
#     4  12  26  48  76 110 152 196 250 324 382 436
#     4  12  22  44  76 114 156 194 254 320 382 450
#     4  11  24  45  73 110 152 195 249 319 377 447
#     4  10  23  42  73 111 150 199 258 312 373 455
#     4  11  26  45  75 109 152 200 253 309 378 462
#     4  10  24  46  74 108 153 209 252 304 377 469
#     4  10  25  48  74 108 154 205 256 307 380 462
#
# _framework density 25.886647
#
# number of rings (size 3 to 8) (size 9 to 14) (size 15 to 20)
#    0.000    1.333    1.667    2.000    2.333   16.667 
#    0.000    0.000    3.667    0.000    0.000    0.000 
#    0.000    0.000    0.000    0.000    0.000    0.000 
#
# Total GULP energy -67138.355221 kJ/mol
# GULP energy per Si atom -5594.862935 kJ/mol
# Density = 2.582773 g / cm^3
# Si number density = 25.886647 Si / 1000 Ang^3
#
#
#
# Elastic Constant Matrix: (Units=GPa)
#
#
# Indices 1 2 3 4 5 6 
#
# 1 113.8470 34.4292 11.5887 0.0002 2.7133 0.0001
# 2 34.4292 188.0511 81.9231 0.0002 0.7829 0.0001
# 3 11.5887 81.9231 200.4838 0.0002 13.4856 0.0003
# 4 0.0002 0.0002 0.0002 41.6217 0.0002 -5.0137
# 5 2.7133 0.7829 13.4856 0.0002 38.1949 0.0002
# 6 0.0001 0.0001 0.0003 -5.0137 0.0002 30.2649
#
#
#
# Elastic Compliance Matrix: (Units=1/GPa)
#
#
# Indices 1 2 3 4 5 6 
#
# 1 0.009324 -0.001813 0.000250 0.000000 -0.000713 0.000000
# 2 -0.001813 0.006847 -0.002758 0.000000 0.000962 0.000000
# 3 0.000250 -0.002758 0.006246 0.000000 -0.002167 0.000000
# 4 0.000000 0.000000 0.000000 0.024515 0.000000 0.004061
# 5 -0.000713 0.000962 -0.002167 0.000000 0.026977 0.000000
# 6 0.000000 0.000000 0.000000 0.004061 0.000000 0.033714
#
#
# Mechanical properties :
#
#
# Convention : Reuss Voigt Hill
#
# Bulk Modulus (GPa) = 72.59514 84.25155 78.42334
# Shear Modulus (GPa) = 41.37122 46.97903 44.17512
#
# Velocity S-wave (km/s) = 4.00205 4.26467 4.13544
# Velocity P-wave (km/s) = 7.03275 7.54101 7.29131
#
# Compressibility (1/GPa) = 0.01377503
#
# Stress axis : x y z
#
# Youngs Moduli (GPa) = 107.25555 146.04885 160.09877
#
# Poissons Ratio (x) = 0.26477 -0.04000
# Poissons Ratio (y) = 0.19444 0.44152
# Poissons Ratio (z) = -0.02680 0.40277
#
# Static dielectric constant tensor:
#      x y z
#    x 2.107040 0.000000 -0.017290 
#    y 0.000000 2.080820 0.000000 
#    z -0.017290 0.000000 2.084310 
# 
# From -- ./inp_files/63327.got.cif
#   From: 2010.05.17/outbox.cif.g08.bks.cpg/sg5_32_cif.got.tgz:63327.got - 2010.06.03 18:56:24.
