data_PCOD9127951
_publ_section_title
;
Structure prediction by ZEFSAII (Michael W. Deem and Ramdas Pophale) SiO2 
 PCOD9127951
Probable space group: C 2
;
_chemical_formula_sum "Si O2"
_cell_formula_units_Z 30
_cell_length_a 11.264173
_cell_length_b 13.154809
_cell_length_c 9.165579
_cell_angle_alpha 90.000000
_cell_angle_beta 72.616950
_cell_angle_gamma 90.000000
_cell_volume 1296.109735
_symmetry_space_group_name_H-M "C 2"
_symmetry_group_IT_number 5
_symmetry_cell_setting 'monoclinic'
loop_
_space_group_symop_operation_xyz
x,y,z
-x,y,-z
1/2+x,1/2+y,z
1/2-x,1/2+y,-z
loop_
_atom_site_type_symbol
_atom_site_label
_atom_site_fract_x
_atom_site_fract_y
_atom_site_fract_z
Si Si1 0.883339 0.843610 0.942782
Si Si2 0.208454 0.328433 0.261264
Si Si3 0.473560 0.948053 0.338542
Si Si4 0.801798 0.927224 0.490387
Si Si5 0.000000 0.755023 0.500000
Si Si6 0.625059 0.637068 0.382878
Si Si7 0.127520 0.072234 0.048744
Si Si8 0.378141 0.138499 0.781639
O O1 0.915685 0.748356 0.832876
O O2 0.849307 0.955738 0.903626
O O3 0.775592 0.808409 0.087771
O O4 0.000000 0.863200 0.000000
O O5 0.267564 0.422548 0.330234
O O6 0.220458 0.230088 0.358786
O O7 0.068626 0.357694 0.272489
O O8 0.500000 0.968238 0.500000
O O9 0.330956 0.914628 0.378793
O O10 0.522290 0.047154 0.233339
O O11 0.904502 0.840060 0.469267
O O12 0.846958 0.034650 0.538232
O O13 0.100577 0.674857 0.392628
O O14 0.500000 0.677430 0.500000
O O15 0.613361 0.624075 0.212395
O O16 0.246434 0.106379 0.904392
O O17 0.000000 0.082259 0.000000
#
# Coordination Sequence:
#
# PCOD9127951 Si02
#       8
#     4   4   4   4   2   4   4   4
#     4  11  24  42  70 100 149 191 246 306 388 444
#     4  11  24  46  71 104 144 198 249 315 380 452
#     4  10  23  44  69 102 141 195 249 315 378 449
#     4  11  26  44  69 109 148 183 255 321 373 444
#     4  12  26  46  70 108 144 196 252 320 384 456
#     4  12  26  46  74 108 147 199 260 305 389 453
#     4  11  27  48  74 110 156 203 249 327 385 460
#     4  12  24  45  73 105 145 195 262 300 385 466
#
# _framework density 23.146190000000001
#
# number of rings (size 3 to 8) (size 9 to 14) (size 15 to 20)
#    0.000    0.800    4.000    2.800    7.467    2.133 
#    0.000    0.000    0.000    0.000    0.000    0.000 
#    0.000    0.000    0.000    0.000    0.000    0.000 
#
# Total GULP energy -83536.888570 kJ/mol
# GULP energy per Si atom -5569.125905 kJ/mol
# Density = 2.309351 g / cm^3
# Si number density = 23.146190 Si / 1000 Ang^3
#
#
#
# Elastic Constant Matrix: (Units=GPa)
#
#
# Indices 1 2 3 4 5 6 
#
# 1 79.7060 15.7826 20.8226 0.0000 -17.6297 0.0000
# 2 15.7826 123.7552 27.0262 0.0000 -8.9812 0.0000
# 3 20.8226 27.0262 60.2751 0.0000 -23.9369 0.0000
# 4 0.0000 0.0000 0.0000 54.6248 0.0000 -14.2282
# 5 -17.6297 -8.9812 -23.9369 0.0000 31.9482 0.0000
# 6 0.0000 0.0000 0.0000 -14.2282 0.0000 -8.6521
#
#
#
# Elastic Compliance Matrix: (Units=1/GPa)
#
#
# Indices 1 2 3 4 5 6 
#
# 1 0.014674 -0.000945 -0.002186 0.000000 0.006194 0.000000
# 2 -0.000945 0.009029 -0.004159 0.000000 -0.001099 0.000000
# 3 -0.002186 -0.004159 0.026005 0.000000 0.017108 0.000000
# 4 0.000000 0.000000 0.000000 0.012817 0.000000 -0.021077
# 5 0.006194 -0.001099 0.017108 0.000000 0.047228 0.000000
# 6 0.000000 0.000000 0.000000 -0.021077 0.000000 -0.080919
#
#
# Mechanical properties :
#
#
# Convention : Reuss Voigt Hill
#
# Bulk Modulus (GPa) = 28.46565 43.44434 35.95500
# Shear Modulus (GPa) = 90.70645 28.92451 59.81548
#
# Velocity S-wave (km/s) = 6.26686 3.53887 5.08906
# Velocity P-wave (km/s) = 8.04299 5.95889 7.07807
#
# Compressibility (1/GPa) = 0.03513006
#
# Stress axis : x y z
#
# Youngs Moduli (GPa) = 68.14654 110.74973 38.45474
#
# Poissons Ratio (x) = 0.10460 0.08406
# Poissons Ratio (y) = 0.06437 0.15992
# Poissons Ratio (z) = 0.14897 0.46057
#
# Static dielectric constant tensor:
#      x y z
#    x 1.823260 0.000000 0.058710 
#    y 0.000000 1.956450 0.000000 
#    z 0.058710 0.000000 1.892210 
# 
# From -- ./inp_files/20602.got.cif
#   From: 2010.05.17/outbox.cif.g08.bks.cpg/sg5_11_cif.got.tgz:20602.got - 2010.06.03 18:56:24.
