data_PCOD9127335
_publ_section_title
;
Structure prediction by ZEFSAII (Michael W. Deem and Ramdas Pophale) SiO2 
 PCOD9127335
Probable space group: C 2
;
_chemical_formula_sum "Si O2"
_cell_formula_units_Z 24
_cell_length_a 13.958234
_cell_length_b 6.121820
_cell_length_c 13.761237
_cell_angle_alpha 90.000000
_cell_angle_beta 120.045326
_cell_angle_gamma 90.000000
_cell_volume 1017.889415
_symmetry_space_group_name_H-M "C 2"
_symmetry_group_IT_number 5
_symmetry_cell_setting 'monoclinic'
loop_
_space_group_symop_operation_xyz
x,y,z
-x,y,-z
1/2+x,1/2+y,z
1/2-x,1/2+y,-z
loop_
_atom_site_type_symbol
_atom_site_label
_atom_site_fract_x
_atom_site_fract_y
_atom_site_fract_z
Si Si1 0.696482 0.193590 0.223191
Si Si2 0.761679 0.524287 0.134643
Si Si3 0.500000 0.532553 0.500000
Si Si4 0.500000 0.061466 0.000000
Si Si5 0.597383 0.411029 0.745253
Si Si6 0.763895 0.165755 0.459267
Si Si7 0.905611 0.219472 0.087450
O O1 0.750025 0.432555 0.236709
O O2 0.601001 0.195782 0.094126
O O3 0.676132 0.157552 0.325453
O O4 0.786346 0.017730 0.232176
O O5 0.862932 0.690743 0.185772
O O6 0.799884 0.330785 0.084135
O O7 0.648620 0.613563 0.034686
O O8 0.527968 0.397616 0.611740
O O9 0.388543 0.663326 0.474960
O O10 0.480449 0.906450 0.082601
O O11 0.547009 0.562577 0.805139
O O12 0.748198 0.414405 0.498997
#
# Coordination Sequence:
#
# PCOD9127335 Si02
#       7
#     4   4   2   2   4   4   4
#     4  10  25  43  67 100 146 184 236 306 369 452
#     4  11  20  43  67  92 137 187 231 292 363 445
#     4  10  26  50  78 108 150 210 250 322 390 450
#     4  12  24  40  62 108 144 180 228 300 384 434
#     4  10  22  45  69  98 135 191 243 294 370 449
#     4  11  28  52  79 113 154 204 264 322 379 458
#     4  11  22  37  66  99 134 177 231 290 360 445
#
# _framework density 23.578202000000001
#
# number of rings (size 3 to 8) (size 9 to 14) (size 15 to 20)
#    0.000    1.333    3.333    1.000    7.000    2.667 
#    3.000    0.000    0.000    0.000    0.000    0.000 
#    0.000    0.000    0.000    0.000    0.000    0.000 
#
# Total GULP energy -66826.271240 kJ/mol
# GULP energy per Si atom -5568.855937 kJ/mol
# Density = 2.352454 g / cm^3
# Si number density = 23.578202 Si / 1000 Ang^3
#
#
#
# Elastic Constant Matrix: (Units=GPa)
#
#
# Indices 1 2 3 4 5 6 
#
# 1 63.7956 28.4911 13.2297 0.0000 -10.2950 0.0000
# 2 28.4911 105.5968 43.1006 0.0000 -17.8420 0.0000
# 3 13.2297 43.1006 152.3246 0.0000 -7.5692 0.0000
# 4 0.0000 0.0000 0.0000 24.5258 0.0000 -7.7110
# 5 -10.2950 -17.8420 -7.5692 0.0000 30.5435 0.0000
# 6 0.0000 0.0000 0.0000 -7.7110 0.0000 28.6099
#
#
#
# Elastic Compliance Matrix: (Units=1/GPa)
#
#
# Indices 1 2 3 4 5 6 
#
# 1 0.018182 -0.004209 -0.000208 0.000000 0.003618 0.000000
# 2 -0.004209 0.012707 -0.002968 0.000000 0.005269 0.000000
# 3 -0.000208 -0.002968 0.007425 0.000000 0.000036 0.000000
# 4 0.000000 0.000000 0.000000 0.044549 0.000000 0.012007
# 5 0.003618 0.005269 0.000036 0.000000 0.037046 0.000000
# 6 0.000000 0.000000 0.000000 0.012007 0.000000 0.038189
#
#
# Mechanical properties :
#
#
# Convention : Reuss Voigt Hill
#
# Bulk Modulus (GPa) = 42.47666 54.59553 48.53609
# Shear Modulus (GPa) = 27.66755 32.52886 30.09821
#
# Velocity S-wave (km/s) = 3.42926 3.71835 3.57673
# Velocity P-wave (km/s) = 5.80811 6.45292 6.13899
#
# Compressibility (1/GPa) = 0.02354234
#
# Stress axis : x y z
#
# Youngs Moduli (GPa) = 54.99945 78.69409 134.68621
#
# Poissons Ratio (x) = 0.33125 0.02806
# Poissons Ratio (y) = 0.23151 0.39978
# Poissons Ratio (z) = 0.01146 0.23358
#
# Static dielectric constant tensor:
#      x y z
#    x 1.976430 0.000000 -0.022670 
#    y 0.000000 1.949720 0.000000 
#    z -0.022670 0.000000 1.907870 
# 
# From -- ./inp_files/53759.got.cif
#   From: 2010.05.17/outbox.cif.g08.bks.cpg/sg5_27_cif.got.tgz:53759.got - 2010.06.03 18:56:24.
