data_PCOD9127744
_publ_section_title
;
Structure prediction by ZEFSAII (Michael W. Deem and Ramdas Pophale) SiO2 
 PCOD9127744
Probable space group: C 2
;
_chemical_formula_sum "Si O2"
_cell_formula_units_Z 30
_cell_length_a 9.134746
_cell_length_b 14.486813
_cell_length_c 11.699056
_cell_angle_alpha 90.000000
_cell_angle_beta 87.731628
_cell_angle_gamma 90.000000
_cell_volume 1546.962199
_symmetry_space_group_name_H-M "C 2"
_symmetry_group_IT_number 5
_symmetry_cell_setting 'monoclinic'
loop_
_space_group_symop_operation_xyz
x,y,z
-x,y,-z
1/2+x,1/2+y,z
1/2-x,1/2+y,-z
loop_
_atom_site_type_symbol
_atom_site_label
_atom_site_fract_x
_atom_site_fract_y
_atom_site_fract_z
Si Si1 0.105306 0.092550 0.104090
Si Si2 0.665004 0.093494 0.435914
Si Si3 0.980182 0.250601 0.727891
Si Si4 0.368282 0.082900 0.936844
Si Si5 0.670989 0.938657 0.240268
Si Si6 0.000000 0.130773 0.500000
Si Si7 0.508317 0.398559 0.860731
Si Si8 0.809903 0.739533 0.758388
O O1 0.103087 0.183477 0.180537
O O2 0.254017 0.063216 0.039332
O O3 0.050653 0.000953 0.169316
O O4 0.000000 0.110753 0.000000
O O5 0.500000 0.084280 0.500000
O O6 0.657523 0.190306 0.364515
O O7 0.828081 0.089207 0.495063
O O8 0.679501 0.012011 0.342190
O O9 0.904282 0.347306 0.713507
O O10 0.991287 0.191830 0.613153
O O11 0.143979 0.273589 0.763115
O O12 0.309041 0.156011 0.848937
O O13 0.406844 0.992195 0.862883
O O14 0.500000 0.127828 0.000000
O O15 0.825195 0.905235 0.184578
O O16 0.420564 0.318061 0.798506
O O17 0.500000 0.388843 0.000000
#
# Coordination Sequence:
#
# PCOD9127744 Si02
#       8
#     4   4   4   4   4   2   4   4
#     4  11  21  41  63  87 131 175 207 261 325 388
#     4  10  24  49  73  94 133 170 227 281 334 397
#     4  11  25  42  68  92 132 169 224 272 330 394
#     4  11  23  38  60  93 133 172 216 261 325 394
#     4  11  25  42  62 101 132 169 218 278 327 399
#     4  10  24  48  70  94 128 186 220 276 344 390
#     4  11  22  39  64  95 136 174 217 259 328 402
#     4  10  23  42  62  96 130 169 217 272 327 391
#
# _framework density 19.392845999999999
#
# number of rings (size 3 to 8) (size 9 to 14) (size 15 to 20)
#    0.000    1.333    4.000    2.000    8.400    1.600 
#    2.400    0.000    1.467    0.000    0.000    0.000 
#    0.000    0.000    0.000    0.000    0.000    0.000 
#
# Total GULP energy -83512.998360 kJ/mol
# GULP energy per Si atom -5567.533224 kJ/mol
# Density = 1.934871 g / cm^3
# Si number density = 19.392846 Si / 1000 Ang^3
#
#
#
# Elastic Constant Matrix: (Units=GPa)
#
#
# Indices 1 2 3 4 5 6 
#
# 1 92.8042 6.3145 34.8450 0.0000 4.0082 0.0000
# 2 6.3145 76.6087 14.3863 0.0000 14.7633 0.0000
# 3 34.8450 14.3863 55.9163 0.0000 -1.3111 0.0000
# 4 0.0000 0.0000 0.0000 12.2510 0.0000 6.0517
# 5 4.0082 14.7633 -1.3111 0.0000 15.2723 0.0000
# 6 0.0000 0.0000 0.0000 6.0517 0.0000 29.1646
#
#
#
# Elastic Compliance Matrix: (Units=1/GPa)
#
#
# Indices 1 2 3 4 5 6 
#
# 1 0.014575 0.001869 -0.009715 0.000000 -0.006466 0.000000
# 2 0.001869 0.017497 -0.006087 0.000000 -0.017927 0.000000
# 3 -0.009715 -0.006087 0.025754 0.000000 0.010645 0.000000
# 4 0.000000 0.000000 0.000000 0.090948 0.000000 -0.018872
# 5 -0.006466 -0.017927 0.010645 0.000000 0.085418 0.000000
# 6 0.000000 0.000000 0.000000 -0.018872 0.000000 0.038204
#
#
# Mechanical properties :
#
#
# Convention : Reuss Voigt Hill
#
# Bulk Modulus (GPa) = 33.37772 37.38007 35.37889
# Shear Modulus (GPa) = 16.11611 22.65649 19.38630
#
# Velocity S-wave (km/s) = 2.88589 3.42174 3.16517
# Velocity P-wave (km/s) = 5.32477 5.91000 5.62500
#
# Compressibility (1/GPa) = 0.02996011
#
# Stress axis : x y z
#
# Youngs Moduli (GPa) = 68.60954 57.15264 38.82941
#
# Poissons Ratio (x) = -0.10683 0.37724
# Poissons Ratio (y) = -0.12824 0.23635
# Poissons Ratio (z) = 0.66656 0.34788
#
# Static dielectric constant tensor:
#      x y z
#    x 1.508640 0.000000 0.053430 
#    y 0.000000 1.659310 0.000000 
#    z 0.053430 0.000000 1.660990 
# 
# From -- ./inp_files/36152.got.cif
#   From: 2010.05.17/outbox.cif.g08.bks.cpg/sg5_19_cif.got.tgz:36152.got - 2010.06.03 18:56:24.
