data_PCOD9127750
_publ_section_title
;
Structure prediction by ZEFSAII (Michael W. Deem and Ramdas Pophale) SiO2 
 PCOD9127750
Probable space group: C 2
;
_chemical_formula_sum "Si O2"
_cell_formula_units_Z 24
_cell_length_a 15.406545
_cell_length_b 7.462424
_cell_length_c 19.402751
_cell_angle_alpha 90.000000
_cell_angle_beta 28.695462
_cell_angle_gamma 90.000000
_cell_volume 1071.097635
_symmetry_space_group_name_H-M "C 2"
_symmetry_group_IT_number 5
_symmetry_cell_setting 'monoclinic'
loop_
_space_group_symop_operation_xyz
x,y,z
-x,y,-z
1/2+x,1/2+y,z
1/2-x,1/2+y,-z
loop_
_atom_site_type_symbol
_atom_site_label
_atom_site_fract_x
_atom_site_fract_y
_atom_site_fract_z
Si Si1 0.457988 0.637930 0.792740
Si Si2 0.205303 0.566659 0.358324
Si Si3 0.709156 0.693411 0.847165
Si Si4 0.754720 0.657712 0.346210
Si Si5 0.565853 0.546660 0.342055
Si Si6 0.647119 0.222212 0.108925
O O1 0.649056 0.672708 0.697127
O O2 0.454187 0.662148 0.713480
O O3 0.413566 0.425856 0.833551
O O4 0.297437 0.731369 0.945524
O O5 0.274557 0.566464 0.230901
O O6 0.203940 0.367315 0.391286
O O7 0.000000 0.635739 0.500000
O O8 0.770498 0.630908 0.880097
O O9 0.846560 0.855682 0.735971
O O10 0.500000 0.752032 0.000000
O O11 0.700577 0.622871 0.305511
O O12 0.627590 0.545425 0.485623
O O13 0.964497 0.626031 0.212686
#
# Coordination Sequence:
#
# PCOD9127750 Si02
#       6
#     4   4   4   4   4   4
#     4  10  23  42  63  93 127 164 212 259 312 374
#     4  11  23  43  64  93 131 165 211 260 315 381
#     4  11  24  43  65  95 129 165 210 261 320 379
#     4  10  23  45  63  91 126 165 216 260 313 373
#     4  10  23  43  63  92 125 163 215 260 312 369
#     4  10  23  42  63  93 126 165 210 259 314 376
#
# _framework density 22.40692
#
# number of rings (size 3 to 8) (size 9 to 14) (size 15 to 20)
#    0.000    1.667    3.333    0.000    9.333    1.333 
#    0.000    0.000    0.000    0.000    0.000    0.000 
#    0.000    0.000    0.000    0.000    0.000    0.000 
#
# Total GULP energy -67051.071568 kJ/mol
# GULP energy per Si atom -5587.589297 kJ/mol
# Density = 2.235592 g / cm^3
# Si number density = 22.406920 Si / 1000 Ang^3
#
#
#
# Elastic Constant Matrix: (Units=GPa)
#
#
# Indices 1 2 3 4 5 6 
#
# 1 197.4325 0.5709 106.0182 0.0016 -6.9031 -0.0006
# 2 0.5709 34.1727 39.3633 0.0018 -3.0618 -0.0006
# 3 106.0182 39.3633 147.3436 0.0027 -11.9232 -0.0010
# 4 0.0016 0.0018 0.0027 27.4512 -0.0008 8.6035
# 5 -6.9031 -3.0618 -11.9232 -0.0008 46.3479 0.0002
# 6 -0.0006 -0.0006 -0.0010 8.6035 0.0002 20.4020
#
#
#
# Elastic Compliance Matrix: (Units=1/GPa)
#
#
# Indices 1 2 3 4 5 6 
#
# 1 0.011297 0.013255 -0.011706 0.000000 -0.000453 0.000000
# 2 0.013255 0.057825 -0.025038 -0.000003 -0.000647 0.000002
# 3 -0.011706 -0.025038 0.022084 0.000000 0.002283 0.000000
# 4 0.000000 -0.000003 0.000000 0.041976 0.000001 -0.017701
# 5 -0.000453 -0.000647 0.002283 0.000001 0.022053 0.000000
# 6 0.000000 0.000002 0.000000 -0.017701 0.000000 0.056479
#
#
# Mechanical properties :
#
#
# Convention : Reuss Voigt Hill
#
# Bulk Modulus (GPa) = 22.61058 74.53930 48.57494
# Shear Modulus (GPa) = 18.28592 34.37330 26.32961
#
# Velocity S-wave (km/s) = 2.85982 3.92094 3.43164
# Velocity P-wave (km/s) = 4.58449 7.33736 6.11777
#
# Compressibility (1/GPa) = 0.04422709
#
# Stress axis : x y z
#
# Youngs Moduli (GPa) = 88.51940 17.29367 45.28238
#
# Poissons Ratio (x) = -0.22923 0.53009
# Poissons Ratio (y) = -1.17333 1.13377
# Poissons Ratio (z) = 1.03624 0.43300
#
# Static dielectric constant tensor:
#      x y z
#    x 1.830000 0.000000 0.011220 
#    y 0.000000 1.895980 0.000000 
#    z 0.011220 0.000000 1.798880 
# 
# From -- ./inp_files/22868.got.cif
#   From: 2010.05.17/outbox.cif.g08.bks.cpg/sg5_12_cif.got.tgz:22868.got - 2010.06.03 18:56:24.
