data_PCOD9127674
_publ_section_title
;
Structure prediction by ZEFSAII (Michael W. Deem and Ramdas Pophale) SiO2 
 PCOD9127674
Probable space group: C 2
;
_chemical_formula_sum "Si O2"
_cell_formula_units_Z 28
_cell_length_a 10.684221
_cell_length_b 9.871470
_cell_length_c 19.189703
_cell_angle_alpha 90.000000
_cell_angle_beta 31.846366
_cell_angle_gamma 90.000000
_cell_volume 1067.907035
_symmetry_space_group_name_H-M "C 2"
_symmetry_group_IT_number 5
_symmetry_cell_setting 'monoclinic'
loop_
_space_group_symop_operation_xyz
x,y,z
-x,y,-z
1/2+x,1/2+y,z
1/2-x,1/2+y,-z
loop_
_atom_site_type_symbol
_atom_site_label
_atom_site_fract_x
_atom_site_fract_y
_atom_site_fract_z
Si Si1 0.091743 0.569470 0.119988
Si Si2 0.000000 0.410812 0.500000
Si Si3 0.356185 0.057972 0.739917
Si Si4 0.000000 0.838548 0.500000
Si Si5 0.118876 0.130503 0.729728
Si Si6 0.380099 0.298793 0.410925
Si Si7 0.990734 0.840087 0.923164
Si Si8 0.227450 0.462245 0.845496
O O1 0.094483 0.719825 0.086033
O O2 0.869247 0.508566 0.183551
O O3 0.086090 0.574144 0.206121
O O4 0.300982 0.461653 0.006622
O O5 0.796869 0.507374 0.626474
O O6 0.874317 0.322122 0.501101
O O7 0.571586 0.138657 0.599852
O O8 0.142102 0.141815 0.802327
O O9 0.248152 0.906553 0.785560
O O10 0.245033 0.757463 0.366561
O O11 0.075250 0.887731 0.540846
O O12 0.869895 0.084338 0.816648
O O13 0.576954 0.348499 0.262229
O O14 0.000000 0.800066 0.000000
O O15 0.000000 0.424384 0.000000
#
# Coordination Sequence:
#
# PCOD9127674 Si02
#       8
#     4   2   4   2   4   4   4   4
#     4  11  25  42  69  99 144 204 248 302 364 458
#     4   9  20  38  68  99 136 190 255 305 380 436
#     4  10  23  41  65 101 137 181 247 314 374 431
#     4   9  20  44  68  99 142 188 257 315 376 434
#     4   9  20  43  66  98 145 196 239 320 378 443
#     4  10  23  41  71 107 137 199 251 324 373 456
#     4  10  24  45  64 103 150 197 250 306 365 452
#     4  11  24  41  68 109 151 193 245 303 393 467
#
# _framework density 26.21951
#
# number of rings (size 3 to 8) (size 9 to 14) (size 15 to 20)
#    0.000    2.000    0.000    1.286    8.000    2.857 
#    7.714    0.000    0.000    0.000    0.000    0.000 
#    0.000    0.000    0.000    0.000    0.000    0.000 
#
# Total GULP energy -78153.673114 kJ/mol
# GULP energy per Si atom -5582.405222 kJ/mol
# Density = 2.615983 g / cm^3
# Si number density = 26.219510 Si / 1000 Ang^3
#
#
#
# Elastic Constant Matrix: (Units=GPa)
#
#
# Indices 1 2 3 4 5 6 
#
# 1 207.0562 38.2584 58.9847 0.0001 -17.6030 -0.0001
# 2 38.2584 84.9487 29.1251 -0.0001 -8.0520 0.0001
# 3 58.9847 29.1251 89.1985 -0.0011 -10.8414 0.0000
# 4 0.0001 -0.0001 -0.0011 18.8502 -0.0001 -18.1097
# 5 -17.6030 -8.0520 -10.8414 -0.0001 41.2674 0.0002
# 6 -0.0001 0.0001 0.0000 -18.1097 0.0002 49.3231
#
#
#
# Elastic Compliance Matrix: (Units=1/GPa)
#
#
# Indices 1 2 3 4 5 6 
#
# 1 0.006208 -0.001476 -0.003446 0.000000 0.001455 0.000000
# 2 -0.001476 0.013697 -0.003355 0.000000 0.001161 0.000000
# 3 -0.003446 -0.003355 0.014800 0.000001 0.001763 0.000001
# 4 0.000000 0.000000 0.000001 0.081961 0.000000 0.030093
# 5 0.001455 0.001161 0.001763 0.000000 0.025543 0.000000
# 6 0.000000 0.000000 0.000001 0.030093 0.000000 0.031324
#
#
# Mechanical properties :
#
#
# Convention : Reuss Voigt Hill
#
# Bulk Modulus (GPa) = 55.09798 70.43775 62.76786
# Shear Modulus (GPa) = 25.49249 38.87715 32.18482
#
# Velocity S-wave (km/s) = 3.12151 3.85484 3.50739
# Velocity P-wave (km/s) = 5.83537 6.83637 6.35561
#
# Compressibility (1/GPa) = 0.01814948
#
# Stress axis : x y z
#
# Youngs Moduli (GPa) = 161.08784 73.00835 67.56935
#
# Poissons Ratio (x) = 0.10779 0.23286
# Poissons Ratio (y) = 0.23783 0.22669
# Poissons Ratio (z) = 0.55514 0.24494
#
# Static dielectric constant tensor:
#      x y z
#    x 2.135860 0.000000 0.043440 
#    y 0.000000 2.149890 0.000000 
#    z 0.043440 0.000000 2.108410 
# 
# From -- ./inp_files/68350.got.cif
#   From: 2010.05.17/outbox.cif.g08.bks.cpg/sg5_35_cif.got.tgz:68350.got - 2010.06.03 18:56:24.
