data_PCOD9127786
_publ_section_title
;
Structure prediction by ZEFSAII (Michael W. Deem and Ramdas Pophale) SiO2 
 PCOD9127786
Probable space group: C 2
;
_chemical_formula_sum "Si O2"
_cell_formula_units_Z 22
_cell_length_a 11.715710
_cell_length_b 11.484866
_cell_length_c 14.915160
_cell_angle_alpha 90.000000
_cell_angle_beta 26.897609
_cell_angle_gamma 90.000000
_cell_volume 907.909692
_symmetry_space_group_name_H-M "C 2"
_symmetry_group_IT_number 5
_symmetry_cell_setting 'monoclinic'
loop_
_space_group_symop_operation_xyz
x,y,z
-x,y,-z
1/2+x,1/2+y,z
1/2-x,1/2+y,-z
loop_
_atom_site_type_symbol
_atom_site_label
_atom_site_fract_x
_atom_site_fract_y
_atom_site_fract_z
Si Si1 0.507201 0.829440 0.381625
Si Si2 0.729899 0.075995 0.234748
Si Si3 0.418674 0.156419 0.278564
Si Si4 0.378662 0.450383 0.464693
Si Si5 0.237832 0.610886 0.886264
Si Si6 0.000000 0.753956 0.500000
O O1 0.265086 0.768719 0.600095
O O2 0.369938 0.882669 0.391322
O O3 0.682291 0.724342 0.226915
O O4 0.650801 0.944270 0.315020
O O5 0.532932 0.130246 0.298219
O O6 0.721768 0.160760 0.326724
O O7 0.000000 0.073516 0.000000
O O8 0.229144 0.048942 0.394357
O O9 0.641034 0.149774 0.051043
O O10 0.533337 0.519416 0.280476
O O11 0.537994 0.347079 0.394701
O O12 0.000000 0.557486 0.000000
#
# Coordination Sequence:
#
# PCOD9127786 Si02
#       6
#     4   4   4   4   4   2
#     4  10  23  45  65  98 135 181 217 280 343 397
#     4  11  26  41  68 106 138 179 227 283 339 404
#     4  10  23  45  70  97 136 181 228 275 345 405
#     4  10  23  42  67  98 136 178 222 279 341 396
#     4  11  24  42  70  98 130 178 235 278 331 406
#     4  12  24  44  70  98 146 176 230 280 344 406
#
# _framework density 24.231484999999999
#
# number of rings (size 3 to 8) (size 9 to 14) (size 15 to 20)
#    0.000    1.455    1.818    1.636    2.545   10.182 
#    0.000    0.000    0.000    0.000    0.000    0.000 
#    0.000    0.000    0.000    0.000    0.000    0.000 
#
# Total GULP energy -61366.241936 kJ/mol
# GULP energy per Si atom -5578.749267 kJ/mol
# Density = 2.417633 g / cm^3
# Si number density = 24.231485 Si / 1000 Ang^3
#
#
#
# Elastic Constant Matrix: (Units=GPa)
#
#
# Indices 1 2 3 4 5 6 
#
# 1 37.3867 23.9023 20.2945 0.0110 4.9650 -0.0067
# 2 23.9023 183.8393 62.3745 0.0092 11.2252 0.0011
# 3 20.2945 62.3745 156.7988 -0.0037 18.3681 0.0049
# 4 0.0110 0.0092 -0.0037 25.7741 -0.0026 6.7001
# 5 4.9650 11.2252 18.3681 -0.0026 43.4300 0.0021
# 6 -0.0067 0.0011 0.0049 6.7001 0.0021 18.8002
#
#
#
# Elastic Compliance Matrix: (Units=1/GPa)
#
#
# Indices 1 2 3 4 5 6 
#
# 1 0.030242 -0.002970 -0.002543 -0.000017 -0.001614 0.000018
# 2 -0.002970 0.006595 -0.002187 -0.000001 -0.000440 0.000000
# 3 -0.002543 -0.002187 0.007866 0.000004 -0.002471 -0.000004
# 4 -0.000017 -0.000001 0.000004 0.042760 0.000004 -0.015239
# 5 -0.001614 -0.000440 -0.002471 0.000004 0.024369 -0.000004
# 6 0.000018 0.000000 -0.000004 -0.015239 -0.000004 0.058622
#
#
# Mechanical properties :
#
#
# Convention : Reuss Voigt Hill
#
# Bulk Modulus (GPa) = 34.12962 65.68527 49.90745
# Shear Modulus (GPa) = 25.55943 35.69777 30.62860
#
# Velocity S-wave (km/s) = 3.25130 3.84239 3.55914
# Velocity P-wave (km/s) = 5.31131 6.84482 6.12623
#
# Compressibility (1/GPa) = 0.02930006
#
# Stress axis : x y z
#
# Youngs Moduli (GPa) = 33.06712 151.63573 127.12295
#
# Poissons Ratio (x) = 0.45042 0.32334
# Poissons Ratio (y) = 0.09822 0.27807
# Poissons Ratio (z) = 0.08411 0.33169
#
# Static dielectric constant tensor:
#      x y z
#    x 2.144670 -0.000010 0.030760 
#    y -0.000010 1.874970 0.000010 
#    z 0.030760 0.000010 1.868060 
# 
# From -- ./inp_files/6594.got.cif
#   From: 2010.05.17/outbox.cif.g08.bks.cpg/sg5_4_cif.got.tgz:6594.got - 2010.06.03 18:56:24.
