data_PCOD9127101
_publ_section_title
;
Structure prediction by ZEFSAII (Michael W. Deem and Ramdas Pophale) SiO2 
 PCOD9127101
Probable space group: C 2
;
_chemical_formula_sum "Si O2"
_cell_formula_units_Z 22
_cell_length_a 9.041732
_cell_length_b 14.043041
_cell_length_c 7.459900
_cell_angle_alpha 90.000000
_cell_angle_beta 94.193330
_cell_angle_gamma 90.000000
_cell_volume 944.673283
_symmetry_space_group_name_H-M "C 2"
_symmetry_group_IT_number 5
_symmetry_cell_setting 'monoclinic'
loop_
_space_group_symop_operation_xyz
x,y,z
-x,y,-z
1/2+x,1/2+y,z
1/2-x,1/2+y,-z
loop_
_atom_site_type_symbol
_atom_site_label
_atom_site_fract_x
_atom_site_fract_y
_atom_site_fract_z
Si Si1 0.727753 0.525620 0.898137
Si Si2 0.371587 0.294133 0.735573
Si Si3 0.500000 0.164835 0.000000
Si Si4 0.082795 0.011608 0.275096
Si Si5 0.330686 0.819021 0.924569
Si Si6 0.338891 0.698482 0.568445
O O1 0.862812 0.598137 0.931463
O O2 0.583363 0.551675 0.769895
O O3 0.662861 0.514664 0.091315
O O4 0.781680 0.421553 0.844123
O O5 0.509374 0.234766 0.828304
O O6 0.416131 0.400100 0.679547
O O7 0.264222 0.299919 0.902573
O O8 0.713247 0.240321 0.428947
O O9 0.167481 0.084370 0.409770
O O10 0.500000 0.827030 0.000000
O O11 0.327959 0.741741 0.766887
O O12 0.500000 0.724509 0.500000
#
# Coordination Sequence:
#
# PCOD9127101 Si02
#       6
#     4   4   2   4   4   4
#     4  10  22  43  73 102 137 186 235 283 352 414
#     4  11  25  45  69 102 144 184 235 287 348 418
#     4  12  22  42  70 102 138 184 238 290 342 408
#     4  10  24  46  67 101 145 185 230 288 350 416
#     4  11  22  44  69 102 140 182 228 289 351 409
#     4  12  25  42  72 106 138 187 234 285 352 418
#
# _framework density 23.288471999999999
#
# number of rings (size 3 to 8) (size 9 to 14) (size 15 to 20)
#    0.000    1.091    2.727    4.364    2.545    2.909 
#    0.000    7.273    0.000    0.000    0.000    0.000 
#    0.000    0.000    0.000    0.000    0.000    0.000 
#
# Total GULP energy -61559.319266 kJ/mol
# GULP energy per Si atom -5596.301751 kJ/mol
# Density = 2.323547 g / cm^3
# Si number density = 23.288472 Si / 1000 Ang^3
#
#
#
# Elastic Constant Matrix: (Units=GPa)
#
#
# Indices 1 2 3 4 5 6 
#
# 1 97.1235 41.6830 7.2064 0.0000 6.6259 0.0000
# 2 41.6830 172.9930 36.0354 0.0000 20.4486 0.0000
# 3 7.2064 36.0354 90.0644 0.0000 -3.3762 0.0000
# 4 0.0000 0.0000 0.0000 36.8093 0.0000 8.8124
# 5 6.6259 20.4486 -3.3762 0.0000 46.1537 0.0000
# 6 0.0000 0.0000 0.0000 8.8124 0.0000 34.4513
#
#
#
# Elastic Compliance Matrix: (Units=1/GPa)
#
#
# Indices 1 2 3 4 5 6 
#
# 1 0.011495 -0.002755 0.000167 0.000000 -0.000417 0.000000
# 2 -0.002755 0.007406 -0.002859 0.000000 -0.003095 0.000000
# 3 0.000167 -0.002859 0.012314 0.000000 0.002143 0.000000
# 4 0.000000 0.000000 0.000000 0.028939 0.000000 -0.007402
# 5 -0.000417 -0.003095 0.002143 0.000000 0.023255 0.000000
# 6 0.000000 0.000000 0.000000 -0.007402 0.000000 0.030920
#
#
# Mechanical properties :
#
#
# Convention : Reuss Voigt Hill
#
# Bulk Modulus (GPa) = 49.21083 58.89228 54.05156
# Shear Modulus (GPa) = 37.88014 41.83326 39.85670
#
# Velocity S-wave (km/s) = 4.03744 4.24289 4.14144
# Velocity P-wave (km/s) = 6.55068 7.02466 6.79181
#
# Compressibility (1/GPa) = 0.02032073
#
# Stress axis : x y z
#
# Youngs Moduli (GPa) = 86.99674 135.03089 81.20891
#
# Poissons Ratio (x) = 0.37203 -0.01356
# Poissons Ratio (y) = 0.23969 0.23215
# Poissons Ratio (z) = -0.01453 0.38601
#
# Static dielectric constant tensor:
#      x y z
#    x 1.885480 0.000000 -0.033300 
#    y 0.000000 1.903620 0.000000 
#    z -0.033300 0.000000 1.849000 
# 
# From -- ./inp_files/14930.got.cif
#   From: 2010.05.17/outbox.cif.g08.bks.cpg/sg5_8_cif.got.tgz:14930.got - 2010.06.03 18:56:24.
