data_PCOD9127774
_publ_section_title
;
Structure prediction by ZEFSAII (Michael W. Deem and Ramdas Pophale) SiO2 
 PCOD9127774
Probable space group: C 2
;
_chemical_formula_sum "Si O2"
_cell_formula_units_Z 26
_cell_length_a 14.631930
_cell_length_b 14.110560
_cell_length_c 12.230423
_cell_angle_alpha 90.000000
_cell_angle_beta 150.478854
_cell_angle_gamma 90.000000
_cell_volume 1244.254857
_symmetry_space_group_name_H-M "C 2"
_symmetry_group_IT_number 5
_symmetry_cell_setting 'monoclinic'
loop_
_space_group_symop_operation_xyz
x,y,z
-x,y,-z
1/2+x,1/2+y,z
1/2-x,1/2+y,-z
loop_
_atom_site_type_symbol
_atom_site_label
_atom_site_fract_x
_atom_site_fract_y
_atom_site_fract_z
Si Si1 0.500000 0.028471 0.500000
Si Si2 0.500000 0.710485 0.500000
Si Si3 0.610732 0.574959 0.012685
Si Si4 0.204481 0.555347 0.178363
Si Si5 0.000000 0.254813 0.000000
Si Si6 0.450223 0.866783 0.620135
Si Si7 0.294201 0.384330 0.418527
Si Si8 0.820039 0.927890 0.103400
O O1 0.325712 0.084127 0.271094
O O2 0.428938 0.959623 0.522333
O O3 0.336219 0.642483 0.290526
O O4 0.421317 0.776609 0.513617
O O5 0.500000 0.529469 0.000000
O O6 0.531004 0.681901 0.930772
O O7 0.598903 0.506455 0.896829
O O8 0.283740 0.490552 0.359108
O O9 0.207932 0.486384 0.077956
O O10 0.000000 0.584551 0.000000
O O11 0.821678 0.318328 0.785963
O O12 0.316122 0.873610 0.583298
O O13 0.665604 0.866729 0.881306
O O14 0.511653 0.369619 0.667868
#
# Coordination Sequence:
#
# PCOD9127774 Si02
#       8
#     2   2   4   4   2   4   4   4
#     4   9  18  42  65  90 130 176 207 268 344 389
#     4  11  26  44  69 100 142 168 225 292 330 385
#     4   9  21  40  61  99 129 168 220 279 324 396
#     4  12  24  44  68  97 136 181 228 270 337 408
#     4  10  24  40  62 100 136 154 226 280 314 392
#     4  10  23  42  67 100 129 171 228 274 324 403
#     4  12  22  42  66  95 132 180 214 274 334 399
#     4  11  22  42  73  92 131 186 221 263 348 399
#
# _framework density 20.896038999999998
#
# number of rings (size 3 to 8) (size 9 to 14) (size 15 to 20)
#    0.462    0.923    3.846    0.923    2.154    1.231 
#    5.538    1.538    0.000    0.000    0.000    0.000 
#    0.000    0.000    0.000    0.000    0.000    0.000 
#
# Total GULP energy -72586.125780 kJ/mol
# GULP energy per Si atom -5583.548137 kJ/mol
# Density = 2.084848 g / cm^3
# Si number density = 20.896039 Si / 1000 Ang^3
#
#
#
# Elastic Constant Matrix: (Units=GPa)
#
#
# Indices 1 2 3 4 5 6 
#
# 1 88.3307 0.4151 -28.0501 0.0000 -3.9598 0.0000
# 2 0.4151 50.9303 -0.1608 0.0000 2.8143 0.0000
# 3 -28.0501 -0.1608 76.5640 0.0000 10.7376 0.0000
# 4 0.0000 0.0000 0.0000 4.5047 0.0000 -5.9572
# 5 -3.9598 2.8143 10.7376 0.0000 29.9657 0.0000
# 6 0.0000 0.0000 0.0000 -5.9572 0.0000 6.2660
#
#
#
# Elastic Compliance Matrix: (Units=1/GPa)
#
#
# Indices 1 2 3 4 5 6 
#
# 1 0.012812 -0.000091 0.004691 0.000000 0.000021 0.000000
# 2 -0.000091 0.019745 0.000284 0.000000 -0.001968 0.000000
# 3 0.004691 0.000284 0.015475 0.000000 -0.004952 0.000000
# 4 0.000000 0.000000 0.000000 -0.862888 0.000000 -0.820358
# 5 0.000021 -0.001968 -0.004952 0.000000 0.035333 0.000000
# 6 0.000000 0.000000 0.000000 -0.820358 0.000000 -0.620335
#
#
# Mechanical properties :
#
#
# Convention : Reuss Voigt Hill
#
# Bulk Modulus (GPa) = 17.30102 17.80371 17.55237
# Shear Modulus (GPa) = -3.59619 24.38867 10.39624
#
# Velocity S-wave (km/s) = -1.31329 3.42005 2.23294
# Velocity P-wave (km/s) = 2.44906 4.91267 3.88151
#
# Compressibility (1/GPa) = 0.05780006
#
# Stress axis : x y z
#
# Youngs Moduli (GPa) = 78.05166 50.64553 64.62238
#
# Poissons Ratio (x) = 0.00460 -0.30313
# Poissons Ratio (y) = 0.00708 -0.01837
# Poissons Ratio (z) = -0.36612 -0.01440
#
# Static dielectric constant tensor:
#      x y z
#    x 1.751310 0.000000 -0.012300 
#    y 0.000000 1.714820 0.000000 
#    z -0.012300 0.000000 1.777780 
# 
# From -- ./inp_files/43154.got.cif
#   From: 2010.05.17/outbox.cif.g08.bks.cpg/sg5_22_cif.got.tgz:43154.got - 2010.06.03 18:56:24.
