data_PCOD9127143
_publ_section_title
;
Structure prediction by ZEFSAII (Michael W. Deem and Ramdas Pophale) SiO2 
 PCOD9127143
Probable space group: C 2
;
_chemical_formula_sum "Si O2"
_cell_formula_units_Z 26
_cell_length_a 16.206483
_cell_length_b 11.444125
_cell_length_c 22.423526
_cell_angle_alpha 90.000000
_cell_angle_beta 161.224599
_cell_angle_gamma 90.000000
_cell_volume 1338.570511
_symmetry_space_group_name_H-M "C 2"
_symmetry_group_IT_number 5
_symmetry_cell_setting 'monoclinic'
loop_
_space_group_symop_operation_xyz
x,y,z
-x,y,-z
1/2+x,1/2+y,z
1/2-x,1/2+y,-z
loop_
_atom_site_type_symbol
_atom_site_label
_atom_site_fract_x
_atom_site_fract_y
_atom_site_fract_z
Si Si1 0.613527 0.472660 0.787040
Si Si2 0.012995 0.495557 0.350685
Si Si3 0.267721 0.952491 0.309649
Si Si4 0.774001 0.822908 0.936478
Si Si5 0.500000 0.139707 0.000000
Si Si6 0.445635 0.627593 0.140493
Si Si7 0.733183 0.702991 0.112478
O O1 0.667035 0.537595 0.886984
O O2 0.712381 0.340354 0.855227
O O3 0.758216 0.551541 0.836323
O O4 0.309974 0.472332 0.566922
O O5 0.848960 0.475493 0.298090
O O6 0.884057 0.409198 0.214216
O O7 0.969373 0.628262 0.299718
O O8 0.500000 0.885220 0.500000
O O9 0.220024 0.071693 0.313588
O O10 0.993388 0.890309 0.122802
O O11 0.577560 0.751412 0.842843
O O12 0.939377 0.728666 0.012003
O O13 0.324515 0.648436 0.992253
O O14 0.500000 0.685127 0.000000
#
# Coordination Sequence:
#
# PCOD9127143 Si02
#       7
#     4   4   4   4   2   4   4
#     4  11  26  43  66 102 134 175 227 272 342 396
#     4  12  24  41  70 100 130 179 229 273 334 398
#     4  12  22  41  65 102 130 169 231 276 321 392
#     4  11  23  44  67  94 135 181 219 273 335 397
#     4  10  22  44  66  88 138 176 216 270 340 390
#     4  11  24  42  66  97 133 176 217 277 331 393
#     4  12  24  44  69  92 139 178 220 277 336 397
#
# _framework density 19.423705999999999
#
# number of rings (size 3 to 8) (size 9 to 14) (size 15 to 20)
#    0.000    0.615    6.923    0.923    4.308    0.000 
#    0.000    0.000    0.000    3.692    0.000    0.000 
#    0.000    0.000    0.000    0.000    0.000    0.000 
#
# Total GULP energy -72473.949275 kJ/mol
# GULP energy per Si atom -5574.919175 kJ/mol
# Density = 1.937950 g / cm^3
# Si number density = 19.423706 Si / 1000 Ang^3
#
#
#
# Elastic Constant Matrix: (Units=GPa)
#
#
# Indices 1 2 3 4 5 6 
#
# 1 83.9490 40.3332 26.2991 0.0041 -0.3070 0.0076
# 2 40.3332 114.9799 46.8499 0.0171 -3.3822 -0.0152
# 3 26.2991 46.8499 81.1061 0.0322 5.2625 -0.0158
# 4 0.0041 0.0171 0.0322 21.6420 0.0060 9.4001
# 5 -0.3070 -3.3822 5.2625 0.0060 31.7185 0.0058
# 6 0.0076 -0.0152 -0.0158 9.4001 0.0058 39.1686
#
#
#
# Elastic Compliance Matrix: (Units=1/GPa)
#
#
# Indices 1 2 3 4 5 6 
#
# 1 0.014656 -0.004185 -0.002340 0.000007 0.000084 -0.000007
# 2 -0.004185 0.012742 -0.006155 -0.000002 0.002339 0.000003
# 3 -0.002340 -0.006155 0.016869 -0.000024 -0.003478 0.000011
# 4 0.000007 -0.000002 -0.000024 0.051584 -0.000004 -0.012380
# 5 0.000084 0.002339 -0.003478 -0.000004 0.032355 -0.000004
# 6 -0.000007 0.000003 0.000011 -0.012380 -0.000004 0.028502
#
#
# Mechanical properties :
#
#
# Convention : Reuss Voigt Hill
#
# Bulk Modulus (GPa) = 52.89120 56.33329 54.61224
# Shear Modulus (GPa) = 26.54343 29.60933 28.07638
#
# Velocity S-wave (km/s) = 3.70070 3.90858 3.80606
# Velocity P-wave (km/s) = 6.74904 7.03098 6.89145
#
# Compressibility (1/GPa) = 0.01890674
#
# Stress axis : x y z
#
# Youngs Moduli (GPa) = 68.23045 78.48072 59.27895
#
# Poissons Ratio (x) = 0.32845 0.13873
# Poissons Ratio (y) = 0.28555 0.36486
# Poissons Ratio (z) = 0.15968 0.48305
#
# Static dielectric constant tensor:
#      x y z
#    x 1.702610 -0.000010 -0.017990 
#    y -0.000010 1.705340 -0.000010 
#    z -0.017990 -0.000010 1.657280 
# 
# From -- ./inp_files/23514.got.cif
#   From: 2010.05.17/outbox.cif.g08.bks.cpg/sg5_12_cif.got.tgz:23514.got - 2010.06.03 18:56:24.
