data_PCOD9127527
_publ_section_title
;
Structure prediction by ZEFSAII (Michael W. Deem and Ramdas Pophale) SiO2 
 PCOD9127527
Probable space group: C 2
;
_chemical_formula_sum "Si O2"
_cell_formula_units_Z 28
_cell_length_a 13.526263
_cell_length_b 8.792861
_cell_length_c 19.836832
_cell_angle_alpha 90.000000
_cell_angle_beta 148.642313
_cell_angle_gamma 90.000000
_cell_volume 1227.722545
_symmetry_space_group_name_H-M "C 2"
_symmetry_group_IT_number 5
_symmetry_cell_setting 'monoclinic'
loop_
_space_group_symop_operation_xyz
x,y,z
-x,y,-z
1/2+x,1/2+y,z
1/2-x,1/2+y,-z
loop_
_atom_site_type_symbol
_atom_site_label
_atom_site_fract_x
_atom_site_fract_y
_atom_site_fract_z
Si Si1 0.000000 0.824900 0.500000
Si Si2 0.316733 0.044979 0.711456
Si Si3 0.809993 0.390571 0.347788
Si Si4 0.314627 0.143634 0.265500
Si Si5 0.066222 0.062751 0.831011
Si Si6 0.286152 0.931499 0.846473
Si Si7 0.500000 0.508367 0.000000
Si Si8 0.191345 0.399478 0.916543
O O1 0.917324 0.721520 0.390939
O O2 0.829818 0.943819 0.417820
O O3 0.266497 0.219955 0.693486
O O4 0.311656 0.971916 0.783111
O O5 0.526589 0.020434 0.805664
O O6 0.864913 0.467101 0.307888
O O7 0.646440 0.500866 0.283255
O O8 0.000000 0.391992 0.500000
O O9 0.339027 0.275708 0.224338
O O10 0.092931 0.110385 0.113560
O O11 0.094040 0.236797 0.868458
O O12 0.155093 0.051056 0.808618
O O13 0.199770 0.953284 0.953383
O O14 0.500000 0.925062 0.000000
O O15 0.654985 0.406216 0.053086
#
# Coordination Sequence:
#
# PCOD9127527 Si02
#       8
#     2   4   4   4   4   4   2   4
#     4  10  22  48  78 106 148 202 238 310 378 456
#     4  11  25  48  79 107 148 200 255 309 379 456
#     4  12  26  49  75 104 152 204 252 307 374 457
#     4  11  24  43  77 104 150 195 244 304 380 439
#     4  12  27  45  73 111 152 196 255 313 388 449
#     4  11  24  42  74 112 148 189 248 311 377 442
#     4  12  28  46  76 114 152 188 260 316 376 446
#     4  12  28  45  75 111 150 200 251 319 385 449
#
# _framework density 22.806453999999999
#
# number of rings (size 3 to 8) (size 9 to 14) (size 15 to 20)
#    0.000    0.571    5.000    2.571    7.000    0.000 
#    0.000    4.286    0.000    0.000    0.000    0.000 
#    0.000    0.000    0.000    0.000    0.000    0.000 
#
# Total GULP energy -78006.722437 kJ/mol
# GULP energy per Si atom -5571.908746 kJ/mol
# Density = 2.275455 g / cm^3
# Si number density = 22.806454 Si / 1000 Ang^3
#
#
#
# Elastic Constant Matrix: (Units=GPa)
#
#
# Indices 1 2 3 4 5 6 
#
# 1 68.1279 18.1271 23.7883 0.0002 10.0392 0.0000
# 2 18.1271 153.4485 50.7002 0.0004 2.2690 -0.0001
# 3 23.7883 50.7002 142.2346 0.0010 4.4005 0.0000
# 4 0.0002 0.0004 0.0010 35.8680 0.0002 8.8446
# 5 10.0392 2.2690 4.4005 0.0002 28.9477 0.0000
# 6 0.0000 -0.0001 0.0000 8.8446 0.0000 25.9693
#
#
#
# Elastic Compliance Matrix: (Units=1/GPa)
#
#
# Indices 1 2 3 4 5 6 
#
# 1 0.016532 -0.001151 -0.002190 0.000000 -0.005310 0.000000
# 2 -0.001151 0.007468 -0.002475 0.000000 0.000190 0.000000
# 3 -0.002190 -0.002475 0.008289 0.000000 -0.000306 0.000000
# 4 0.000000 0.000000 0.000000 0.030436 0.000000 -0.010366
# 5 -0.005310 0.000190 -0.000306 0.000000 0.036418 0.000000
# 6 0.000000 0.000000 0.000000 -0.010366 0.000000 0.042038
#
#
# Mechanical properties :
#
#
# Convention : Reuss Voigt Hill
#
# Bulk Modulus (GPa) = 48.41337 61.00470 54.70903
# Shear Modulus (GPa) = 31.30900 36.23669 33.77285
#
# Velocity S-wave (km/s) = 3.70917 3.99040 3.85235
# Velocity P-wave (km/s) = 6.29428 6.93094 6.62027
#
# Compressibility (1/GPa) = 0.02065545
#
# Stress axis : x y z
#
# Youngs Moduli (GPa) = 60.48958 133.90751 120.64446
#
# Poissons Ratio (x) = 0.15408 0.26426
# Poissons Ratio (y) = 0.06960 0.29864
# Poissons Ratio (z) = 0.13250 0.33147
#
# Static dielectric constant tensor:
#      x y z
#    x 1.930350 0.000000 -0.030810 
#    y 0.000000 1.913640 0.000000 
#    z -0.030810 0.000000 1.853740 
# 
# From -- ./inp_files/66017.got.cif
#   From: 2010.05.17/outbox.cif.g08.bks.cpg/sg5_34_cif.got.tgz:66017.got - 2010.06.03 18:56:24.
