data_PCOD9127108
_publ_section_title
;
Structure prediction by ZEFSAII (Michael W. Deem and Ramdas Pophale) SiO2 
 PCOD9127108
Probable space group: C 2
;
_chemical_formula_sum "Si O2"
_cell_formula_units_Z 22
_cell_length_a 10.993658
_cell_length_b 18.287309
_cell_length_c 5.126594
_cell_angle_alpha 90.000000
_cell_angle_beta 112.035596
_cell_angle_gamma 90.000000
_cell_volume 955.383424
_symmetry_space_group_name_H-M "C 2"
_symmetry_group_IT_number 5
_symmetry_cell_setting 'monoclinic'
loop_
_space_group_symop_operation_xyz
x,y,z
-x,y,-z
1/2+x,1/2+y,z
1/2-x,1/2+y,-z
loop_
_atom_site_type_symbol
_atom_site_label
_atom_site_fract_x
_atom_site_fract_y
_atom_site_fract_z
Si Si1 0.000000 0.870600 0.000000
Si Si2 0.500000 0.868917 0.500000
Si Si3 0.289304 0.094514 0.739878
Si Si4 0.652822 0.184326 0.706966
Si Si5 0.500000 0.970168 0.000000
Si Si6 0.767081 0.826415 0.479133
Si Si7 0.859759 0.961560 0.261307
O O1 0.092588 0.820724 0.255978
O O2 0.885051 0.925964 0.002756
O O3 0.465589 0.919977 0.222020
O O4 0.631241 0.823325 0.529732
O O5 0.278007 0.131603 0.450866
O O6 0.167800 0.046652 0.744127
O O7 0.330704 0.152692 0.991172
O O8 0.393531 0.028768 0.814108
O O9 0.500000 0.184174 0.500000
O O10 0.718537 0.263335 0.724535
O O11 0.766562 0.905601 0.340376
O O12 0.000000 0.947456 0.500000
#
# Coordination Sequence:
#
# PCOD9127108 Si02
#       7
#     2   2   4   4   2   4   4
#     4  10  22  43  74 101 138 184 240 292 352 411
#     4  12  26  44  76 104 144 180 248 294 356 414
#     4  12  25  43  70 103 138 181 233 298 349 417
#     4  12  26  44  68 102 143 186 234 291 359 421
#     4  12  22  43  72 105 134 178 234 302 346 417
#     4  11  26  44  72 105 141 189 237 297 351 428
#     4  10  23  43  72 101 135 187 239 289 351 422
#
# _framework density 23.027404000000001
#
# number of rings (size 3 to 8) (size 9 to 14) (size 15 to 20)
#    0.000    0.727    3.636    3.818   10.182    0.000 
#    1.636    0.000    0.000    0.000    0.000    0.000 
#    0.000    0.000    0.000    0.000    0.000    0.000 
#
# Total GULP energy -61402.948031 kJ/mol
# GULP energy per Si atom -5582.086185 kJ/mol
# Density = 2.297499 g / cm^3
# Si number density = 23.027404 Si / 1000 Ang^3
#
#
#
# Elastic Constant Matrix: (Units=GPa)
#
#
# Indices 1 2 3 4 5 6 
#
# 1 99.8837 22.3086 0.5589 0.0000 -4.2835 0.0000
# 2 22.3086 97.1362 4.3040 0.0000 0.3261 0.0000
# 3 0.5589 4.3040 45.2283 0.0000 -11.7342 0.0000
# 4 0.0000 0.0000 0.0000 37.8855 0.0000 -19.1251
# 5 -4.2835 0.3261 -11.7342 0.0000 29.2499 0.0000
# 6 0.0000 0.0000 0.0000 -19.1251 0.0000 19.5440
#
#
#
# Elastic Compliance Matrix: (Units=1/GPa)
#
#
# Indices 1 2 3 4 5 6 
#
# 1 0.010639 -0.002475 0.000575 0.000000 0.001816 0.000000
# 2 -0.002475 0.010923 -0.001266 0.000000 -0.000992 0.000000
# 3 0.000575 -0.001266 0.024834 0.000000 0.010061 0.000000
# 4 0.000000 0.000000 0.000000 0.052164 0.000000 0.051046
# 5 0.001816 -0.000992 0.010061 0.000000 0.038501 0.000000
# 6 0.000000 0.000000 0.000000 0.051046 0.000000 0.101118
#
#
# Mechanical properties :
#
#
# Convention : Reuss Voigt Hill
#
# Bulk Modulus (GPa) = 24.96034 32.95457 28.95746
# Shear Modulus (GPa) = 19.38994 31.67434 25.53214
#
# Velocity S-wave (km/s) = 2.90494 3.71281 3.33344
# Velocity P-wave (km/s) = 4.70260 5.72031 5.23624
#
# Compressibility (1/GPa) = 0.04006355
#
# Stress axis : x y z
#
# Youngs Moduli (GPa) = 93.99296 91.55266 40.26792
#
# Poissons Ratio (x) = 0.22659 -0.02317
# Poissons Ratio (y) = 0.23263 0.05099
# Poissons Ratio (z) = -0.05407 0.11593
#
# Static dielectric constant tensor:
#      x y z
#    x 2.328040 0.000000 -0.218540 
#    y 0.000000 1.841050 0.000000 
#    z -0.218540 0.000000 2.196140 
# 
# From -- ./inp_files/4858.got.cif
#   From: 2010.05.17/outbox.cif.g08.bks.cpg/sg5_3_cif.got.tgz:4858.got - 2010.06.03 18:56:24.
