data_PCOD9127196
_publ_section_title
;
Structure prediction by ZEFSAII (Michael W. Deem and Ramdas Pophale) SiO2 
 PCOD9127196
Probable space group: C 2
;
_chemical_formula_sum "Si O2"
_cell_formula_units_Z 24
_cell_length_a 13.411198
_cell_length_b 11.951843
_cell_length_c 17.423899
_cell_angle_alpha 90.000000
_cell_angle_beta 23.184217
_cell_angle_gamma 90.000000
_cell_volume 1099.513975
_symmetry_space_group_name_H-M "C 2"
_symmetry_group_IT_number 5
_symmetry_cell_setting 'monoclinic'
loop_
_space_group_symop_operation_xyz
x,y,z
-x,y,-z
1/2+x,1/2+y,z
1/2-x,1/2+y,-z
loop_
_atom_site_type_symbol
_atom_site_label
_atom_site_fract_x
_atom_site_fract_y
_atom_site_fract_z
Si Si1 0.931045 0.622920 0.262389
Si Si2 0.500000 0.519668 0.000000
Si Si3 0.103823 0.350691 0.269497
Si Si4 0.601127 0.429736 0.560885
Si Si5 0.500000 0.782611 0.500000
Si Si6 0.221572 0.723915 0.207378
Si Si7 0.768064 0.609345 0.104579
O O1 0.767396 0.509430 0.388839
O O2 0.713113 0.708137 0.389886
O O3 0.076298 0.675532 0.233932
O O4 0.128490 0.603004 0.054412
O O5 0.695391 0.439235 0.905408
O O6 0.677456 0.607108 0.826593
O O7 0.136584 0.229471 0.209590
O O8 0.818047 0.387289 0.463502
O O9 0.148993 0.347019 0.328470
O O10 0.456616 0.319863 0.631816
O O11 0.410673 0.509156 0.741961
O O12 0.500000 0.780636 0.000000
O O13 0.000000 0.610582 0.000000
#
# Coordination Sequence:
#
# PCOD9127196 Si02
#       7
#     4   2   4   4   2   4   4
#     4  12  23  44  73 105 138 189 243 288 360 424
#     4  10  22  44  68  96 144 188 222 292 356 414
#     4  12  23  44  74 103 144 185 238 297 348 424
#     4  12  23  43  70 103 142 184 234 305 347 417
#     4  12  22  42  76 108 134 188 250 288 352 428
#     4  10  23  43  67 100 149 186 231 295 357 424
#     4  12  25  43  71 106 140 189 238 297 352 419
#
# _framework density 21.827826999999999
#
# number of rings (size 3 to 8) (size 9 to 14) (size 15 to 20)
#    0.500    0.000    7.500    0.500    0.000    2.667 
#    0.000    1.667    3.667    2.000    0.000    0.000 
#    0.000    0.000    0.000    0.000    0.000    0.000 
#
# Total GULP energy -66874.816002 kJ/mol
# GULP energy per Si atom -5572.901333 kJ/mol
# Density = 2.177815 g / cm^3
# Si number density = 21.827827 Si / 1000 Ang^3
#
#
#
# Elastic Constant Matrix: (Units=GPa)
#
#
# Indices 1 2 3 4 5 6 
#
# 1 57.7013 32.5793 67.6889 -0.0057 -5.5689 -0.0046
# 2 32.5793 148.1850 95.3355 -0.0229 -7.1457 -0.0016
# 3 67.6889 95.3355 255.8799 0.0125 -33.7802 0.0079
# 4 -0.0057 -0.0229 0.0125 31.5346 -0.0049 -15.6462
# 5 -5.5689 -7.1457 -33.7802 -0.0049 55.5360 0.0035
# 6 -0.0046 -0.0016 0.0079 -15.6462 0.0035 17.4821
#
#
#
# Elastic Compliance Matrix: (Units=1/GPa)
#
#
# Indices 1 2 3 4 5 6 
#
# 1 0.025552 -0.001596 -0.006365 0.000019 -0.001514 0.000027
# 2 -0.001596 0.009021 -0.003052 0.000015 -0.000856 0.000015
# 3 -0.006365 -0.003052 0.007168 -0.000015 0.003329 -0.000020
# 4 0.000019 0.000015 -0.000015 0.057040 -0.000004 0.051050
# 5 -0.001514 -0.000856 0.003329 -0.000004 0.019769 -0.000009
# 6 0.000027 0.000015 -0.000020 0.051050 -0.000009 0.102891
#
#
# Mechanical properties :
#
#
# Convention : Reuss Voigt Hill
#
# Bulk Modulus (GPa) = 50.71903 94.77487 72.74695
# Shear Modulus (GPa) = 19.99681 38.65471 29.32576
#
# Velocity S-wave (km/s) = 3.03002 4.21276 3.66936
# Velocity P-wave (km/s) = 5.96052 8.19614 7.16605
#
# Compressibility (1/GPa) = 0.01971647
#
# Stress axis : x y z
#
# Youngs Moduli (GPa) = 39.13600 110.84692 139.50193
#
# Poissons Ratio (x) = 0.17692 0.88788
# Poissons Ratio (y) = 0.06246 0.42575
# Poissons Ratio (z) = 0.24909 0.33830
#
# Static dielectric constant tensor:
#      x y z
#    x 1.872530 0.000070 0.022310 
#    y 0.000070 1.890570 0.000080 
#    z 0.022310 0.000080 1.825400 
# 
# From -- ./inp_files/66097.got.cif
#   From: 2010.05.17/outbox.cif.g08.bks.cpg/sg5_34_cif.got.tgz:66097.got - 2010.06.03 18:56:24.
