data_PCOD9127909
_publ_section_title
;
Structure prediction by ZEFSAII (Michael W. Deem and Ramdas Pophale) SiO2 
 PCOD9127909
Probable space group: C 2
;
_chemical_formula_sum "Si O2"
_cell_formula_units_Z 18
_cell_length_a 10.998364
_cell_length_b 8.483108
_cell_length_c 9.808640
_cell_angle_alpha 90.000000
_cell_angle_beta 43.880271
_cell_angle_gamma 90.000000
_cell_volume 634.338996
_symmetry_space_group_name_H-M "C 2"
_symmetry_group_IT_number 5
_symmetry_cell_setting 'monoclinic'
loop_
_space_group_symop_operation_xyz
x,y,z
-x,y,-z
1/2+x,1/2+y,z
1/2-x,1/2+y,-z
loop_
_atom_site_type_symbol
_atom_site_label
_atom_site_fract_x
_atom_site_fract_y
_atom_site_fract_z
Si Si1 0.315962 0.443920 0.010193
Si Si2 0.698682 0.802471 0.380639
Si Si3 0.827901 0.818262 0.574621
Si Si4 0.513267 0.125131 0.763925
Si Si5 0.500000 0.705456 0.000000
O O1 0.409305 0.290544 0.876788
O O2 0.436239 0.598824 0.921714
O O3 0.916368 0.654854 0.445176
O O4 0.127362 0.489998 0.102241
O O5 0.500000 0.777451 0.500000
O O6 0.736314 0.864854 0.503699
O O7 0.220514 0.909408 0.801688
O O8 0.814488 0.640719 0.282022
O O9 0.000000 0.901603 0.500000
O O10 0.673608 0.791334 0.805875
#
# Coordination Sequence:
#
# PCOD9127909 Si02
#       5
#     4   4   4   4   2
#     4  12  24  47  84 114 164 210 270 338 408 482
#     4  10  24  43  79 120 158 212 267 335 408 481
#     4  10  23  43  76 123 159 208 279 323 402 487
#     4  10  25  45  80 125 154 215 275 326 414 488
#     4  12  20  42  80 110 160 216 260 338 404 468
#
# _framework density 28.375993000000001
#
# number of rings (size 3 to 8) (size 9 to 14) (size 15 to 20)
#    1.333    0.000    4.444    0.000    6.222    0.000 
#    0.000    0.000   24.444    0.000    0.000    0.000 
#    0.000    0.000    0.000    0.000    0.000    0.000 
#
# Total GULP energy -50366.020450 kJ/mol
# GULP energy per Si atom -5596.224494 kJ/mol
# Density = 2.831141 g / cm^3
# Si number density = 28.375993 Si / 1000 Ang^3
#
#
#
# Elastic Constant Matrix: (Units=GPa)
#
#
# Indices 1 2 3 4 5 6 
#
# 1 208.5542 46.9523 92.2343 0.0000 -46.7909 0.0000
# 2 46.9523 84.5176 49.7820 0.0000 -0.9364 0.0000
# 3 92.2343 49.7820 207.4473 0.0000 -26.1230 0.0000
# 4 0.0000 0.0000 0.0000 33.1010 0.0000 -9.9417
# 5 -46.7909 -0.9364 -26.1230 0.0000 72.1630 0.0000
# 6 0.0000 0.0000 0.0000 -9.9417 0.0000 46.7855
#
#
#
# Elastic Compliance Matrix: (Units=1/GPa)
#
#
# Indices 1 2 3 4 5 6 
#
# 1 0.007191 -0.002745 -0.002049 0.000000 0.003885 0.000000
# 2 -0.002745 0.014906 -0.002679 0.000000 -0.002556 0.000000
# 3 -0.002049 -0.002679 0.006499 0.000000 0.000989 0.000000
# 4 0.000000 0.000000 0.000000 0.032270 0.000000 0.006857
# 5 0.003885 -0.002556 0.000989 0.000000 0.016702 0.000000
# 6 0.000000 0.000000 0.000000 0.006857 0.000000 0.022831
#
#
# Mechanical properties :
#
#
# Convention : Reuss Voigt Hill
#
# Bulk Modulus (GPa) = 73.25580 97.60625 85.43102
# Shear Modulus (GPa) = 41.70355 51.17993 46.44174
#
# Velocity S-wave (km/s) = 3.83780 4.25153 4.04995
# Velocity P-wave (km/s) = 6.74614 7.65329 7.21399
#
# Compressibility (1/GPa) = 0.01365080
#
# Stress axis : x y z
#
# Youngs Moduli (GPa) = 139.06715 67.08707 153.87015
#
# Poissons Ratio (x) = 0.18413 0.31532
# Poissons Ratio (y) = 0.38169 0.41216
# Poissons Ratio (z) = 0.28498 0.17970
#
# Static dielectric constant tensor:
#      x y z
#    x 2.254850 0.000000 -0.089660 
#    y 0.000000 2.361340 0.000000 
#    z -0.089660 0.000000 2.215330 
# 
# From -- ./inp_files/39504.got.cif
#   From: 2010.05.17/outbox.cif.g08.bks.cpg/sg5_20_cif.got.tgz:39504.got - 2010.06.03 18:56:24.
