data_PCOD9127225
_publ_section_title
;
Structure prediction by ZEFSAII (Michael W. Deem and Ramdas Pophale) SiO2 
 PCOD9127225
Probable space group: C 2
;
_chemical_formula_sum "Si O2"
_cell_formula_units_Z 28
_cell_length_a 12.181430
_cell_length_b 12.774604
_cell_length_c 6.908731
_cell_angle_alpha 90.000000
_cell_angle_beta 82.456430
_cell_angle_gamma 90.000000
_cell_volume 1065.783428
_symmetry_space_group_name_H-M "C 2"
_symmetry_group_IT_number 5
_symmetry_cell_setting 'monoclinic'
loop_
_space_group_symop_operation_xyz
x,y,z
-x,y,-z
1/2+x,1/2+y,z
1/2-x,1/2+y,-z
loop_
_atom_site_type_symbol
_atom_site_label
_atom_site_fract_x
_atom_site_fract_y
_atom_site_fract_z
Si Si1 0.500000 0.651911 0.000000
Si Si2 0.585446 0.994362 0.597485
Si Si3 0.917136 0.529862 0.893518
Si Si4 0.355192 0.265897 0.848285
Si Si5 0.167747 0.050794 0.439338
Si Si6 0.878868 0.256801 0.330091
Si Si7 0.000000 0.878696 0.500000
Si Si8 0.169575 0.978204 0.993695
O O1 0.489129 0.731879 0.179991
O O2 0.598040 0.571413 0.919828
O O3 0.611255 0.870884 0.583775
O O4 0.448244 0.017658 0.640613
O O5 0.701556 0.053132 0.562000
O O6 0.558394 0.005924 0.862663
O O7 0.889498 0.653581 0.914558
O O8 0.796952 0.476124 0.909875
O O9 0.230992 0.261070 0.783977
O O10 0.439426 0.303487 0.663751
O O11 0.365677 0.357753 0.004425
O O12 0.129891 0.164718 0.512172
O O13 0.154489 0.016341 0.220159
O O14 0.095317 0.958483 0.556868
#
# Coordination Sequence:
#
# PCOD9127225 Si02
#       8
#     2   4   4   4   4   4   2   4
#     4  12  28  44  74 100 142 180 236 286 340 424
#     4  12  28  44  70 105 139 181 232 287 343 415
#     4  12  25  46  70 103 141 178 230 289 346 410
#     4  11  24  44  71 100 135 182 228 281 349 402
#     4  11  24  48  69  98 141 182 229 285 342 415
#     4  12  25  46  71 103 135 187 228 281 353 403
#     4  10  22  44  70  94 138 178 230 278 336 412
#     4  11  25  49  68 102 140 184 229 287 345 411
#
# _framework density 26.271753
#
# number of rings (size 3 to 8) (size 9 to 14) (size 15 to 20)
#    0.000    0.571    5.714    2.571   10.000    0.000 
#    0.000    0.000    0.000    0.000    0.000    0.000 
#    0.000    0.000    0.000    0.000    0.000    0.000 
#
# Total GULP energy -78279.496525 kJ/mol
# GULP energy per Si atom -5591.392609 kJ/mol
# Density = 2.621196 g / cm^3
# Si number density = 26.271753 Si / 1000 Ang^3
#
#
#
# Elastic Constant Matrix: (Units=GPa)
#
#
# Indices 1 2 3 4 5 6 
#
# 1 128.6811 -2.0561 32.8756 0.0000 -18.9295 0.0000
# 2 -2.0561 152.0158 37.6841 0.0000 -11.6715 0.0000
# 3 32.8756 37.6841 132.6047 0.0000 -17.4513 0.0000
# 4 0.0000 0.0000 0.0000 34.5248 0.0000 -12.7047
# 5 -18.9295 -11.6715 -17.4513 0.0000 54.8035 0.0000
# 6 0.0000 0.0000 0.0000 -12.7047 0.0000 30.7702
#
#
#
# Elastic Compliance Matrix: (Units=1/GPa)
#
#
# Indices 1 2 3 4 5 6 
#
# 1 0.008679 0.000820 -0.002053 0.000000 0.002519 0.000000
# 2 0.000820 0.007197 -0.002098 0.000000 0.001148 0.000000
# 3 -0.002053 -0.002098 0.008866 0.000000 0.001667 0.000000
# 4 0.000000 0.000000 0.000000 0.034154 0.000000 0.014102
# 5 0.002519 0.001148 0.001667 0.000000 0.019892 0.000000
# 6 0.000000 0.000000 0.000000 0.014102 0.000000 0.038321
#
#
# Mechanical properties :
#
#
# Convention : Reuss Voigt Hill
#
# Bulk Modulus (GPa) = 55.30844 61.14541 58.22692
# Shear Modulus (GPa) = 38.52102 47.00625 42.76363
#
# Velocity S-wave (km/s) = 3.83332 4.23452 4.03891
# Velocity P-wave (km/s) = 6.37892 6.87262 6.63037
#
# Compressibility (1/GPa) = 0.01808042
#
# Stress axis : x y z
#
# Youngs Moduli (GPa) = 115.21624 138.93768 112.79334
#
# Poissons Ratio (x) = -0.11390 0.23160
# Poissons Ratio (y) = -0.09445 0.23659
# Poissons Ratio (z) = 0.23657 0.29143
#
# Static dielectric constant tensor:
#      x y z
#    x 2.172680 0.000000 0.125960 
#    y 0.000000 1.932470 0.000000 
#    z 0.125960 0.000000 2.361520 
# 
# From -- ./inp_files/23626.got.cif
#   From: 2010.05.17/outbox.cif.g08.bks.cpg/sg5_12_cif.got.tgz:23626.got - 2010.06.03 18:56:24.
