data_PCOD9127619
_publ_section_title
;
Structure prediction by ZEFSAII (Michael W. Deem and Ramdas Pophale) SiO2 
 PCOD9127619
Probable space group: C 2
;
_chemical_formula_sum "Si O2"
_cell_formula_units_Z 30
_cell_length_a 11.346167
_cell_length_b 11.007176
_cell_length_c 10.021009
_cell_angle_alpha 90.000000
_cell_angle_beta 99.266802
_cell_angle_gamma 90.000000
_cell_volume 1235.183062
_symmetry_space_group_name_H-M "C 2"
_symmetry_group_IT_number 5
_symmetry_cell_setting 'monoclinic'
loop_
_space_group_symop_operation_xyz
x,y,z
-x,y,-z
1/2+x,1/2+y,z
1/2-x,1/2+y,-z
loop_
_atom_site_type_symbol
_atom_site_label
_atom_site_fract_x
_atom_site_fract_y
_atom_site_fract_z
Si Si1 0.614170 0.967240 0.592841
Si Si2 0.297090 0.860850 0.919190
Si Si3 0.164248 0.674178 0.773710
Si Si4 0.951273 0.795428 0.646445
Si Si5 0.500000 0.630716 0.500000
Si Si6 0.776086 0.282198 0.540909
Si Si7 0.040293 0.303313 0.814934
Si Si8 0.921883 0.022402 0.224854
O O1 0.500000 0.027412 0.500000
O O2 0.691343 0.919739 0.485510
O O3 0.570309 0.853023 0.672753
O O4 0.687822 0.048343 0.707659
O O5 0.229061 0.729289 0.910786
O O6 0.410333 0.848816 0.839336
O O7 0.195953 0.960450 0.862097
O O8 0.363372 0.869779 0.072368
O O9 0.211069 0.766562 0.668075
O O10 0.023209 0.693066 0.741573
O O11 0.816626 0.754398 0.595006
O O12 0.000000 0.810748 0.500000
O O13 0.976604 0.915709 0.741545
O O14 0.395300 0.702378 0.559483
O O15 0.420185 0.557143 0.380471
O O16 0.048731 0.155981 0.832212
#
# Coordination Sequence:
#
# PCOD9127619 Si02
#       8
#     4   4   4   4   2   4   4   4
#     4  12  23  39  64  98 138 170 223 287 344 419
#     4  10  25  46  71  95 138 189 232 288 348 422
#     4  10  23  40  65  94 135 180 222 284 346 425
#     4   9  20  38  58  94 131 175 219 268 354 416
#     4  12  22  38  62 102 136 172 224 284 348 418
#     4  11  22  37  58  99 139 166 219 280 353 410
#     4  11  25  46  68 103 133 185 243 280 356 421
#     4  11  22  42  69  96 135 179 227 292 346 420
#
# _framework density 24.287897999999998
#
# number of rings (size 3 to 8) (size 9 to 14) (size 15 to 20)
#    0.000    1.333    2.667    2.800    5.600    2.133 
#    0.000    0.000    0.000    2.400    0.000    0.000 
#    0.000    0.000    0.000    0.000    0.000    0.000 
#
# Total GULP energy -83557.855241 kJ/mol
# GULP energy per Si atom -5570.523683 kJ/mol
# Density = 2.423262 g / cm^3
# Si number density = 24.287898 Si / 1000 Ang^3
#
#
#
# Elastic Constant Matrix: (Units=GPa)
#
#
# Indices 1 2 3 4 5 6 
#
# 1 100.5679 19.8623 30.0409 0.0000 42.5669 0.0000
# 2 19.8623 81.8354 9.9376 0.0000 5.1409 0.0000
# 3 30.0409 9.9376 65.5735 0.0000 30.9965 0.0000
# 4 0.0000 0.0000 0.0000 34.3906 0.0000 11.7120
# 5 42.5669 5.1409 30.9965 0.0000 48.1482 0.0000
# 6 0.0000 0.0000 0.0000 11.7120 0.0000 20.5521
#
#
#
# Elastic Compliance Matrix: (Units=1/GPa)
#
#
# Indices 1 2 3 4 5 6 
#
# 1 0.016665 -0.003098 -0.000513 0.000000 -0.014072 0.000000
# 2 -0.003098 0.013026 -0.001713 0.000000 0.002451 0.000000
# 3 -0.000513 -0.001713 0.022199 0.000000 -0.013655 0.000000
# 4 0.000000 0.000000 0.000000 0.036080 0.000000 -0.020561
# 5 -0.014072 0.002451 -0.013655 0.000000 0.041739 0.000000
# 6 0.000000 0.000000 0.000000 -0.020561 0.000000 0.060374
#
#
# Mechanical properties :
#
#
# Convention : Reuss Voigt Hill
#
# Bulk Modulus (GPa) = 24.24841 40.85093 32.54967
# Shear Modulus (GPa) = 23.31230 33.16059 28.23645
#
# Velocity S-wave (km/s) = 3.10148 3.69902 3.41335
# Velocity P-wave (km/s) = 4.77818 5.92450 5.38194
#
# Compressibility (1/GPa) = 0.04123981
#
# Stress axis : x y z
#
# Youngs Moduli (GPa) = 60.00627 76.77111 45.04625
#
# Poissons Ratio (x) = 0.23787 0.02312
# Poissons Ratio (y) = 0.18592 0.07718
# Poissons Ratio (z) = 0.03080 0.13154
#
# Static dielectric constant tensor:
#      x y z
#    x 1.974410 0.000000 0.046300 
#    y 0.000000 2.085430 0.000000 
#    z 0.046300 0.000000 1.961660 
# 
# From -- ./inp_files/39229.got.cif
#   From: 2010.05.17/outbox.cif.g08.bks.cpg/sg5_20_cif.got.tgz:39229.got - 2010.06.03 18:56:24.
