data_PCOD9127881
_publ_section_title
;
Structure prediction by ZEFSAII (Michael W. Deem and Ramdas Pophale) SiO2 
 PCOD9127881
Probable space group: C 2
;
_chemical_formula_sum "Si O2"
_cell_formula_units_Z 30
_cell_length_a 22.869335
_cell_length_b 10.566832
_cell_length_c 4.887659
_cell_angle_alpha 90.000000
_cell_angle_beta 95.774865
_cell_angle_gamma 90.000000
_cell_volume 1175.139860
_symmetry_space_group_name_H-M "C 2"
_symmetry_group_IT_number 5
_symmetry_cell_setting 'monoclinic'
loop_
_space_group_symop_operation_xyz
x,y,z
-x,y,-z
1/2+x,1/2+y,z
1/2-x,1/2+y,-z
loop_
_atom_site_type_symbol
_atom_site_label
_atom_site_fract_x
_atom_site_fract_y
_atom_site_fract_z
Si Si1 0.414206 0.146480 0.087787
Si Si2 0.500000 0.318330 0.500000
Si Si3 0.338815 0.593585 0.011374
Si Si4 0.217220 0.654575 0.808696
Si Si5 0.609578 0.382311 0.266243
Si Si6 0.856165 0.265760 0.505727
Si Si7 0.463131 0.888338 0.224739
Si Si8 0.765229 0.822314 0.666735
O O1 0.462634 0.227326 0.278948
O O2 0.350988 0.125802 0.197048
O O3 0.437071 0.006894 0.046017
O O4 0.399995 0.236940 0.827156
O O5 0.550202 0.407356 0.396400
O O6 0.270109 0.560548 0.917419
O O7 0.382346 0.478035 0.980027
O O8 0.356869 0.709727 0.813065
O O9 0.342467 0.644030 0.315045
O O10 0.230283 0.692880 0.507415
O O11 0.228356 0.775685 0.017136
O O12 0.675526 0.389038 0.415945
O O13 0.913407 0.317100 0.377971
O O14 0.801185 0.362538 0.438182
O O15 0.500000 0.940379 0.500000
O O16 0.500000 0.817767 0.000000
#
# Coordination Sequence:
#
# PCOD9127881 Si02
#       8
#     4   2   4   4   4   4   4   4
#     4  11  24  42  66  98 136 175 225 279 343 402
#     4  12  22  42  62  96 138 174 222 272 338 414
#     4  10  23  43  69  99 136 172 226 277 344 407
#     4   9  19  38  64  94 128 169 213 272 331 398
#     4  11  24  40  67 100 137 177 221 284 342 414
#     4  10  23  46  67  97 133 178 226 283 332 408
#     4  12  26  45  69  98 131 180 233 283 338 399
#     4   9  19  38  64  93 128 167 219 267 335 394
#
# _framework density 25.528877000000001
#
# number of rings (size 3 to 8) (size 9 to 14) (size 15 to 20)
#    0.000    1.600    2.000    2.000    3.733    0.000 
#    3.600    0.000    0.000    0.000    0.000    0.000 
#    0.000    0.000    0.000    0.000    0.000    0.000 
#
# Total GULP energy -83723.126533 kJ/mol
# GULP energy per Si atom -5581.541769 kJ/mol
# Density = 2.547077 g / cm^3
# Si number density = 25.528877 Si / 1000 Ang^3
#
#
#
# Elastic Constant Matrix: (Units=GPa)
#
#
# Indices 1 2 3 4 5 6 
#
# 1 162.9483 39.5430 23.8088 0.0000 -43.4573 0.0000
# 2 39.5430 47.9269 14.9201 0.0000 -4.2712 0.0000
# 3 23.8088 14.9201 82.9995 0.0000 -16.2377 0.0000
# 4 0.0000 0.0000 0.0000 16.6618 0.0000 -8.9086
# 5 -43.4573 -4.2712 -16.2377 0.0000 46.2635 0.0000
# 6 0.0000 0.0000 0.0000 -8.9086 0.0000 27.5040
#
#
#
# Elastic Compliance Matrix: (Units=1/GPa)
#
#
# Indices 1 2 3 4 5 6 
#
# 1 0.010467 -0.007884 0.000210 0.000000 0.009178 0.000000
# 2 -0.007884 0.028060 -0.003999 0.000000 -0.006218 0.000000
# 3 0.000210 -0.003999 0.013608 0.000000 0.004604 0.000000
# 4 0.000000 0.000000 0.000000 0.072588 0.000000 0.023511
# 5 0.009178 -0.006218 0.004604 0.000000 0.031279 0.000000
# 6 0.000000 0.000000 0.000000 0.023511 0.000000 0.043974
#
#
# Mechanical properties :
#
#
# Convention : Reuss Voigt Hill
#
# Bulk Modulus (GPa) = 34.73446 50.04651 42.39048
# Shear Modulus (GPa) = 21.46684 32.45939 26.96311
#
# Velocity S-wave (km/s) = 2.90295 3.56965 3.25342
# Velocity P-wave (km/s) = 4.98715 6.05279 5.54562
#
# Compressibility (1/GPa) = 0.02878985
#
# Stress axis : x y z
#
# Youngs Moduli (GPa) = 95.53780 35.63738 73.48806
#
# Poissons Ratio (x) = 0.28095 -0.01545
# Poissons Ratio (y) = 0.75318 0.29390
# Poissons Ratio (z) = -0.02008 0.14252
#
# Static dielectric constant tensor:
#      x y z
#    x 2.163950 0.000000 0.046670 
#    y 0.000000 2.043420 0.000000 
#    z 0.046670 0.000000 2.022950 
# 
# From -- ./inp_files/9588.got.cif
#   From: 2010.05.17/outbox.cif.g08.bks.cpg/sg5_5_cif.got.tgz:9588.got - 2010.06.03 18:56:24.
