data_PCOD9127416
_publ_section_title
;
Structure prediction by ZEFSAII (Michael W. Deem and Ramdas Pophale) SiO2 
 PCOD9127416
Probable space group: C 2
;
_chemical_formula_sum "Si O2"
_cell_formula_units_Z 22
_cell_length_a 15.018193
_cell_length_b 13.635585
_cell_length_c 12.131468
_cell_angle_alpha 90.000000
_cell_angle_beta 158.978795
_cell_angle_gamma 90.000000
_cell_volume 891.153388
_symmetry_space_group_name_H-M "C 2"
_symmetry_group_IT_number 5
_symmetry_cell_setting 'monoclinic'
loop_
_space_group_symop_operation_xyz
x,y,z
-x,y,-z
1/2+x,1/2+y,z
1/2-x,1/2+y,-z
loop_
_atom_site_type_symbol
_atom_site_label
_atom_site_fract_x
_atom_site_fract_y
_atom_site_fract_z
Si Si1 0.395365 0.046410 0.183513
Si Si2 0.597690 0.496484 0.491642
Si Si3 0.000000 0.354851 0.000000
Si Si4 0.343610 0.722303 0.000882
Si Si5 0.328249 0.174417 0.660053
Si Si6 0.068191 0.343445 0.449995
O O1 0.457694 0.108776 0.145031
O O2 0.573295 0.958422 0.424810
O O3 0.346021 0.134049 0.211205
O O4 0.130852 0.995140 0.855136
O O5 0.500000 0.474632 0.500000
O O6 0.819851 0.422929 0.720051
O O7 0.707200 0.605938 0.613577
O O8 0.172593 0.290512 0.122191
O O9 0.624285 0.678699 0.325630
O O10 0.360941 0.787967 0.132951
O O11 0.313841 0.283452 0.693137
O O12 0.000000 0.332380 0.500000
#
# Coordination Sequence:
#
# PCOD9127416 Si02
#       6
#     4   4   2   4   4   4
#     4  11  23  45  71 103 146 190 250 294 361 440
#     4  11  22  39  71 103 137 185 238 303 352 433
#     4  12  24  46  70 108 146 190 244 300 376 414
#     4   9  24  42  68 101 141 191 241 299 357 439
#     4   9  22  42  65  99 146 178 242 293 359 422
#     4  10  22  46  70 102 145 196 242 296 372 427
#
# _framework density 24.687110000000001
#
# number of rings (size 3 to 8) (size 9 to 14) (size 15 to 20)
#    1.091    0.727    0.000    3.818    0.000    4.364 
#    3.273    0.000    0.000    0.000    0.000    0.000 
#    0.000    0.000    0.000    0.000    0.000    0.000 
#
# Total GULP energy -61371.604171 kJ/mol
# GULP energy per Si atom -5579.236743 kJ/mol
# Density = 2.463092 g / cm^3
# Si number density = 24.687110 Si / 1000 Ang^3
#
#
#
# Elastic Constant Matrix: (Units=GPa)
#
#
# Indices 1 2 3 4 5 6 
#
# 1 92.8349 59.6522 19.5267 0.0002 -6.4739 0.0001
# 2 59.6522 194.1074 44.0897 0.0001 6.6584 0.0001
# 3 19.5267 44.0897 50.2904 0.0006 4.7488 0.0003
# 4 0.0002 0.0001 0.0006 18.5406 0.0003 -3.8925
# 5 -6.4739 6.6584 4.7488 0.0003 25.3342 0.0002
# 6 0.0001 0.0001 0.0003 -3.8925 0.0002 32.5619
#
#
#
# Elastic Compliance Matrix: (Units=1/GPa)
#
#
# Indices 1 2 3 4 5 6 
#
# 1 0.014214 -0.003972 -0.002523 0.000000 0.005149 0.000000
# 2 -0.003972 0.007553 -0.004883 0.000000 -0.002085 0.000000
# 3 -0.002523 -0.004883 0.025537 -0.000001 -0.004148 0.000000
# 4 0.000000 0.000000 -0.000001 0.055324 -0.000001 0.006614
# 5 0.005149 -0.002085 -0.004148 -0.000001 0.042114 0.000000
# 6 0.000000 0.000000 0.000000 0.006614 0.000000 0.031501
#
#
# Mechanical properties :
#
#
# Convention : Reuss Voigt Hill
#
# Bulk Modulus (GPa) = 40.73617 64.86332 52.79975
# Shear Modulus (GPa) = 24.13363 29.55160 26.84261
#
# Velocity S-wave (km/s) = 3.13002 3.46359 3.30102
# Velocity P-wave (km/s) = 5.44054 6.50588 5.99691
#
# Compressibility (1/GPa) = 0.02454821
#
# Stress axis : x y z
#
# Youngs Moduli (GPa) = 70.35533 132.39976 39.15955
#
# Poissons Ratio (x) = 0.52583 0.09880
# Poissons Ratio (y) = 0.27942 0.19120
# Poissons Ratio (z) = 0.17752 0.64647
#
# Static dielectric constant tensor:
#      x y z
#    x 1.958960 0.000000 0.038070 
#    y 0.000000 1.958220 0.000000 
#    z 0.038070 0.000000 2.082620 
# 
# From -- ./inp_files/56003.got.cif
#   From: 2010.05.17/outbox.cif.g08.bks.cpg/sg5_29_cif.got.tgz:56003.got - 2010.06.03 18:56:24.
