data_PCOD9127050
_publ_section_title
;
Structure prediction by ZEFSAII (Michael W. Deem and Ramdas Pophale) SiO2 
 PCOD9127050
Probable space group: C 2
;
_chemical_formula_sum "Si O2"
_cell_formula_units_Z 28
_cell_length_a 13.959016
_cell_length_b 8.697512
_cell_length_c 10.825177
_cell_angle_alpha 90.000000
_cell_angle_beta 106.175468
_cell_angle_gamma 90.000000
_cell_volume 1262.242797
_symmetry_space_group_name_H-M "C 2"
_symmetry_group_IT_number 5
_symmetry_cell_setting 'monoclinic'
loop_
_space_group_symop_operation_xyz
x,y,z
-x,y,-z
1/2+x,1/2+y,z
1/2-x,1/2+y,-z
loop_
_atom_site_type_symbol
_atom_site_label
_atom_site_fract_x
_atom_site_fract_y
_atom_site_fract_z
Si Si1 0.366009 0.968520 0.547291
Si Si2 0.168287 0.511190 0.961457
Si Si3 0.500000 0.501956 0.500000
Si Si4 0.000000 0.281599 0.000000
Si Si5 0.649828 0.334086 0.877221
Si Si6 0.912835 0.377333 0.300375
Si Si7 0.188701 0.789263 0.612555
Si Si8 0.007466 0.088586 0.767494
O O1 0.377862 0.870502 0.426845
O O2 0.475017 0.953339 0.653010
O O3 0.282689 0.886669 0.598695
O O4 0.334219 0.136576 0.479607
O O5 0.144685 0.690432 0.967506
O O6 0.154101 0.478392 0.811532
O O7 0.089495 0.395584 0.995781
O O8 0.276845 0.463368 0.043732
O O9 0.591787 0.395482 0.566878
O O10 0.460945 0.583710 0.612620
O O11 0.035309 0.173504 0.127102
O O12 0.695509 0.276005 0.763320
O O13 0.545336 0.420532 0.816884
O O14 0.906284 0.209386 0.238104
#
# Coordination Sequence:
#
# PCOD9127050 Si02
#       8
#     4   4   2   2   4   4   4   4
#     4  11  24  42  69 103 140 179 238 283 355 420
#     4  11  23  45  68  98 137 188 230 294 350 423
#     4  10  22  44  70  96 148 178 234 294 370 412
#     4  10  24  42  70 102 134 178 244 284 354 428
#     4  11  25  46  70  96 146 187 238 287 362 424
#     4  10  22  43  68  95 146 183 219 293 358 414
#     4  11  26  42  69 104 136 186 235 295 348 434
#     4  10  23  43  71 101 136 182 233 289 362 417
#
# _framework density 22.182735999999998
#
# number of rings (size 3 to 8) (size 9 to 14) (size 15 to 20)
#    0.000    1.429    1.429    3.429   12.000    0.571 
#    2.571    0.000    0.000    0.000    0.000    0.000 
#    0.000    0.000    0.000    0.000    0.000    0.000 
#
# Total GULP energy -78010.355765 kJ/mol
# GULP energy per Si atom -5572.168269 kJ/mol
# Density = 2.213225 g / cm^3
# Si number density = 22.182736 Si / 1000 Ang^3
#
#
#
# Elastic Constant Matrix: (Units=GPa)
#
#
# Indices 1 2 3 4 5 6 
#
# 1 44.8831 2.7577 26.6406 0.0000 -11.9260 0.0000
# 2 2.7577 123.5286 43.5679 0.0000 -8.4012 0.0000
# 3 26.6406 43.5679 118.5069 0.0000 -3.3444 0.0000
# 4 0.0000 0.0000 0.0000 41.5019 0.0000 3.4820
# 5 -11.9260 -8.4012 -3.3444 0.0000 27.2874 0.0000
# 6 0.0000 0.0000 0.0000 3.4820 0.0000 25.2290
#
#
#
# Elastic Compliance Matrix: (Units=1/GPa)
#
#
# Indices 1 2 3 4 5 6 
#
# 1 0.029977 0.002833 -0.007412 0.000000 0.013065 0.000000
# 2 0.002833 0.009736 -0.004111 0.000000 0.003732 0.000000
# 3 -0.007412 -0.004111 0.011529 0.000000 -0.003092 0.000000
# 4 0.000000 0.000000 0.000000 0.024378 0.000000 -0.003364
# 5 0.013065 0.003732 -0.003092 0.000000 0.043127 0.000000
# 6 0.000000 0.000000 0.000000 -0.003364 0.000000 0.040101
#
#
# Mechanical properties :
#
#
# Convention : Reuss Voigt Hill
#
# Bulk Modulus (GPa) = 29.53098 48.09457 38.81277
# Shear Modulus (GPa) = 26.66473 33.06715 29.86594
#
# Velocity S-wave (km/s) = 3.47082 3.86511 3.67326
# Velocity P-wave (km/s) = 5.42251 6.45344 5.96031
#
# Compressibility (1/GPa) = 0.03386274
#
# Stress axis : x y z
#
# Youngs Moduli (GPa) = 33.35891 102.71440 86.74077
#
# Poissons Ratio (x) = -0.29104 0.64291
# Poissons Ratio (y) = -0.09452 0.35658
# Poissons Ratio (z) = 0.24725 0.42225
#
# Static dielectric constant tensor:
#      x y z
#    x 1.802330 0.000000 -0.008000 
#    y 0.000000 1.914150 0.000000 
#    z -0.008000 0.000000 1.876990 
# 
# From -- ./inp_files/41783.got.cif
#   From: 2010.05.17/outbox.cif.g08.bks.cpg/sg5_21_cif.got.tgz:41783.got - 2010.06.03 18:56:24.
