data_PCOD9127289
_publ_section_title
;
Structure prediction by ZEFSAII (Michael W. Deem and Ramdas Pophale) SiO2 
 PCOD9127289
Probable space group: C 2
;
_chemical_formula_sum "Si O2"
_cell_formula_units_Z 22
_cell_length_a 25.224644
_cell_length_b 7.156083
_cell_length_c 16.448904
_cell_angle_alpha 90.000000
_cell_angle_beta 18.055769
_cell_angle_gamma 90.000000
_cell_volume 920.277064
_symmetry_space_group_name_H-M "C 2"
_symmetry_group_IT_number 5
_symmetry_cell_setting 'monoclinic'
loop_
_space_group_symop_operation_xyz
x,y,z
-x,y,-z
1/2+x,1/2+y,z
1/2-x,1/2+y,-z
loop_
_atom_site_type_symbol
_atom_site_label
_atom_site_fract_x
_atom_site_fract_y
_atom_site_fract_z
Si Si1 0.179858 0.973200 0.527852
Si Si2 0.446710 0.133981 0.390942
Si Si3 0.333644 0.599808 0.976504
Si Si4 0.676722 0.516865 0.193215
Si Si5 0.000000 0.575876 0.500000
Si Si6 0.689023 0.354744 0.698193
O O1 0.157436 0.795497 0.502584
O O2 0.225681 0.913489 0.551713
O O3 0.301157 0.130879 0.314553
O O4 0.992733 0.070436 0.801926
O O5 0.463800 0.161378 0.462592
O O6 0.338606 0.945605 0.533782
O O7 0.637253 0.120880 0.074874
O O8 0.380487 0.552551 0.816350
O O9 0.247524 0.804851 0.106769
O O10 0.174410 0.465700 0.230071
O O11 0.500000 0.548746 0.500000
O O12 0.500000 0.417636 0.000000
#
# Coordination Sequence:
#
# PCOD9127289 Si02
#       6
#     4   4   4   4   2   4
#     4  12  26  50  75 111 155 199 263 320 377 461
#     4  11  25  51  78 115 161 199 259 327 383 465
#     4  11  22  43  70 107 148 196 249 307 379 450
#     4  11  24  45  71 108 153 199 249 307 382 458
#     4  10  22  44  76 112 152 200 242 314 394 450
#     4  12  27  51  79 113 148 207 262 319 392 452
#
# _framework density 23.905842
#
# number of rings (size 3 to 8) (size 9 to 14) (size 15 to 20)
#    0.000    0.727    4.545    3.273    0.000    2.182 
#   18.000    0.909    0.000    0.000    0.000    0.000 
#    0.000    0.000    0.000    0.000    0.000    0.000 
#
# Total GULP energy -61429.174476 kJ/mol
# GULP energy per Si atom -5584.470407 kJ/mol
# Density = 2.385143 g / cm^3
# Si number density = 23.905842 Si / 1000 Ang^3
#
#
#
# Elastic Constant Matrix: (Units=GPa)
#
#
# Indices 1 2 3 4 5 6 
#
# 1 103.8800 27.5511 27.3167 0.0000 4.4691 0.0000
# 2 27.5511 100.7889 24.9880 -0.0001 13.0934 0.0000
# 3 27.3167 24.9880 162.6185 0.0000 20.1978 0.0000
# 4 0.0000 -0.0001 0.0000 37.6944 0.0000 -6.9475
# 5 4.4691 13.0934 20.1978 0.0000 34.6154 0.0000
# 6 0.0000 0.0000 0.0000 -6.9475 0.0000 26.9164
#
#
#
# Elastic Compliance Matrix: (Units=1/GPa)
#
#
# Indices 1 2 3 4 5 6 
#
# 1 0.010683 -0.002620 -0.001449 0.000000 0.000457 0.000000
# 2 -0.002620 0.011299 -0.000870 0.000000 -0.003428 0.000000
# 3 -0.001449 -0.000870 0.006967 0.000000 -0.003549 0.000000
# 4 0.000000 0.000000 0.000000 0.027854 0.000000 0.007190
# 5 0.000457 -0.003428 -0.003549 0.000000 0.032197 0.000000
# 6 0.000000 0.000000 0.000000 0.007190 0.000000 0.039008
#
#
# Mechanical properties :
#
#
# Convention : Reuss Voigt Hill
#
# Bulk Modulus (GPa) = 52.43728 58.55543 55.49636
# Shear Modulus (GPa) = 34.66350 39.00734 36.83542
#
# Velocity S-wave (km/s) = 3.81202 4.04382 3.92963
# Velocity P-wave (km/s) = 6.43101 6.80813 6.62226
#
# Compressibility (1/GPa) = 0.01907040
#
# Stress axis : x y z
#
# Youngs Moduli (GPa) = 93.60883 88.50255 143.52875
#
# Poissons Ratio (x) = 0.23191 0.20792
# Poissons Ratio (y) = 0.24530 0.12491
# Poissons Ratio (z) = 0.13560 0.07702
#
# Static dielectric constant tensor:
#      x y z
#    x 1.826560 0.000000 -0.028840 
#    y 0.000000 2.091880 0.000000 
#    z -0.028840 0.000000 1.977710 
# 
# From -- ./inp_files/57581.got.cif
#   From: 2010.05.17/outbox.cif.g08.bks.cpg/sg5_29_cif.got.tgz:57581.got - 2010.06.03 18:56:24.
