data_PCOD9127177
_publ_section_title
;
Structure prediction by ZEFSAII (Michael W. Deem and Ramdas Pophale) SiO2 
 PCOD9127177
Probable space group: C 2
;
_chemical_formula_sum "Si O2"
_cell_formula_units_Z 20
_cell_length_a 21.878006
_cell_length_b 7.598434
_cell_length_c 6.841349
_cell_angle_alpha 90.000000
_cell_angle_beta 53.210446
_cell_angle_gamma 90.000000
_cell_volume 910.792917
_symmetry_space_group_name_H-M "C 2"
_symmetry_group_IT_number 5
_symmetry_cell_setting 'monoclinic'
loop_
_space_group_symop_operation_xyz
x,y,z
-x,y,-z
1/2+x,1/2+y,z
1/2-x,1/2+y,-z
loop_
_atom_site_type_symbol
_atom_site_label
_atom_site_fract_x
_atom_site_fract_y
_atom_site_fract_z
Si Si1 0.355734 0.176750 0.111123
Si Si2 0.922279 0.061037 0.031993
Si Si3 0.423175 0.865039 0.746857
Si Si4 0.260916 0.678935 0.316111
Si Si5 0.242260 0.364682 0.052783
O O1 0.402834 0.006495 0.955025
O O2 0.405941 0.353663 0.039521
O O3 0.306201 0.154315 0.402238
O O4 0.296016 0.219190 0.051073
O O5 0.843521 0.154225 0.260675
O O6 0.934355 0.170486 0.810697
O O7 0.000000 0.086729 0.000000
O O8 0.500000 0.926659 0.500000
O O9 0.349024 0.851087 0.751263
O O10 0.265086 0.530228 0.141018
O O11 0.247286 0.848783 0.203276
#
# Coordination Sequence:
#
# PCOD9127177 Si02
#       5
#     4   4   4   4   4
#     4  11  25  47  74 104 137 200 235 285 356 426
#     4  10  26  45  64 106 143 182 230 295 356 414
#     4  11  26  46  69 106 145 189 233 298 357 410
#     4  10  23  42  75 100 137 187 236 287 347 420
#     4  10  22  44  68 102 138 180 236 291 336 422
#
# _framework density 21.95889
#
# number of rings (size 3 to 8) (size 9 to 14) (size 15 to 20)
#    0.000    1.600    2.000    0.000   14.000    3.200 
#    7.200    0.000    0.000    0.000    0.000    0.000 
#    0.000    0.000    0.000    0.000    0.000    0.000 
#
# Total GULP energy -55753.886810 kJ/mol
# GULP energy per Si atom -5575.388681 kJ/mol
# Density = 2.190891 g / cm^3
# Si number density = 21.958890 Si / 1000 Ang^3
#
#
#
# Elastic Constant Matrix: (Units=GPa)
#
#
# Indices 1 2 3 4 5 6 
#
# 1 134.7341 15.8414 32.8906 0.0000 -13.9453 0.0000
# 2 15.8414 98.4044 41.1623 0.0000 -3.1005 0.0000
# 3 32.8906 41.1623 145.9875 0.0000 -21.9993 0.0000
# 4 0.0000 0.0000 0.0000 27.5247 0.0000 -2.4400
# 5 -13.9453 -3.1005 -21.9993 0.0000 23.3646 0.0000
# 6 0.0000 0.0000 0.0000 -2.4400 0.0000 23.0888
#
#
#
# Elastic Compliance Matrix: (Units=1/GPa)
#
#
# Indices 1 2 3 4 5 6 
#
# 1 0.008159 -0.000752 -0.001057 0.000000 0.003775 0.000000
# 2 -0.000752 0.011654 -0.003439 0.000000 -0.002141 0.000000
# 3 -0.001057 -0.003439 0.009199 0.000000 0.007574 0.000000
# 4 0.000000 0.000000 0.000000 0.036675 0.000000 0.003876
# 5 0.003775 -0.002141 0.007574 0.000000 0.051900 0.000000
# 6 0.000000 0.000000 0.000000 0.003876 0.000000 0.043721
#
#
# Mechanical properties :
#
#
# Convention : Reuss Voigt Hill
#
# Bulk Modulus (GPa) = 54.00941 62.10162 58.05551
# Shear Modulus (GPa) = 28.09343 34.07773 31.08558
#
# Velocity S-wave (km/s) = 3.58070 3.94367 3.76656
# Velocity P-wave (km/s) = 6.46098 7.00564 6.73882
#
# Compressibility (1/GPa) = 0.01851529
#
# Stress axis : x y z
#
# Youngs Moduli (GPa) = 122.56010 85.80456 108.70524
#
# Poissons Ratio (x) = 0.06455 0.11494
# Poissons Ratio (y) = 0.09220 0.37385
# Poissons Ratio (z) = 0.12959 0.29509
#
# Static dielectric constant tensor:
#      x y z
#    x 1.846820 0.000000 0.006090 
#    y 0.000000 2.001300 0.000000 
#    z 0.006090 0.000000 1.799930 
# 
# From -- ./inp_files/9253.got.cif
#   From: 2010.05.17/outbox.cif.g08.bks.cpg/sg5_5_cif.got.tgz:9253.got - 2010.06.03 18:56:24.
