data_PCOD9127276
_publ_section_title
;
Structure prediction by ZEFSAII (Michael W. Deem and Ramdas Pophale) SiO2 
 PCOD9127276
Probable space group: C 2
;
_chemical_formula_sum "Si O2"
_cell_formula_units_Z 26
_cell_length_a 20.355545
_cell_length_b 11.912551
_cell_length_c 14.391549
_cell_angle_alpha 90.000000
_cell_angle_beta 162.410519
_cell_angle_gamma 90.000000
_cell_volume 1054.586390
_symmetry_space_group_name_H-M "C 2"
_symmetry_group_IT_number 5
_symmetry_cell_setting 'monoclinic'
loop_
_space_group_symop_operation_xyz
x,y,z
-x,y,-z
1/2+x,1/2+y,z
1/2-x,1/2+y,-z
loop_
_atom_site_type_symbol
_atom_site_label
_atom_site_fract_x
_atom_site_fract_y
_atom_site_fract_z
Si Si1 0.753313 0.863570 0.197858
Si Si2 0.439740 0.461167 0.022356
Si Si3 0.078475 0.168878 0.200377
Si Si4 0.421943 0.790392 0.221804
Si Si5 0.771638 0.602768 0.744793
Si Si6 0.000000 0.454185 0.500000
Si Si7 0.933623 0.736817 0.134377
O O1 0.000000 0.837925 0.500000
O O2 0.771527 0.970498 0.291720
O O3 0.607522 0.761142 0.039987
O O4 0.610932 0.872525 0.910140
O O5 0.206543 0.519340 0.736666
O O6 0.500000 0.413270 0.000000
O O7 0.601225 0.552226 0.286796
O O8 0.429781 0.352744 0.073350
O O9 0.314325 0.216404 0.512956
O O10 0.000000 0.108606 0.000000
O O11 0.191401 0.651221 0.101461
O O12 0.464262 0.870914 0.365242
O O13 0.190581 0.736139 0.935605
O O14 0.000000 0.612146 0.000000
O O15 0.598729 0.689038 0.462257
#
# Coordination Sequence:
#
# PCOD9127276 Si02
#       7
#     4   4   4   4   4   2   4
#     4  12  28  47  72 115 156 204 254 323 394 467
#     4  10  23  43  73  99 144 188 248 311 384 457
#     4  11  26  45  67 106 150 195 248 317 389 468
#     4  11  23  49  77 109 153 197 260 328 387 473
#     4  12  25  48  81 115 152 206 265 324 396 477
#     4  10  22  44  74 110 142 206 262 320 386 482
#     4  11  23  46  74 109 143 199 262 315 391 469
#
# _framework density 24.654212999999999
#
# number of rings (size 3 to 8) (size 9 to 14) (size 15 to 20)
#    0.000    0.923    3.077    3.692    5.385    1.231 
#   16.615    0.000    0.000    0.000    0.000    0.000 
#    0.000    0.000    0.000    0.000    0.000    0.000 
#
# Total GULP energy -72394.684069 kJ/mol
# GULP energy per Si atom -5568.821851 kJ/mol
# Density = 2.459810 g / cm^3
# Si number density = 24.654213 Si / 1000 Ang^3
#
#
#
# Elastic Constant Matrix: (Units=GPa)
#
#
# Indices 1 2 3 4 5 6 
#
# 1 72.7605 -1.8296 13.3526 -0.0015 14.8221 -0.0002
# 2 -1.8296 84.2102 32.4900 -0.0027 21.4953 -0.0006
# 3 13.3526 32.4900 101.5712 -0.0011 33.0088 -0.0001
# 4 -0.0015 -0.0027 -0.0011 31.6862 -0.0015 -12.9170
# 5 14.8221 21.4953 33.0088 -0.0015 60.0248 -0.0002
# 6 -0.0002 -0.0006 -0.0001 -12.9170 -0.0002 0.3673
#
#
#
# Elastic Compliance Matrix: (Units=1/GPa)
#
#
# Indices 1 2 3 4 5 6 
#
# 1 0.014753 0.001741 -0.001351 0.000000 -0.003523 -0.000002
# 2 0.001741 0.014213 -0.003630 -0.000001 -0.003523 -0.000004
# 3 -0.001351 -0.003630 0.012971 0.000000 -0.005500 0.000001
# 4 0.000000 -0.000001 0.000000 -0.002366 0.000000 -0.083222
# 5 -0.003523 -0.003523 -0.005500 0.000000 0.021816 -0.000001
# 6 -0.000002 -0.000004 0.000001 -0.083222 -0.000001 -0.204147
#
#
# Mechanical properties :
#
#
# Convention : Reuss Voigt Hill
#
# Bulk Modulus (GPa) = 28.20316 38.50753 33.35535
# Shear Modulus (GPa) = -40.17334 32.71759 -3.72788
#
# Velocity S-wave (km/s) = -4.04105 3.64683 -1.23099
# Velocity P-wave (km/s) = 3.21078 5.77802 3.39679
#
# Compressibility (1/GPa) = 0.03545702
#
# Stress axis : x y z
#
# Youngs Moduli (GPa) = 67.78149 70.35881 77.09258
#
# Poissons Ratio (x) = -0.12252 0.10418
# Poissons Ratio (y) = -0.11803 0.27986
# Poissons Ratio (z) = 0.09160 0.25542
#
# Static dielectric constant tensor:
#      x y z
#    x 1.436170 0.000000 -0.251980 
#    y 0.000000 2.054300 0.000000 
#    z -0.251980 0.000000 1.987880 
# 
# From -- ./inp_files/57065.got.cif
#   From: 2010.05.17/outbox.cif.g08.bks.cpg/sg5_29_cif.got.tgz:57065.got - 2010.06.03 18:56:24.
