data_PCOD9127605
_publ_section_title
;
Structure prediction by ZEFSAII (Michael W. Deem and Ramdas Pophale) SiO2 
 PCOD9127605
Probable space group: C 2
;
_chemical_formula_sum "Si O2"
_cell_formula_units_Z 32
_cell_length_a 15.658733
_cell_length_b 21.891915
_cell_length_c 15.146196
_cell_angle_alpha 90.000000
_cell_angle_beta 161.136571
_cell_angle_gamma 90.000000
_cell_volume 1678.679388
_symmetry_space_group_name_H-M "C 2"
_symmetry_group_IT_number 5
_symmetry_cell_setting 'monoclinic'
loop_
_space_group_symop_operation_xyz
x,y,z
-x,y,-z
1/2+x,1/2+y,z
1/2-x,1/2+y,-z
loop_
_atom_site_type_symbol
_atom_site_label
_atom_site_fract_x
_atom_site_fract_y
_atom_site_fract_z
Si Si1 0.340000 0.754620 0.936176
Si Si2 0.874439 0.010292 0.204916
Si Si3 0.409146 0.588641 0.719492
Si Si4 0.558780 0.212738 0.157382
Si Si5 0.372732 0.067772 0.783516
Si Si6 0.483765 0.715123 0.266740
Si Si7 0.389427 0.126564 0.296182
Si Si8 0.765338 0.892637 0.202454
O O1 0.127076 0.699981 0.730345
O O2 0.230024 0.822839 0.825640
O O3 0.500000 0.745725 0.000000
O O4 0.494665 0.746057 0.180285
O O5 0.012675 0.024805 0.247364
O O6 0.091137 0.038263 0.485514
O O7 0.803872 0.941787 0.163107
O O8 0.598973 0.046782 0.937302
O O9 0.474989 0.643256 0.715079
O O10 0.104776 0.597652 0.442774
O O11 0.598653 0.602949 0.987657
O O12 0.634735 0.140952 0.220478
O O13 0.799591 0.238269 0.451515
O O14 0.500000 0.235469 0.000000
O O15 0.299036 0.219971 0.963012
O O16 0.500000 0.045902 0.000000
O O17 0.500000 0.112507 0.500000
O O18 0.000000 0.901829 0.500000
O O19 0.500000 0.901296 0.000000
#
# Coordination Sequence:
#
# PCOD9127605 Si02
#       8
#     4   4   4   4   4   4   4   4
#     4  10  23  40  62  87 119 159 208 249 293 354
#     4  12  21  35  52  80 116 151 190 235 281 342
#     4  11  21  33  53  82 113 144 190 235 294 364
#     4  11  21  34  52  82 116 153 194 233 288 362
#     4  11  20  32  51  75 111 155 188 222 274 342
#     4  11  20  36  55  82 115 154 193 244 298 347
#     4  11  21  36  56  81 111 148 184 244 304 350
#     4  11  24  40  57  83 119 162 205 236 275 349
#
# _framework density 19.062604
#
# number of rings (size 3 to 8) (size 9 to 14) (size 15 to 20)
#    0.000    1.000    2.500    7.125    0.000    6.000 
#    0.000    0.000    0.000    0.000    0.000    3.500 
#    0.000    0.000    0.000    0.000    0.000    0.000 
#
# Total GULP energy -89333.789854 kJ/mol
# GULP energy per Si atom -5583.361866 kJ/mol
# Density = 1.901922 g / cm^3
# Si number density = 19.062604 Si / 1000 Ang^3
#
#
#
# Elastic Constant Matrix: (Units=GPa)
#
#
# Indices 1 2 3 4 5 6 
#
# 1 97.2193 26.3431 28.9545 -0.0035 -13.7010 -0.0168
# 2 26.3431 53.6415 -11.5203 -0.0046 -0.5097 -0.0206
# 3 28.9545 -11.5203 89.3556 -0.0106 -9.6149 -0.0587
# 4 -0.0035 -0.0046 -0.0106 13.0449 -0.0011 -29.1813
# 5 -13.7010 -0.5097 -9.6149 -0.0011 43.3926 -0.0092
# 6 -0.0168 -0.0206 -0.0587 -29.1813 -0.0092 -134.9066
#
#
#
# Elastic Compliance Matrix: (Units=1/GPa)
#
#
# Indices 1 2 3 4 5 6 
#
# 1 0.014636 -0.008329 -0.005460 0.000000 0.003314 0.000002
# 2 -0.008329 0.023939 0.005668 0.000000 -0.001093 -0.000005
# 3 -0.005460 0.005668 0.013843 -0.000002 0.001410 -0.000006
# 4 0.000000 0.000000 -0.000002 0.051661 -0.000001 -0.011175
# 5 0.003314 -0.001093 0.001410 -0.000001 0.024391 -0.000002
# 6 0.000002 -0.000005 -0.000006 -0.011175 -0.000002 -0.004995
#
#
# Mechanical properties :
#
#
# Convention : Reuss Voigt Hill
#
# Bulk Modulus (GPa) = 27.64242 36.41901 32.03071
# Shear Modulus (GPa) = 32.94347 -2.59788 15.17279
#
# Velocity S-wave (km/s) = 4.16164 -1.16866 2.82431
# Velocity P-wave (km/s) = 6.13389 4.16238 5.24166
#
# Compressibility (1/GPa) = 0.03617628
#
# Stress axis : x y z
#
# Youngs Moduli (GPa) = 68.32522 41.77228 72.23950
#
# Poissons Ratio (x) = 0.34791 0.39441
# Poissons Ratio (y) = 0.56906 -0.40943
# Poissons Ratio (z) = 0.37304 -0.23675
#
# Static dielectric constant tensor:
#      x y z
#    x 1.955960 0.000010 0.233660 
#    y 0.000010 1.652920 0.000010 
#    z 0.233660 0.000010 1.975250 
# 
# From -- ./inp_files/55048.got.cif
#   From: 2010.05.17/outbox.cif.g08.bks.cpg/sg5_28_cif.got.tgz:55048.got - 2010.06.03 18:56:24.
