data_PCOD9127217
_publ_section_title
;
Structure prediction by ZEFSAII (Michael W. Deem and Ramdas Pophale) SiO2 
 PCOD9127217
Probable space group: C 2
;
_chemical_formula_sum "Si O2"
_cell_formula_units_Z 26
_cell_length_a 16.547489
_cell_length_b 7.447287
_cell_length_c 9.371272
_cell_angle_alpha 90.000000
_cell_angle_beta 89.372577
_cell_angle_gamma 90.000000
_cell_volume 1154.789152
_symmetry_space_group_name_H-M "C 2"
_symmetry_group_IT_number 5
_symmetry_cell_setting 'monoclinic'
loop_
_space_group_symop_operation_xyz
x,y,z
-x,y,-z
1/2+x,1/2+y,z
1/2-x,1/2+y,-z
loop_
_atom_site_type_symbol
_atom_site_label
_atom_site_fract_x
_atom_site_fract_y
_atom_site_fract_z
Si Si1 0.500000 0.620311 0.000000
Si Si2 0.163991 0.173564 0.112628
Si Si3 0.657489 0.431200 0.542211
Si Si4 0.933221 0.798718 0.186199
Si Si5 0.087575 0.646880 0.330764
Si Si6 0.337096 0.812616 0.565889
Si Si7 0.177639 0.749987 0.066498
O O1 0.576566 0.729740 0.054167
O O2 0.471851 0.483462 0.125442
O O3 0.175338 0.236735 0.273624
O O4 0.164417 0.957041 0.108924
O O5 0.234812 0.231200 0.004399
O O6 0.632023 0.353614 0.694922
O O7 0.606831 0.318940 0.427703
O O8 0.640423 0.641904 0.529529
O O9 0.752524 0.397052 0.515435
O O10 0.003098 0.679735 0.254670
O O11 0.887734 0.707799 0.054843
O O12 0.097250 0.469532 0.424466
O O13 0.157257 0.637393 0.207389
#
# Coordination Sequence:
#
# PCOD9127217 Si02
#       7
#     2   4   4   4   4   4   4
#     4  10  22  44  70 102 152 176 234 304 366 420
#     4  11  22  43  67 109 139 191 238 295 365 430
#     4  12  25  45  74 105 147 195 245 297 365 438
#     4  11  22  46  73 102 144 195 227 308 375 417
#     4  12  24  45  74 104 146 188 245 308 360 431
#     4  12  25  45  72 106 145 195 249 300 356 438
#     4  11  22  41  76 102 146 188 238 298 368 432
#
# _framework density 22.514934
#
# number of rings (size 3 to 8) (size 9 to 14) (size 15 to 20)
#    0.000    0.615    7.692    1.385    2.154    0.000 
#    5.538    6.154    0.000    0.000    0.000    0.000 
#    0.000    0.000    0.000    0.000    0.000    0.000 
#
# Total GULP energy -72793.894831 kJ/mol
# GULP energy per Si atom -5599.530372 kJ/mol
# Density = 2.246369 g / cm^3
# Si number density = 22.514934 Si / 1000 Ang^3
#
#
#
# Elastic Constant Matrix: (Units=GPa)
#
#
# Indices 1 2 3 4 5 6 
#
# 1 80.8865 3.5839 2.2421 0.0000 22.3722 0.0000
# 2 3.5839 70.8897 5.3566 0.0000 20.3458 0.0000
# 3 2.2421 5.3566 39.1517 0.0000 6.2013 0.0000
# 4 0.0000 0.0000 0.0000 28.5923 0.0000 2.7344
# 5 22.3722 20.3458 6.2013 0.0000 40.2159 0.0000
# 6 0.0000 0.0000 0.0000 2.7344 0.0000 28.4294
#
#
#
# Elastic Compliance Matrix: (Units=1/GPa)
#
#
# Indices 1 2 3 4 5 6 
#
# 1 0.014830 0.001880 0.000360 0.000000 -0.009256 0.000000
# 2 0.001880 0.016776 -0.000915 0.000000 -0.009392 0.000000
# 3 0.000360 -0.000915 0.026246 0.000000 -0.003784 0.000000
# 4 0.000000 0.000000 0.000000 0.035299 0.000000 -0.003395
# 5 -0.009256 -0.009392 -0.003784 0.000000 0.035350 0.000000
# 6 0.000000 0.000000 0.000000 -0.003395 0.000000 0.035501
#
#
# Mechanical properties :
#
#
# Convention : Reuss Voigt Hill
#
# Bulk Modulus (GPa) = 16.52895 23.69921 20.11408
# Shear Modulus (GPa) = 27.54507 31.43055 29.48781
#
# Velocity S-wave (km/s) = 3.50153 3.74034 3.62290
# Velocity P-wave (km/s) = 4.86876 5.40393 5.14331
#
# Compressibility (1/GPa) = 0.06049990
#
# Stress axis : x y z
#
# Youngs Moduli (GPa) = 67.43110 59.60876 38.10153
#
# Poissons Ratio (x) = -0.11205 -0.01370
# Poissons Ratio (y) = -0.12675 0.03487
# Poissons Ratio (z) = -0.02425 0.05456
#
# Static dielectric constant tensor:
#      x y z
#    x 1.834850 0.000000 -0.006400 
#    y 0.000000 1.823310 0.000000 
#    z -0.006400 0.000000 1.808700 
# 
# From -- ./inp_files/26780.got.cif
#   From: 2010.05.17/outbox.cif.g08.bks.cpg/sg5_14_cif.got.tgz:26780.got - 2010.06.03 18:56:24.
