data_PCOD9127194
_publ_section_title
;
Structure prediction by ZEFSAII (Michael W. Deem and Ramdas Pophale) SiO2 
 PCOD9127194
Probable space group: C 2
;
_chemical_formula_sum "Si O2"
_cell_formula_units_Z 28
_cell_length_a 16.274850
_cell_length_b 8.500398
_cell_length_c 11.472814
_cell_angle_alpha 90.000000
_cell_angle_beta 124.637157
_cell_angle_gamma 90.000000
_cell_volume 1305.880899
_symmetry_space_group_name_H-M "C 2"
_symmetry_group_IT_number 5
_symmetry_cell_setting 'monoclinic'
loop_
_space_group_symop_operation_xyz
x,y,z
-x,y,-z
1/2+x,1/2+y,z
1/2-x,1/2+y,-z
loop_
_atom_site_type_symbol
_atom_site_label
_atom_site_fract_x
_atom_site_fract_y
_atom_site_fract_z
Si Si1 0.230870 0.953620 0.132302
Si Si2 0.000000 0.444764 0.000000
Si Si3 0.326224 0.374058 0.316876
Si Si4 0.159141 0.445875 0.527898
Si Si5 0.839563 0.085520 0.542920
Si Si6 0.875222 0.176254 0.807604
Si Si7 0.304894 0.091472 0.956060
Si Si8 0.500000 0.157237 0.500000
O O1 0.208783 0.777059 0.073417
O O2 0.289813 0.942360 0.302596
O O3 0.135191 0.062629 0.088954
O O4 0.290742 0.041242 0.078458
O O5 0.049935 0.321084 0.128862
O O6 0.088437 0.541061 0.011264
O O7 0.365621 0.475709 0.457324
O O8 0.233611 0.263345 0.282446
O O9 0.279319 0.491079 0.183420
O O10 0.419413 0.262223 0.365587
O O11 0.149716 0.266068 0.483310
O O12 0.227816 0.535397 0.489636
O O13 0.058920 0.543787 0.460293
O O14 0.895781 0.071066 0.711045
#
# Coordination Sequence:
#
# PCOD9127194 Si02
#       8
#     4   2   4   4   4   4   4   2
#     4  11  23  45  70  94 139 180 220 274 349 388
#     4  10  24  44  68 104 132 176 236 270 336 400
#     4  11  22  42  65  98 135 175 220 277 335 399
#     4  11  23  41  70  99 132 178 222 276 337 402
#     4  11  20  43  68  96 132 177 217 279 344 393
#     4  10  22  44  68  96 136 174 220 287 331 395
#     4  11  24  45  70  96 136 181 223 281 331 404
#     4  12  24  42  62 100 140 170 228 266 332 404
#
# _framework density 21.441465999999998
#
# number of rings (size 3 to 8) (size 9 to 14) (size 15 to 20)
#    0.000    1.143    5.714    1.714    0.000    2.286 
#    5.143    0.000    0.000    0.000    0.000    0.000 
#    0.000    0.000    0.000    0.000    0.000    0.000 
#
# Total GULP energy -78165.765741 kJ/mol
# GULP energy per Si atom -5583.268981 kJ/mol
# Density = 2.139266 g / cm^3
# Si number density = 21.441466 Si / 1000 Ang^3
#
#
#
# Elastic Constant Matrix: (Units=GPa)
#
#
# Indices 1 2 3 4 5 6 
#
# 1 89.6770 63.4599 38.7040 0.0000 -6.1946 0.0000
# 2 63.4599 165.5342 32.7588 0.0000 -3.4832 0.0000
# 3 38.7040 32.7588 62.2864 0.0000 -14.8768 0.0000
# 4 0.0000 0.0000 0.0000 30.2591 0.0000 -15.3699
# 5 -6.1946 -3.4832 -14.8768 0.0000 35.5434 0.0000
# 6 0.0000 0.0000 0.0000 -15.3699 0.0000 30.7594
#
#
#
# Elastic Compliance Matrix: (Units=1/GPa)
#
#
# Indices 1 2 3 4 5 6 
#
# 1 0.018868 -0.005453 -0.009110 0.000000 -0.001059 0.000000
# 2 -0.005453 0.008346 -0.001147 0.000000 -0.000613 0.000000
# 3 -0.009110 -0.001147 0.024347 0.000000 0.008490 0.000000
# 4 0.000000 0.000000 0.000000 0.044289 0.000000 0.022130
# 5 -0.001059 -0.000613 0.008490 0.000000 0.031444 0.000000
# 6 0.000000 0.000000 0.000000 0.022130 0.000000 0.043568
#
#
# Mechanical properties :
#
#
# Convention : Reuss Voigt Hill
#
# Bulk Modulus (GPa) = 49.64939 65.26033 57.45486
# Shear Modulus (GPa) = 23.92401 31.48405 27.70403
#
# Velocity S-wave (km/s) = 3.34396 3.83609 3.59845
# Velocity P-wave (km/s) = 6.17377 7.07979 6.64224
#
# Compressibility (1/GPa) = 0.02014123
#
# Stress axis : x y z
#
# Youngs Moduli (GPa) = 52.99860 119.82255 41.07340
#
# Poissons Ratio (x) = 0.65339 0.37416
# Poissons Ratio (y) = 0.28900 0.04712
# Poissons Ratio (z) = 0.48279 0.13746
#
# Static dielectric constant tensor:
#      x y z
#    x 1.768640 0.000000 0.037030 
#    y 0.000000 1.767340 0.000000 
#    z 0.037030 0.000000 1.846930 
# 
# From -- ./inp_files/41798.got.cif
#   From: 2010.05.17/outbox.cif.g08.bks.cpg/sg5_21_cif.got.tgz:41798.got - 2010.06.03 18:56:24.
