data_PCOD9127512
_publ_section_title
;
Structure prediction by ZEFSAII (Michael W. Deem and Ramdas Pophale) SiO2 
 PCOD9127512
Probable space group: C 2
;
_chemical_formula_sum "Si O2"
_cell_formula_units_Z 24
_cell_length_a 13.686413
_cell_length_b 13.105013
_cell_length_c 10.833405
_cell_angle_alpha 90.000000
_cell_angle_beta 146.209989
_cell_angle_gamma 90.000000
_cell_volume 1080.648836
_symmetry_space_group_name_H-M "C 2"
_symmetry_group_IT_number 5
_symmetry_cell_setting 'monoclinic'
loop_
_space_group_symop_operation_xyz
x,y,z
-x,y,-z
1/2+x,1/2+y,z
1/2-x,1/2+y,-z
loop_
_atom_site_type_symbol
_atom_site_label
_atom_site_fract_x
_atom_site_fract_y
_atom_site_fract_z
Si Si1 0.692588 0.858550 0.874459
Si Si2 0.969040 0.820350 0.613543
Si Si3 0.579147 0.904634 0.215165
Si Si4 0.296202 0.241893 0.759464
Si Si5 0.799242 0.974556 0.762621
Si Si6 0.852972 0.612175 0.611623
O O1 0.527891 0.848978 0.789694
O O2 0.704154 0.761783 0.793751
O O3 0.693085 0.954802 0.779199
O O4 0.866129 0.868863 0.140967
O O5 0.785623 0.881009 0.432057
O O6 0.950264 0.709212 0.656466
O O7 0.000000 0.810182 0.500000
O O8 0.544153 0.023476 0.208677
O O9 0.500000 0.876546 0.000000
O O10 0.302325 0.358168 0.714742
O O11 0.230356 0.162516 0.589347
O O12 0.500000 0.215954 0.000000
O O13 0.728881 0.053128 0.590089
O O14 0.000000 0.001495 0.000000
#
# Coordination Sequence:
#
# PCOD9127512 Si02
#       6
#     4   4   4   4   4   4
#     4  10  22  48  71  95 145 192 227 284 362 412
#     4  12  26  48  72 100 146 192 226 298 359 412
#     4  12  27  45  71 107 140 182 245 296 341 423
#     4   9  18  41  72  94 137 190 220 288 357 416
#     4   9  20  41  73  99 142 187 229 291 352 419
#     4  12  23  41  73 110 131 183 249 281 353 422
#
# _framework density 22.208880000000001
#
# number of rings (size 3 to 8) (size 9 to 14) (size 15 to 20)
#    1.000    0.333    3.333    2.500    2.333    0.667 
#    0.000    3.333    0.000    0.000    0.000    0.000 
#    0.000    0.000    0.000    0.000    0.000    0.000 
#
# Total GULP energy -66956.578259 kJ/mol
# GULP energy per Si atom -5579.714855 kJ/mol
# Density = 2.215833 g / cm^3
# Si number density = 22.208880 Si / 1000 Ang^3
#
#
#
# Elastic Constant Matrix: (Units=GPa)
#
#
# Indices 1 2 3 4 5 6 
#
# 1 180.3557 30.7181 44.7642 0.0000 -22.8175 0.0000
# 2 30.7181 73.4706 20.6053 0.0000 -10.5826 0.0000
# 3 44.7642 20.6053 113.3071 0.0000 -11.9981 0.0000
# 4 0.0000 0.0000 0.0000 20.8099 0.0000 -19.2562
# 5 -22.8175 -10.5826 -11.9981 0.0000 35.5656 0.0000
# 6 0.0000 0.0000 0.0000 -19.2562 0.0000 31.6712
#
#
#
# Elastic Compliance Matrix: (Units=1/GPa)
#
#
# Indices 1 2 3 4 5 6 
#
# 1 0.006744 -0.001809 -0.002006 0.000000 0.003112 0.000000
# 2 -0.001809 0.015264 -0.001766 0.000000 0.002785 0.000000
# 3 -0.002006 -0.001766 0.010108 0.000000 0.001598 0.000000
# 4 0.000000 0.000000 0.000000 0.109865 0.000000 0.066798
# 5 0.003112 0.002785 0.001598 0.000000 0.031481 0.000000
# 6 0.000000 0.000000 0.000000 0.066798 0.000000 0.072188
#
#
# Mechanical properties :
#
#
# Convention : Reuss Voigt Hill
#
# Bulk Modulus (GPa) = 47.72302 62.14540 54.93421
# Shear Modulus (GPa) = 18.95397 35.67906 27.31651
#
# Velocity S-wave (km/s) = 2.92454 4.01249 3.51091
# Velocity P-wave (km/s) = 5.73924 7.03632 6.42062
#
# Compressibility (1/GPa) = 0.02095425
#
# Stress axis : x y z
#
# Youngs Moduli (GPa) = 148.27374 65.51476 98.92742
#
# Poissons Ratio (x) = 0.11851 0.19845
# Poissons Ratio (y) = 0.26822 0.17472
# Poissons Ratio (z) = 0.29743 0.11571
#
# Static dielectric constant tensor:
#      x y z
#    x 1.873000 0.000000 -0.006470 
#    y 0.000000 1.817820 0.000000 
#    z -0.006470 0.000000 1.850210 
# 
# From -- ./inp_files/42971.got.cif
#   From: 2010.05.17/outbox.cif.g08.bks.cpg/sg5_22_cif.got.tgz:42971.got - 2010.06.03 18:56:24.
