data_PCOD9127272
_publ_section_title
;
Structure prediction by ZEFSAII (Michael W. Deem and Ramdas Pophale) SiO2 
 PCOD9127272
Probable space group: C 2
;
_chemical_formula_sum "Si O2"
_cell_formula_units_Z 22
_cell_length_a 16.499840
_cell_length_b 7.401535
_cell_length_c 12.012416
_cell_angle_alpha 90.000000
_cell_angle_beta 144.490467
_cell_angle_gamma 90.000000
_cell_volume 852.093428
_symmetry_space_group_name_H-M "C 2"
_symmetry_group_IT_number 5
_symmetry_cell_setting 'monoclinic'
loop_
_space_group_symop_operation_xyz
x,y,z
-x,y,-z
1/2+x,1/2+y,z
1/2-x,1/2+y,-z
loop_
_atom_site_type_symbol
_atom_site_label
_atom_site_fract_x
_atom_site_fract_y
_atom_site_fract_z
Si Si1 0.839246 0.518610 0.011309
Si Si2 0.739750 0.429724 0.121208
Si Si3 0.000000 0.326221 0.000000
Si Si4 0.456417 0.492030 0.271075
Si Si5 0.752741 0.377597 0.604338
Si Si6 0.825869 0.271952 0.440435
O O1 0.817013 0.729202 0.969421
O O2 0.948953 0.437851 0.050747
O O3 0.681832 0.437699 0.816202
O O4 0.856363 0.485795 0.161867
O O5 0.207052 0.406167 0.695847
O O6 0.604208 0.538225 0.921086
O O7 0.853527 0.249815 0.789598
O O8 0.584951 0.353953 0.418322
O O9 0.523732 0.674397 0.394446
O O10 0.796720 0.362162 0.525796
O O11 0.767816 0.585974 0.664643
#
# Coordination Sequence:
#
# PCOD9127272 Si02
#       6
#     4   4   2   4   4   4
#     4  10  23  43  72 107 143 198 248 299 383 436
#     4  10  22  44  74 103 148 198 241 309 368 443
#     4  12  24  40  68 102 144 188 250 310 356 442
#     4   8  23  42  70 108 143 194 250 293 386 435
#     4  10  24  41  68 107 149 194 252 301 378 433
#     4  10  22  46  71 108 148 195 248 311 364 445
#
# _framework density 25.818766
#
# number of rings (size 3 to 8) (size 9 to 14) (size 15 to 20)
#    2.182    0.000    1.818    0.000    5.091    3.636 
#    6.545    0.000    0.000    4.364    0.000    0.000 
#    0.000    0.000    0.000    0.000    0.000    0.000 
#
# Total GULP energy -61303.626783 kJ/mol
# GULP energy per Si atom -5573.056980 kJ/mol
# Density = 2.576000 g / cm^3
# Si number density = 25.818766 Si / 1000 Ang^3
#
#
#
# Elastic Constant Matrix: (Units=GPa)
#
#
# Indices 1 2 3 4 5 6 
#
# 1 112.7634 37.7033 64.9941 0.0000 -6.4133 0.0000
# 2 37.7033 46.3655 11.3114 0.0000 -4.5176 0.0000
# 3 64.9941 11.3114 181.4882 0.0000 -11.0434 0.0000
# 4 0.0000 0.0000 0.0000 35.3673 0.0000 -1.9862
# 5 -6.4133 -4.5176 -11.0434 0.0000 56.7173 0.0000
# 6 0.0000 0.0000 0.0000 -1.9862 0.0000 25.8158
#
#
#
# Elastic Compliance Matrix: (Units=1/GPa)
#
#
# Indices 1 2 3 4 5 6 
#
# 1 0.015460 -0.011403 -0.004832 0.000000 -0.000101 0.000000
# 2 -0.011403 0.030437 0.002283 0.000000 0.001579 0.000000
# 3 -0.004832 0.002283 0.007161 0.000000 0.001030 0.000000
# 4 0.000000 0.000000 0.000000 0.028397 0.000000 0.002185
# 5 -0.000101 0.001579 0.001030 0.000000 0.017946 0.000000
# 6 0.000000 0.000000 0.000000 0.002185 0.000000 0.038904
#
#
# Mechanical properties :
#
#
# Convention : Reuss Voigt Hill
#
# Bulk Modulus (GPa) = 39.75531 63.18163 51.46847
# Shear Modulus (GPa) = 28.63780 38.68730 33.66255
#
# Velocity S-wave (km/s) = 3.33406 3.87514 3.61474
# Velocity P-wave (km/s) = 5.50023 6.67432 6.11552
#
# Compressibility (1/GPa) = 0.02515387
#
# Stress axis : x y z
#
# Youngs Moduli (GPa) = 64.68309 32.85450 139.64921
#
# Poissons Ratio (x) = 0.37463 0.67478
# Poissons Ratio (y) = 0.73756 -0.31876
# Poissons Ratio (z) = 0.31255 -0.07499
#
# Static dielectric constant tensor:
#      x y z
#    x 2.039740 0.000000 -0.004470 
#    y 0.000000 2.073710 0.000000 
#    z -0.004470 0.000000 2.197360 
# 
# From -- ./inp_files/55836.got.cif
#   From: 2010.05.17/outbox.cif.g08.bks.cpg/sg5_28_cif.got.tgz:55836.got - 2010.06.03 18:56:24.
