data_PCOD9127329
_publ_section_title
;
Structure prediction by ZEFSAII (Michael W. Deem and Ramdas Pophale) SiO2 
 PCOD9127329
Probable space group: C 2
;
_chemical_formula_sum "Si O2"
_cell_formula_units_Z 30
_cell_length_a 30.458198
_cell_length_b 5.846713
_cell_length_c 8.734159
_cell_angle_alpha 90.000000
_cell_angle_beta 62.807639
_cell_angle_gamma 90.000000
_cell_volume 1383.477016
_symmetry_space_group_name_H-M "C 2"
_symmetry_group_IT_number 5
_symmetry_cell_setting 'monoclinic'
loop_
_space_group_symop_operation_xyz
x,y,z
-x,y,-z
1/2+x,1/2+y,z
1/2-x,1/2+y,-z
loop_
_atom_site_type_symbol
_atom_site_label
_atom_site_fract_x
_atom_site_fract_y
_atom_site_fract_z
Si Si1 0.845761 0.765380 0.101609
Si Si2 0.920189 0.447220 0.789244
Si Si3 0.939752 0.916257 0.324078
Si Si4 0.753036 0.156013 0.916001
Si Si5 0.582340 0.655779 0.939827
Si Si6 0.126670 0.534212 0.649721
Si Si7 0.357761 0.709809 0.627019
Si Si8 0.500000 0.269246 0.500000
O O1 0.791441 0.733717 0.123369
O O2 0.845306 0.706609 0.283307
O O3 0.874978 0.004172 0.049128
O O4 0.881036 0.601291 0.944849
O O5 0.890154 0.293322 0.717893
O O6 0.957290 0.608158 0.637287
O O7 0.945269 0.290918 0.881299
O O8 0.922946 0.654715 0.330269
O O9 0.981326 0.919389 0.386715
O O10 0.947289 0.010105 0.140111
O O11 0.892524 0.042513 0.473798
O O12 0.806273 0.104445 0.758022
O O13 0.761449 0.402067 0.993121
O O14 0.610435 0.836696 0.789929
O O15 0.153808 0.428202 0.462281
#
# Coordination Sequence:
#
# PCOD9127329 Si02
#       8
#     4   4   4   4   4   4   4   2
#     4  10  22  45  69 100 143 184 237 286 364 439
#     4  11  23  43  70  99 137 185 232 298 363 434
#     4  10  23  45  70  97 138 181 241 301 363 438
#     4  12  27  43  72 110 143 192 246 297 364 445
#     4   9  21  44  73  93 137 187 224 300 365 436
#     4   9  20  44  66  98 139 180 227 300 360 424
#     4  11  23  43  73  97 142 185 235 301 362 427
#     4  12  26  42  74 104 138 184 244 304 374 436
#
# _framework density 21.684494000000001
#
# number of rings (size 3 to 8) (size 9 to 14) (size 15 to 20)
#    0.000    1.600    2.667    0.800    7.467    0.533 
#    7.200    7.333    0.000    0.000    0.000    0.000 
#    0.000    0.000    0.000    0.000    0.000    0.000 
#
# Total GULP energy -83657.103694 kJ/mol
# GULP energy per Si atom -5577.140246 kJ/mol
# Density = 2.163514 g / cm^3
# Si number density = 21.684494 Si / 1000 Ang^3
#
#
#
# Elastic Constant Matrix: (Units=GPa)
#
#
# Indices 1 2 3 4 5 6 
#
# 1 105.0178 8.6091 36.6969 0.0000 6.9851 0.0000
# 2 8.6091 67.2694 20.2232 0.0000 4.3507 0.0000
# 3 36.6969 20.2232 96.6259 0.0000 6.5586 0.0000
# 4 0.0000 0.0000 0.0000 40.3443 0.0000 -2.6306
# 5 6.9851 4.3507 6.5586 0.0000 35.4994 0.0000
# 6 0.0000 0.0000 0.0000 -2.6306 0.0000 12.3688
#
#
#
# Elastic Compliance Matrix: (Units=1/GPa)
#
#
# Indices 1 2 3 4 5 6 
#
# 1 0.011050 -0.000096 -0.004081 0.000000 -0.001408 0.000000
# 2 -0.000096 0.015929 -0.003206 0.000000 -0.001341 0.000000
# 3 -0.004081 -0.003206 0.012647 0.000000 -0.001141 0.000000
# 4 0.000000 0.000000 0.000000 0.025135 0.000000 0.005346
# 5 -0.001408 -0.001341 -0.001141 0.000000 0.028822 0.000000
# 6 0.000000 0.000000 0.000000 0.005346 0.000000 0.081986
#
#
# Mechanical properties :
#
#
# Convention : Reuss Voigt Hill
#
# Bulk Modulus (GPa) = 40.22634 44.44129 42.33382
# Shear Modulus (GPa) = 25.17356 31.20142 28.18749
#
# Velocity S-wave (km/s) = 3.41090 3.79737 3.60931
# Velocity P-wave (km/s) = 5.83980 6.30601 6.07738
#
# Compressibility (1/GPa) = 0.02485933
#
# Stress axis : x y z
#
# Youngs Moduli (GPa) = 90.49998 62.78053 79.06722
#
# Poissons Ratio (x) = 0.00604 0.32265
# Poissons Ratio (y) = 0.00871 0.25350
# Poissons Ratio (z) = 0.36931 0.20129
#
# Static dielectric constant tensor:
#      x y z
#    x 1.782730 0.000000 0.038380 
#    y 0.000000 1.856570 0.000000 
#    z 0.038380 0.000000 1.784610 
# 
# From -- ./inp_files/32259.got.cif
#   From: 2010.05.17/outbox.cif.g08.bks.cpg/sg5_17_cif.got.tgz:32259.got - 2010.06.03 18:56:24.
