data_PCOD9127536
_publ_section_title
;
Structure prediction by ZEFSAII (Michael W. Deem and Ramdas Pophale) SiO2 
 PCOD9127536
Probable space group: C 2
;
_chemical_formula_sum "Si O2"
_cell_formula_units_Z 28
_cell_length_a 12.828068
_cell_length_b 6.755848
_cell_length_c 23.802808
_cell_angle_alpha 90.000000
_cell_angle_beta 29.282801
_cell_angle_gamma 90.000000
_cell_volume 1008.986412
_symmetry_space_group_name_H-M "C 2"
_symmetry_group_IT_number 5
_symmetry_cell_setting 'monoclinic'
loop_
_space_group_symop_operation_xyz
x,y,z
-x,y,-z
1/2+x,1/2+y,z
1/2-x,1/2+y,-z
loop_
_atom_site_type_symbol
_atom_site_label
_atom_site_fract_x
_atom_site_fract_y
_atom_site_fract_z
Si Si1 0.443905 0.625000 0.616351
Si Si2 0.399335 0.304534 0.366418
Si Si3 0.410346 0.716209 0.944218
Si Si4 0.436544 0.167017 0.126608
Si Si5 0.142331 0.430317 0.663781
Si Si6 0.000000 0.668880 0.500000
Si Si7 0.000000 0.939089 0.000000
Si Si8 0.103353 0.059727 0.743447
O O1 0.516072 0.452077 0.626179
O O2 0.249468 0.718835 0.742437
O O3 0.308167 0.542799 0.627283
O O4 0.358350 0.064857 0.613353
O O5 0.151067 0.248309 0.498554
O O6 0.453166 0.405958 0.280018
O O7 0.481372 0.080732 0.317039
O O8 0.529371 0.927889 0.895729
O O9 0.383937 0.593358 0.013649
O O10 0.534308 0.585859 0.839581
O O11 0.329099 0.237650 0.965186
O O12 0.384550 0.284698 0.095053
O O13 0.313760 0.284592 0.553660
O O14 0.023690 0.275947 0.758449
#
# Coordination Sequence:
#
# PCOD9127536 Si02
#       8
#     4   4   4   4   4   2   2   4
#     4  12  28  52  78 121 172 213 284 351 417 524
#     4  12  28  47  79 122 161 222 272 343 425 510
#     4  12  27  56  89 122 174 229 292 368 438 511
#     4  12  28  58  82 126 175 222 294 364 432 520
#     4  10  22  49  72 113 163 206 259 338 412 496
#     4   8  18  40  74 108 150 204 254 316 414 484
#     4  12  30  54  90 126 160 234 296 354 444 514
#     4  10  24  45  79 114 158 215 269 342 420 499
#
# _framework density 27.750620999999999
#
# number of rings (size 3 to 8) (size 9 to 14) (size 15 to 20)
#    0.857    0.000    4.286    0.429   10.000    0.000 
#    7.714    0.000    0.000    0.000    0.000    0.000 
#    0.000    0.000    0.000    0.000    0.000    0.000 
#
# Total GULP energy -78172.202941 kJ/mol
# GULP energy per Si atom -5583.728782 kJ/mol
# Density = 2.768746 g / cm^3
# Si number density = 27.750621 Si / 1000 Ang^3
#
#
#
# Elastic Constant Matrix: (Units=GPa)
#
#
# Indices 1 2 3 4 5 6 
#
# 1 115.8291 42.5670 43.7516 0.0001 -3.1414 0.0006
# 2 42.5670 141.0519 60.6495 0.0002 -5.8817 0.0013
# 3 43.7516 60.6495 100.5014 -0.0008 8.8486 0.0004
# 4 0.0001 0.0002 -0.0008 11.6420 0.0002 6.7782
# 5 -3.1414 -5.8817 8.8486 0.0002 37.7743 0.0002
# 6 0.0006 0.0013 0.0004 6.7782 0.0002 55.3830
#
#
#
# Elastic Compliance Matrix: (Units=1/GPa)
#
#
# Indices 1 2 3 4 5 6 
#
# 1 0.010694 -0.001486 -0.003897 0.000000 0.001571 0.000000
# 2 -0.001486 0.010103 -0.005695 -0.000001 0.002783 0.000000
# 3 -0.003897 -0.005695 0.015510 0.000001 -0.004844 0.000000
# 4 0.000000 -0.000001 0.000001 0.092487 -0.000001 -0.011319
# 5 0.001571 0.002783 -0.004844 -0.000001 0.028172 0.000000
# 6 0.000000 0.000000 0.000000 -0.011319 0.000000 0.019441
#
#
# Mechanical properties :
#
#
# Convention : Reuss Voigt Hill
#
# Bulk Modulus (GPa) = 70.66759 72.36874 71.51817
# Shear Modulus (GPa) = 24.59670 34.98748 29.79209
#
# Velocity S-wave (km/s) = 2.98039 3.55460 3.28008
# Velocity P-wave (km/s) = 6.11262 6.55605 6.33821
#
# Compressibility (1/GPa) = 0.01415076
#
# Stress axis : x y z
#
# Youngs Moduli (GPa) = 93.50892 98.98214 64.47567
#
# Poissons Ratio (x) = 0.14711 0.25126
# Poissons Ratio (y) = 0.13897 0.36718
# Poissons Ratio (z) = 0.36440 0.56369
#
# Static dielectric constant tensor:
#      x y z
#    x 2.243290 0.000000 0.081150 
#    y 0.000000 2.381390 0.000000 
#    z 0.081150 0.000000 2.247130 
# 
# From -- ./inp_files/71809.got.cif
#   From: 2010.05.17/outbox.cif.g08.bks.cpg/sg5_36_cif.got.tgz:71809.got - 2010.06.03 18:56:24.
