data_PCOD9127500
_publ_section_title
;
Structure prediction by ZEFSAII (Michael W. Deem and Ramdas Pophale) SiO2 
 PCOD9127500
Probable space group: C 2
;
_chemical_formula_sum "Si O2"
_cell_formula_units_Z 28
_cell_length_a 31.721280
_cell_length_b 5.435677
_cell_length_c 9.478937
_cell_angle_alpha 90.000000
_cell_angle_beta 47.952646
_cell_angle_gamma 90.000000
_cell_volume 1213.707354
_symmetry_space_group_name_H-M "C 2"
_symmetry_group_IT_number 5
_symmetry_cell_setting 'monoclinic'
loop_
_space_group_symop_operation_xyz
x,y,z
-x,y,-z
1/2+x,1/2+y,z
1/2-x,1/2+y,-z
loop_
_atom_site_type_symbol
_atom_site_label
_atom_site_fract_x
_atom_site_fract_y
_atom_site_fract_z
Si Si1 0.566474 0.726930 0.038047
Si Si2 0.000000 0.860192 0.500000
Si Si3 0.972272 0.571345 0.322746
Si Si4 0.234812 0.938679 0.705517
Si Si5 0.592683 0.742095 0.315748
Si Si6 0.182619 0.443376 0.747677
Si Si7 0.000000 0.870195 0.000000
Si Si8 0.778967 0.254906 0.890742
O O1 0.583176 0.731066 0.167369
O O2 0.504613 0.848024 0.178569
O O3 0.618016 0.879254 0.854594
O O4 0.550939 0.494096 0.977934
O O5 0.017749 0.698400 0.327336
O O6 0.950430 0.025076 0.546334
O O7 0.926775 0.470366 0.539360
O O8 0.963333 0.740316 0.207784
O O9 0.189235 0.715261 0.798720
O O10 0.274600 0.947421 0.479820
O O11 0.275056 0.860714 0.742367
O O12 0.205234 0.205008 0.785122
O O13 0.657644 0.699189 0.203196
O O14 0.753749 0.493403 0.029378
#
# Coordination Sequence:
#
# PCOD9127500 Si02
#       8
#     4   2   4   4   4   4   2   4
#     4  12  24  46  69 110 141 197 253 309 381 471
#     4  12  22  46  74 108 146 208 252 306 392 466
#     4  12  25  46  72 108 151 199 248 318 382 466
#     4  10  22  48  66 107 145 183 251 308 381 447
#     4  12  25  47  78 106 158 201 257 311 392 473
#     4  10  24  43  78  98 143 196 242 313 379 452
#     4  12  28  44  72 108 160 178 264 318 378 464
#     4  12  28  47  75 115 148 196 260 320 379 461
#
# _framework density 23.069811999999999
#
# number of rings (size 3 to 8) (size 9 to 14) (size 15 to 20)
#    0.000    0.571    4.286    3.000    4.000    4.571 
#    5.143    0.000    0.000    0.000    0.000    0.000 
#    0.000    0.000    0.000    0.000    0.000    0.000 
#
# Total GULP energy -78001.470443 kJ/mol
# GULP energy per Si atom -5571.533603 kJ/mol
# Density = 2.301730 g / cm^3
# Si number density = 23.069812 Si / 1000 Ang^3
#
#
#
# Elastic Constant Matrix: (Units=GPa)
#
#
# Indices 1 2 3 4 5 6 
#
# 1 89.6767 21.3852 32.8404 0.0000 14.3077 0.0000
# 2 21.3852 87.9473 40.5236 0.0000 20.6037 0.0000
# 3 32.8404 40.5236 80.7536 0.0000 10.2728 0.0000
# 4 0.0000 0.0000 0.0000 14.8760 0.0000 30.7310
# 5 14.3077 20.6037 10.2728 0.0000 39.6528 0.0000
# 6 0.0000 0.0000 0.0000 30.7310 0.0000 10.3997
#
#
#
# Elastic Compliance Matrix: (Units=1/GPa)
#
#
# Indices 1 2 3 4 5 6 
#
# 1 0.013581 -0.000182 -0.004984 0.000000 -0.003514 0.000000
# 2 -0.000182 0.016292 -0.007273 0.000000 -0.006516 0.000000
# 3 -0.004984 -0.007273 0.017942 0.000000 0.000929 0.000000
# 4 0.000000 0.000000 0.000000 -0.013169 0.000000 0.038915
# 5 -0.003514 -0.006516 0.000929 0.000000 0.029632 0.000000
# 6 0.000000 0.000000 0.000000 0.038915 0.000000 -0.018838
#
#
# Mechanical properties :
#
#
# Convention : Reuss Voigt Hill
#
# Bulk Modulus (GPa) = 43.59997 49.76398 46.68197
# Shear Modulus (GPa) = 64.13283 23.89427 44.01355
#
# Velocity S-wave (km/s) = 5.27824 3.22178 4.37262
# Velocity P-wave (km/s) = 7.48910 5.95464 6.76551
#
# Compressibility (1/GPa) = 0.02293580
#
# Stress axis : x y z
#
# Youngs Moduli (GPa) = 73.63424 61.37883 55.73599
#
# Poissons Ratio (x) = 0.01119 0.27781
# Poissons Ratio (y) = 0.01343 0.40535
# Poissons Ratio (z) = 0.36702 0.44639
#
# Static dielectric constant tensor:
#      x y z
#    x 1.871230 0.000000 0.004840 
#    y 0.000000 2.018750 0.000000 
#    z 0.004840 0.000000 1.908290 
# 
# From -- ./inp_files/32238.got.cif
#   From: 2010.05.17/outbox.cif.g08.bks.cpg/sg5_17_cif.got.tgz:32238.got - 2010.06.03 18:56:24.
