data_PCOD9127491
_publ_section_title
;
Structure prediction by ZEFSAII (Michael W. Deem and Ramdas Pophale) SiO2 
 PCOD9127491
Probable space group: C 2
;
_chemical_formula_sum "Si O2"
_cell_formula_units_Z 22
_cell_length_a 9.425820
_cell_length_b 25.873823
_cell_length_c 5.533065
_cell_angle_alpha 90.000000
_cell_angle_beta 127.557090
_cell_angle_gamma 90.000000
_cell_volume 1069.743804
_symmetry_space_group_name_H-M "C 2"
_symmetry_group_IT_number 5
_symmetry_cell_setting 'monoclinic'
loop_
_space_group_symop_operation_xyz
x,y,z
-x,y,-z
1/2+x,1/2+y,z
1/2-x,1/2+y,-z
loop_
_atom_site_type_symbol
_atom_site_label
_atom_site_fract_x
_atom_site_fract_y
_atom_site_fract_z
Si Si1 0.109528 0.073370 0.365639
Si Si2 0.157147 0.479705 0.494140
Si Si3 0.500000 0.422421 0.000000
Si Si4 0.500000 0.888878 0.000000
Si Si5 0.404994 0.152880 0.656062
Si Si6 0.500000 0.254113 0.000000
Si Si7 0.645846 0.334689 0.832079
O O1 0.211349 0.127597 0.444753
O O2 0.000000 0.073412 0.500000
O O3 0.257345 0.027934 0.554766
O O4 0.000000 0.064967 0.000000
O O5 0.000000 0.499659 0.500000
O O6 0.081033 0.429587 0.276447
O O7 0.325403 0.456841 0.809921
O O8 0.462832 0.384616 0.183828
O O9 0.663453 0.854021 0.068162
O O10 0.500000 0.141322 0.500000
O O11 0.500000 0.131219 0.000000
O O12 0.415694 0.214179 0.719529
O O13 0.348567 0.292216 0.949936
O O14 0.500000 0.311089 0.500000
#
# Coordination Sequence:
#
# PCOD9127491 Si02
#       7
#     4   4   2   2   4   2   4
#     4  12  28  45  73 108 150 187 239 295 359 430
#     4  12  26  42  66 104 144 197 235 291 351 427
#     4  11  22  42  62  95 143 182 244 281 350 418
#     4  12  26  37  72  97 147 187 248 282 352 422
#     4  10  22  47  77 102 134 188 238 294 365 428
#     4   9  24  43  76  92 144 181 240 293 378 404
#     4  11  22  42  66 100 138 189 232 301 346 424
#
# _framework density 20.565670000000001
#
# number of rings (size 3 to 8) (size 9 to 14) (size 15 to 20)
#    0.545    0.364    4.545    2.182    6.364    0.000 
#    0.000    3.636    0.000    0.000    0.000    0.000 
#    0.000    0.000    0.000    0.000    0.000    0.000 
#
# Total GULP energy -61299.607405 kJ/mol
# GULP energy per Si atom -5572.691582 kJ/mol
# Density = 2.051886 g / cm^3
# Si number density = 20.565670 Si / 1000 Ang^3
#
#
#
# Elastic Constant Matrix: (Units=GPa)
#
#
# Indices 1 2 3 4 5 6 
#
# 1 211.8324 70.4338 49.2150 0.0000 1.3316 0.0000
# 2 70.4338 110.4566 23.8772 0.0000 7.3314 0.0000
# 3 49.2150 23.8772 86.4398 0.0000 -1.0106 0.0000
# 4 0.0000 0.0000 0.0000 26.0231 0.0000 18.9946
# 5 1.3316 7.3314 -1.0106 0.0000 31.7741 0.0000
# 6 0.0000 0.0000 0.0000 18.9946 0.0000 53.8402
#
#
#
# Elastic Compliance Matrix: (Units=1/GPa)
#
#
# Indices 1 2 3 4 5 6 
#
# 1 0.006556 -0.003622 -0.002726 0.000000 0.000474 0.000000
# 2 -0.003622 0.011802 -0.001228 0.000000 -0.002610 0.000000
# 3 -0.002726 -0.001228 0.013470 0.000000 0.000826 0.000000
# 4 0.000000 0.000000 0.000000 0.051755 0.000000 -0.018259
# 5 0.000474 -0.002610 0.000826 0.000000 0.032081 0.000000
# 6 0.000000 0.000000 0.000000 -0.018259 0.000000 0.025015
#
#
# Mechanical properties :
#
#
# Convention : Reuss Voigt Hill
#
# Bulk Modulus (GPa) = 59.97447 77.30896 68.64172
# Shear Modulus (GPa) = 30.98090 40.00768 35.49429
#
# Velocity S-wave (km/s) = 3.88550 4.41541 4.15890
# Velocity P-wave (km/s) = 7.02532 7.97918 7.51740
#
# Compressibility (1/GPa) = 0.01667376
#
# Stress axis : x y z
#
# Youngs Moduli (GPa) = 152.54234 84.73210 74.23968
#
# Poissons Ratio (x) = 0.30693 0.20240
# Poissons Ratio (y) = 0.55256 0.09118
# Poissons Ratio (z) = 0.41588 0.10406
#
# Static dielectric constant tensor:
#      x y z
#    x 1.607910 0.000000 0.206820 
#    y 0.000000 1.742100 0.000000 
#    z 0.206820 0.000000 1.247790 
# 
# From -- ./inp_files/3585.got.cif
#   From: 2010.05.17/outbox.cif.g08.bks.cpg/sg5_2_cif.got.tgz:3585.got - 2010.06.03 18:56:24.
