data_PCOD9127935
_publ_section_title
;
Structure prediction by ZEFSAII (Michael W. Deem and Ramdas Pophale) SiO2 
 PCOD9127935
Probable space group: C 2
;
_chemical_formula_sum "Si O2"
_cell_formula_units_Z 28
_cell_length_a 20.154167
_cell_length_b 8.807025
_cell_length_c 15.203014
_cell_angle_alpha 90.000000
_cell_angle_beta 149.560815
_cell_angle_gamma 90.000000
_cell_volume 1367.127848
_symmetry_space_group_name_H-M "C 2"
_symmetry_group_IT_number 5
_symmetry_cell_setting 'monoclinic'
loop_
_space_group_symop_operation_xyz
x,y,z
-x,y,-z
1/2+x,1/2+y,z
1/2-x,1/2+y,-z
loop_
_atom_site_type_symbol
_atom_site_label
_atom_site_fract_x
_atom_site_fract_y
_atom_site_fract_z
Si Si1 0.381637 0.432370 0.505598
Si Si2 0.500000 0.993748 0.500000
Si Si3 0.361615 0.358710 0.680823
Si Si4 0.748935 0.212679 0.779346
Si Si5 0.914550 0.262653 0.552457
Si Si6 0.336257 0.661081 0.058413
Si Si7 0.000000 0.032975 0.000000
Si Si8 0.400484 0.310043 0.141115
O O1 0.336028 0.442963 0.556929
O O2 0.293418 0.333336 0.341520
O O3 0.393995 0.600376 0.482037
O O4 0.521558 0.348082 0.678786
O O5 0.468933 0.888712 0.548599
O O6 0.628349 0.097303 0.655978
O O7 0.223161 0.306369 0.560260
O O8 0.479339 0.248928 0.781610
O O9 0.436261 0.443964 0.844959
O O10 0.792148 0.261633 0.925349
O O11 0.878055 0.129198 0.893445
O O12 0.026647 0.222982 0.750628
O O13 0.351752 0.480215 0.057484
O O14 0.218701 0.695160 0.991353
#
# Coordination Sequence:
#
# PCOD9127935 Si02
#       8
#     4   2   4   4   4   4   2   4
#     4   9  24  42  68  96 139 170 218 281 335 380
#     4  12  26  40  72 100 130 184 228 260 344 396
#     4  10  23  44  67  94 131 180 213 276 330 397
#     4  12  24  42  70 102 128 180 225 269 330 400
#     4  11  24  45  67  98 136 175 222 278 334 394
#     4  11  22  41  65  99 130 171 223 268 329 388
#     4  12  22  44  70  92 132 172 226 280 308 420
#     4   9  21  41  62  97 134 171 213 272 324 387
#
# _framework density 20.480893999999999
#
# number of rings (size 3 to 8) (size 9 to 14) (size 15 to 20)
#    0.857    0.571    2.857    1.714    4.000    2.857 
#    2.571    0.714    0.000    0.000    0.000    0.000 
#    0.000    0.000    0.000    0.000    0.000    0.000 
#
# Total GULP energy -77955.512243 kJ/mol
# GULP energy per Si atom -5568.250874 kJ/mol
# Density = 2.043428 g / cm^3
# Si number density = 20.480894 Si / 1000 Ang^3
#
#
#
# Elastic Constant Matrix: (Units=GPa)
#
#
# Indices 1 2 3 4 5 6 
#
# 1 105.8971 32.5359 49.2253 0.0000 31.7310 0.0000
# 2 32.5359 51.1525 39.4298 0.0000 5.2376 0.0000
# 3 49.2253 39.4298 110.2870 0.0000 18.4566 0.0000
# 4 0.0000 0.0000 0.0000 26.2140 0.0000 3.2938
# 5 31.7310 5.2376 18.4566 0.0000 53.4382 0.0000
# 6 0.0000 0.0000 0.0000 3.2938 0.0000 11.7369
#
#
#
# Elastic Compliance Matrix: (Units=1/GPa)
#
#
# Indices 1 2 3 4 5 6 
#
# 1 0.015057 -0.006334 -0.003252 0.000000 -0.007197 0.000000
# 2 -0.006334 0.029678 -0.008412 0.000000 0.003758 0.000000
# 3 -0.003252 -0.008412 0.013867 0.000000 -0.002034 0.000000
# 4 0.000000 0.000000 0.000000 0.039542 0.000000 -0.011097
# 5 -0.007197 0.003758 -0.002034 0.000000 0.023321 0.000000
# 6 0.000000 0.000000 0.000000 -0.011097 0.000000 0.088316
#
#
# Mechanical properties :
#
#
# Convention : Reuss Voigt Hill
#
# Bulk Modulus (GPa) = 44.23617 56.63543 50.43580
# Shear Modulus (GPa) = 19.73863 28.02085 23.87974
#
# Velocity S-wave (km/s) = 3.10781 3.70286 3.41831
# Velocity P-wave (km/s) = 5.87568 6.78192 6.34500
#
# Compressibility (1/GPa) = 0.02260594
#
# Stress axis : x y z
#
# Youngs Moduli (GPa) = 66.41375 33.69543 72.11610
#
# Poissons Ratio (x) = 0.21342 0.23450
# Poissons Ratio (y) = 0.42065 0.60665
# Poissons Ratio (z) = 0.21596 0.28345
#
# Static dielectric constant tensor:
#      x y z
#    x 2.254130 0.000000 -0.048000 
#    y 0.000000 1.743630 0.000000 
#    z -0.048000 0.000000 1.732540 
# 
# From -- ./inp_files/56941.got.cif
#   From: 2010.05.17/outbox.cif.g08.bks.cpg/sg5_29_cif.got.tgz:56941.got - 2010.06.03 18:56:24.
