data_PCOD9127876
_publ_section_title
;
Structure prediction by ZEFSAII (Michael W. Deem and Ramdas Pophale) SiO2 
 PCOD9127876
Probable space group: C 2
;
_chemical_formula_sum "Si O2"
_cell_formula_units_Z 18
_cell_length_a 9.475323
_cell_length_b 9.472059
_cell_length_c 10.591744
_cell_angle_alpha 90.000000
_cell_angle_beta 59.806649
_cell_angle_gamma 90.000000
_cell_volume 821.650404
_symmetry_space_group_name_H-M "C 2"
_symmetry_group_IT_number 5
_symmetry_cell_setting 'monoclinic'
loop_
_space_group_symop_operation_xyz
x,y,z
-x,y,-z
1/2+x,1/2+y,z
1/2-x,1/2+y,-z
loop_
_atom_site_type_symbol
_atom_site_label
_atom_site_fract_x
_atom_site_fract_y
_atom_site_fract_z
Si Si1 0.438511 0.187290 0.881408
Si Si2 0.500000 0.474380 0.500000
Si Si3 0.780067 0.783823 0.421072
Si Si4 0.441620 0.726684 0.683522
Si Si5 0.850288 0.376725 0.971291
O O1 0.585391 0.191113 0.714091
O O2 0.348367 0.036029 0.919006
O O3 0.500000 0.206619 0.000000
O O4 0.320111 0.317684 0.900831
O O5 0.381433 0.387070 0.464019
O O6 0.398839 0.576221 0.640721
O O7 0.636587 0.727281 0.577147
O O8 0.662422 0.834783 0.358302
O O9 0.393026 0.763628 0.844128
O O10 0.000000 0.375575 0.000000
#
# Coordination Sequence:
#
# PCOD9127876 Si02
#       5
#     4   2   4   4   4
#     4  11  25  46  68 102 143 182 230 286 341 413
#     4  10  24  42  70  94 140 176 236 274 344 398
#     4  10  23  43  69  95 138 183 223 284 341 395
#     4  10  25  45  65 104 140 174 231 292 329 414
#     4  11  27  44  72 102 143 182 230 283 349 407
#
# _framework density 21.907128
#
# number of rings (size 3 to 8) (size 9 to 14) (size 15 to 20)
#    0.000    1.778    2.222    0.000   12.444    2.667 
#    4.000    0.000    0.000    0.000    0.000    0.000 
#    0.000    0.000    0.000    0.000    0.000    0.000 
#
# Total GULP energy -50118.731090 kJ/mol
# GULP energy per Si atom -5568.747899 kJ/mol
# Density = 2.185727 g / cm^3
# Si number density = 21.907128 Si / 1000 Ang^3
#
#
#
# Elastic Constant Matrix: (Units=GPa)
#
#
# Indices 1 2 3 4 5 6 
#
# 1 111.3991 65.8538 27.1364 0.0000 -17.1839 0.0000
# 2 65.8538 99.3551 37.1888 0.0000 -10.4588 0.0000
# 3 27.1364 37.1888 83.2482 0.0000 -22.5630 0.0000
# 4 0.0000 0.0000 0.0000 30.3542 0.0000 5.6152
# 5 -17.1839 -10.4588 -22.5630 0.0000 48.1277 0.0000
# 6 0.0000 0.0000 0.0000 5.6152 0.0000 28.2560
#
#
#
# Elastic Compliance Matrix: (Units=1/GPa)
#
#
# Indices 1 2 3 4 5 6 
#
# 1 0.015273 -0.009902 0.000389 0.000000 0.003484 0.000000
# 2 -0.009902 0.018506 -0.005622 0.000000 -0.002149 0.000000
# 3 0.000389 -0.005622 0.016156 0.000000 0.006492 0.000000
# 4 0.000000 0.000000 0.000000 0.034202 0.000000 -0.006797
# 5 0.003484 -0.002149 0.006492 0.000000 0.024598 0.000000
# 6 0.000000 0.000000 0.000000 -0.006797 0.000000 0.036741
#
#
# Mechanical properties :
#
#
# Convention : Reuss Voigt Hill
#
# Bulk Modulus (GPa) = 50.84984 61.59558 56.22271
# Shear Modulus (GPa) = 27.42711 32.26913 29.84812
#
# Velocity S-wave (km/s) = 3.54216 3.84213 3.69519
# Velocity P-wave (km/s) = 6.32385 6.91812 6.62765
#
# Compressibility (1/GPa) = 0.01966575
#
# Stress axis : x y z
#
# Youngs Moduli (GPa) = 65.47540 54.03628 61.89548
#
# Poissons Ratio (x) = 0.53507 -0.02409
# Poissons Ratio (y) = 0.64834 0.34797
# Poissons Ratio (z) = -0.02548 0.30379
#
# Static dielectric constant tensor:
#      x y z
#    x 1.814400 0.000000 -0.017730 
#    y 0.000000 1.857810 0.000000 
#    z -0.017730 0.000000 1.824950 
# 
# From -- ./inp_files/34719.got.cif
#   From: 2010.05.17/outbox.cif.g08.bks.cpg/sg5_18_cif.got.tgz:34719.got - 2010.06.03 18:56:24.
