data_PCOD9127159
_publ_section_title
;
Structure prediction by ZEFSAII (Michael W. Deem and Ramdas Pophale) SiO2 
 PCOD9127159
Probable space group: C 2
;
_chemical_formula_sum "Si O2"
_cell_formula_units_Z 30
_cell_length_a 11.759411
_cell_length_b 7.455071
_cell_length_c 21.023511
_cell_angle_alpha 90.000000
_cell_angle_beta 138.082426
_cell_angle_gamma 90.000000
_cell_volume 1231.285042
_symmetry_space_group_name_H-M "C 2"
_symmetry_group_IT_number 5
_symmetry_cell_setting 'monoclinic'
loop_
_space_group_symop_operation_xyz
x,y,z
-x,y,-z
1/2+x,1/2+y,z
1/2-x,1/2+y,-z
loop_
_atom_site_type_symbol
_atom_site_label
_atom_site_fract_x
_atom_site_fract_y
_atom_site_fract_z
Si Si1 0.218155 0.452060 0.464517
Si Si2 0.132014 0.646788 0.660436
Si Si3 0.500000 0.416689 0.500000
Si Si4 0.104437 0.827044 0.781327
Si Si5 0.475828 0.601184 0.650107
Si Si6 0.447257 0.115429 0.051721
Si Si7 0.689706 0.265654 0.260566
Si Si8 0.371135 0.729063 0.998174
O O1 0.356435 0.533343 0.474122
O O2 0.346489 0.440287 0.577600
O O3 0.054882 0.561553 0.413422
O O4 0.145440 0.271143 0.404708
O O5 0.103932 0.787537 0.591838
O O6 0.169088 0.747448 0.741876
O O7 0.255115 0.474031 0.708052
O O8 0.235065 0.810051 0.892271
O O9 0.937637 0.719954 0.735344
O O10 0.057522 0.034169 0.749143
O O11 0.638231 0.651474 0.674493
O O12 0.576648 0.226079 0.150513
O O13 0.252656 0.145895 0.998506
O O14 0.500000 0.155165 0.000000
O O15 0.469132 0.900014 0.068171
O O16 0.500000 0.631064 0.000000
#
# Coordination Sequence:
#
# PCOD9127159 Si02
#       8
#     4   4   2   4   4   4   4   4
#     4  11  23  38  60  87 120 168 212 263 312 373
#     4  11  25  42  61  93 126 168 219 264 318 378
#     4  12  22  40  62  86 122 166 214 260 314 364
#     4  11  23  43  65  95 129 166 219 267 325 391
#     4  11  20  42  59  87 127 163 215 265 316 376
#     4  10  22  44  67 101 133 171 218 269 340 400
#     4  10  25  41  66  94 129 171 209 273 327 386
#     4  10  23  42  69  99 133 172 215 273 336 403
#
# _framework density 24.364788000000001
#
# number of rings (size 3 to 8) (size 9 to 14) (size 15 to 20)
#    0.000    1.333    2.667    2.400    1.867    4.800 
#    0.000    2.667    0.000    0.000    0.000    0.000 
#    0.000    0.000    0.000    0.000    0.000    0.000 
#
# Total GULP energy -83625.729020 kJ/mol
# GULP energy per Si atom -5575.048601 kJ/mol
# Density = 2.430933 g / cm^3
# Si number density = 24.364788 Si / 1000 Ang^3
#
#
#
# Elastic Constant Matrix: (Units=GPa)
#
#
# Indices 1 2 3 4 5 6 
#
# 1 164.0690 15.4030 31.0938 0.0000 14.6808 0.0000
# 2 15.4030 45.3232 4.3909 0.0000 8.5320 0.0000
# 3 31.0938 4.3909 81.4017 0.0000 6.7655 0.0000
# 4 0.0000 0.0000 0.0000 30.0463 0.0000 7.3916
# 5 14.6808 8.5320 6.7655 0.0000 46.0136 0.0000
# 6 0.0000 0.0000 0.0000 7.3916 0.0000 31.2137
#
#
#
# Elastic Compliance Matrix: (Units=1/GPa)
#
#
# Indices 1 2 3 4 5 6 
#
# 1 0.006853 -0.001815 -0.002395 0.000000 -0.001498 0.000000
# 2 -0.001815 0.023407 -0.000260 0.000000 -0.003723 0.000000
# 3 -0.002395 -0.000260 0.013309 0.000000 -0.001144 0.000000
# 4 0.000000 0.000000 0.000000 0.035341 0.000000 -0.008369
# 5 -0.001498 -0.003723 -0.001144 0.000000 0.023069 0.000000
# 6 0.000000 0.000000 0.000000 -0.008369 0.000000 0.034019
#
#
# Mechanical properties :
#
#
# Convention : Reuss Voigt Hill
#
# Bulk Modulus (GPa) = 28.87827 43.61882 36.24854
# Shear Modulus (GPa) = 31.95270 37.44847 34.70058
#
# Velocity S-wave (km/s) = 3.62529 3.92470 3.77797
# Velocity P-wave (km/s) = 5.42235 6.20314 5.82584
#
# Compressibility (1/GPa) = 0.03462811
#
# Stress axis : x y z
#
# Youngs Moduli (GPa) = 145.91296 42.72305 75.13769
#
# Poissons Ratio (x) = 0.07755 0.17999
# Poissons Ratio (y) = 0.26484 0.01952
# Poissons Ratio (z) = 0.34953 0.01110
#
# Static dielectric constant tensor:
#      x y z
#    x 2.005730 0.000000 -0.015060 
#    y 0.000000 2.003250 0.000000 
#    z -0.015060 0.000000 1.982020 
# 
# From -- ./inp_files/68294.got.cif
#   From: 2010.05.17/outbox.cif.g08.bks.cpg/sg5_35_cif.got.tgz:68294.got - 2010.06.03 18:56:24.
