data_PCOD9127167
_publ_section_title
;
Structure prediction by ZEFSAII (Michael W. Deem and Ramdas Pophale) SiO2 
 PCOD9127167
Probable space group: C 2
;
_chemical_formula_sum "Si O2"
_cell_formula_units_Z 28
_cell_length_a 29.416251
_cell_length_b 7.580213
_cell_length_c 9.336979
_cell_angle_alpha 90.000000
_cell_angle_beta 32.783811
_cell_angle_gamma 90.000000
_cell_volume 1127.327401
_symmetry_space_group_name_H-M "C 2"
_symmetry_group_IT_number 5
_symmetry_cell_setting 'monoclinic'
loop_
_space_group_symop_operation_xyz
x,y,z
-x,y,-z
1/2+x,1/2+y,z
1/2-x,1/2+y,-z
loop_
_atom_site_type_symbol
_atom_site_label
_atom_site_fract_x
_atom_site_fract_y
_atom_site_fract_z
Si Si1 0.085873 0.258970 0.061159
Si Si2 0.081925 0.616353 0.729259
Si Si3 0.542310 0.075368 0.525671
Si Si4 0.225224 0.381770 0.461877
Si Si5 0.799899 0.092188 0.678253
Si Si6 0.394714 0.472633 0.175505
Si Si7 0.817693 0.304764 0.923048
O O1 0.130897 0.206558 0.089741
O O2 0.020503 0.413507 0.267733
O O3 0.158830 0.330295 0.762116
O O4 0.049306 0.088304 0.078544
O O5 0.063922 0.673274 0.614493
O O6 0.169104 0.511700 0.512402
O O7 0.083740 0.776600 0.835805
O O8 0.000000 0.505782 0.000000
O O9 0.500000 0.167107 0.500000
O O10 0.627811 0.979271 0.254938
O O11 0.254236 0.220937 0.282578
O O12 0.305609 0.459101 0.328163
O O13 0.808888 0.188093 0.805667
O O14 0.880967 0.073887 0.361875
O O15 0.765452 0.895048 0.792935
#
# Coordination Sequence:
#
# PCOD9127167 Si02
#       7
#     4   4   4   4   4   4   4
#     4  10  22  44  67  95 136 185 231 282 357 419
#     4  12  24  44  72 107 140 185 241 295 353 421
#     4  10  23  43  70  96 138 188 230 285 361 429
#     4  11  22  44  69 102 141 182 236 294 350 418
#     4  11  25  39  66 100 136 184 228 290 351 419
#     4  11  26  42  71 105 141 180 245 296 351 417
#     4  11  24  41  65  99 136 181 231 284 351 426
#
# _framework density 24.837505
#
# number of rings (size 3 to 8) (size 9 to 14) (size 15 to 20)
#    0.000    1.143    4.286    1.714    4.000    1.143 
#    0.000    1.429    0.000    0.000    0.000    0.000 
#    0.000    0.000    0.000    0.000    0.000    0.000 
#
# Total GULP energy -78276.488080 kJ/mol
# GULP energy per Si atom -5591.177720 kJ/mol
# Density = 2.478097 g / cm^3
# Si number density = 24.837505 Si / 1000 Ang^3
#
#
#
# Elastic Constant Matrix: (Units=GPa)
#
#
# Indices 1 2 3 4 5 6 
#
# 1 186.6604 40.2724 32.6048 0.0000 14.2929 0.0000
# 2 40.2724 70.0529 2.5574 0.0000 6.1509 0.0000
# 3 32.6048 2.5574 49.7130 0.0000 8.6102 0.0000
# 4 0.0000 0.0000 0.0000 25.9600 0.0000 20.6857
# 5 14.2929 6.1509 8.6102 0.0000 44.9216 0.0000
# 6 0.0000 0.0000 0.0000 20.6857 0.0000 42.5878
#
#
#
# Elastic Compliance Matrix: (Units=1/GPa)
#
#
# Indices 1 2 3 4 5 6 
#
# 1 0.006980 -0.003780 -0.004229 0.000000 -0.000893 0.000000
# 2 -0.003780 0.016504 0.001875 0.000000 -0.001417 0.000000
# 3 -0.004229 0.001875 0.023380 0.000000 -0.003393 0.000000
# 4 0.000000 0.000000 0.000000 0.062843 0.000000 -0.030524
# 5 -0.000893 -0.001417 -0.003393 0.000000 0.023389 0.000000
# 6 0.000000 0.000000 0.000000 -0.030524 0.000000 0.038307
#
#
# Mechanical properties :
#
#
# Convention : Reuss Voigt Hill
#
# Bulk Modulus (GPa) = 28.90399 50.81063 39.85731
# Shear Modulus (GPa) = 25.61448 38.09333 31.85391
#
# Velocity S-wave (km/s) = 3.21484 3.92050 3.58508
# Velocity P-wave (km/s) = 5.04408 6.40276 5.76360
#
# Compressibility (1/GPa) = 0.03459730
#
# Stress axis : x y z
#
# Youngs Moduli (GPa) = 143.26962 60.59201 42.77152
#
# Poissons Ratio (x) = 0.22903 0.18087
# Poissons Ratio (y) = 0.54154 -0.08021
# Poissons Ratio (z) = 0.60585 -0.11363
#
# Static dielectric constant tensor:
#      x y z
#    x 1.963980 0.000000 -0.032640 
#    y 0.000000 2.024460 0.000000 
#    z -0.032640 0.000000 2.002590 
# 
# From -- ./inp_files/31745.got.cif
#   From: 2010.05.17/outbox.cif.g08.bks.cpg/sg5_16_cif.got.tgz:31745.got - 2010.06.03 18:56:24.
