data_PCOD9127490
_publ_section_title
;
Structure prediction by ZEFSAII (Michael W. Deem and Ramdas Pophale) SiO2 
 PCOD9127490
Probable space group: C 2
;
_chemical_formula_sum "Si O2"
_cell_formula_units_Z 24
_cell_length_a 13.724404
_cell_length_b 5.154025
_cell_length_c 13.757387
_cell_angle_alpha 90.000000
_cell_angle_beta 91.292737
_cell_angle_gamma 90.000000
_cell_volume 972.893758
_symmetry_space_group_name_H-M "C 2"
_symmetry_group_IT_number 5
_symmetry_cell_setting 'monoclinic'
loop_
_space_group_symop_operation_xyz
x,y,z
-x,y,-z
1/2+x,1/2+y,z
1/2-x,1/2+y,-z
loop_
_atom_site_type_symbol
_atom_site_label
_atom_site_fract_x
_atom_site_fract_y
_atom_site_fract_z
Si Si1 0.677694 0.456240 0.360254
Si Si2 0.998538 0.316857 0.617126
Si Si3 0.614706 0.746400 0.983384
Si Si4 0.299957 0.244975 0.116029
Si Si5 0.678217 0.600274 0.708813
Si Si6 0.139712 0.727367 0.548607
O O1 0.604308 0.696929 0.348511
O O2 0.729405 0.291463 0.275925
O O3 0.771472 0.546006 0.421946
O O4 0.628966 0.254279 0.433854
O O5 0.951256 0.597540 0.399444
O O6 0.000000 0.223583 0.500000
O O7 0.070735 0.222128 0.707184
O O8 0.655290 0.967404 0.910741
O O9 0.638176 0.463493 0.940526
O O10 0.500000 0.779491 0.000000
O O11 0.688041 0.765499 0.077216
O O12 0.308431 0.347211 0.225455
O O13 0.668911 0.496292 0.598526
#
# Coordination Sequence:
#
# PCOD9127490 Si02
#       6
#     4   4   4   4   4   4
#     4  11  22  42  61  88 130 185 234 287 345 401
#     4  11  24  38  60  89 127 183 242 286 335 395
#     4  10  22  47  77 101 139 178 217 281 368 437
#     4  10  24  44  72 108 139 175 225 290 349 426
#     4  11  25  41  65  97 137 176 235 291 340 407
#     4  11  22  40  62  87 128 184 237 291 345 394
#
# _framework density 24.668676000000001
#
# number of rings (size 3 to 8) (size 9 to 14) (size 15 to 20)
#    0.000    1.333    3.333    1.500    7.000    1.333 
#    3.000    0.000    0.000    0.000    0.000    0.000 
#    0.000    0.000    0.000    0.000    0.000    0.000 
#
# Total GULP energy -66873.055553 kJ/mol
# GULP energy per Si atom -5572.754629 kJ/mol
# Density = 2.461253 g / cm^3
# Si number density = 24.668676 Si / 1000 Ang^3
#
#
#
# Elastic Constant Matrix: (Units=GPa)
#
#
# Indices 1 2 3 4 5 6 
#
# 1 205.8394 44.0189 29.5494 0.0000 12.1564 0.0000
# 2 44.0189 76.2809 -7.9948 0.0000 1.3744 0.0000
# 3 29.5494 -7.9948 66.2949 0.0000 10.4908 0.0000
# 4 0.0000 0.0000 0.0000 34.0311 0.0000 -3.9136
# 5 12.1564 1.3744 10.4908 0.0000 19.4758 0.0000
# 6 0.0000 0.0000 0.0000 -3.9136 0.0000 37.3595
#
#
#
# Elastic Compliance Matrix: (Units=1/GPa)
#
#
# Indices 1 2 3 4 5 6 
#
# 1 0.006223 -0.003860 -0.002916 0.000000 -0.002041 0.000000
# 2 -0.003860 0.015741 0.003731 0.000000 -0.000711 0.000000
# 3 -0.002916 0.003731 0.018133 0.000000 -0.008211 0.000000
# 4 0.000000 0.000000 0.000000 0.029743 0.000000 0.003116
# 5 -0.002041 -0.000711 -0.008211 0.000000 0.057093 0.000000
# 6 0.000000 0.000000 0.000000 0.003116 0.000000 0.027093
#
#
# Mechanical properties :
#
#
# Convention : Reuss Voigt Hill
#
# Bulk Modulus (GPa) = 29.40553 53.28466 41.34510
# Shear Modulus (GPa) = 29.16286 37.02938 33.09612
#
# Velocity S-wave (km/s) = 3.44202 3.87857 3.66679
# Velocity P-wave (km/s) = 5.26713 6.45792 5.89268
#
# Compressibility (1/GPa) = 0.03400721
#
# Stress axis : x y z
#
# Youngs Moduli (GPa) = 160.70115 63.52981 55.14750
#
# Poissons Ratio (x) = 0.24521 0.16082
# Poissons Ratio (y) = 0.62027 -0.20577
# Poissons Ratio (z) = 0.46863 -0.23704
#
# Static dielectric constant tensor:
#      x y z
#    x 2.218840 0.000000 -0.063700 
#    y 0.000000 2.142670 0.000000 
#    z -0.063700 0.000000 2.027420 
# 
# From -- ./inp_files/53866.got.cif
#   From: 2010.05.17/outbox.cif.g08.bks.cpg/sg5_27_cif.got.tgz:53866.got - 2010.06.03 18:56:24.
