data_PCOD9127171
_publ_section_title
;
Structure prediction by ZEFSAII (Michael W. Deem and Ramdas Pophale) SiO2 
 PCOD9127171
Probable space group: C 2
;
_chemical_formula_sum "Si O2"
_cell_formula_units_Z 20
_cell_length_a 6.718161
_cell_length_b 12.772632
_cell_length_c 9.501540
_cell_angle_alpha 90.000000
_cell_angle_beta 70.642823
_cell_angle_gamma 90.000000
_cell_volume 769.224669
_symmetry_space_group_name_H-M "C 2"
_symmetry_group_IT_number 5
_symmetry_cell_setting 'monoclinic'
loop_
_space_group_symop_operation_xyz
x,y,z
-x,y,-z
1/2+x,1/2+y,z
1/2-x,1/2+y,-z
loop_
_atom_site_type_symbol
_atom_site_label
_atom_site_fract_x
_atom_site_fract_y
_atom_site_fract_z
Si Si1 0.049937 0.717570 0.759206
Si Si2 0.484839 0.439614 0.663087
Si Si3 0.307614 0.647948 0.434559
Si Si4 0.554532 0.771126 0.154402
Si Si5 0.013024 0.501371 0.832415
O O1 0.127203 0.683621 0.584505
O O2 0.914939 0.614262 0.825366
O O3 0.983831 0.838930 0.764643
O O4 0.767341 0.717192 0.162452
O O5 0.500000 0.400195 0.500000
O O6 0.669114 0.528144 0.627240
O O7 0.259721 0.496905 0.731817
O O8 0.500000 0.656945 0.500000
O O9 0.365387 0.724458 0.293344
O O10 0.580250 0.891899 0.197410
O O11 0.500000 0.762090 0.000000
O O12 0.000000 0.489079 0.000000
#
# Coordination Sequence:
#
# PCOD9127171 Si02
#       5
#     4   4   4   4   4
#     4  11  23  45  72  99 136 181 229 279 339 404
#     4  11  21  45  73 100 136 176 231 284 337 401
#     4   9  18  40  72  95 131 174 219 283 331 393
#     4  10  22  44  67  96 141 177 220 286 341 393
#     4  11  24  44  64 100 145 174 225 282 330 409
#
# _framework density 26.000208000000001
#
# number of rings (size 3 to 8) (size 9 to 14) (size 15 to 20)
#    0.000    1.600    6.000    1.200    0.000    3.200 
#   14.400    1.000    0.000    0.000    0.000    0.000 
#    0.000    0.000    0.000    0.000    0.000    0.000 
#
# Total GULP energy -55828.617648 kJ/mol
# GULP energy per Si atom -5582.861765 kJ/mol
# Density = 2.594103 g / cm^3
# Si number density = 26.000208 Si / 1000 Ang^3
#
#
#
# Elastic Constant Matrix: (Units=GPa)
#
#
# Indices 1 2 3 4 5 6 
#
# 1 75.5317 26.4358 6.9130 0.0000 35.9501 0.0000
# 2 26.4358 208.0991 23.8560 0.0000 26.1268 0.0000
# 3 6.9130 23.8560 106.5919 0.0000 16.1189 0.0000
# 4 0.0000 0.0000 0.0000 46.5779 0.0000 -2.8214
# 5 35.9501 26.1268 16.1189 0.0000 31.9213 0.0000
# 6 0.0000 0.0000 0.0000 -2.8214 0.0000 63.0698
#
#
#
# Elastic Compliance Matrix: (Units=1/GPa)
#
#
# Indices 1 2 3 4 5 6 
#
# 1 0.029635 0.000283 0.003353 0.000000 -0.035299 0.000000
# 2 0.000283 0.005392 -0.000552 0.000000 -0.004453 0.000000
# 3 0.003353 -0.000552 0.010600 0.000000 -0.008677 0.000000
# 4 0.000000 0.000000 0.000000 0.021528 0.000000 0.000963
# 5 -0.035299 -0.004453 -0.008677 0.000000 0.079108 0.000000
# 6 0.000000 0.000000 0.000000 0.000963 0.000000 0.015899
#
#
# Mechanical properties :
#
#
# Convention : Reuss Voigt Hill
#
# Bulk Modulus (GPa) = 19.30720 56.07025 37.68873
# Shear Modulus (GPa) = 28.85883 50.51500 39.68692
#
# Velocity S-wave (km/s) = 3.33520 4.41258 3.91117
# Velocity P-wave (km/s) = 4.71946 6.89734 5.90959
#
# Compressibility (1/GPa) = 0.05179414
#
# Stress axis : x y z
#
# Youngs Moduli (GPa) = 33.74413 185.46722 94.34217
#
# Poissons Ratio (x) = -0.05246 -0.31631
# Poissons Ratio (y) = -0.00954 0.05205
# Poissons Ratio (z) = -0.11314 0.10232
#
# Static dielectric constant tensor:
#      x y z
#    x 2.136010 0.000000 -0.024030 
#    y 0.000000 2.032090 0.000000 
#    z -0.024030 0.000000 1.982260 
# 
# From -- ./inp_files/35317.got.cif
#   From: 2010.05.17/outbox.cif.g08.bks.cpg/sg5_18_cif.got.tgz:35317.got - 2010.06.03 18:56:24.
