data_PCOD9127645
_publ_section_title
;
Structure prediction by ZEFSAII (Michael W. Deem and Ramdas Pophale) SiO2 
 PCOD9127645
Probable space group: C 2
;
_chemical_formula_sum "Si O2"
_cell_formula_units_Z 24
_cell_length_a 13.308617
_cell_length_b 6.565966
_cell_length_c 18.330194
_cell_angle_alpha 90.000000
_cell_angle_beta 40.969029
_cell_angle_gamma 90.000000
_cell_volume 1050.198349
_symmetry_space_group_name_H-M "C 2"
_symmetry_group_IT_number 5
_symmetry_cell_setting 'monoclinic'
loop_
_space_group_symop_operation_xyz
x,y,z
-x,y,-z
1/2+x,1/2+y,z
1/2-x,1/2+y,-z
loop_
_atom_site_type_symbol
_atom_site_label
_atom_site_fract_x
_atom_site_fract_y
_atom_site_fract_z
Si Si1 0.577643 0.626720 0.153968
Si Si2 0.761013 0.835247 0.813698
Si Si3 0.429901 0.377097 0.431462
Si Si4 0.500000 0.734385 0.500000
Si Si5 0.000000 0.608108 0.000000
Si Si6 0.756553 0.029047 0.382682
Si Si7 0.786595 0.960373 0.066619
O O1 0.651111 0.460887 0.169481
O O2 0.396289 0.600514 0.255987
O O3 0.620486 0.856701 0.152873
O O4 0.656748 0.584579 0.033756
O O5 0.709636 0.614271 0.868618
O O6 0.893771 0.815818 0.681328
O O7 0.607132 0.969356 0.889594
O O8 0.446623 0.590359 0.463935
O O9 0.341316 0.213473 0.529172
O O10 0.335857 0.414475 0.408474
O O11 0.642990 0.877758 0.403404
O O12 0.106099 0.763151 0.985960
#
# Coordination Sequence:
#
# PCOD9127645 Si02
#       7
#     4   4   4   2   2   4   4
#     4  10  23  40  70  99 131 177 227 279 353 413
#     4  10  23  43  67 100 136 179 224 290 346 410
#     4  11  25  47  72 103 141 184 240 295 354 418
#     4  12  26  48  72 106 138 190 238 286 364 420
#     4  10  24  40  62  98 132 180 218 274 352 400
#     4  11  25  46  72 103 141 186 235 300 351 415
#     4  11  21  43  66  98 134 174 225 282 343 419
#
# _framework density 22.852823999999998
#
# number of rings (size 3 to 8) (size 9 to 14) (size 15 to 20)
#    0.000    1.333    3.333    1.000    4.667    1.333 
#    9.000    0.000    0.000    0.000    0.000    0.000 
#    0.000    0.000    0.000    0.000    0.000    0.000 
#
# Total GULP energy -67127.928121 kJ/mol
# GULP energy per Si atom -5593.994010 kJ/mol
# Density = 2.280081 g / cm^3
# Si number density = 22.852824 Si / 1000 Ang^3
#
#
#
# Elastic Constant Matrix: (Units=GPa)
#
#
# Indices 1 2 3 4 5 6 
#
# 1 34.1306 13.2710 3.4002 0.0000 -12.6708 0.0000
# 2 13.2710 121.5208 46.7372 0.0000 -17.1350 0.0000
# 3 3.4002 46.7372 113.4634 0.0000 -25.2854 0.0000
# 4 0.0000 0.0000 0.0000 17.0356 0.0000 11.2667
# 5 -12.6708 -17.1350 -25.2854 0.0000 32.4567 0.0000
# 6 0.0000 0.0000 0.0000 11.2667 0.0000 12.6656
#
#
#
# Elastic Compliance Matrix: (Units=1/GPa)
#
#
# Indices 1 2 3 4 5 6 
#
# 1 0.035775 -0.003160 0.003594 0.000000 0.015098 0.000000
# 2 -0.003160 0.010221 -0.003858 0.000000 0.001157 0.000000
# 3 0.003594 -0.003858 0.012287 0.000000 0.008939 0.000000
# 4 0.000000 0.000000 0.000000 0.142585 0.000000 -0.126836
# 5 0.015098 0.001157 0.008939 0.000000 0.044279 0.000000
# 6 0.000000 0.000000 0.000000 -0.126836 0.000000 0.191781
#
#
# Mechanical properties :
#
#
# Convention : Reuss Voigt Hill
#
# Bulk Modulus (GPa) = 19.44196 43.99239 31.71717
# Shear Modulus (GPa) = 10.84787 26.14536 18.49662
#
# Velocity S-wave (km/s) = 2.18109 3.38609 2.84805
# Velocity P-wave (km/s) = 3.85601 5.88044 4.97234
#
# Compressibility (1/GPa) = 0.05143514
#
# Stress axis : x y z
#
# Youngs Moduli (GPa) = 27.95252 97.83811 81.38906
#
# Poissons Ratio (x) = 0.30921 -0.29254
# Poissons Ratio (y) = 0.08834 0.31397
# Poissons Ratio (z) = -0.10047 0.37742
#
# Static dielectric constant tensor:
#      x y z
#    x 1.933910 0.000000 -0.055580 
#    y 0.000000 1.814310 0.000000 
#    z -0.055580 0.000000 1.875080 
# 
# From -- ./inp_files/43725.got.cif
#   From: 2010.05.17/outbox.cif.g08.bks.cpg/sg5_22_cif.got.tgz:43725.got - 2010.06.03 18:56:24.
