data_PCOD9127608
_publ_section_title
;
Structure prediction by ZEFSAII (Michael W. Deem and Ramdas Pophale) SiO2 
 PCOD9127608
Probable space group: C 2
;
_chemical_formula_sum "Si O2"
_cell_formula_units_Z 28
_cell_length_a 17.559754
_cell_length_b 8.304355
_cell_length_c 8.407032
_cell_angle_alpha 90.000000
_cell_angle_beta 63.776276
_cell_angle_gamma 90.000000
_cell_volume 1099.755193
_symmetry_space_group_name_H-M "C 2"
_symmetry_group_IT_number 5
_symmetry_cell_setting 'monoclinic'
loop_
_space_group_symop_operation_xyz
x,y,z
-x,y,-z
1/2+x,1/2+y,z
1/2-x,1/2+y,-z
loop_
_atom_site_type_symbol
_atom_site_label
_atom_site_fract_x
_atom_site_fract_y
_atom_site_fract_z
Si Si1 0.259354 0.457050 0.147826
Si Si2 0.441099 0.372229 0.903397
Si Si3 0.136978 0.515061 0.983763
Si Si4 0.352170 0.089552 0.503147
Si Si5 0.759845 0.134062 0.667079
Si Si6 0.936616 0.233812 0.404787
Si Si7 0.000000 0.260331 0.000000
Si Si8 0.500000 0.305367 0.500000
O O1 0.236786 0.546586 0.330572
O O2 0.242460 0.269523 0.195923
O O3 0.353905 0.474484 0.997121
O O4 0.182293 0.507462 0.109297
O O5 0.478679 0.387186 0.690202
O O6 0.500000 0.410918 0.000000
O O7 0.414034 0.184445 0.962213
O O8 0.217342 0.483819 0.790913
O O9 0.073729 0.376303 0.996651
O O10 0.316573 0.180699 0.382004
O O11 0.417890 0.197114 0.537193
O O12 0.399717 0.918778 0.427173
O O13 0.854235 0.125358 0.518835
O O14 0.000000 0.229816 0.500000
O O15 0.970677 0.188939 0.198431
#
# Coordination Sequence:
#
# PCOD9127608 Si02
#       8
#     4   4   4   4   4   4   2   2
#     4  10  23  40  62  97 134 165 211 272 323 378
#     4  11  23  41  65  98 131 166 217 271 317 382
#     4  11  20  41  66  95 129 168 216 267 319 384
#     4  11  20  41  66  95 129 168 216 267 319 384
#     4  10  23  40  62  97 134 165 211 272 323 378
#     4  11  23  41  65  98 131 166 217 271 317 382
#     4  12  20  36  72  96 122 170 220 268 322 368
#     4  12  20  36  72  96 122 170 220 268 322 368
#
# _framework density 25.460211000000001
#
# number of rings (size 3 to 8) (size 9 to 14) (size 15 to 20)
#    0.000    1.143    4.286    4.286    0.000    1.143 
#    5.143    1.429    0.000    0.000    0.000    0.000 
#    0.000    0.000    0.000    0.000    0.000    0.000 
#
# Total GULP energy -78241.385746 kJ/mol
# GULP energy per Si atom -5588.670410 kJ/mol
# Density = 2.540226 g / cm^3
# Si number density = 25.460211 Si / 1000 Ang^3
#
#
#
# Elastic Constant Matrix: (Units=GPa)
#
#
# Indices 1 2 3 4 5 6 
#
# 1 139.5874 27.1913 55.0129 0.0000 6.1263 0.0000
# 2 27.1913 57.1933 48.5764 0.0000 -1.9706 0.0000
# 3 55.0129 48.5764 199.1729 0.0000 -12.6198 0.0000
# 4 0.0000 0.0000 0.0000 -27.5161 0.0000 -16.4549
# 5 6.1263 -1.9706 -12.6198 0.0000 42.2709 0.0000
# 6 0.0000 0.0000 0.0000 -16.4549 0.0000 17.1590
#
#
#
# Elastic Compliance Matrix: (Units=1/GPa)
#
#
# Indices 1 2 3 4 5 6 
#
# 1 0.008465 -0.002525 -0.001842 0.000000 -0.001895 0.000000
# 2 -0.002525 0.022820 -0.004870 0.000000 -0.000024 0.000000
# 3 -0.001842 -0.004870 0.006849 0.000000 0.002085 0.000000
# 4 0.000000 0.000000 0.000000 -0.023097 0.000000 -0.022149
# 5 -0.001895 -0.000024 0.002085 0.000000 0.024553 0.000000
# 6 0.000000 0.000000 0.000000 -0.022149 0.000000 0.037038
#
#
# Mechanical properties :
#
#
# Convention : Reuss Voigt Hill
#
# Bulk Modulus (GPa) = 50.86334 73.05720 61.96027
# Shear Modulus (GPa) = 49.18524 24.06097 36.62311
#
# Velocity S-wave (km/s) = 4.40005 3.07749 3.79680
# Velocity P-wave (km/s) = 6.77014 6.43311 6.60378
#
# Compressibility (1/GPa) = 0.01966053
#
# Stress axis : x y z
#
# Youngs Moduli (GPa) = 118.13250 43.82069 145.99815
#
# Poissons Ratio (x) = 0.11065 0.26897
# Poissons Ratio (y) = 0.29829 0.71097
# Poissons Ratio (z) = 0.21764 0.21340
#
# Static dielectric constant tensor:
#      x y z
#    x 2.060260 0.000000 0.102680 
#    y 0.000000 2.070700 0.000000 
#    z 0.102680 0.000000 2.191750 
# 
# From -- ./inp_files/23552.got.cif
#   From: 2010.05.17/outbox.cif.g08.bks.cpg/sg5_12_cif.got.tgz:23552.got - 2010.06.03 18:56:24.
