data_PCOD9127407
_publ_section_title
;
Structure prediction by ZEFSAII (Michael W. Deem and Ramdas Pophale) SiO2 
 PCOD9127407
Probable space group: C 2
;
_chemical_formula_sum "Si O2"
_cell_formula_units_Z 24
_cell_length_a 10.833953
_cell_length_b 10.762548
_cell_length_c 11.637996
_cell_angle_alpha 90.000000
_cell_angle_beta 45.771668
_cell_angle_gamma 90.000000
_cell_volume 972.380671
_symmetry_space_group_name_H-M "C 2"
_symmetry_group_IT_number 5
_symmetry_cell_setting 'monoclinic'
loop_
_space_group_symop_operation_xyz
x,y,z
-x,y,-z
1/2+x,1/2+y,z
1/2-x,1/2+y,-z
loop_
_atom_site_type_symbol
_atom_site_label
_atom_site_fract_x
_atom_site_fract_y
_atom_site_fract_z
Si Si1 0.830386 0.354610 0.165234
Si Si2 0.124120 0.087930 0.268831
Si Si3 0.357097 0.294420 0.243561
Si Si4 0.657590 0.763338 0.584979
Si Si5 0.095232 0.482652 0.329652
Si Si6 0.190134 0.667337 0.073958
O O1 0.676243 0.452583 0.275025
O O2 0.842379 0.288109 0.280179
O O3 0.795179 0.252989 0.091751
O O4 0.000000 0.421946 0.000000
O O5 0.237135 0.186157 0.268349
O O6 0.926766 0.131067 0.393618
O O7 0.190147 0.102272 0.095949
O O8 0.327504 0.287145 0.400675
O O9 0.279839 0.423840 0.246253
O O10 0.553423 0.255949 0.097782
O O11 0.524766 0.865123 0.620829
O O12 0.102215 0.565645 0.212432
O O13 0.000000 0.546747 0.500000
#
# Coordination Sequence:
#
# PCOD9127407 Si02
#       6
#     4   4   4   4   4   4
#     4  12  25  44  66  99 140 175 226 281 330 401
#     4  11  23  45  72  93 132 180 220 275 340 392
#     4  10  23  44  69  97 130 172 228 276 326 404
#     4  10  22  46  68  97 132 173 225 272 335 400
#     4   9  21  42  66  93 132 174 217 277 334 390
#     4  12  25  41  68  99 133 177 224 273 339 397
#
# _framework density 24.681692000000002
#
# number of rings (size 3 to 8) (size 9 to 14) (size 15 to 20)
#    0.000    1.333    1.667    5.000    4.667    1.333 
#    9.000    0.000    0.000    0.000    0.000    0.000 
#    0.000    0.000    0.000    0.000    0.000    0.000 
#
# Total GULP energy -67187.025881 kJ/mol
# GULP energy per Si atom -5598.918823 kJ/mol
# Density = 2.462552 g / cm^3
# Si number density = 24.681692 Si / 1000 Ang^3
#
#
#
# Elastic Constant Matrix: (Units=GPa)
#
#
# Indices 1 2 3 4 5 6 
#
# 1 64.3257 0.8100 8.6441 0.0000 22.0460 0.0000
# 2 0.8100 42.8899 4.6494 0.0000 0.0718 0.0000
# 3 8.6441 4.6494 73.1643 0.0000 19.2964 0.0000
# 4 0.0000 0.0000 0.0000 -7.2935 0.0000 3.5707
# 5 22.0460 0.0718 19.2964 0.0000 39.5503 0.0000
# 6 0.0000 0.0000 0.0000 3.5707 0.0000 36.8296
#
#
#
# Elastic Compliance Matrix: (Units=1/GPa)
#
#
# Indices 1 2 3 4 5 6 
#
# 1 0.019250 -0.000417 0.000668 0.000000 -0.011056 0.000000
# 2 -0.000417 0.023508 -0.001715 0.000000 0.001027 0.000000
# 3 0.000668 -0.001715 0.015833 0.000000 -0.008094 0.000000
# 4 0.000000 0.000000 0.000000 -0.130896 0.000000 0.012691
# 5 -0.011056 0.001027 -0.008094 0.000000 0.035394 0.000000
# 6 0.000000 0.000000 0.000000 0.012691 0.000000 0.025922
#
#
# Mechanical properties :
#
#
# Convention : Reuss Voigt Hill
#
# Bulk Modulus (GPa) = 17.96593 23.17634 20.57113
# Shear Modulus (GPa) = 476.45693 24.90238 250.67965
#
# Velocity S-wave (km/s) = 13.90898 3.17983 10.08888
# Velocity P-wave (km/s) = 16.28622 4.78458 12.00278
#
# Compressibility (1/GPa) = 0.05566092
#
# Stress axis : x y z
#
# Youngs Moduli (GPa) = 51.94695 42.53938 63.16062
#
# Poissons Ratio (x) = 0.01776 -0.04219
# Poissons Ratio (y) = 0.02169 0.10834
# Poissons Ratio (z) = -0.03470 0.07297
#
# Static dielectric constant tensor:
#      x y z
#    x 1.966380 0.000000 -0.039610 
#    y 0.000000 1.933190 0.000000 
#    z -0.039610 0.000000 2.009370 
# 
# From -- ./inp_files/39088.got.cif
#   From: 2010.05.17/outbox.cif.g08.bks.cpg/sg5_20_cif.got.tgz:39088.got - 2010.06.03 18:56:24.
