data_PCOD9127015
_publ_section_title
;
Structure prediction by ZEFSAII (Michael W. Deem and Ramdas Pophale) SiO2 
 PCOD9127015
Probable space group: C 2
;
_chemical_formula_sum "Si O2"
_cell_formula_units_Z 16
_cell_length_a 14.324046
_cell_length_b 10.967109
_cell_length_c 9.791136
_cell_angle_alpha 90.000000
_cell_angle_beta 27.699281
_cell_angle_gamma 90.000000
_cell_volume 714.966960
_symmetry_space_group_name_H-M "C 2"
_symmetry_group_IT_number 5
_symmetry_cell_setting 'monoclinic'
loop_
_space_group_symop_operation_xyz
x,y,z
-x,y,-z
1/2+x,1/2+y,z
1/2-x,1/2+y,-z
loop_
_atom_site_type_symbol
_atom_site_label
_atom_site_fract_x
_atom_site_fract_y
_atom_site_fract_z
Si Si1 0.512041 0.425960 0.830382
Si Si2 0.585155 0.802429 0.739606
Si Si3 0.949273 0.649143 0.211505
Si Si4 0.119289 0.462948 0.203415
O O1 0.740527 0.407570 0.487470
O O2 0.443622 0.282768 0.929604
O O3 0.500000 0.475582 0.000000
O O4 0.351510 0.483920 0.938354
O O5 0.714477 0.684396 0.529262
O O6 0.423700 0.846928 0.838555
O O7 0.500000 0.787274 0.000000
O O8 0.030701 0.575681 0.233739
O O9 0.000000 0.591101 0.000000
O O10 0.000000 0.448200 0.500000
#
# Coordination Sequence:
#
# PCOD9127015 Si02
#       4
#     4   4   4   4
#     4   9  20  44  64  90 131 168 209 263 313 379
#     4  10  22  43  66  93 134 162 215 265 315 379
#     4   9  21  44  63  94 131 161 217 260 313 386
#     4  12  21  39  70  92 131 171 208 265 324 376
#
# _framework density 22.378655999999999
#
# number of rings (size 3 to 8) (size 9 to 14) (size 15 to 20)
#    1.500    0.500    2.500    0.750    0.000    3.000 
#    9.000    0.000    0.000    0.000    0.000    0.000 
#    0.000    0.000    0.000    0.000    0.000    0.000 
#
# Total GULP energy -44662.742770 kJ/mol
# GULP energy per Si atom -5582.842846 kJ/mol
# Density = 2.232772 g / cm^3
# Si number density = 22.378656 Si / 1000 Ang^3
#
#
#
# Elastic Constant Matrix: (Units=GPa)
#
#
# Indices 1 2 3 4 5 6 
#
# 1 172.6042 30.4441 61.9685 -0.0005 2.5894 0.0004
# 2 30.4441 53.4378 2.6408 -0.0003 5.4089 0.0003
# 3 61.9685 2.6408 135.5423 -0.0008 18.6145 0.0008
# 4 -0.0005 -0.0003 -0.0008 25.4841 0.0006 -4.0125
# 5 2.5894 5.4089 18.6145 0.0006 57.1617 -0.0005
# 6 0.0004 0.0003 0.0008 -4.0125 -0.0005 23.1169
#
#
#
# Elastic Compliance Matrix: (Units=1/GPa)
#
#
# Indices 1 2 3 4 5 6 
#
# 1 0.007882 -0.004436 -0.003691 0.000000 0.001265 0.000000
# 2 -0.004436 0.021393 0.001949 0.000000 -0.002458 0.000000
# 3 -0.003691 0.001949 0.009452 0.000000 -0.003095 0.000000
# 4 0.000000 0.000000 0.000000 0.040343 0.000000 0.007002
# 5 0.001265 -0.002458 -0.003095 0.000000 0.018678 0.000000
# 6 0.000000 0.000000 0.000000 0.007002 0.000000 0.044474
#
#
# Mechanical properties :
#
#
# Convention : Reuss Voigt Hill
#
# Bulk Modulus (GPa) = 37.91987 61.29901 49.60944
# Shear Modulus (GPa) = 30.60567 38.92128 34.76348
#
# Velocity S-wave (km/s) = 3.70216 4.17491 3.94562
# Velocity P-wave (km/s) = 5.93768 7.11977 6.55542
#
# Compressibility (1/GPa) = 0.02637140
#
# Stress axis : x y z
#
# Youngs Moduli (GPa) = 126.86816 46.74391 105.79403
#
# Poissons Ratio (x) = 0.20736 0.39048
# Poissons Ratio (y) = 0.56281 -0.20619
# Poissons Ratio (z) = 0.46826 -0.09110
#
# Static dielectric constant tensor:
#      x y z
#    x 1.768960 0.000000 -0.019520 
#    y 0.000000 1.994650 0.000000 
#    z -0.019520 0.000000 1.815160 
# 
# From -- ./inp_files/1865.got.cif
#   From: 2010.05.17/outbox.cif.g08.bks.cpg/sg5_1_cif.got.tgz:1865.got - 2010.06.03 18:56:24.
