data_PCOD9127856
_publ_section_title
;
Structure prediction by ZEFSAII (Michael W. Deem and Ramdas Pophale) SiO2 
 PCOD9127856
Probable space group: C 2
;
_chemical_formula_sum "Si O2"
_cell_formula_units_Z 20
_cell_length_a 9.679377
_cell_length_b 11.167446
_cell_length_c 7.057244
_cell_angle_alpha 90.000000
_cell_angle_beta 95.804693
_cell_angle_gamma 90.000000
_cell_volume 758.933625
_symmetry_space_group_name_H-M "C 2"
_symmetry_group_IT_number 5
_symmetry_cell_setting 'monoclinic'
loop_
_space_group_symop_operation_xyz
x,y,z
-x,y,-z
1/2+x,1/2+y,z
1/2-x,1/2+y,-z
loop_
_atom_site_type_symbol
_atom_site_label
_atom_site_fract_x
_atom_site_fract_y
_atom_site_fract_z
Si Si1 0.958953 0.188880 0.230076
Si Si2 0.730274 0.026664 0.334939
Si Si3 0.501328 0.200658 0.273357
Si Si4 0.789233 0.290885 0.855767
Si Si5 0.898726 0.950662 0.672766
O O1 0.840397 0.136733 0.349624
O O2 0.088333 0.276546 0.285946
O O3 0.048314 0.065630 0.205222
O O4 0.869536 0.253792 0.055415
O O5 0.587379 0.082652 0.244146
O O6 0.750813 0.972698 0.549100
O O7 0.766030 0.924406 0.187032
O O8 0.500000 0.202418 0.500000
O O9 0.344158 0.207417 0.184662
O O10 0.581130 0.323186 0.224741
O O11 0.000000 0.944653 0.500000
#
# Coordination Sequence:
#
# PCOD9127856 Si02
#       5
#     4   4   4   4   4
#     4  10  23  43  67  92 142 178 210 281 340 383
#     4  11  23  45  70  97 134 178 225 280 331 400
#     4  11  21  43  72  98 134 175 227 282 331 397
#     4  11  23  43  64  98 140 173 226 274 329 400
#     4   9  18  41  69  91 131 171 215 276 336 380
#
# _framework density 26.352767
#
# number of rings (size 3 to 8) (size 9 to 14) (size 15 to 20)
#    0.000    1.600    6.000    1.200    0.000    4.000 
#   14.400    0.000    0.000    0.000    0.000    0.000 
#    0.000    0.000    0.000    0.000    0.000    0.000 
#
# Total GULP energy -55791.472030 kJ/mol
# GULP energy per Si atom -5579.147203 kJ/mol
# Density = 2.629279 g / cm^3
# Si number density = 26.352767 Si / 1000 Ang^3
#
#
#
# Elastic Constant Matrix: (Units=GPa)
#
#
# Indices 1 2 3 4 5 6 
#
# 1 147.7920 27.5390 21.2616 0.0000 51.3536 0.0000
# 2 27.5390 74.3513 30.8290 0.0000 20.3901 0.0000
# 3 21.2616 30.8290 97.2802 0.0000 33.8383 0.0000
# 4 0.0000 0.0000 0.0000 31.2693 0.0000 9.8907
# 5 51.3536 20.3901 33.8383 0.0000 45.3261 0.0000
# 6 0.0000 0.0000 0.0000 9.8907 0.0000 50.4981
#
#
#
# Elastic Compliance Matrix: (Units=1/GPa)
#
#
# Indices 1 2 3 4 5 6 
#
# 1 0.011836 -0.001559 0.003144 0.000000 -0.015056 0.000000
# 2 -0.001559 0.016387 -0.003921 0.000000 -0.002679 0.000000
# 3 0.003144 -0.003921 0.015481 0.000000 -0.013356 0.000000
# 4 0.000000 0.000000 0.000000 0.034092 0.000000 -0.006677
# 5 -0.015056 -0.002679 -0.013356 0.000000 0.050296 0.000000
# 6 0.000000 0.000000 0.000000 -0.006677 0.000000 0.021111
#
#
# Mechanical properties :
#
#
# Convention : Reuss Voigt Hill
#
# Bulk Modulus (GPa) = 25.61911 53.18698 39.40305
# Shear Modulus (GPa) = 29.96079 41.40495 35.68287
#
# Velocity S-wave (km/s) = 3.37547 3.96811 3.68373
# Velocity P-wave (km/s) = 4.99344 6.42036 5.75133
#
# Compressibility (1/GPa) = 0.03903337
#
# Stress axis : x y z
#
# Youngs Moduli (GPa) = 84.48855 61.02261 64.59703
#
# Poissons Ratio (x) = 0.09511 -0.20311
# Poissons Ratio (y) = 0.13169 0.25327
# Poissons Ratio (z) = -0.26565 0.23926
#
# Static dielectric constant tensor:
#      x y z
#    x 2.220930 0.000000 -0.156580 
#    y 0.000000 2.054740 0.000000 
#    z -0.156580 0.000000 2.208370 
# 
# From -- ./inp_files/14349.got.cif
#   From: 2010.05.17/outbox.cif.g08.bks.cpg/sg5_8_cif.got.tgz:14349.got - 2010.06.03 18:56:24.
