data_PCOD9127181
_publ_section_title
;
Structure prediction by ZEFSAII (Michael W. Deem and Ramdas Pophale) SiO2 
 PCOD9127181
Probable space group: C 2
;
_chemical_formula_sum "Si O2"
_cell_formula_units_Z 26
_cell_length_a 29.417638
_cell_length_b 4.981013
_cell_length_c 7.919348
_cell_angle_alpha 90.000000
_cell_angle_beta 113.657771
_cell_angle_gamma 90.000000
_cell_volume 1062.895930
_symmetry_space_group_name_H-M "C 2"
_symmetry_group_IT_number 5
_symmetry_cell_setting 'monoclinic'
loop_
_space_group_symop_operation_xyz
x,y,z
-x,y,-z
1/2+x,1/2+y,z
1/2-x,1/2+y,-z
loop_
_atom_site_type_symbol
_atom_site_label
_atom_site_fract_x
_atom_site_fract_y
_atom_site_fract_z
Si Si1 0.735541 0.738410 0.363156
Si Si2 0.339654 0.834261 0.012069
Si Si3 0.091941 0.737454 0.452249
Si Si4 0.940858 0.266742 0.768486
Si Si5 0.951785 0.202139 0.151210
Si Si6 0.000000 0.810179 0.500000
Si Si7 0.687059 0.319286 0.817565
O O1 0.750576 0.466567 0.480528
O O2 0.679860 0.751197 0.203534
O O3 0.766914 0.782279 0.238108
O O4 0.399581 0.837387 0.119228
O O5 0.320601 0.614855 0.119418
O O6 0.316203 0.118195 0.029365
O O7 0.091989 0.533406 0.295813
O O8 0.141339 0.736654 0.630983
O O9 0.078623 0.043940 0.389778
O O10 0.045578 0.641109 0.496376
O O11 0.997462 0.360184 0.814308
O O12 0.940198 0.105986 0.943616
O O13 0.971738 0.988657 0.315997
#
# Coordination Sequence:
#
# PCOD9127181 Si02
#       7
#     4   4   4   4   4   2   4
#     4  12  28  50  77 105 137 177 230 292 352 416
#     4  12  26  46  74 103 141 183 231 284 347 413
#     4  11  24  41  70  98 142 180 234 282 338 408
#     4  10  25  42  64  99 147 186 227 285 334 409
#     4  10  24  43  69 101 142 188 232 280 342 400
#     4  10  22  44  68 104 138 188 232 280 338 406
#     4  12  26  46  72 106 136 184 226 290 346 412
#
# _framework density 24.461476000000001
#
# number of rings (size 3 to 8) (size 9 to 14) (size 15 to 20)
#    0.000    0.923    1.538    3.692    8.615    6.769 
#    0.000    0.000    0.000    0.000    0.000    0.000 
#    0.000    0.000    0.000    0.000    0.000    0.000 
#
# Total GULP energy -72631.864819 kJ/mol
# GULP energy per Si atom -5587.066525 kJ/mol
# Density = 2.440580 g / cm^3
# Si number density = 24.461476 Si / 1000 Ang^3
#
#
#
# Elastic Constant Matrix: (Units=GPa)
#
#
# Indices 1 2 3 4 5 6 
#
# 1 99.9957 7.7188 41.6487 0.0000 8.6585 0.0000
# 2 7.7188 65.1985 4.1629 0.0000 10.7391 0.0000
# 3 41.6487 4.1629 101.4431 0.0000 38.1389 0.0000
# 4 0.0000 0.0000 0.0000 30.0211 0.0000 4.6908
# 5 8.6585 10.7391 38.1389 0.0000 45.6106 0.0000
# 6 0.0000 0.0000 0.0000 4.6908 0.0000 18.1288
#
#
#
# Elastic Compliance Matrix: (Units=1/GPa)
#
#
# Indices 1 2 3 4 5 6 
#
# 1 0.012455 -0.001611 -0.006273 0.000000 0.003261 0.000000
# 2 -0.001611 0.016250 0.001923 0.000000 -0.005128 0.000000
# 3 -0.006273 0.001923 0.017615 0.000000 -0.013991 0.000000
# 4 0.000000 0.000000 0.000000 0.034713 0.000000 -0.008982
# 5 0.003261 -0.005128 -0.013991 0.000000 0.034212 0.000000
# 6 0.000000 0.000000 0.000000 -0.008982 0.000000 0.057485
#
#
# Mechanical properties :
#
#
# Convention : Reuss Voigt Hill
#
# Bulk Modulus (GPa) = 29.07301 41.52200 35.29750
# Shear Modulus (GPa) = 25.49459 32.95923 29.22691
#
# Velocity S-wave (km/s) = 3.23187 3.67467 3.46036
# Velocity P-wave (km/s) = 5.08308 5.91739 5.51603
#
# Compressibility (1/GPa) = 0.03439616
#
# Stress axis : x y z
#
# Youngs Moduli (GPa) = 80.28656 61.53696 56.77136
#
# Poissons Ratio (x) = 0.09914 0.35615
# Poissons Ratio (y) = 0.12935 -0.10914
# Poissons Ratio (z) = 0.50368 -0.11831
#
# Static dielectric constant tensor:
#      x y z
#    x 2.036760 0.000000 -0.076020 
#    y 0.000000 1.891010 0.000000 
#    z -0.076020 0.000000 2.006490 
# 
# From -- ./inp_files/31360.got.cif
#   From: 2010.05.17/outbox.cif.g08.bks.cpg/sg5_16_cif.got.tgz:31360.got - 2010.06.03 18:56:24.
