data_PCOD9127542
_publ_section_title
;
Structure prediction by ZEFSAII (Michael W. Deem and Ramdas Pophale) SiO2 
 PCOD9127542
Probable space group: C 2
;
_chemical_formula_sum "Si O2"
_cell_formula_units_Z 18
_cell_length_a 17.923126
_cell_length_b 6.533574
_cell_length_c 12.489996
_cell_angle_alpha 90.000000
_cell_angle_beta 149.184067
_cell_angle_gamma 90.000000
_cell_volume 749.265472
_symmetry_space_group_name_H-M "C 2"
_symmetry_group_IT_number 5
_symmetry_cell_setting 'monoclinic'
loop_
_space_group_symop_operation_xyz
x,y,z
-x,y,-z
1/2+x,1/2+y,z
1/2-x,1/2+y,-z
loop_
_atom_site_type_symbol
_atom_site_label
_atom_site_fract_x
_atom_site_fract_y
_atom_site_fract_z
Si Si1 0.198079 0.119220 0.646877
Si Si2 0.500000 0.906250 0.000000
Si Si3 0.021945 0.776519 0.699909
Si Si4 0.811847 0.405578 0.163121
Si Si5 0.942217 0.367948 0.697246
O O1 0.163573 0.264049 0.704429
O O2 0.182915 0.256444 0.522338
O O3 0.908591 0.322381 0.183473
O O4 0.140237 0.536459 0.139328
O O5 0.452224 0.798311 0.831558
O O6 0.118151 0.630930 0.739332
O O7 0.935761 0.613107 0.668553
O O8 0.144573 0.887881 0.922466
O O9 0.913762 0.932688 0.509706
#
# Coordination Sequence:
#
# PCOD9127542 Si02
#       5
#     4   2   4   4   4
#     4  12  25  52  76 114 159 200 263 314 387 458
#     4  12  28  52  76 110 160 208 252 322 376 466
#     4  10  24  49  78 115 155 197 257 316 384 459
#     4  10  22  50  77 119 147 201 253 325 382 451
#     4  10  26  48  73 116 151 205 251 309 394 449
#
# _framework density 24.023530000000001
#
# number of rings (size 3 to 8) (size 9 to 14) (size 15 to 20)
#    1.333    0.000    2.222    2.000    3.111    1.778 
#   28.000    2.222    0.000    0.000    0.000    0.000 
#    0.000    0.000    0.000    0.000    0.000    0.000 
#
# Total GULP energy -50301.966977 kJ/mol
# GULP energy per Si atom -5589.107442 kJ/mol
# Density = 2.396885 g / cm^3
# Si number density = 24.023530 Si / 1000 Ang^3
#
#
#
# Elastic Constant Matrix: (Units=GPa)
#
#
# Indices 1 2 3 4 5 6 
#
# 1 78.6368 30.1582 49.7195 0.0000 -11.1618 0.0000
# 2 30.1582 132.0137 84.7494 0.0000 8.0880 0.0000
# 3 49.7195 84.7494 128.5775 0.0000 -10.0404 0.0000
# 4 0.0000 0.0000 0.0000 15.6344 0.0000 -13.4808
# 5 -11.1618 8.0880 -10.0404 0.0000 63.3273 0.0000
# 6 0.0000 0.0000 0.0000 -13.4808 0.0000 -3.4069
#
#
#
# Elastic Compliance Matrix: (Units=1/GPa)
#
#
# Indices 1 2 3 4 5 6 
#
# 1 0.017079 0.000212 -0.006592 0.000000 0.001938 0.000000
# 2 0.000212 0.013759 -0.009401 0.000000 -0.003210 0.000000
# 3 -0.006592 -0.009401 0.016734 0.000000 0.002692 0.000000
# 4 0.000000 0.000000 0.000000 0.014498 0.000000 -0.057366
# 5 0.001938 -0.003210 0.002692 0.000000 0.016969 0.000000
# 6 0.000000 0.000000 0.000000 -0.057366 0.000000 -0.066530
#
#
# Mechanical properties :
#
#
# Convention : Reuss Voigt Hill
#
# Bulk Modulus (GPa) = 62.47264 74.27579 68.37422
# Shear Modulus (GPa) = 101.19806 26.75101 63.97453
#
# Velocity S-wave (km/s) = 6.49738 3.34059 5.16602
# Velocity P-wave (km/s) = 9.07465 6.77233 8.00667
#
# Compressibility (1/GPa) = 0.01600701
#
# Stress axis : x y z
#
# Youngs Moduli (GPa) = 58.55247 72.68105 59.75991
#
# Poissons Ratio (x) = -0.01540 0.39396
# Poissons Ratio (y) = -0.01241 0.56183
# Poissons Ratio (z) = 0.38600 0.68331
#
# Static dielectric constant tensor:
#      x y z
#    x 1.931000 0.000000 -0.020650 
#    y 0.000000 1.980560 0.000000 
#    z -0.020650 0.000000 1.879920 
# 
# From -- ./inp_files/47740.got.cif
#   From: 2010.05.17/outbox.cif.g08.bks.cpg/sg5_24_cif.got.tgz:47740.got - 2010.06.03 18:56:24.
