data_PCOD9127770
_publ_section_title
;
Structure prediction by ZEFSAII (Michael W. Deem and Ramdas Pophale) SiO2 
 PCOD9127770
Probable space group: C 2
;
_chemical_formula_sum "Si O2"
_cell_formula_units_Z 32
_cell_length_a 13.459903
_cell_length_b 8.750205
_cell_length_c 21.952644
_cell_angle_alpha 90.000000
_cell_angle_beta 33.306059
_cell_angle_gamma 90.000000
_cell_volume 1419.735021
_symmetry_space_group_name_H-M "C 2"
_symmetry_group_IT_number 5
_symmetry_cell_setting 'monoclinic'
loop_
_space_group_symop_operation_xyz
x,y,z
-x,y,-z
1/2+x,1/2+y,z
1/2-x,1/2+y,-z
loop_
_atom_site_type_symbol
_atom_site_label
_atom_site_fract_x
_atom_site_fract_y
_atom_site_fract_z
Si Si1 0.410476 0.423620 0.303967
Si Si2 0.545548 0.165763 0.810390
Si Si3 0.787630 0.120080 0.261503
Si Si4 0.561617 0.627867 0.405242
Si Si5 0.098599 0.359251 0.140552
Si Si6 0.506739 0.372862 0.925532
Si Si7 0.022270 0.233670 0.677572
Si Si8 0.584770 0.304184 0.565672
O O1 0.502220 0.305091 0.210169
O O2 0.271714 0.511262 0.329702
O O3 0.526526 0.566376 0.270171
O O4 0.361110 0.334022 0.391134
O O5 0.729355 0.092174 0.691198
O O6 0.600045 0.224464 0.849184
O O7 0.407093 0.031482 0.879534
O O8 0.593754 0.196193 0.345357
O O9 0.936100 0.253190 0.199131
O O10 0.890511 0.013903 0.159131
O O11 0.500000 0.696502 0.500000
O O12 0.534058 0.741861 0.363489
O O13 0.463423 0.469579 0.438422
O O14 0.066414 0.351484 0.230208
O O15 0.300143 0.318974 0.016879
O O16 0.500000 0.397675 0.000000
O O17 0.241241 0.243731 0.560342
#
# Coordination Sequence:
#
# PCOD9127770 Si02
#       8
#     4   4   4   4   4   4   4   4
#     4   9  23  41  61  99 133 173 231 278 341 420
#     4  11  22  43  67  95 134 172 221 289 340 410
#     4  10  23  45  69  96 135 185 228 289 348 421
#     4  11  22  40  64 100 133 174 229 271 351 415
#     4  11  22  43  71  92 133 176 225 285 349 409
#     4  11  25  44  65 101 131 176 232 282 348 418
#     4  10  23  42  66  96 136 179 222 287 345 425
#     4  11  22  42  68  99 137 179 231 276 352 423
#
# _framework density 22.539415999999999
#
# number of rings (size 3 to 8) (size 9 to 14) (size 15 to 20)
#    0.000    1.500    1.250    3.000    3.500    1.000 
#   15.750    0.625    0.000    0.000    0.000    0.000 
#    0.000    0.000    0.000    0.000    0.000    0.000 
#
# Total GULP energy -89184.215421 kJ/mol
# GULP energy per Si atom -5574.013464 kJ/mol
# Density = 2.248812 g / cm^3
# Si number density = 22.539416 Si / 1000 Ang^3
#
#
#
# Elastic Constant Matrix: (Units=GPa)
#
#
# Indices 1 2 3 4 5 6 
#
# 1 98.7692 40.8306 39.5344 0.0000 28.7408 0.0000
# 2 40.8306 90.2817 29.9047 0.0000 12.4639 0.0000
# 3 39.5344 29.9047 113.3458 -0.0002 -3.0649 0.0000
# 4 0.0000 0.0000 -0.0002 27.9766 0.0000 4.8843
# 5 28.7408 12.4639 -3.0649 0.0000 48.9837 0.0000
# 6 0.0000 0.0000 0.0000 4.8843 0.0000 25.1990
#
#
#
# Elastic Compliance Matrix: (Units=1/GPa)
#
#
# Indices 1 2 3 4 5 6 
#
# 1 0.016531 -0.004681 -0.004769 0.000000 -0.008807 0.000000
# 2 -0.004681 0.014017 -0.002091 0.000000 -0.000951 0.000000
# 3 -0.004769 -0.002091 0.011147 0.000000 0.004028 0.000000
# 4 0.000000 0.000000 0.000000 0.036996 0.000000 -0.007171
# 5 -0.008807 -0.000951 0.004028 0.000000 0.026076 0.000000
# 6 0.000000 0.000000 0.000000 -0.007171 0.000000 0.041074
#
#
# Mechanical properties :
#
#
# Convention : Reuss Voigt Hill
#
# Bulk Modulus (GPa) = 53.72683 58.10403 55.91543
# Shear Modulus (GPa) = 28.55032 33.24031 30.89532
#
# Velocity S-wave (km/s) = 3.56291 3.84443 3.70635
# Velocity P-wave (km/s) = 6.38861 6.74841 6.57097
#
# Compressibility (1/GPa) = 0.01861267
#
# Stress axis : x y z
#
# Youngs Moduli (GPa) = 60.49095 71.33972 89.71235
#
# Poissons Ratio (x) = 0.33393 0.42786
# Poissons Ratio (y) = 0.28315 0.18762
# Poissons Ratio (z) = 0.28850 0.14920
#
# Static dielectric constant tensor:
#      x y z
#    x 1.938660 0.000000 -0.046690 
#    y 0.000000 1.818290 0.000000 
#    z -0.046690 0.000000 1.867110 
# 
# From -- ./inp_files/41988.got.cif
#   From: 2010.05.17/outbox.cif.g08.bks.cpg/sg5_21_cif.got.tgz:41988.got - 2010.06.03 18:56:24.
