data_PCOD9127526
_publ_section_title
;
Structure prediction by ZEFSAII (Michael W. Deem and Ramdas Pophale) SiO2 
 PCOD9127526
Probable space group: C 2
;
_chemical_formula_sum "Si O2"
_cell_formula_units_Z 18
_cell_length_a 12.454246
_cell_length_b 7.541574
_cell_length_c 6.911047
_cell_angle_alpha 90.000000
_cell_angle_beta 95.447398
_cell_angle_gamma 90.000000
_cell_volume 646.185886
_symmetry_space_group_name_H-M "C 2"
_symmetry_group_IT_number 5
_symmetry_cell_setting 'monoclinic'
loop_
_space_group_symop_operation_xyz
x,y,z
-x,y,-z
1/2+x,1/2+y,z
1/2-x,1/2+y,-z
loop_
_atom_site_type_symbol
_atom_site_label
_atom_site_fract_x
_atom_site_fract_y
_atom_site_fract_z
Si Si1 0.328951 0.205690 0.814066
Si Si2 0.000000 0.267567 0.500000
Si Si3 0.877005 0.756605 0.396296
Si Si4 0.508210 0.521130 0.199185
Si Si5 0.863914 0.439135 0.129756
O O1 0.310353 0.220886 0.579667
O O2 0.222375 0.283358 0.892606
O O3 0.580231 0.356222 0.146523
O O4 0.374703 0.023504 0.914691
O O5 0.056579 0.371663 0.683316
O O6 0.932901 0.131920 0.624632
O O7 0.900160 0.938449 0.278984
O O8 0.831944 0.620892 0.233055
O O9 0.500000 0.223236 0.500000
O O10 0.500000 0.632445 0.000000
#
# Coordination Sequence:
#
# PCOD9127526 Si02
#       5
#     4   2   4   4   4
#     4  11  27  47  76 112 160 198 254 316 390 448
#     4  12  28  48  78 120 150 204 260 308 390 458
#     4  10  22  48  77 103 153 206 247 317 381 455
#     4  11  23  48  82 108 154 204 256 313 386 458
#     4  12  28  47  74 118 155 201 254 320 380 461
#
# _framework density 27.85576
#
# number of rings (size 3 to 8) (size 9 to 14) (size 15 to 20)
#    0.000    0.889    6.667    0.000    6.222    3.556 
#    0.000    0.000    0.000    0.000    0.000    0.000 
#    0.000    0.000    0.000    0.000    0.000    0.000 
#
# Total GULP energy -50137.687664 kJ/mol
# GULP energy per Si atom -5570.854185 kJ/mol
# Density = 2.779236 g / cm^3
# Si number density = 27.855760 Si / 1000 Ang^3
#
#
#
# Elastic Constant Matrix: (Units=GPa)
#
#
# Indices 1 2 3 4 5 6 
#
# 1 67.3172 48.0803 48.2781 0.0000 1.2776 0.0000
# 2 48.0803 117.5014 79.9766 0.0000 6.4788 0.0000
# 3 48.2781 79.9766 241.9149 0.0000 -1.0070 0.0000
# 4 0.0000 0.0000 0.0000 72.4992 0.0000 7.5343
# 5 1.2776 6.4788 -1.0070 0.0000 35.6083 0.0000
# 6 0.0000 0.0000 0.0000 7.5343 0.0000 25.7834
#
#
#
# Elastic Compliance Matrix: (Units=1/GPa)
#
#
# Indices 1 2 3 4 5 6 
#
# 1 0.021585 -0.007656 -0.001774 0.000000 0.000568 0.000000
# 2 -0.007656 0.013857 -0.003063 0.000000 -0.002333 0.000000
# 3 -0.001774 -0.003063 0.005504 0.000000 0.000777 0.000000
# 4 0.000000 0.000000 0.000000 0.014225 0.000000 -0.004157
# 5 0.000568 -0.002333 0.000777 0.000000 0.028509 0.000000
# 6 0.000000 0.000000 0.000000 -0.004157 0.000000 0.039999
#
#
# Mechanical properties :
#
#
# Convention : Reuss Voigt Hill
#
# Bulk Modulus (GPa) = 62.66063 86.60040 74.63051
# Shear Modulus (GPa) = 32.47077 43.47141 37.97109
#
# Velocity S-wave (km/s) = 3.41790 3.95472 3.69607
# Velocity P-wave (km/s) = 6.17411 7.21175 6.71301
#
# Compressibility (1/GPa) = 0.01595898
#
# Stress axis : x y z
#
# Youngs Moduli (GPa) = 46.32881 72.16769 181.70124
#
# Poissons Ratio (x) = 0.55252 0.32237
# Poissons Ratio (y) = 0.35469 0.55651
# Poissons Ratio (z) = 0.08220 0.22103
#
# Static dielectric constant tensor:
#      x y z
#    x 2.302780 0.000000 -0.078280 
#    y 0.000000 2.344040 0.000000 
#    z -0.078280 0.000000 2.377440 
# 
# From -- ./inp_files/7949.got.cif
#   From: 2010.05.17/outbox.cif.g08.bks.cpg/sg5_4_cif.got.tgz:7949.got - 2010.06.03 18:56:24.
