data_PCOD9127513
_publ_section_title
;
Structure prediction by ZEFSAII (Michael W. Deem and Ramdas Pophale) SiO2 
 PCOD9127513
Probable space group: C 2
;
_chemical_formula_sum "Si O2"
_cell_formula_units_Z 28
_cell_length_a 12.770189
_cell_length_b 7.345111
_cell_length_c 20.016396
_cell_angle_alpha 90.000000
_cell_angle_beta 145.740130
_cell_angle_gamma 90.000000
_cell_volume 1056.937536
_symmetry_space_group_name_H-M "C 2"
_symmetry_group_IT_number 5
_symmetry_cell_setting 'monoclinic'
loop_
_space_group_symop_operation_xyz
x,y,z
-x,y,-z
1/2+x,1/2+y,z
1/2-x,1/2+y,-z
loop_
_atom_site_type_symbol
_atom_site_label
_atom_site_fract_x
_atom_site_fract_y
_atom_site_fract_z
Si Si1 0.667109 0.148390 0.407676
Si Si2 0.093033 0.477318 0.944592
Si Si3 0.265910 0.752165 0.718618
Si Si4 0.089057 0.228105 0.345510
Si Si5 0.000000 0.032371 0.500000
Si Si6 0.230970 0.374828 0.754618
Si Si7 0.000000 0.789861 0.000000
Si Si8 0.048609 0.759987 0.819915
O O1 0.735601 0.161598 0.519285
O O2 0.518291 0.276574 0.292197
O O3 0.604099 0.945929 0.358320
O O4 0.860443 0.159190 0.467827
O O5 0.104152 0.558109 0.875392
O O6 0.911578 0.347287 0.845984
O O7 0.074865 0.651206 0.983408
O O8 0.277333 0.378715 0.066471
O O9 0.390027 0.681558 0.720560
O O10 0.165981 0.572620 0.694628
O O11 0.121322 0.897855 0.611517
O O12 0.899528 0.210612 0.287284
O O13 0.365651 0.302424 0.767574
O O14 0.354190 0.413062 0.884843
#
# Coordination Sequence:
#
# PCOD9127513 Si02
#       8
#     4   4   4   4   2   4   2   4
#     4  11  25  44  70 105 143 191 242 314 366 456
#     4  11  24  48  72 107 148 194 252 310 383 444
#     4  11  26  47  75 106 148 197 239 321 371 446
#     4  11  27  44  70 109 145 187 261 298 382 452
#     4  10  22  48  72 100 148 186 250 294 388 428
#     4  11  27  44  73 106 147 195 255 302 379 453
#     4  10  28  46  70 108 146 202 252 310 370 464
#     4  11  24  46  73 102 149 199 238 316 380 438
#
# _framework density 26.491631999999999
#
# number of rings (size 3 to 8) (size 9 to 14) (size 15 to 20)
#    0.000    1.143    2.857    1.714   14.000    2.857 
#    0.000    0.000    0.000    0.000    0.000    0.000 
#    0.000    0.000    0.000    0.000    0.000    0.000 
#
# Total GULP energy -78326.574112 kJ/mol
# GULP energy per Si atom -5594.755294 kJ/mol
# Density = 2.643134 g / cm^3
# Si number density = 26.491632 Si / 1000 Ang^3
#
#
#
# Elastic Constant Matrix: (Units=GPa)
#
#
# Indices 1 2 3 4 5 6 
#
# 1 69.1287 9.7043 1.4438 0.0000 2.0234 0.0000
# 2 9.7043 50.5914 18.4310 0.0000 -1.7318 0.0000
# 3 1.4438 18.4310 144.5735 0.0000 -4.7936 0.0000
# 4 0.0000 0.0000 0.0000 56.7362 0.0000 -7.4828
# 5 2.0234 -1.7318 -4.7936 0.0000 39.8765 0.0000
# 6 0.0000 0.0000 0.0000 -7.4828 0.0000 35.4531
#
#
#
# Elastic Compliance Matrix: (Units=1/GPa)
#
#
# Indices 1 2 3 4 5 6 
#
# 1 0.014902 -0.002961 0.000200 0.000000 -0.000861 0.000000
# 2 -0.002961 0.021331 -0.002665 0.000000 0.000756 0.000000
# 3 0.000200 -0.002665 0.007279 0.000000 0.000749 0.000000
# 4 0.000000 0.000000 0.000000 0.018130 0.000000 0.003827
# 5 -0.000861 0.000756 0.000749 0.000000 0.025244 0.000000
# 6 0.000000 0.000000 0.000000 0.003827 0.000000 0.029014
#
#
# Mechanical properties :
#
#
# Convention : Reuss Voigt Hill
#
# Bulk Modulus (GPa) = 30.61692 35.93909 33.27800
# Shear Modulus (GPa) = 36.32690 42.06079 39.19385
#
# Velocity S-wave (km/s) = 3.70707 3.98892 3.85057
# Velocity P-wave (km/s) = 5.46859 5.90008 5.68843
#
# Compressibility (1/GPa) = 0.03266168
#
# Stress axis : x y z
#
# Youngs Moduli (GPa) = 67.10308 46.88053 137.37298
#
# Poissons Ratio (x) = 0.13881 -0.02749
# Poissons Ratio (y) = 0.19869 0.36606
# Poissons Ratio (z) = -0.01343 0.12492
#
# Static dielectric constant tensor:
#      x y z
#    x 2.326580 0.000000 0.099290 
#    y 0.000000 2.074110 0.000000 
#    z 0.099290 0.000000 2.151850 
# 
# From -- ./inp_files/42060.got.cif
#   From: 2010.05.17/outbox.cif.g08.bks.cpg/sg5_22_cif.got.tgz:42060.got - 2010.06.03 18:56:24.
