data_PCOD9127918
_publ_section_title
;
Structure prediction by ZEFSAII (Michael W. Deem and Ramdas Pophale) SiO2 
 PCOD9127918
Probable space group: C 2
;
_chemical_formula_sum "Si O2"
_cell_formula_units_Z 32
_cell_length_a 14.383546
_cell_length_b 11.029129
_cell_length_c 16.722361
_cell_angle_alpha 90.000000
_cell_angle_beta 148.610130
_cell_angle_gamma 90.000000
_cell_volume 1381.734853
_symmetry_space_group_name_H-M "C 2"
_symmetry_group_IT_number 5
_symmetry_cell_setting 'monoclinic'
loop_
_space_group_symop_operation_xyz
x,y,z
-x,y,-z
1/2+x,1/2+y,z
1/2-x,1/2+y,-z
loop_
_atom_site_type_symbol
_atom_site_label
_atom_site_fract_x
_atom_site_fract_y
_atom_site_fract_z
Si Si1 0.145823 0.104640 0.036190
Si Si2 0.916474 0.044659 0.723954
Si Si3 0.197062 0.857616 0.855468
Si Si4 0.793647 0.355277 0.362257
Si Si5 0.158616 0.010373 0.671674
Si Si6 0.795788 0.345782 0.096966
Si Si7 0.037934 0.675711 0.116568
Si Si8 0.080641 0.208331 0.409712
O O1 0.289615 0.213176 0.149124
O O2 0.222588 0.968434 0.084923
O O3 0.000000 0.114084 0.000000
O O4 0.046620 0.118623 0.877319
O O5 0.834193 0.120683 0.592683
O O6 0.767436 0.989931 0.670470
O O7 0.027230 0.931675 0.767126
O O8 0.224438 0.921767 0.790147
O O9 0.330934 0.878205 0.029332
O O10 0.667066 0.292436 0.206098
O O11 0.779075 0.276694 0.432609
O O12 0.000000 0.348627 0.500000
O O13 0.329149 0.071135 0.751835
O O14 0.000000 0.956475 0.500000
O O15 0.052408 0.122386 0.636557
O O16 0.959990 0.300117 0.269982
O O17 0.643710 0.237315 0.984036
O O18 0.000000 0.630933 0.000000
#
# Coordination Sequence:
#
# PCOD9127918 Si02
#       8
#     4   4   4   4   4   4   4   4
#     4  11  23  41  67  97 139 172 224 282 337 402
#     4  10  24  43  67  95 141 174 222 284 335 408
#     4  10  23  44  65  94 140 182 218 272 350 405
#     4  12  22  40  68 102 137 175 227 280 347 401
#     4  11  22  40  69 100 140 179 222 288 337 408
#     4  11  22  40  74 102 128 177 232 292 332 402
#     4  12  20  35  66 110 127 163 235 293 326 387
#     4  11  21  42  68 102 135 172 227 288 338 405
#
# _framework density 23.159292000000001
#
# number of rings (size 3 to 8) (size 9 to 14) (size 15 to 20)
#    0.000    1.000    7.500    0.375    1.750    0.500 
#    2.250    2.500    0.000    0.000    0.000    0.000 
#    0.000    0.000    0.000    0.000    0.000    0.000 
#
# Total GULP energy -89224.857497 kJ/mol
# GULP energy per Si atom -5576.553594 kJ/mol
# Density = 2.310658 g / cm^3
# Si number density = 23.159292 Si / 1000 Ang^3
#
#
#
# Elastic Constant Matrix: (Units=GPa)
#
#
# Indices 1 2 3 4 5 6 
#
# 1 57.1108 29.3847 15.0478 -0.0001 -9.0801 0.0000
# 2 29.3847 90.1501 34.0972 0.0003 -3.6781 0.0001
# 3 15.0478 34.0972 72.0418 0.0004 -10.1309 0.0002
# 4 -0.0001 0.0003 0.0004 18.2557 0.0001 -13.0889
# 5 -9.0801 -3.6781 -10.1309 0.0001 21.2985 0.0000
# 6 0.0000 0.0001 0.0002 -13.0889 0.0000 36.2965
#
#
#
# Elastic Compliance Matrix: (Units=1/GPa)
#
#
# Indices 1 2 3 4 5 6 
#
# 1 0.022428 -0.006871 -0.000273 0.000000 0.008245 0.000000
# 2 -0.006871 0.015628 -0.006423 0.000000 -0.003286 0.000000
# 3 -0.000273 -0.006423 0.018010 -0.000001 0.007341 0.000000
# 4 0.000000 0.000000 -0.000001 0.073879 -0.000001 0.026641
# 5 0.008245 -0.003286 0.007341 -0.000001 0.053391 0.000000
# 6 0.000000 0.000000 0.000000 0.026641 0.000000 0.037158
#
#
# Mechanical properties :
#
#
# Convention : Reuss Voigt Hill
#
# Bulk Modulus (GPa) = 34.56498 41.81802 38.19150
# Shear Modulus (GPa) = 19.43467 24.55500 21.99484
#
# Velocity S-wave (km/s) = 2.89999 3.25970 3.08510
# Velocity P-wave (km/s) = 5.11572 5.68009 5.40528
#
# Compressibility (1/GPa) = 0.02893102
#
# Stress axis : x y z
#
# Youngs Moduli (GPa) = 44.58758 63.98948 55.52333
#
# Poissons Ratio (x) = 0.43965 0.01518
# Poissons Ratio (y) = 0.30634 0.35665
# Poissons Ratio (z) = 0.01219 0.41103
#
# Static dielectric constant tensor:
#      x y z
#    x 1.947880 0.000000 -0.012740 
#    y 0.000000 1.879840 0.000000 
#    z -0.012740 0.000000 1.837010 
# 
# From -- ./inp_files/61727.got.cif
#   From: 2010.05.17/outbox.cif.g08.bks.cpg/sg5_31_cif.got.tgz:61727.got - 2010.06.03 18:56:24.
