data_PCOD9127449
_publ_section_title
;
Structure prediction by ZEFSAII (Michael W. Deem and Ramdas Pophale) SiO2 
 PCOD9127449
Probable space group: C 2
;
_chemical_formula_sum "Si O2"
_cell_formula_units_Z 26
_cell_length_a 16.581479
_cell_length_b 8.446231
_cell_length_c 9.807054
_cell_angle_alpha 90.000000
_cell_angle_beta 40.439336
_cell_angle_gamma 90.000000
_cell_volume 890.902626
_symmetry_space_group_name_H-M "C 2"
_symmetry_group_IT_number 5
_symmetry_cell_setting 'monoclinic'
loop_
_space_group_symop_operation_xyz
x,y,z
-x,y,-z
1/2+x,1/2+y,z
1/2-x,1/2+y,-z
loop_
_atom_site_type_symbol
_atom_site_label
_atom_site_fract_x
_atom_site_fract_y
_atom_site_fract_z
Si Si1 0.000000 0.693511 0.500000
Si Si2 0.371024 0.454116 0.901818
Si Si3 0.500000 0.678003 0.500000
Si Si4 0.528840 0.137113 0.724244
Si Si5 0.750522 0.885070 0.795406
Si Si6 0.000000 0.389763 0.000000
Si Si7 0.304292 0.525545 0.296987
Si Si8 0.307397 0.695938 0.548514
O O1 0.043153 0.590661 0.320476
O O2 0.885384 0.803007 0.601038
O O3 0.433535 0.571176 0.706497
O O4 0.256697 0.391651 0.952317
O O5 0.623109 0.614571 0.671067
O O6 0.330681 0.518243 0.101302
O O7 0.402914 0.771436 0.533391
O O8 0.463169 0.308400 0.826414
O O9 0.711196 0.337766 0.643610
O O10 0.509429 0.009631 0.863250
O O11 0.630186 0.808054 0.875960
O O12 0.754800 0.051805 0.708061
O O13 0.172468 0.603281 0.505142
#
# Coordination Sequence:
#
# PCOD9127449 Si02
#       8
#     2   4   2   4   4   2   4   4
#     4  10  25  49  84 109 166 227 300 341 456 533
#     4  10  24  49  83 114 167 230 288 350 459 518
#     4  10  25  53  78 111 172 225 276 371 438 531
#     4  11  25  45  77 119 158 224 288 359 424 546
#     4  10  22  46  75 116 162 231 273 373 431 529
#     4  12  24  42  74 114 170 204 286 364 438 494
#     4  12  28  47  84 125 169 223 293 369 441 533
#     4  11  25  50  75 117 172 216 290 363 437 528
#
# _framework density 29.183883999999999
#
# number of rings (size 3 to 8) (size 9 to 14) (size 15 to 20)
#    0.000    1.231    1.538    5.077    6.462    1.231 
#    8.308    1.538    3.385    0.000    0.000    0.000 
#    0.000    0.000    0.000    0.000    0.000    0.000 
#
# Total GULP energy -72508.245330 kJ/mol
# GULP energy per Si atom -5577.557333 kJ/mol
# Density = 2.911746 g / cm^3
# Si number density = 29.183884 Si / 1000 Ang^3
#
#
#
# Elastic Constant Matrix: (Units=GPa)
#
#
# Indices 1 2 3 4 5 6 
#
# 1 213.7214 70.3298 63.7522 0.0000 23.8734 0.0000
# 2 70.3298 116.3013 49.0158 0.0000 24.7227 0.0000
# 3 63.7522 49.0158 179.4423 0.0000 44.4238 0.0000
# 4 0.0000 0.0000 0.0000 42.5188 0.0000 16.9406
# 5 23.8734 24.7227 44.4238 0.0000 72.0125 0.0000
# 6 0.0000 0.0000 0.0000 16.9406 0.0000 41.0784
#
#
#
# Elastic Compliance Matrix: (Units=1/GPa)
#
#
# Indices 1 2 3 4 5 6 
#
# 1 0.006104 -0.003118 -0.001276 0.000000 -0.000166 0.000000
# 2 -0.003118 0.011562 -0.001562 0.000000 -0.001972 0.000000
# 3 -0.001276 -0.001562 0.007336 0.000000 -0.003566 0.000000
# 4 0.000000 0.000000 0.000000 0.028143 0.000000 -0.011606
# 5 -0.000166 -0.001972 -0.003566 0.000000 0.016818 0.000000
# 6 0.000000 0.000000 0.000000 -0.011606 0.000000 0.029130
#
#
# Mechanical properties :
#
#
# Convention : Reuss Voigt Hill
#
# Bulk Modulus (GPa) = 76.40026 97.29560 86.84793
# Shear Modulus (GPa) = 43.33935 52.87975 48.10955
#
# Velocity S-wave (km/s) = 3.85781 4.26132 4.06457
# Velocity P-wave (km/s) = 6.78818 7.59098 7.20077
#
# Compressibility (1/GPa) = 0.01308896
#
# Stress axis : x y z
#
# Youngs Moduli (GPa) = 163.81942 86.49315 136.32124
#
# Poissons Ratio (x) = 0.26972 0.17392
# Poissons Ratio (y) = 0.51085 0.21294
# Poissons Ratio (z) = 0.20900 0.13511
#
# Static dielectric constant tensor:
#      x y z
#    x 2.562320 0.000000 0.023530 
#    y 0.000000 2.424690 0.000000 
#    z 0.023530 0.000000 2.441960 
# 
# From -- ./inp_files/23560.got.cif
#   From: 2010.05.17/outbox.cif.g08.bks.cpg/sg5_12_cif.got.tgz:23560.got - 2010.06.03 18:56:24.
