data_PCOD9127694
_publ_section_title
;
Structure prediction by ZEFSAII (Michael W. Deem and Ramdas Pophale) SiO2 
 PCOD9127694
Probable space group: C 2
;
_chemical_formula_sum "Si O2"
_cell_formula_units_Z 26
_cell_length_a 12.400547
_cell_length_b 11.457697
_cell_length_c 8.581145
_cell_angle_alpha 90.000000
_cell_angle_beta 96.618864
_cell_angle_gamma 90.000000
_cell_volume 1211.097472
_symmetry_space_group_name_H-M "C 2"
_symmetry_group_IT_number 5
_symmetry_cell_setting 'monoclinic'
loop_
_space_group_symop_operation_xyz
x,y,z
-x,y,-z
1/2+x,1/2+y,z
1/2-x,1/2+y,-z
loop_
_atom_site_type_symbol
_atom_site_label
_atom_site_fract_x
_atom_site_fract_y
_atom_site_fract_z
Si Si1 0.159227 0.902400 0.692631
Si Si2 0.381077 0.252916 0.032226
Si Si3 0.204842 0.548499 0.815620
Si Si4 0.217091 0.602628 0.466721
Si Si5 0.500000 0.217516 0.500000
Si Si6 0.801233 0.280711 0.243280
Si Si7 0.599895 0.586028 0.909801
O O1 0.188102 0.830586 0.855294
O O2 0.083023 0.809300 0.594297
O O3 0.245890 0.978861 0.607263
O O4 0.088887 0.004992 0.757627
O O5 0.388155 0.128375 0.121399
O O6 0.500000 0.294447 0.000000
O O7 0.311537 0.253383 0.864657
O O8 0.241006 0.600853 0.655346
O O9 0.177988 0.417089 0.761555
O O10 0.296719 0.554588 0.964548
O O11 0.088208 0.633223 0.429870
O O12 0.284315 0.709292 0.399878
O O13 0.889029 0.215302 0.153396
O O14 0.500000 0.569662 0.000000
#
# Coordination Sequence:
#
# PCOD9127694 Si02
#       7
#     4   4   4   4   2   4   4
#     4  11  23  42  68 104 139 185 240 299 348 433
#     4  11  22  41  68 100 128 184 242 280 351 431
#     4  11  23  41  67  97 140 181 230 308 351 419
#     4  11  25  41  67 106 142 183 239 296 361 437
#     4  12  24  44  74 106 142 196 236 290 382 426
#     4  10  23  42  63  94 139 177 231 299 350 418
#     4  10  23  41  67  99 130 184 242 287 364 429
#
# _framework density 21.468132000000001
#
# number of rings (size 3 to 8) (size 9 to 14) (size 15 to 20)
#    0.000    1.231    3.077    2.308    4.308    0.615 
#    0.000    3.077    0.000    0.923    0.000    0.000 
#    0.000    0.000    0.000    0.000    0.000    0.000 
#
# Total GULP energy -72374.052968 kJ/mol
# GULP energy per Si atom -5567.234844 kJ/mol
# Density = 2.141927 g / cm^3
# Si number density = 21.468132 Si / 1000 Ang^3
#
#
#
# Elastic Constant Matrix: (Units=GPa)
#
#
# Indices 1 2 3 4 5 6 
#
# 1 72.4407 29.7858 13.1023 0.0000 -25.3881 0.0000
# 2 29.7858 144.7115 46.9104 0.0000 -14.5370 0.0000
# 3 13.1023 46.9104 86.9800 0.0000 -16.4865 0.0000
# 4 0.0000 0.0000 0.0000 36.3254 0.0000 1.5485
# 5 -25.3881 -14.5370 -16.4865 0.0000 28.0728 0.0000
# 6 0.0000 0.0000 0.0000 1.5485 0.0000 19.1614
#
#
#
# Elastic Compliance Matrix: (Units=1/GPa)
#
#
# Indices 1 2 3 4 5 6 
#
# 1 0.021352 -0.003170 0.002073 0.000000 0.018886 0.000000
# 2 -0.003170 0.008935 -0.004510 0.000000 -0.000888 0.000000
# 3 0.002073 -0.004510 0.015224 0.000000 0.008480 0.000000
# 4 0.000000 0.000000 0.000000 0.027624 0.000000 -0.002232
# 5 0.018886 -0.000888 0.008480 0.000000 0.057222 0.000000
# 6 0.000000 0.000000 0.000000 -0.002232 0.000000 0.052369
#
#
# Mechanical properties :
#
#
# Convention : Reuss Voigt Hill
#
# Bulk Modulus (GPa) = 29.15632 53.74768 41.45200
# Shear Modulus (GPa) = 24.34611 31.00084 27.67347
#
# Velocity S-wave (km/s) = 3.37123 3.80418 3.59423
# Velocity P-wave (km/s) = 5.36324 6.66229 6.04774
#
# Compressibility (1/GPa) = 0.03429788
#
# Stress axis : x y z
#
# Youngs Moduli (GPa) = 46.83506 111.91374 65.68424
#
# Poissons Ratio (x) = 0.35471 -0.13615
# Poissons Ratio (y) = 0.14844 0.29623
# Poissons Ratio (z) = -0.09708 0.50473
#
# Static dielectric constant tensor:
#      x y z
#    x 1.822850 0.000000 0.077810 
#    y 0.000000 1.871510 0.000000 
#    z 0.077810 0.000000 1.924770 
# 
# From -- ./inp_files/19388.got.cif
#   From: 2010.05.17/outbox.cif.g08.bks.cpg/sg5_10_cif.got.tgz:19388.got - 2010.06.03 18:56:24.
