data_PCOD9127588
_publ_section_title
;
Structure prediction by ZEFSAII (Michael W. Deem and Ramdas Pophale) SiO2 
 PCOD9127588
Probable space group: C 2
;
_chemical_formula_sum "Si O2"
_cell_formula_units_Z 30
_cell_length_a 7.745964
_cell_length_b 33.020016
_cell_length_c 5.441254
_cell_angle_alpha 90.000000
_cell_angle_beta 63.659339
_cell_angle_gamma 90.000000
_cell_volume 1247.219846
_symmetry_space_group_name_H-M "C 2"
_symmetry_group_IT_number 5
_symmetry_cell_setting 'monoclinic'
loop_
_space_group_symop_operation_xyz
x,y,z
-x,y,-z
1/2+x,1/2+y,z
1/2-x,1/2+y,-z
loop_
_atom_site_type_symbol
_atom_site_label
_atom_site_fract_x
_atom_site_fract_y
_atom_site_fract_z
Si Si1 0.500000 0.735271 0.500000
Si Si2 0.293872 0.369507 0.905619
Si Si3 0.229641 0.606459 0.297074
Si Si4 0.778444 0.696637 0.712220
Si Si5 0.205621 0.280285 0.009150
Si Si6 0.621231 0.987613 0.672317
Si Si7 0.774159 0.901949 0.423102
Si Si8 0.270651 0.071595 0.200200
O O1 0.609699 0.707315 0.624975
O O2 0.661546 0.767063 0.312575
O O3 0.198662 0.376478 0.702198
O O4 0.500444 0.391157 0.748315
O O5 0.319664 0.321526 0.920309
O O6 0.195328 0.389112 0.206715
O O7 0.266909 0.651505 0.167650
O O8 0.303239 0.599433 0.528748
O O9 0.000000 0.600952 0.500000
O O10 0.302107 0.577716 0.031336
O O11 0.000000 0.691633 0.500000
O O12 0.786248 0.737880 0.861650
O O13 0.000000 0.286389 0.000000
O O14 0.500000 0.998674 0.500000
O O15 0.738271 0.948321 0.513690
O O16 0.742495 0.026440 0.681969
O O17 0.500000 0.977749 0.000000
O O18 0.500000 0.078883 0.000000
#
# Coordination Sequence:
#
# PCOD9127588 Si02
#       8
#     2   4   4   4   4   4   4   4
#     4  10  24  44  62  96 136 182 232 292 340 406
#     4  10  23  41  64  85 125 171 220 279 339 400
#     4   9  18  33  56  95 127 165 222 273 333 401
#     4  10  23  39  67  99 135 182 234 288 347 417
#     4  10  24  42  64  94 127 179 230 289 343 414
#     4  11  21  36  61  96 133 175 221 278 349 405
#     4  10  23  40  60  92 120 173 221 278 333 413
#     4   9  17  32  56  88 131 165 212 277 330 404
#
# _framework density 24.053498999999999
#
# number of rings (size 3 to 8) (size 9 to 14) (size 15 to 20)
#    0.000    2.133    0.000    2.800    7.467    3.200 
#    0.000    0.000    0.000    1.600   10.400    0.000 
#    0.000    0.000    0.000    0.000    0.000    0.000 
#
# Total GULP energy -83623.203753 kJ/mol
# GULP energy per Si atom -5574.880250 kJ/mol
# Density = 2.399875 g / cm^3
# Si number density = 24.053499 Si / 1000 Ang^3
#
#
#
# Elastic Constant Matrix: (Units=GPa)
#
#
# Indices 1 2 3 4 5 6 
#
# 1 89.3195 16.1666 28.5350 0.0000 0.0923 0.0000
# 2 16.1666 177.2055 72.3637 0.0000 6.0583 0.0000
# 3 28.5350 72.3637 165.7905 0.0000 31.7801 0.0000
# 4 0.0000 0.0000 0.0000 32.5839 0.0000 12.0363
# 5 0.0923 6.0583 31.7801 0.0000 21.1025 0.0000
# 6 0.0000 0.0000 0.0000 12.0363 0.0000 6.2946
#
#
#
# Elastic Compliance Matrix: (Units=1/GPa)
#
#
# Indices 1 2 3 4 5 6 
#
# 1 0.012125 -0.000078 -0.002878 0.000000 0.004303 0.000000
# 2 -0.000078 0.007065 -0.003770 0.000000 0.003649 0.000000
# 3 -0.002878 -0.003770 0.011194 0.000000 -0.015763 0.000000
# 4 0.000000 0.000000 0.000000 0.104506 0.000000 -0.199830
# 5 0.004303 0.003649 -0.015763 0.000000 0.070061 0.000000
# 6 0.000000 0.000000 0.000000 -0.199830 0.000000 0.540970
#
#
# Mechanical properties :
#
#
# Convention : Reuss Voigt Hill
#
# Bulk Modulus (GPa) = 59.05717 74.04956 66.55336
# Shear Modulus (GPa) = 6.53582 33.01288 19.77435
#
# Velocity S-wave (km/s) = 1.65018 3.70872 2.87034
# Velocity P-wave (km/s) = 5.31381 7.01367 6.22206
#
# Compressibility (1/GPa) = 0.01693274
#
# Stress axis : x y z
#
# Youngs Moduli (GPa) = 82.47580 141.54362 89.33329
#
# Poissons Ratio (x) = 0.01107 0.25706
# Poissons Ratio (y) = 0.00645 0.33677
# Poissons Ratio (z) = 0.23733 0.53359
#
# Static dielectric constant tensor:
#      x y z
#    x 2.052220 0.000000 0.070120 
#    y 0.000000 1.905310 0.000000 
#    z 0.070120 0.000000 2.084330 
# 
# From -- ./inp_files/3922.got.cif
#   From: 2010.05.17/outbox.cif.g08.bks.cpg/sg5_2_cif.got.tgz:3922.got - 2010.06.03 18:56:24.
