data_PCOD9127016
_publ_section_title
;
Structure prediction by ZEFSAII (Michael W. Deem and Ramdas Pophale) SiO2 
 PCOD9127016
Probable space group: C 2
;
_chemical_formula_sum "Si O2"
_cell_formula_units_Z 28
_cell_length_a 11.487320
_cell_length_b 8.468650
_cell_length_c 14.920995
_cell_angle_alpha 90.000000
_cell_angle_beta 65.316927
_cell_angle_gamma 90.000000
_cell_volume 1318.920200
_symmetry_space_group_name_H-M "C 2"
_symmetry_group_IT_number 5
_symmetry_cell_setting 'monoclinic'
loop_
_space_group_symop_operation_xyz
x,y,z
-x,y,-z
1/2+x,1/2+y,z
1/2-x,1/2+y,-z
loop_
_atom_site_type_symbol
_atom_site_label
_atom_site_fract_x
_atom_site_fract_y
_atom_site_fract_z
Si Si1 0.303653 0.434620 0.624501
Si Si2 0.069383 0.946595 0.609004
Si Si3 0.962346 0.260666 0.288170
Si Si4 0.835685 0.741846 0.258221
Si Si5 0.917546 0.198757 0.113239
Si Si6 0.488272 0.041439 0.908181
Si Si7 0.806317 0.460544 0.827278
O O1 0.429076 0.373819 0.636295
O O2 0.345526 0.436431 0.507248
O O3 0.180508 0.325785 0.673905
O O4 0.258589 0.606210 0.674368
O O5 0.137298 0.866788 0.672006
O O6 0.039319 0.130244 0.635644
O O7 0.989231 0.170906 0.185027
O O8 0.061510 0.405365 0.265105
O O9 0.964478 0.656055 0.184663
O O10 0.782824 0.823786 0.185200
O O11 0.917500 0.390135 0.110670
O O12 0.779639 0.115896 0.160048
O O13 0.000000 0.146771 0.000000
O O14 0.354009 0.971322 0.915212
O O15 0.500000 0.122857 0.000000
#
# Coordination Sequence:
#
# PCOD9127016 Si02
#       7
#     4   4   4   4   4   4   4
#     4  11  24  44  66  96 134 176 228 275 338 399
#     4  11  25  42  68  97 134 179 221 283 334 395
#     4  11  22  44  66  96 137 171 224 276 334 401
#     4  12  23  41  69 102 128 177 230 269 337 404
#     4  10  22  43  66  94 135 176 217 272 335 394
#     4  10  25  44  65  99 136 176 220 277 334 400
#     4  11  23  42  69  96 134 173 223 274 338 393
#
# _framework density 21.229486999999999
#
# number of rings (size 3 to 8) (size 9 to 14) (size 15 to 20)
#    0.000    1.143    5.714    0.857    2.000    4.000 
#    0.000    0.000    0.000    0.000    0.000    0.000 
#    0.000    0.000    0.000    0.000    0.000    0.000 
#
# Total GULP energy -77984.304085 kJ/mol
# GULP energy per Si atom -5570.307435 kJ/mol
# Density = 2.118117 g / cm^3
# Si number density = 21.229487 Si / 1000 Ang^3
#
#
#
# Elastic Constant Matrix: (Units=GPa)
#
#
# Indices 1 2 3 4 5 6 
#
# 1 96.2954 32.0250 26.6258 0.0000 0.4248 0.0000
# 2 32.0250 50.7858 18.7703 0.0000 -1.0135 0.0000
# 3 26.6258 18.7703 83.9052 0.0000 -0.2126 0.0000
# 4 0.0000 0.0000 0.0000 21.2762 0.0000 -3.7617
# 5 0.4248 -1.0135 -0.2126 0.0000 27.8999 0.0000
# 6 0.0000 0.0000 0.0000 -3.7617 0.0000 35.0198
#
#
#
# Elastic Compliance Matrix: (Units=1/GPa)
#
#
# Indices 1 2 3 4 5 6 
#
# 1 0.013657 -0.007653 -0.002623 0.000000 -0.000506 0.000000
# 2 -0.007653 0.025769 -0.003334 0.000000 0.001027 0.000000
# 3 -0.002623 -0.003334 0.013496 0.000000 0.000022 0.000000
# 4 0.000000 0.000000 0.000000 0.047911 0.000000 0.005146
# 5 -0.000506 0.001027 0.000022 0.000000 0.035888 0.000000
# 6 0.000000 0.000000 0.000000 0.005146 0.000000 0.029108
#
#
# Mechanical properties :
#
#
# Convention : Reuss Voigt Hill
#
# Bulk Modulus (GPa) = 38.90524 42.86986 40.88755
# Shear Modulus (GPa) = 24.79958 27.07686 25.93822
#
# Velocity S-wave (km/s) = 3.42155 3.57520 3.49922
# Velocity P-wave (km/s) = 5.82882 6.10575 5.96889
#
# Compressibility (1/GPa) = 0.02570348
#
# Stress axis : x y z
#
# Youngs Moduli (GPa) = 73.22070 38.80642 74.09349
#
# Poissons Ratio (x) = 0.29698 0.19436
# Poissons Ratio (y) = 0.56034 0.24700
# Poissons Ratio (z) = 0.19207 0.12937
#
# Static dielectric constant tensor:
#      x y z
#    x 1.785570 0.000000 0.028130 
#    y 0.000000 1.766800 0.000000 
#    z 0.028130 0.000000 1.813990 
# 
# From -- ./inp_files/52374.got.cif
#   From: 2010.05.17/outbox.cif.g08.bks.cpg/sg5_27_cif.got.tgz:52374.got - 2010.06.03 18:56:24.
