data_PCOD9127972
_publ_section_title
;
Structure prediction by ZEFSAII (Michael W. Deem and Ramdas Pophale) SiO2 
 PCOD9127972
Probable space group: C 2
;
_chemical_formula_sum "Si O2"
_cell_formula_units_Z 16
_cell_length_a 5.043334
_cell_length_b 22.925572
_cell_length_c 5.581897
_cell_angle_alpha 90.000000
_cell_angle_beta 86.652725
_cell_angle_gamma 90.000000
_cell_volume 644.285239
_symmetry_space_group_name_H-M "C 2"
_symmetry_group_IT_number 5
_symmetry_cell_setting 'monoclinic'
loop_
_space_group_symop_operation_xyz
x,y,z
-x,y,-z
1/2+x,1/2+y,z
1/2-x,1/2+y,-z
loop_
_atom_site_type_symbol
_atom_site_label
_atom_site_fract_x
_atom_site_fract_y
_atom_site_fract_z
Si Si1 0.500000 0.500000 0.000000
Si Si2 0.272725 0.087380 0.353388
Si Si3 0.256255 0.273361 0.322944
Si Si4 0.257855 0.406195 0.329154
Si Si5 0.500000 0.183599 0.000000
O O1 0.345071 0.542101 0.828725
O O2 0.704578 0.456269 0.864411
O O3 0.500000 0.057312 0.500000
O O4 0.000000 0.108782 0.500000
O O5 0.448810 0.138182 0.219505
O O6 0.500000 0.265196 0.500000
O O7 0.258899 0.340054 0.231757
O O8 0.000000 0.263483 0.500000
O O9 0.278578 0.230276 0.096116
O O10 0.500000 0.411245 0.500000
O O11 0.000000 0.412985 0.500000
#
# Coordination Sequence:
#
# PCOD9127972 Si02
#       5
#     2   4   4   4   2
#     4  12  27  48  76 102 143 198 236 286 360 424
#     4  12  29  48  68 105 147 187 243 297 345 416
#     4  10  23  44  71 105 140 176 230 293 350 419
#     4  10  24  45  71 106 142 179 232 293 350 420
#     4  12  25  46  74 100 139 192 232 286 360 420
#
# _framework density 24.833724
#
# number of rings (size 3 to 8) (size 9 to 14) (size 15 to 20)
#    0.000    1.000    0.000    4.500    0.000   16.000 
#    0.000    7.500    0.000    0.000    0.000    5.250 
#    0.000    0.000    0.000    0.000    0.000    0.000 
#
# Total GULP energy -44738.733200 kJ/mol
# GULP energy per Si atom -5592.341650 kJ/mol
# Density = 2.477720 g / cm^3
# Si number density = 24.833724 Si / 1000 Ang^3
#
#
#
# Elastic Constant Matrix: (Units=GPa)
#
#
# Indices 1 2 3 4 5 6 
#
# 1 195.3185 37.2753 65.9178 0.0000 -1.6911 0.0000
# 2 37.2753 165.5484 72.1879 0.0000 -9.2836 0.0000
# 3 65.9178 72.1879 100.3118 0.0000 -18.4540 0.0000
# 4 0.0000 0.0000 0.0000 49.0405 0.0000 -12.9352
# 5 -1.6911 -9.2836 -18.4540 0.0000 44.5376 0.0000
# 6 0.0000 0.0000 0.0000 -12.9352 0.0000 42.8197
#
#
#
# Elastic Compliance Matrix: (Units=1/GPa)
#
#
# Indices 1 2 3 4 5 6 
#
# 1 0.006745 0.000666 -0.005238 0.000000 -0.001776 0.000000
# 2 0.000666 0.008899 -0.007031 0.000000 -0.001033 0.000000
# 3 -0.005238 -0.007031 0.019664 0.000000 0.006483 0.000000
# 4 0.000000 0.000000 0.000000 0.022157 0.000000 0.006693
# 5 -0.001776 -0.001033 0.006483 0.000000 0.024856 0.000000
# 6 0.000000 0.000000 0.000000 0.006693 0.000000 0.025376
#
#
# Mechanical properties :
#
#
# Convention : Reuss Voigt Hill
#
# Bulk Modulus (GPa) = 82.64440 90.21564 86.43002
# Shear Modulus (GPa) = 37.05400 46.33273 41.69337
#
# Velocity S-wave (km/s) = 3.86694 4.32408 4.10188
# Velocity P-wave (km/s) = 7.29993 7.83179 7.57053
#
# Compressibility (1/GPa) = 0.01210003
#
# Stress axis : x y z
#
# Youngs Moduli (GPa) = 148.25191 112.37510 50.85444
#
# Poissons Ratio (x) = -0.07482 0.26639
# Poissons Ratio (y) = -0.09871 0.35758
# Poissons Ratio (z) = 0.77659 0.79017
#
# Static dielectric constant tensor:
#      x y z
#    x 1.915990 0.000000 0.015310 
#    y 0.000000 1.968830 0.000000 
#    z 0.015310 0.000000 2.033040 
# 
# From -- ./inp_files/762.got.cif
#   From: 2010.05.17/outbox.cif.g08.bks.cpg/sg5_1_cif.got.tgz:762.got - 2010.06.03 18:56:24.
