data_PCOD9127326
_publ_section_title
;
Structure prediction by ZEFSAII (Michael W. Deem and Ramdas Pophale) SiO2 
 PCOD9127326
Probable space group: C 2
;
_chemical_formula_sum "Si O2"
_cell_formula_units_Z 32
_cell_length_a 7.927203
_cell_length_b 11.747090
_cell_length_c 13.564131
_cell_angle_alpha 90.000000
_cell_angle_beta 79.735503
_cell_angle_gamma 90.000000
_cell_volume 1242.897821
_symmetry_space_group_name_H-M "C 2"
_symmetry_group_IT_number 5
_symmetry_cell_setting 'monoclinic'
loop_
_space_group_symop_operation_xyz
x,y,z
-x,y,-z
1/2+x,1/2+y,z
1/2-x,1/2+y,-z
loop_
_atom_site_type_symbol
_atom_site_label
_atom_site_fract_x
_atom_site_fract_y
_atom_site_fract_z
Si Si1 0.729072 0.448770 0.354188
Si Si2 0.598624 0.144487 0.094099
Si Si3 0.131186 0.071770 0.642862
Si Si4 0.043756 0.147708 0.857255
Si Si5 0.693876 0.866919 0.448056
Si Si6 0.337376 0.157259 0.448434
Si Si7 0.104983 0.900034 0.090062
Si Si8 0.448613 0.898836 0.143802
O O1 0.549199 0.507804 0.349146
O O2 0.707932 0.377862 0.456927
O O3 0.852409 0.548629 0.379403
O O4 0.818990 0.394027 0.251545
O O5 0.543909 0.020388 0.143095
O O6 0.806881 0.141103 0.075565
O O7 0.562508 0.273465 0.141406
O O8 0.500000 0.146279 0.000000
O O9 0.273431 0.973949 0.623481
O O10 0.136666 0.142656 0.740931
O O11 0.177126 0.140420 0.539777
O O12 0.960376 0.274367 0.869552
O O13 0.942986 0.027343 0.866084
O O14 0.500000 0.857166 0.500000
O O15 0.781610 0.761167 0.387132
O O16 0.500000 0.169542 0.500000
O O17 0.312529 0.903485 0.067004
O O18 0.000000 0.895703 0.000000
#
# Coordination Sequence:
#
# PCOD9127326 Si02
#       8
#     4   4   4   4   4   4   4   4
#     4  11  22  40  60  89 130 172 219 278 329 390
#     4  10  24  43  68  99 133 174 222 276 335 404
#     4  11  22  40  60  89 130 169 221 272 331 389
#     4  11  24  41  67  99 134 175 220 276 331 399
#     4  11  23  39  63  91 125 173 223 273 330 396
#     4  11  23  39  63  90 126 175 220 274 331 392
#     4  10  22  45  68  96 132 172 220 275 335 399
#     4  11  24  41  67  97 138 172 221 276 332 397
#
# _framework density 25.746283999999999
#
# number of rings (size 3 to 8) (size 9 to 14) (size 15 to 20)
#    0.000    1.250    1.250    6.000    3.500    2.500 
#    0.000    0.000    0.000    0.000    0.000    0.000 
#    0.000    0.000    0.000    0.000    0.000    0.000 
#
# Total GULP energy -89298.498208 kJ/mol
# GULP energy per Si atom -5581.156138 kJ/mol
# Density = 2.568768 g / cm^3
# Si number density = 25.746284 Si / 1000 Ang^3
#
#
#
# Elastic Constant Matrix: (Units=GPa)
#
#
# Indices 1 2 3 4 5 6 
#
# 1 99.4092 61.1677 -6.9298 0.0000 7.6560 0.0000
# 2 61.1677 259.6474 26.0827 0.0000 -12.8508 0.0000
# 3 -6.9298 26.0827 62.7240 0.0000 -4.9897 0.0000
# 4 0.0000 0.0000 0.0000 -110.6864 0.0000 2.4407
# 5 7.6560 -12.8508 -4.9897 0.0000 21.1630 0.0000
# 6 0.0000 0.0000 0.0000 2.4407 0.0000 41.5932
#
#
#
# Elastic Compliance Matrix: (Units=1/GPa)
#
#
# Indices 1 2 3 4 5 6 
#
# 1 0.012929 -0.003601 0.002425 0.000000 -0.006292 0.000000
# 2 -0.003601 0.005115 -0.002215 0.000000 0.003886 0.000000
# 3 0.002425 -0.002215 0.017279 0.000000 0.001851 0.000000
# 4 0.000000 0.000000 0.000000 -0.009023 0.000000 0.000529
# 5 -0.006292 0.003886 0.001851 0.000000 0.052324 0.000000
# 6 0.000000 0.000000 0.000000 0.000529 0.000000 0.024011
#
#
# Mechanical properties :
#
#
# Convention : Reuss Voigt Hill
#
# Bulk Modulus (GPa) = 35.03806 64.71354 49.87580
# Shear Modulus (GPa) = 42.04118 13.17797 27.60958
#
# Velocity S-wave (km/s) = 4.04530 2.26484 3.27826
# Velocity P-wave (km/s) = 5.95465 5.65942 5.80891
#
# Compressibility (1/GPa) = 0.02854039
#
# Stress axis : x y z
#
# Youngs Moduli (GPa) = 77.34766 195.52164 57.87258
#
# Poissons Ratio (x) = 0.70402 -0.14035
# Poissons Ratio (y) = 0.27851 0.12822
# Poissons Ratio (z) = -0.18758 0.43317
#
# Static dielectric constant tensor:
#      x y z
#    x 2.041640 0.000000 -0.025560 
#    y 0.000000 2.153390 0.000000 
#    z -0.025560 0.000000 2.107320 
# 
# From -- ./inp_files/50487.got.cif
#   From: 2010.05.17/outbox.cif.g08.bks.cpg/sg5_26_cif.got.tgz:50487.got - 2010.06.03 18:56:24.
