data_PCOD9127496
_publ_section_title
;
Structure prediction by ZEFSAII (Michael W. Deem and Ramdas Pophale) SiO2 
 PCOD9127496
Probable space group: C 2
;
_chemical_formula_sum "Si O2"
_cell_formula_units_Z 26
_cell_length_a 9.490913
_cell_length_b 10.947997
_cell_length_c 9.900238
_cell_angle_alpha 90.000000
_cell_angle_beta 68.871907
_cell_angle_gamma 90.000000
_cell_volume 959.546630
_symmetry_space_group_name_H-M "C 2"
_symmetry_group_IT_number 5
_symmetry_cell_setting 'monoclinic'
loop_
_space_group_symop_operation_xyz
x,y,z
-x,y,-z
1/2+x,1/2+y,z
1/2-x,1/2+y,-z
loop_
_atom_site_type_symbol
_atom_site_label
_atom_site_fract_x
_atom_site_fract_y
_atom_site_fract_z
Si Si1 0.412199 0.466400 0.220858
Si Si2 0.718101 0.053019 0.534634
Si Si3 0.771880 0.214038 0.757261
Si Si4 0.691527 0.350176 0.209893
Si Si5 0.000000 0.763807 0.500000
Si Si6 0.727117 0.108384 0.064022
Si Si7 0.000000 0.429191 0.000000
Si Si8 0.500000 0.849231 0.500000
O O1 0.353814 0.528980 0.380546
O O2 0.341061 0.329662 0.227044
O O3 0.591613 0.443973 0.156683
O O4 0.654072 0.547827 0.875789
O O5 0.741482 0.090045 0.682699
O O6 0.621815 0.172233 0.523013
O O7 0.613401 0.937194 0.540603
O O8 0.778856 0.180982 0.911755
O O9 0.921948 0.266065 0.638157
O O10 0.610869 0.353682 0.380861
O O11 0.648589 0.213737 0.178725
O O12 0.869846 0.358368 0.126116
O O13 0.598839 0.012619 0.065410
#
# Coordination Sequence:
#
# PCOD9127496 Si02
#       8
#     4   4   4   4   2   4   2   2
#     4  11  25  51  86 120 163 229 281 340 438 509
#     4  10  22  47  84 120 166 215 273 357 422 501
#     4  11  24  48  81 119 167 220 276 350 418 504
#     4  12  28  56  83 124 169 223 283 356 418 520
#     4  11  22  52  87 118 166 217 282 352 427 488
#     4  12  28  53  80 119 176 222 276 354 427 507
#     4  12  32  50  78 122 168 220 284 334 442 494
#     4   9  24  46  81 120 158 209 282 336 423 500
#
# _framework density 27.096129000000001
#
# number of rings (size 3 to 8) (size 9 to 14) (size 15 to 20)
#    0.000    0.923    3.077    1.846    0.000    6.769 
#    8.308    1.538    0.000    0.000    0.000    0.000 
#    0.000    0.000    0.000    0.000    0.000    0.000 
#
# Total GULP energy -72894.270289 kJ/mol
# GULP energy per Si atom -5607.251561 kJ/mol
# Density = 2.703446 g / cm^3
# Si number density = 27.096129 Si / 1000 Ang^3
#
#
#
# Elastic Constant Matrix: (Units=GPa)
#
#
# Indices 1 2 3 4 5 6 
#
# 1 127.3388 43.5521 62.3511 0.0000 -9.4223 0.0000
# 2 43.5521 106.7282 45.5371 0.0000 -10.0314 0.0000
# 3 62.3511 45.5371 181.6684 0.0000 -10.5205 0.0000
# 4 0.0000 0.0000 0.0000 41.9868 0.0000 7.0358
# 5 -9.4223 -10.0314 -10.5205 0.0000 55.6633 0.0000
# 6 0.0000 0.0000 0.0000 7.0358 0.0000 44.8122
#
#
#
# Elastic Compliance Matrix: (Units=1/GPa)
#
#
# Indices 1 2 3 4 5 6 
#
# 1 0.010255 -0.002951 -0.002740 0.000000 0.000686 0.000000
# 2 -0.002951 0.011451 -0.001787 0.000000 0.001227 0.000000
# 3 -0.002740 -0.001787 0.006923 0.000000 0.000523 0.000000
# 4 0.000000 0.000000 0.000000 0.024461 0.000000 -0.003840
# 5 0.000686 0.001227 0.000523 0.000000 0.018401 0.000000
# 6 0.000000 0.000000 0.000000 -0.003840 0.000000 0.022918
#
#
# Mechanical properties :
#
#
# Convention : Reuss Voigt Hill
#
# Bulk Modulus (GPa) = 73.13253 79.84624 76.48938
# Shear Modulus (GPa) = 43.88941 46.11214 45.00077
#
# Velocity S-wave (km/s) = 4.02900 4.12976 4.07969
# Velocity P-wave (km/s) = 6.97799 7.22991 7.10507
#
# Compressibility (1/GPa) = 0.01367381
#
# Stress axis : x y z
#
# Youngs Moduli (GPa) = 97.51478 87.32605 144.44438
#
# Poissons Ratio (x) = 0.25770 0.39580
# Poissons Ratio (y) = 0.28777 0.25805
# Poissons Ratio (z) = 0.26721 0.15601
#
# Static dielectric constant tensor:
#      x y z
#    x 2.153230 0.000000 0.123360 
#    y 0.000000 2.117060 0.000000 
#    z 0.123360 0.000000 2.318480 
# 
# From -- ./inp_files/39126.got.cif
#   From: 2010.05.17/outbox.cif.g08.bks.cpg/sg5_20_cif.got.tgz:39126.got - 2010.06.03 18:56:24.
