data_PCOD9127008
_publ_section_title
;
Structure prediction by ZEFSAII (Michael W. Deem and Ramdas Pophale) SiO2 
 PCOD9127008
Probable space group: C 2
;
_chemical_formula_sum "Si O2"
_cell_formula_units_Z 26
_cell_length_a 9.330520
_cell_length_b 11.074865
_cell_length_c 13.017948
_cell_angle_alpha 90.000000
_cell_angle_beta 104.181188
_cell_angle_gamma 90.000000
_cell_volume 1304.206048
_symmetry_space_group_name_H-M "C 2"
_symmetry_group_IT_number 5
_symmetry_cell_setting 'monoclinic'
loop_
_space_group_symop_operation_xyz
x,y,z
-x,y,-z
1/2+x,1/2+y,z
1/2-x,1/2+y,-z
loop_
_atom_site_type_symbol
_atom_site_label
_atom_site_fract_x
_atom_site_fract_y
_atom_site_fract_z
Si Si1 0.276028 0.314820 0.925352
Si Si2 0.544784 0.171130 0.209768
Si Si3 0.359872 0.887818 0.550440
Si Si4 0.204505 0.189122 0.111312
Si Si5 0.849071 0.662772 0.538951
Si Si6 0.000000 0.000014 0.000000
Si Si7 0.041239 0.401743 0.196129
O O1 0.383447 0.266152 0.855393
O O2 0.131178 0.375176 0.852740
O O3 0.229012 0.208925 0.994026
O O4 0.367298 0.411405 0.008835
O O5 0.366706 0.173606 0.186588
O O6 0.612794 0.182972 0.334663
O O7 0.578819 0.038061 0.172731
O O8 0.500000 0.876820 0.500000
O O9 0.744522 0.772218 0.485166
O O10 0.417517 0.887245 0.677426
O O11 0.292334 0.023041 0.519250
O O12 0.131004 0.307262 0.144872
O O13 0.084029 0.082542 0.098326
O O14 0.000000 0.667603 0.500000
#
# Coordination Sequence:
#
# PCOD9127008 Si02
#       7
#     4   4   4   4   4   2   4
#     4  12  24  40  60  91 123 162 204 249 301 359
#     4  11  24  40  64  89 123 163 204 250 305 364
#     4  10  22  43  65  93 124 161 206 259 313 368
#     4  12  24  40  60  91 123 162 204 249 301 359
#     4  10  22  43  65  93 124 161 206 259 313 368
#     4  12  24  40  60  88 128 160 202 254 300 348
#     4  11  24  40  64  89 123 163 204 250 305 364
#
# _framework density 19.935500999999999
#
# number of rings (size 3 to 8) (size 9 to 14) (size 15 to 20)
#    0.000    0.923    4.615    1.846    2.154    1.846 
#    2.769    0.000    0.000    0.000    0.000    0.000 
#    0.000    0.000    0.000    0.000    0.000    0.000 
#
# Total GULP energy -72575.181523 kJ/mol
# GULP energy per Si atom -5582.706271 kJ/mol
# Density = 1.989013 g / cm^3
# Si number density = 19.935501 Si / 1000 Ang^3
#
#
#
# Elastic Constant Matrix: (Units=GPa)
#
#
# Indices 1 2 3 4 5 6 
#
# 1 76.3950 50.3509 29.0347 0.0000 3.3126 0.0000
# 2 50.3509 111.3515 29.0627 0.0000 8.1011 0.0000
# 3 29.0347 29.0627 46.7115 0.0000 6.4766 0.0000
# 4 0.0000 0.0000 0.0000 37.0743 0.0000 -41.7546
# 5 3.3126 8.1011 6.4766 0.0000 31.3026 0.0000
# 6 0.0000 0.0000 0.0000 -41.7546 0.0000 327.6191
#
#
#
# Elastic Compliance Matrix: (Units=1/GPa)
#
#
# Indices 1 2 3 4 5 6 
#
# 1 0.021266 -0.007427 -0.008805 0.000000 0.001493 0.000000
# 2 -0.007427 0.013378 -0.003435 0.000000 -0.001966 0.000000
# 3 -0.008805 -0.003435 0.029615 0.000000 -0.004307 0.000000
# 4 0.000000 0.000000 0.000000 0.031493 0.000000 0.004014
# 5 0.001493 -0.001966 -0.004307 0.000000 0.033188 0.000000
# 6 0.000000 0.000000 0.000000 0.004014 0.000000 0.003564
#
#
# Mechanical properties :
#
#
# Convention : Reuss Voigt Hill
#
# Bulk Modulus (GPa) = 40.11753 50.15052 45.13402
# Shear Modulus (GPa) = 27.75511 87.59986 57.67748
#
# Velocity S-wave (km/s) = 3.73533 6.63604 5.38469
# Velocity P-wave (km/s) = 6.22663 9.16117 7.83256
#
# Compressibility (1/GPa) = 0.02492676
#
# Stress axis : x y z
#
# Youngs Moduli (GPa) = 47.02248 74.74778 33.76659
#
# Poissons Ratio (x) = 0.55514 0.29731
# Poissons Ratio (y) = 0.34923 0.11598
# Poissons Ratio (z) = 0.41403 0.25674
#
# Static dielectric constant tensor:
#      x y z
#    x 1.649520 0.000000 0.018470 
#    y 0.000000 1.739580 0.000000 
#    z 0.018470 0.000000 1.685770 
# 
# From -- ./inp_files/50122.got.cif
#   From: 2010.05.17/outbox.cif.g08.bks.cpg/sg5_26_cif.got.tgz:50122.got - 2010.06.03 18:56:24.
