data_PCOD9127631
_publ_section_title
;
Structure prediction by ZEFSAII (Michael W. Deem and Ramdas Pophale) SiO2 
 PCOD9127631
Probable space group: C 2
;
_chemical_formula_sum "Si O2"
_cell_formula_units_Z 24
_cell_length_a 13.861132
_cell_length_b 7.560781
_cell_length_c 9.761784
_cell_angle_alpha 90.000000
_cell_angle_beta 118.441971
_cell_angle_gamma 90.000000
_cell_volume 899.563010
_symmetry_space_group_name_H-M "C 2"
_symmetry_group_IT_number 5
_symmetry_cell_setting 'monoclinic'
loop_
_space_group_symop_operation_xyz
x,y,z
-x,y,-z
1/2+x,1/2+y,z
1/2-x,1/2+y,-z
loop_
_atom_site_type_symbol
_atom_site_label
_atom_site_fract_x
_atom_site_fract_y
_atom_site_fract_z
Si Si1 0.155176 0.800990 0.620823
Si Si2 0.845399 0.657205 0.973081
Si Si3 0.979059 0.685763 0.709397
Si Si4 0.674875 0.707488 0.663562
Si Si5 0.117020 0.272732 0.908828
Si Si6 0.892559 0.288105 0.690820
O O1 0.108785 0.800103 0.434004
O O2 0.281105 0.747404 0.695845
O O3 0.077977 0.682957 0.662752
O O4 0.148758 0.000707 0.670908
O O5 0.801823 0.726371 0.797689
O O6 0.734172 0.674834 0.991494
O O7 0.874103 0.449929 0.996872
O O8 0.950038 0.747863 0.112077
O O9 0.923567 0.496920 0.705120
O O10 0.614651 0.814153 0.742111
O O11 0.636598 0.744899 0.486256
O O12 0.995354 0.193947 0.834420
#
# Coordination Sequence:
#
# PCOD9127631 Si02
#       6
#     4   4   4   4   4   4
#     4  11  24  40  68 101 133 177 230 278 337 408
#     4   9  20  39  63  98 129 179 217 272 353 399
#     4  10  24  42  67  99 137 177 225 283 339 408
#     4  10  23  40  67  99 129 175 226 275 341 405
#     4   9  21  37  67  93 129 172 220 269 341 397
#     4  11  23  43  65 106 133 175 227 285 333 416
#
# _framework density 26.679618999999999
#
# number of rings (size 3 to 8) (size 9 to 14) (size 15 to 20)
#    1.000    1.000    0.000    2.500   14.000    0.000 
#    0.000   11.667    0.000    0.000   26.000    0.000 
#    0.000    0.000    0.000    0.000    0.000    0.000 
#
# Total GULP energy -66986.350628 kJ/mol
# GULP energy per Si atom -5582.195886 kJ/mol
# Density = 2.661889 g / cm^3
# Si number density = 26.679619 Si / 1000 Ang^3
#
#
#
# Elastic Constant Matrix: (Units=GPa)
#
#
# Indices 1 2 3 4 5 6 
#
# 1 108.5499 0.0369 31.0760 0.0000 18.2223 0.0000
# 2 0.0369 42.7807 23.4348 0.0000 4.1459 0.0000
# 3 31.0760 23.4348 169.3964 0.0000 20.5178 0.0000
# 4 0.0000 0.0000 0.0000 38.8700 0.0000 1.5979
# 5 18.2223 4.1459 20.5178 0.0000 68.5937 0.0000
# 6 0.0000 0.0000 0.0000 1.5979 0.0000 25.3743
#
#
#
# Elastic Compliance Matrix: (Units=1/GPa)
#
#
# Indices 1 2 3 4 5 6 
#
# 1 0.010084 0.001161 -0.001741 0.000000 -0.002228 0.000000
# 2 0.001161 0.025442 -0.003641 0.000000 -0.000757 0.000000
# 3 -0.001741 -0.003641 0.006893 0.000000 -0.001379 0.000000
# 4 0.000000 0.000000 0.000000 0.025794 0.000000 -0.001624
# 5 -0.002228 -0.000757 -0.001379 0.000000 0.015629 0.000000
# 6 0.000000 0.000000 0.000000 -0.001624 0.000000 0.039512
#
#
# Mechanical properties :
#
#
# Convention : Reuss Voigt Hill
#
# Bulk Modulus (GPa) = 29.43082 47.75804 38.59443
# Shear Modulus (GPa) = 34.93521 44.31290 39.62406
#
# Velocity S-wave (km/s) = 3.62254 4.07987 3.85799
# Velocity P-wave (km/s) = 5.34342 6.33508 5.86026
#
# Compressibility (1/GPa) = 0.03397799
#
# Stress axis : x y z
#
# Youngs Moduli (GPa) = 99.16339 39.30530 145.06575
#
# Poissons Ratio (x) = -0.04562 0.25251
# Poissons Ratio (y) = -0.11511 0.52818
# Poissons Ratio (z) = 0.17261 0.14311
#
# Static dielectric constant tensor:
#      x y z
#    x 2.255310 0.000000 -0.009040 
#    y 0.000000 2.033490 0.000000 
#    z -0.009040 0.000000 2.152280 
# 
# From -- ./inp_files/56644.got.cif
#   From: 2010.05.17/outbox.cif.g08.bks.cpg/sg5_29_cif.got.tgz:56644.got - 2010.06.03 18:56:24.
