data_PCOD9127133
_publ_section_title
;
Structure prediction by ZEFSAII (Michael W. Deem and Ramdas Pophale) SiO2 
 PCOD9127133
Probable space group: C 2
;
_chemical_formula_sum "Si O2"
_cell_formula_units_Z 30
_cell_length_a 15.857805
_cell_length_b 9.760312
_cell_length_c 12.332025
_cell_angle_alpha 90.000000
_cell_angle_beta 56.360602
_cell_angle_gamma 90.000000
_cell_volume 1589.082881
_symmetry_space_group_name_H-M "C 2"
_symmetry_group_IT_number 5
_symmetry_cell_setting 'monoclinic'
loop_
_space_group_symop_operation_xyz
x,y,z
-x,y,-z
1/2+x,1/2+y,z
1/2-x,1/2+y,-z
loop_
_atom_site_type_symbol
_atom_site_label
_atom_site_fract_x
_atom_site_fract_y
_atom_site_fract_z
Si Si1 0.500000 0.096170 0.500000
Si Si2 0.946212 0.690974 0.926400
Si Si3 0.608001 0.409218 0.739215
Si Si4 0.383645 0.716406 0.333184
Si Si5 0.380777 0.617750 0.575641
Si Si6 0.665638 0.316502 0.455138
Si Si7 0.249217 0.300235 0.173434
Si Si8 0.945662 0.444269 0.758806
O O1 0.592950 0.193939 0.468929
O O2 0.472041 0.001276 0.620962
O O3 0.954786 0.569808 0.834700
O O4 0.008268 0.823103 0.840357
O O5 0.832233 0.732183 0.036902
O O6 0.000000 0.647710 0.000000
O O7 0.588544 0.570559 0.739252
O O8 0.646910 0.351408 0.595692
O O9 0.689143 0.381893 0.776833
O O10 0.352268 0.679894 0.479278
O O11 0.282411 0.778794 0.353555
O O12 0.475352 0.823810 0.268483
O O13 0.500000 0.644033 0.500000
O O14 0.362394 0.455621 0.587066
O O15 0.317377 0.688749 0.714644
O O16 0.168872 0.390396 0.165549
#
# Coordination Sequence:
#
# PCOD9127133 Si02
#       8
#     2   4   4   4   4   4   4   4
#     4  12  24  40  66 100 138 168 212 282 332 386
#     4  10  25  46  68  89 132 187 220 264 322 397
#     4  10  22  44  65  92 132 174 220 263 329 392
#     4  11  24  37  68  98 128 166 212 281 327 388
#     4  11  21  40  63  99 129 168 212 272 328 381
#     4  11  23  37  64 101 134 166 211 271 337 387
#     4  11  23  44  68  92 133 178 218 267 329 391
#     4  12  25  43  67 104 130 169 224 275 328 386
#
# _framework density 18.878813999999998
#
# number of rings (size 3 to 8) (size 9 to 14) (size 15 to 20)
#    0.000    1.067    4.667    1.600    7.467    1.067 
#    2.400    3.333    0.000    0.000    0.000    0.000 
#    0.000    0.000    0.000    0.000    0.000    0.000 
#
# Total GULP energy -83851.036897 kJ/mol
# GULP energy per Si atom -5590.069126 kJ/mol
# Density = 1.883585 g / cm^3
# Si number density = 18.878814 Si / 1000 Ang^3
#
#
#
# Elastic Constant Matrix: (Units=GPa)
#
#
# Indices 1 2 3 4 5 6 
#
# 1 105.0495 60.8457 40.7628 0.0000 -29.1183 0.0000
# 2 60.8457 110.4254 60.0231 0.0000 -18.9189 0.0000
# 3 40.7628 60.0231 95.7787 0.0000 -12.8160 0.0000
# 4 0.0000 0.0000 0.0000 0.4880 0.0000 -2.8168
# 5 -29.1183 -18.9189 -12.8160 0.0000 30.6587 0.0000
# 6 0.0000 0.0000 0.0000 -2.8168 0.0000 27.5169
#
#
#
# Elastic Compliance Matrix: (Units=1/GPa)
#
#
# Indices 1 2 3 4 5 6 
#
# 1 0.017179 -0.006600 -0.001628 0.000000 0.011562 0.000000
# 2 -0.006600 0.017088 -0.007762 0.000000 0.001032 0.000000
# 3 -0.001628 -0.007762 0.016048 0.000000 0.000372 0.000000
# 4 0.000000 0.000000 0.000000 5.009590 0.000000 0.512813
# 5 0.011562 0.001032 0.000372 0.000000 0.044391 0.000000
# 6 0.000000 0.000000 0.000000 0.512813 0.000000 0.088836
#
#
# Mechanical properties :
#
#
# Convention : Reuss Voigt Hill
#
# Bulk Modulus (GPa) = 54.54025 70.50188 62.52107
# Shear Modulus (GPa) = 0.95580 21.70749 11.33165
#
# Velocity S-wave (km/s) = 0.71231 3.39460 2.45262
# Velocity P-wave (km/s) = 5.44324 7.26567 6.41945
#
# Compressibility (1/GPa) = 0.01833508
#
# Stress axis : x y z
#
# Youngs Moduli (GPa) = 58.21197 58.51895 62.31358
#
# Poissons Ratio (x) = 0.38621 0.10145
# Poissons Ratio (y) = 0.38418 0.48369
# Poissons Ratio (z) = 0.09477 0.45424
#
# Static dielectric constant tensor:
#      x y z
#    x 1.676230 0.000000 0.002350 
#    y 0.000000 1.636830 0.000000 
#    z 0.002350 0.000000 1.628700 
# 
# From -- ./inp_files/41898.got.cif
#   From: 2010.05.17/outbox.cif.g08.bks.cpg/sg5_21_cif.got.tgz:41898.got - 2010.06.03 18:56:24.
