data_PCOD9127118
_publ_section_title
;
Structure prediction by ZEFSAII (Michael W. Deem and Ramdas Pophale) SiO2 
 PCOD9127118
Probable space group: C 2
;
_chemical_formula_sum "Si O2"
_cell_formula_units_Z 24
_cell_length_a 8.778349
_cell_length_b 17.548893
_cell_length_c 8.513476
_cell_angle_alpha 90.000000
_cell_angle_beta 122.602906
_cell_angle_gamma 90.000000
_cell_volume 1104.843507
_symmetry_space_group_name_H-M "C 2"
_symmetry_group_IT_number 5
_symmetry_cell_setting 'monoclinic'
loop_
_space_group_symop_operation_xyz
x,y,z
-x,y,-z
1/2+x,1/2+y,z
1/2-x,1/2+y,-z
loop_
_atom_site_type_symbol
_atom_site_label
_atom_site_fract_x
_atom_site_fract_y
_atom_site_fract_z
Si Si1 0.692756 0.838400 0.196700
Si Si2 0.453789 0.478427 0.292315
Si Si3 0.814471 0.393552 0.442414
Si Si4 0.812742 0.232537 0.311777
Si Si5 0.654529 0.626491 0.957990
Si Si6 0.952527 0.689232 0.298368
O O1 0.804534 0.911913 0.199496
O O2 0.677498 0.855345 0.377370
O O3 0.821575 0.764298 0.241601
O O4 0.500000 0.831937 0.000000
O O5 0.500000 0.495076 0.500000
O O6 0.640766 0.445509 0.330383
O O7 0.389899 0.552928 0.168065
O O8 0.801947 0.323369 0.314735
O O9 0.000000 0.434558 0.500000
O O10 0.824409 0.197642 0.146956
O O11 0.634641 0.205184 0.303624
O O12 0.000000 0.209794 0.500000
O O13 0.500000 0.639041 0.000000
O O14 0.842535 0.622944 0.152911
O O15 0.000000 0.667354 0.500000
#
# Coordination Sequence:
#
# PCOD9127118 Si02
#       6
#     4   4   4   4   4   4
#     4  11  23  42  74 110 147 187 247 306 361 435
#     4  10  23  51  75 103 151 195 237 305 373 440
#     4  10  22  43  76 111 142 190 243 302 370 427
#     4  11  23  44  72 107 144 186 246 303 363 432
#     4  12  28  45  68 109 150 202 241 298 370 437
#     4  12  23  45  72 105 146 191 247 306 366 424
#
# _framework density 21.722535000000001
#
# number of rings (size 3 to 8) (size 9 to 14) (size 15 to 20)
#    0.000    1.000    3.333    3.000    7.000    2.667 
#    0.000    7.500    0.000    0.000    0.000    0.000 
#    0.000    0.000    0.000    0.000    0.000    0.000 
#
# Total GULP energy -67152.612798 kJ/mol
# GULP energy per Si atom -5596.051067 kJ/mol
# Density = 2.167309 g / cm^3
# Si number density = 21.722535 Si / 1000 Ang^3
#
#
#
# Elastic Constant Matrix: (Units=GPa)
#
#
# Indices 1 2 3 4 5 6 
#
# 1 139.2968 46.1146 41.1696 0.0000 28.2653 0.0000
# 2 46.1146 90.1479 67.2527 0.0000 1.9776 0.0000
# 3 41.1696 67.2527 142.7476 0.0000 20.9589 0.0000
# 4 0.0000 0.0000 0.0000 33.6503 0.0000 -6.5354
# 5 28.2653 1.9776 20.9589 0.0000 37.1694 0.0000
# 6 0.0000 0.0000 0.0000 -6.5354 0.0000 55.2589
#
#
#
# Elastic Compliance Matrix: (Units=1/GPa)
#
#
# Indices 1 2 3 4 5 6 
#
# 1 0.010525 -0.005922 0.000963 0.000000 -0.008232 0.000000
# 2 -0.005922 0.020989 -0.009461 0.000000 0.008722 0.000000
# 3 0.000963 -0.009461 0.012231 0.000000 -0.007126 0.000000
# 4 0.000000 0.000000 0.000000 0.030416 0.000000 0.003597
# 5 -0.008232 0.008722 -0.007126 0.000000 0.036718 0.000000
# 6 0.000000 0.000000 0.000000 0.003597 0.000000 0.018522
#
#
# Mechanical properties :
#
#
# Convention : Reuss Voigt Hill
#
# Bulk Modulus (GPa) = 67.08950 75.69624 71.39287
# Shear Modulus (GPa) = 30.63531 39.72606 35.18068
#
# Velocity S-wave (km/s) = 3.75947 4.28108 4.02873
# Velocity P-wave (km/s) = 7.05667 7.70450 7.38769
#
# Compressibility (1/GPa) = 0.01490546
#
# Stress axis : x y z
#
# Youngs Moduli (GPa) = 95.01112 47.64346 81.75709
#
# Poissons Ratio (x) = 0.28214 -0.07874
# Poissons Ratio (y) = 0.56265 0.77353
# Poissons Ratio (z) = -0.09151 0.45077
#
# Static dielectric constant tensor:
#      x y z
#    x 1.807900 0.000000 0.025270 
#    y 0.000000 1.768940 0.000000 
#    z 0.025270 0.000000 1.702660 
# 
# From -- ./inp_files/16847.got.cif
#   From: 2010.05.17/outbox.cif.g08.bks.cpg/sg5_9_cif.got.tgz:16847.got - 2010.06.03 18:56:24.
