data_PCOD9127727
_publ_section_title
;
Structure prediction by ZEFSAII (Michael W. Deem and Ramdas Pophale) SiO2 
 PCOD9127727
Probable space group: C 2
;
_chemical_formula_sum "Si O2"
_cell_formula_units_Z 20
_cell_length_a 16.765253
_cell_length_b 5.129297
_cell_length_c 13.987417
_cell_angle_alpha 90.000000
_cell_angle_beta 41.738478
_cell_angle_gamma 90.000000
_cell_volume 800.764234
_symmetry_space_group_name_H-M "C 2"
_symmetry_group_IT_number 5
_symmetry_cell_setting 'monoclinic'
loop_
_space_group_symop_operation_xyz
x,y,z
-x,y,-z
1/2+x,1/2+y,z
1/2-x,1/2+y,-z
loop_
_atom_site_type_symbol
_atom_site_label
_atom_site_fract_x
_atom_site_fract_y
_atom_site_fract_z
Si Si1 0.945008 0.052790 0.442216
Si Si2 0.390281 0.140440 0.931130
Si Si3 0.334547 0.887707 0.790157
Si Si4 0.468688 0.624026 0.138491
Si Si5 0.810097 0.553665 0.597585
O O1 0.837537 0.263972 0.535112
O O2 0.000000 0.041734 0.500000
O O3 0.053686 0.196865 0.292650
O O4 0.020686 0.881990 0.150224
O O5 0.462450 0.888119 0.898868
O O6 0.606631 0.266351 0.529202
O O7 0.330690 0.087205 0.881611
O O8 0.344074 0.032544 0.680288
O O9 0.214699 0.716300 0.901263
O O10 0.327341 0.637837 0.282938
O O11 0.500000 0.566680 0.000000
#
# Coordination Sequence:
#
# PCOD9127727 Si02
#       5
#     4   4   4   4   4
#     4  10  23  41  71 101 137 186 240 296 338 422
#     4  12  27  45  73 109 150 186 229 313 363 425
#     4  11  26  47  73 111 144 186 245 298 366 414
#     4  12  26  45  70 107 148 191 241 287 365 438
#     4  11  24  45  72 101 139 190 245 286 346 430
#
# _framework density 24.976141999999999
#
# number of rings (size 3 to 8) (size 9 to 14) (size 15 to 20)
#    0.000    0.800    2.000    4.800    5.600    8.000 
#    0.000    4.000    0.000    0.000    0.000    0.000 
#    0.000    0.000    0.000    0.000    0.000    0.000 
#
# Total GULP energy -56087.682725 kJ/mol
# GULP energy per Si atom -5608.768273 kJ/mol
# Density = 2.491930 g / cm^3
# Si number density = 24.976142 Si / 1000 Ang^3
#
#
#
# Elastic Constant Matrix: (Units=GPa)
#
#
# Indices 1 2 3 4 5 6 
#
# 1 63.1794 49.3253 38.1277 0.0006 -18.6646 -0.0017
# 2 49.3253 174.6913 34.2873 -0.0042 -13.7315 0.0269
# 3 38.1277 34.2873 97.4159 -0.0037 -27.6973 0.0079
# 4 0.0006 -0.0042 -0.0037 36.5063 -0.0054 -4.1800
# 5 -18.6646 -13.7315 -27.6973 -0.0054 48.4256 -0.0031
# 6 -0.0017 0.0269 0.0079 -4.1800 -0.0031 44.6225
#
#
#
# Elastic Compliance Matrix: (Units=1/GPa)
#
#
# Indices 1 2 3 4 5 6 
#
# 1 0.025551 -0.005534 -0.006806 0.000000 0.004387 0.000006
# 2 -0.005534 0.007363 -0.000523 0.000000 -0.000345 -0.000005
# 3 -0.006806 -0.000523 0.014719 0.000002 0.005647 -0.000002
# 4 0.000000 0.000000 0.000002 0.027689 0.000004 0.002594
# 5 0.004387 -0.000345 0.005647 0.000004 0.025473 0.000002
# 6 0.000006 -0.000005 -0.000002 0.002594 0.000002 0.022653
#
#
# Mechanical properties :
#
#
# Convention : Reuss Voigt Hill
#
# Bulk Modulus (GPa) = 45.64840 64.30748 54.97794
# Shear Modulus (GPa) = 31.95363 40.14729 36.05046
#
# Velocity S-wave (km/s) = 3.58070 4.01362 3.80333
# Velocity P-wave (km/s) = 5.95078 6.87621 6.43017
#
# Compressibility (1/GPa) = 0.02190657
#
# Stress axis : x y z
#
# Youngs Moduli (GPa) = 39.13675 135.82147 67.94094
#
# Poissons Ratio (x) = 0.75164 0.46238
# Poissons Ratio (y) = 0.21659 0.03556
# Poissons Ratio (z) = 0.26635 0.07109
#
# Static dielectric constant tensor:
#      x y z
#    x 1.980870 -0.000010 0.049110 
#    y -0.000010 1.903350 0.000000 
#    z 0.049110 0.000000 1.982670 
# 
# From -- ./inp_files/56450.got.cif
#   From: 2010.05.17/outbox.cif.g08.bks.cpg/sg5_29_cif.got.tgz:56450.got - 2010.06.03 18:56:24.
