data_PCOD9127662
_publ_section_title
;
Structure prediction by ZEFSAII (Michael W. Deem and Ramdas Pophale) SiO2 
 PCOD9127662
Probable space group: C 2
;
_chemical_formula_sum "Si O2"
_cell_formula_units_Z 28
_cell_length_a 12.321809
_cell_length_b 12.980990
_cell_length_c 8.946471
_cell_angle_alpha 90.000000
_cell_angle_beta 102.989301
_cell_angle_gamma 90.000000
_cell_volume 1394.365709
_symmetry_space_group_name_H-M "C 2"
_symmetry_group_IT_number 5
_symmetry_cell_setting 'monoclinic'
loop_
_space_group_symop_operation_xyz
x,y,z
-x,y,-z
1/2+x,1/2+y,z
1/2-x,1/2+y,-z
loop_
_atom_site_type_symbol
_atom_site_label
_atom_site_fract_x
_atom_site_fract_y
_atom_site_fract_z
Si Si1 0.547542 0.376230 0.348105
Si Si2 0.599812 0.809424 0.912597
Si Si3 0.812364 0.072412 0.700969
Si Si4 0.264943 0.786199 0.538665
Si Si5 0.400744 0.932110 0.385492
Si Si6 0.886076 0.081495 0.046429
Si Si7 0.311684 0.375095 0.168156
O O1 0.500000 0.388770 0.500000
O O2 0.592469 0.488504 0.310518
O O3 0.654348 0.301025 0.400563
O O4 0.441938 0.338166 0.216691
O O5 0.577917 0.885505 0.769671
O O6 0.500000 0.822486 0.000000
O O7 0.594372 0.689157 0.864366
O O8 0.721846 0.832290 0.021395
O O9 0.800973 0.171986 0.594591
O O10 0.817369 0.107041 0.875052
O O11 0.701454 0.007716 0.652246
O O12 0.364770 0.839149 0.482153
O O13 0.238069 0.848412 0.684102
O O14 0.500000 0.987861 0.500000
O O15 0.000000 0.045054 0.000000
O O16 0.829303 0.994964 0.129484
#
# Coordination Sequence:
#
# PCOD9127662 Si02
#       7
#     4   4   4   4   4   4   4
#     4   9  21  37  62  95 121 165 201 263 308 358
#     4  11  24  41  63  93 124 167 209 256 315 367
#     4  11  21  41  61  93 125 165 208 251 315 370
#     4  10  23  41  63  92 128 161 206 256 316 366
#     4  11  25  40  61  92 127 164 204 258 309 375
#     4  11  22  38  68  94 120 161 211 263 305 370
#     4  11  20  39  65  90 125 159 212 255 305 372
#
# _framework density 20.080815000000001
#
# number of rings (size 3 to 8) (size 9 to 14) (size 15 to 20)
#    0.000    1.429    4.286    0.857    2.000    5.714 
#    0.000    0.000    0.000    5.143    0.000    0.000 
#    0.000    0.000    0.000    0.000    0.000    0.000 
#
# Total GULP energy -78056.848863 kJ/mol
# GULP energy per Si atom -5575.489205 kJ/mol
# Density = 2.003511 g / cm^3
# Si number density = 20.080815 Si / 1000 Ang^3
#
#
#
# Elastic Constant Matrix: (Units=GPa)
#
#
# Indices 1 2 3 4 5 6 
#
# 1 74.6883 9.4041 10.2682 0.0000 13.2747 0.0000
# 2 9.4041 60.0769 3.7014 0.0000 -5.2933 0.0000
# 3 10.2682 3.7014 45.0483 0.0000 22.1518 0.0000
# 4 0.0000 0.0000 0.0000 24.7521 0.0000 2.6566
# 5 13.2747 -5.2933 22.1518 0.0000 27.5058 0.0000
# 6 0.0000 0.0000 0.0000 2.6566 0.0000 0.6622
#
#
#
# Elastic Compliance Matrix: (Units=1/GPa)
#
#
# Indices 1 2 3 4 5 6 
#
# 1 0.015220 -0.003242 0.001185 0.000000 -0.008924 0.000000
# 2 -0.003242 0.018319 -0.005413 0.000000 0.009449 0.000000
# 3 0.001185 -0.005413 0.038356 0.000000 -0.032504 0.000000
# 4 0.000000 0.000000 0.000000 0.070953 0.000000 -0.284663
# 5 -0.008924 0.009449 -0.032504 0.000000 0.068659 0.000000
# 6 0.000000 0.000000 0.000000 -0.284663 0.000000 2.652281
#
#
# Mechanical properties :
#
#
# Convention : Reuss Voigt Hill
#
# Bulk Modulus (GPa) = 17.55703 25.17344 21.36523
# Shear Modulus (GPa) = 1.72550 21.01334 11.36942
#
# Velocity S-wave (km/s) = 0.92798 3.23838 2.38204
# Velocity P-wave (km/s) = 3.14807 5.15229 4.26945
#
# Compressibility (1/GPa) = 0.05695723
#
# Stress axis : x y z
#
# Youngs Moduli (GPa) = 65.70178 54.58872 26.07132
#
# Poissons Ratio (x) = 0.17697 -0.03090
# Poissons Ratio (y) = 0.21299 0.14111
# Poissons Ratio (z) = -0.07788 0.29547
#
# Static dielectric constant tensor:
#      x y z
#    x 1.748030 0.000000 0.056410 
#    y 0.000000 1.708250 0.000000 
#    z 0.056410 0.000000 1.806240 
# 
# From -- ./inp_files/20130.got.cif
#   From: 2010.05.17/outbox.cif.g08.bks.cpg/sg5_11_cif.got.tgz:20130.got - 2010.06.03 18:56:24.
