data_PCOD9127481
_publ_section_title
;
Structure prediction by ZEFSAII (Michael W. Deem and Ramdas Pophale) SiO2 
 PCOD9127481
Probable space group: C 2
;
_chemical_formula_sum "Si O2"
_cell_formula_units_Z 20
_cell_length_a 7.757077
_cell_length_b 7.717360
_cell_length_c 17.168470
_cell_angle_alpha 90.000000
_cell_angle_beta 129.833637
_cell_angle_gamma 90.000000
_cell_volume 789.236970
_symmetry_space_group_name_H-M "C 2"
_symmetry_group_IT_number 5
_symmetry_cell_setting 'monoclinic'
loop_
_space_group_symop_operation_xyz
x,y,z
-x,y,-z
1/2+x,1/2+y,z
1/2-x,1/2+y,-z
loop_
_atom_site_type_symbol
_atom_site_label
_atom_site_fract_x
_atom_site_fract_y
_atom_site_fract_z
Si Si1 0.673753 0.863900 0.155555
Si Si2 0.924679 0.022715 0.656936
Si Si3 0.142732 0.535390 0.712832
Si Si4 0.733223 0.721274 0.520550
Si Si5 0.259328 0.035268 0.091016
O O1 0.705446 0.710509 0.229057
O O2 0.760837 0.744874 0.108083
O O3 0.833429 0.014691 0.234948
O O4 0.431609 0.952596 0.079986
O O5 0.885364 0.891976 0.574314
O O6 0.770342 0.943295 0.680404
O O7 0.824693 0.190358 0.586948
O O8 0.156851 0.456394 0.802255
O O9 0.899769 0.586682 0.611954
O O10 0.500000 0.731359 0.500000
O O11 0.000000 0.993582 0.000000
#
# Coordination Sequence:
#
# PCOD9127481 Si02
#       5
#     4   4   4   4   4
#     4   9  23  44  66 102 140 185 230 304 352 442
#     4  11  23  41  65  99 136 189 235 297 363 440
#     4   9  22  41  61  97 139 179 240 293 356 428
#     4  11  22  37  62  95 135 186 231 287 358 443
#     4  10  22  47  72 103 139 187 243 297 370 433
#
# _framework density 25.340931000000001
#
# number of rings (size 3 to 8) (size 9 to 14) (size 15 to 20)
#    1.200    0.800    0.000    3.000    0.000    8.000 
#    3.600    0.000    0.000    0.000    0.000    0.000 
#    0.000    0.000    0.000    0.000    0.000    0.000 
#
# Total GULP energy -55700.016095 kJ/mol
# GULP energy per Si atom -5570.001609 kJ/mol
# Density = 2.528325 g / cm^3
# Si number density = 25.340931 Si / 1000 Ang^3
#
#
#
# Elastic Constant Matrix: (Units=GPa)
#
#
# Indices 1 2 3 4 5 6 
#
# 1 52.5518 10.6685 29.5538 0.0000 9.4061 0.0000
# 2 10.6685 71.3949 26.8339 0.0000 6.3851 0.0000
# 3 29.5538 26.8339 129.0375 0.0000 26.5506 0.0000
# 4 0.0000 0.0000 0.0000 30.8656 0.0000 -2.7988
# 5 9.4061 6.3851 26.5506 0.0000 50.0945 0.0000
# 6 0.0000 0.0000 0.0000 -2.7988 0.0000 36.3922
#
#
#
# Elastic Compliance Matrix: (Units=1/GPa)
#
#
# Indices 1 2 3 4 5 6 
#
# 1 0.022108 -0.001498 -0.004419 0.000000 -0.001618 0.000000
# 2 -0.001498 0.015300 -0.002801 0.000000 -0.000185 0.000000
# 3 -0.004419 -0.002801 0.010214 0.000000 -0.004227 0.000000
# 4 0.000000 0.000000 0.000000 0.032626 0.000000 0.002509
# 5 -0.001618 -0.000185 -0.004227 0.000000 0.022530 0.000000
# 6 0.000000 0.000000 0.000000 0.002509 0.000000 0.027671
#
#
# Mechanical properties :
#
#
# Convention : Reuss Voigt Hill
#
# Bulk Modulus (GPa) = 33.12779 43.01072 38.06925
# Shear Modulus (GPa) = 31.65652 35.86564 33.76108
#
# Velocity S-wave (km/s) = 3.53827 3.76616 3.65399
# Velocity P-wave (km/s) = 5.45836 5.99347 5.73216
#
# Compressibility (1/GPa) = 0.03018614
#
# Stress axis : x y z
#
# Youngs Moduli (GPa) = 45.23321 65.36141 97.90631
#
# Poissons Ratio (x) = 0.09791 0.43264
# Poissons Ratio (y) = 0.06776 0.27419
# Poissons Ratio (z) = 0.19988 0.18305
#
# Static dielectric constant tensor:
#      x y z
#    x 2.029270 0.000000 -0.015540 
#    y 0.000000 2.212980 0.000000 
#    z -0.015540 0.000000 2.011830 
# 
# From -- ./inp_files/49795.got.cif
#   From: 2010.05.17/outbox.cif.g08.bks.cpg/sg5_25_cif.got.tgz:49795.got - 2010.06.03 18:56:24.
