data_PCOD9127814
_publ_section_title
;
Structure prediction by ZEFSAII (Michael W. Deem and Ramdas Pophale) SiO2 
 PCOD9127814
Probable space group: C 2
;
_chemical_formula_sum "Si O2"
_cell_formula_units_Z 20
_cell_length_a 5.054269
_cell_length_b 31.671281
_cell_length_c 5.330712
_cell_angle_alpha 90.000000
_cell_angle_beta 88.936083
_cell_angle_gamma 90.000000
_cell_volume 853.167541
_symmetry_space_group_name_H-M "C 2"
_symmetry_group_IT_number 5
_symmetry_cell_setting 'monoclinic'
loop_
_space_group_symop_operation_xyz
x,y,z
-x,y,-z
1/2+x,1/2+y,z
1/2-x,1/2+y,-z
loop_
_atom_site_type_symbol
_atom_site_label
_atom_site_fract_x
_atom_site_fract_y
_atom_site_fract_z
Si Si1 0.242687 0.500000 0.840738
Si Si2 0.500000 0.812526 0.000000
Si Si3 0.500000 0.251344 0.000000
Si Si4 0.822237 0.090951 0.751046
Si Si5 0.000000 0.369313 0.500000
Si Si6 0.683356 0.683772 0.250284
Si Si7 0.000000 0.928566 0.500000
O O1 0.162794 0.546860 0.748100
O O2 0.338789 0.462556 0.666418
O O3 0.500000 0.508439 0.000000
O O4 0.000000 0.482971 0.000000
O O5 0.522269 0.840923 0.749463
O O6 0.247999 0.781986 0.024021
O O7 0.406621 0.219208 0.219239
O O8 0.688019 0.136809 0.746313
O O9 0.000000 0.088675 0.500000
O O10 0.000000 0.092602 0.000000
O O11 0.259772 0.397459 0.434181
O O12 0.500000 0.688585 0.500000
O O13 0.500000 0.686822 0.000000
#
# Coordination Sequence:
#
# PCOD9127814 Si02
#       7
#     4   2   2   4   2   4   2
#     4  11  24  42  71 105 149 196 241 293 348 427
#     4  12  30  52  78 109 140 189 236 316 378 442
#     4  12  26  50  80 107 150 185 252 290 376 432
#     4   9  19  41  64 102 150 195 243 286 345 408
#     4  12  30  52  80 105 146 183 240 314 380 438
#     4  10  23  42  71 107 148 196 241 293 347 427
#     4  12  26  48  78 107 144 189 246 294 370 436
#
# _framework density 23.442056999999998
#
# number of rings (size 3 to 8) (size 9 to 14) (size 15 to 20)
#    0.000    1.200    2.000    2.400    7.000    2.400 
#    0.000    0.000    0.000    0.000    0.000    0.000 
#    0.000    0.000    0.000    0.000    0.000    0.000 
#
# Total GULP energy -55837.392759 kJ/mol
# GULP energy per Si atom -5583.739276 kJ/mol
# Density = 2.338870 g / cm^3
# Si number density = 23.442057 Si / 1000 Ang^3
#
#
#
# Elastic Constant Matrix: (Units=GPa)
#
#
# Indices 1 2 3 4 5 6 
#
# 1 141.0865 76.8765 51.8502 0.0000 -34.8193 0.0000
# 2 76.8765 224.3966 74.7901 0.0000 -23.2694 0.0000
# 3 51.8502 74.7901 172.9373 0.0000 -27.5268 0.0000
# 4 0.0000 0.0000 0.0000 10.6427 0.0000 -29.8822
# 5 -34.8193 -23.2694 -27.5268 0.0000 48.5342 0.0000
# 6 0.0000 0.0000 0.0000 -29.8822 0.0000 101.3186
#
#
#
# Elastic Compliance Matrix: (Units=1/GPa)
#
#
# Indices 1 2 3 4 5 6 
#
# 1 0.010249 -0.002580 -0.001081 0.000000 0.005503 0.000000
# 2 -0.002580 0.005937 -0.001798 0.000000 -0.000024 0.000000
# 3 -0.001081 -0.001798 0.007281 0.000000 0.002492 0.000000
# 4 0.000000 0.000000 0.000000 0.546626 0.000000 0.161218
# 5 0.005503 -0.000024 0.002492 0.000000 0.025953 0.000000
# 6 0.000000 0.000000 0.000000 0.161218 0.000000 0.057419
#
#
# Mechanical properties :
#
#
# Convention : Reuss Voigt Hill
#
# Bulk Modulus (GPa) = 79.69169 105.05042 92.37106
# Shear Modulus (GPa) = 7.47869 54.42600 30.95234
#
# Velocity S-wave (km/s) = 1.78808 4.82366 3.63764
# Velocity P-wave (km/s) = 6.19128 8.71399 7.55862
#
# Compressibility (1/GPa) = 0.01254836
#
# Stress axis : x y z
#
# Youngs Moduli (GPa) = 97.56868 168.43280 137.34904
#
# Poissons Ratio (x) = 0.43461 0.14849
# Poissons Ratio (y) = 0.25176 0.24693
# Poissons Ratio (z) = 0.10548 0.30282
#
# Static dielectric constant tensor:
#      x y z
#    x 1.871090 0.000000 0.067210 
#    y 0.000000 1.967880 0.000000 
#    z 0.067210 0.000000 1.907790 
# 
# From -- ./inp_files/1271.got.cif
#   From: 2010.05.17/outbox.cif.g08.bks.cpg/sg5_1_cif.got.tgz:1271.got - 2010.06.03 18:56:24.
