data_PCOD9127305
_publ_section_title
;
Structure prediction by ZEFSAII (Michael W. Deem and Ramdas Pophale) SiO2 
 PCOD9127305
Probable space group: C 2
;
_chemical_formula_sum "Si O2"
_cell_formula_units_Z 20
_cell_length_a 11.340041
_cell_length_b 14.269832
_cell_length_c 8.266995
_cell_angle_alpha 90.000000
_cell_angle_beta 49.507040
_cell_angle_gamma 90.000000
_cell_volume 1017.354347
_symmetry_space_group_name_H-M "C 2"
_symmetry_group_IT_number 5
_symmetry_cell_setting 'monoclinic'
loop_
_space_group_symop_operation_xyz
x,y,z
-x,y,-z
1/2+x,1/2+y,z
1/2-x,1/2+y,-z
loop_
_atom_site_type_symbol
_atom_site_label
_atom_site_fract_x
_atom_site_fract_y
_atom_site_fract_z
Si Si1 0.992165 0.553290 0.202717
Si Si2 0.000000 0.980093 0.500000
Si Si3 0.673636 0.618364 0.108871
Si Si4 0.843105 0.735723 0.231219
Si Si5 0.291000 0.878402 0.401647
Si Si6 0.500000 0.741995 0.000000
O O1 0.896445 0.650301 0.302035
O O2 0.901324 0.465136 0.351828
O O3 0.000000 0.537916 0.000000
O O4 0.169209 0.568877 0.096161
O O5 0.857241 0.919761 0.560399
O O6 0.935816 0.044549 0.702663
O O7 0.732301 0.689633 0.196166
O O8 0.589165 0.676125 0.046458
O O9 0.765328 0.818693 0.396406
O O10 0.000000 0.766064 0.000000
O O11 0.384044 0.809134 0.201057
#
# Coordination Sequence:
#
# PCOD9127305 Si02
#       6
#     4   2   4   4   4   2
#     4   9  18  44  66  89 131 179 214 272 336 381
#     4  12  22  40  68  94 140 182 212 280 338 396
#     4  10  22  45  65  91 138 182 221 276 340 387
#     4   9  21  43  69  91 132 179 219 273 335 389
#     4  12  23  40  70 103 130 178 231 267 337 402
#     4  12  26  40  68 104 132 178 230 274 328 404
#
# _framework density 19.658835
#
# number of rings (size 3 to 8) (size 9 to 14) (size 15 to 20)
#    0.000    2.000    5.000    1.200    5.600    0.000 
#    1.800    2.000    0.000    0.000    0.000    0.000 
#    0.000    0.000    0.000    0.000    0.000    0.000 
#
# Total GULP energy -55883.398806 kJ/mol
# GULP energy per Si atom -5588.339881 kJ/mol
# Density = 1.961409 g / cm^3
# Si number density = 19.658835 Si / 1000 Ang^3
#
#
#
# Elastic Constant Matrix: (Units=GPa)
#
#
# Indices 1 2 3 4 5 6 
#
# 1 126.4204 71.1472 63.5088 0.0000 -32.8579 0.0000
# 2 71.1472 146.1409 99.3517 0.0000 -24.0552 0.0000
# 3 63.5088 99.3517 104.5505 0.0000 -20.9718 0.0000
# 4 0.0000 0.0000 0.0000 45.1410 0.0000 -15.8921
# 5 -32.8579 -24.0552 -20.9718 0.0000 19.8312 0.0000
# 6 0.0000 0.0000 0.0000 -15.8921 0.0000 21.3820
#
#
#
# Elastic Compliance Matrix: (Units=1/GPa)
#
#
# Indices 1 2 3 4 5 6 
#
# 1 0.016302 -0.001765 -0.004108 0.000000 0.020525 0.000000
# 2 -0.001765 0.019938 -0.017274 0.000000 0.002993 0.000000
# 3 -0.004108 -0.017274 0.029075 0.000000 0.002987 0.000000
# 4 0.000000 0.000000 0.000000 0.030004 0.000000 0.022300
# 5 0.020525 0.002993 0.002987 0.000000 0.091221 0.000000
# 6 0.000000 0.000000 0.000000 0.022300 0.000000 0.063343
#
#
# Mechanical properties :
#
#
# Convention : Reuss Voigt Hill
#
# Bulk Modulus (GPa) = 52.57724 93.90303 73.24013
# Shear Modulus (GPa) = 16.52797 26.81112 21.66955
#
# Velocity S-wave (km/s) = 2.90270 3.69700 3.32366
# Velocity P-wave (km/s) = 6.16742 8.12981 7.21564
#
# Compressibility (1/GPa) = 0.01901964
#
# Stress axis : x y z
#
# Youngs Moduli (GPa) = 61.34294 50.15439 34.39416
#
# Poissons Ratio (x) = 0.08853 0.14129
# Poissons Ratio (y) = 0.10828 0.59414
# Poissons Ratio (z) = 0.25200 0.86639
#
# Static dielectric constant tensor:
#      x y z
#    x 1.675310 0.000000 -0.019660 
#    y 0.000000 1.687120 0.000000 
#    z -0.019660 0.000000 1.696080 
# 
# From -- ./inp_files/19234.got.cif
#   From: 2010.05.17/outbox.cif.g08.bks.cpg/sg5_10_cif.got.tgz:19234.got - 2010.06.03 18:56:24.
