data_PCOD9127821
_publ_section_title
;
Structure prediction by ZEFSAII (Michael W. Deem and Ramdas Pophale) SiO2 
 PCOD9127821
Probable space group: C 2
;
_chemical_formula_sum "Si O2"
_cell_formula_units_Z 24
_cell_length_a 17.416619
_cell_length_b 11.403717
_cell_length_c 18.848702
_cell_angle_alpha 90.000000
_cell_angle_beta 14.628888
_cell_angle_gamma 90.000000
_cell_volume 945.478260
_symmetry_space_group_name_H-M "C 2"
_symmetry_group_IT_number 5
_symmetry_cell_setting 'monoclinic'
loop_
_space_group_symop_operation_xyz
x,y,z
-x,y,-z
1/2+x,1/2+y,z
1/2-x,1/2+y,-z
loop_
_atom_site_type_symbol
_atom_site_label
_atom_site_fract_x
_atom_site_fract_y
_atom_site_fract_z
Si Si1 0.823953 0.169560 0.340827
Si Si2 0.190591 0.346120 0.759776
Si Si3 0.851686 0.487367 0.708687
Si Si4 0.309549 0.785389 0.509384
Si Si5 0.367400 0.523290 0.485308
Si Si6 0.785705 0.956959 0.960004
O O1 0.959366 0.260585 0.163107
O O2 0.511325 0.103681 0.598756
O O3 0.815757 0.239079 0.422368
O O4 0.051243 0.062673 0.145992
O O5 0.500000 0.277347 0.500000
O O6 0.325155 0.455140 0.595785
O O7 0.000000 0.369350 0.000000
O O8 0.000000 0.460369 0.500000
O O9 0.500000 0.502226 0.000000
O O10 0.356393 0.661599 0.507038
O O11 0.550469 0.879979 0.325769
O O12 0.974378 0.843340 0.815308
O O13 0.067300 0.479719 0.711643
O O14 0.642036 0.482054 0.188832
#
# Coordination Sequence:
#
# PCOD9127821 Si02
#       6
#     4   4   4   4   4   4
#     4  10  24  46  77 112 148 202 263 314 389 465
#     4  12  27  45  70 103 155 204 250 317 391 462
#     4  11  27  51  76 118 161 202 257 328 406 466
#     4  10  24  47  81 109 152 206 261 321 379 476
#     4  11  24  43  68 106 147 190 256 309 380 447
#     4  10  23  42  72 108 141 185 254 324 372 449
#
# _framework density 25.383980000000001
#
# number of rings (size 3 to 8) (size 9 to 14) (size 15 to 20)
#    0.000    1.333    1.667    1.500    2.333   15.333 
#    0.000    1.667    0.000    1.000    0.000    0.000 
#    0.000    0.000    0.000    0.000    0.000    0.000 
#
# Total GULP energy -67141.206452 kJ/mol
# GULP energy per Si atom -5595.100538 kJ/mol
# Density = 2.532621 g / cm^3
# Si number density = 25.383980 Si / 1000 Ang^3
#
#
#
# Elastic Constant Matrix: (Units=GPa)
#
#
# Indices 1 2 3 4 5 6 
#
# 1 158.1120 59.4678 37.9991 -0.0575 8.6228 0.0219
# 2 59.4678 186.2112 19.5401 -0.0722 13.3535 -0.0492
# 3 37.9991 19.5401 97.0555 -0.1430 -1.6066 -0.0512
# 4 -0.0575 -0.0722 -0.1430 18.4493 0.0056 -2.1650
# 5 8.6228 13.3535 -1.6066 0.0056 61.8962 0.0032
# 6 0.0219 -0.0492 -0.0512 -2.1650 0.0032 51.2784
#
#
#
# Elastic Compliance Matrix: (Units=1/GPa)
#
#
# Indices 1 2 3 4 5 6 
#
# 1 0.007811 -0.002169 -0.002633 -0.000005 -0.000689 -0.000008
# 2 -0.002169 0.006181 -0.000413 0.000015 -0.001042 0.000007
# 3 -0.002633 -0.000413 0.011430 0.000080 0.000752 0.000015
# 4 -0.000005 0.000015 0.000080 0.054473 -0.000006 0.002300
# 5 -0.000689 -0.001042 0.000752 -0.000006 0.016496 -0.000001
# 6 -0.000008 0.000007 0.000015 0.002300 -0.000001 0.019599
#
#
# Mechanical properties :
#
#
# Convention : Reuss Voigt Hill
#
# Bulk Modulus (GPa) = 66.69678 75.04363 70.87020
# Shear Modulus (GPa) = 38.04735 47.94955 42.99845
#
# Velocity S-wave (km/s) = 3.87573 4.35094 4.12019
# Velocity P-wave (km/s) = 6.80886 7.40733 7.11439
#
# Compressibility (1/GPa) = 0.01499323
#
# Stress axis : x y z
#
# Youngs Moduli (GPa) = 128.03113 161.78962 87.49057
#
# Poissons Ratio (x) = 0.35088 0.23034
# Poissons Ratio (y) = 0.27766 0.03609
# Poissons Ratio (z) = 0.33708 0.06674
#
# Static dielectric constant tensor:
#      x y z
#    x 2.124260 -0.000090 -0.038640 
#    y -0.000090 2.036330 0.000210 
#    z -0.038640 0.000210 2.028340 
# 
# From -- ./inp_files/69734.got.cif
#   From: 2010.05.17/outbox.cif.g08.bks.cpg/sg5_35_cif.got.tgz:69734.got - 2010.06.03 18:56:24.
