data_PCOD9127450
_publ_section_title
;
Structure prediction by ZEFSAII (Michael W. Deem and Ramdas Pophale) SiO2 
 PCOD9127450
Probable space group: C 2
;
_chemical_formula_sum "Si O2"
_cell_formula_units_Z 20
_cell_length_a 13.601096
_cell_length_b 5.271247
_cell_length_c 25.235715
_cell_angle_alpha 90.000000
_cell_angle_beta 147.671082
_cell_angle_gamma 90.000000
_cell_volume 967.558312
_symmetry_space_group_name_H-M "C 2"
_symmetry_group_IT_number 5
_symmetry_cell_setting 'monoclinic'
loop_
_space_group_symop_operation_xyz
x,y,z
-x,y,-z
1/2+x,1/2+y,z
1/2-x,1/2+y,-z
loop_
_atom_site_type_symbol
_atom_site_label
_atom_site_fract_x
_atom_site_fract_y
_atom_site_fract_z
Si Si1 0.304972 0.512860 0.056640
Si Si2 0.702807 0.335812 0.104713
Si Si3 0.315070 0.986962 0.382598
Si Si4 0.292922 0.306065 0.768817
Si Si5 0.894932 0.493587 0.727421
O O1 0.520476 0.459632 0.158846
O O2 0.224710 0.260625 0.993405
O O3 0.280726 0.090500 0.926009
O O4 0.725092 0.286792 0.177148
O O5 0.885094 0.494264 0.173421
O O6 0.500000 0.445568 0.000000
O O7 0.500000 0.000053 0.500000
O O8 0.353834 0.939030 0.337046
O O9 0.193468 0.738611 0.341152
O O10 0.192808 0.237197 0.334180
O O11 0.328592 0.034112 0.757888
#
# Coordination Sequence:
#
# PCOD9127450 Si02
#       5
#     4   4   4   4   4
#     4  12  25  47  62  99 145 184 231 278 323 411
#     4  12  24  43  70 104 138 192 219 269 347 404
#     4  10  22  46  75  94 135 181 223 294 352 379
#     4  10  25  44  69  99 141 177 231 279 337 403
#     4  10  23  47  63 105 138 167 237 283 324 419
#
# _framework density 20.670589
#
# number of rings (size 3 to 8) (size 9 to 14) (size 15 to 20)
#    1.200    0.000    4.000    1.800    0.000    0.000 
#   21.600    2.000    0.000    0.000    0.000    0.000 
#    0.000    0.000    0.000    0.000    0.000    0.000 
#
# Total GULP energy -55754.095424 kJ/mol
# GULP energy per Si atom -5575.409542 kJ/mol
# Density = 2.062354 g / cm^3
# Si number density = 20.670589 Si / 1000 Ang^3
#
#
#
# Elastic Constant Matrix: (Units=GPa)
#
#
# Indices 1 2 3 4 5 6 
#
# 1 98.9063 14.3608 46.0302 -0.0007 -18.1955 0.0013
# 2 14.3608 144.8909 64.7647 -0.0010 7.1156 0.0029
# 3 46.0302 64.7647 163.8315 -0.0001 -15.1925 0.0002
# 4 -0.0007 -0.0010 -0.0001 27.5281 0.0004 1.5674
# 5 -18.1955 7.1156 -15.1925 0.0004 27.4467 -0.0006
# 6 0.0013 0.0029 0.0002 1.5674 -0.0006 11.7256
#
#
#
# Elastic Compliance Matrix: (Units=1/GPa)
#
#
# Indices 1 2 3 4 5 6 
#
# 1 0.012749 -0.000360 -0.002791 0.000000 0.007001 -0.000001
# 2 -0.000360 0.008885 -0.003844 0.000000 -0.004670 -0.000002
# 3 -0.002791 -0.003844 0.008779 0.000000 0.004006 0.000001
# 4 0.000000 0.000000 0.000000 0.036605 -0.000001 -0.004893
# 5 0.007001 -0.004670 0.004006 -0.000001 0.044504 0.000003
# 6 -0.000001 -0.000002 0.000001 -0.004893 0.000003 0.085937
#
#
# Mechanical properties :
#
#
# Convention : Reuss Voigt Hill
#
# Bulk Modulus (GPa) = 60.88742 73.10448 66.99595
# Shear Modulus (GPa) = 23.04953 32.17163 27.61058
#
# Velocity S-wave (km/s) = 3.34292 3.94940 3.65875
# Velocity P-wave (km/s) = 6.66484 7.49935 7.09438
#
# Compressibility (1/GPa) = 0.01642375
#
# Stress axis : x y z
#
# Youngs Moduli (GPa) = 78.43459 112.54727 113.90739
#
# Poissons Ratio (x) = 0.04053 0.31786
# Poissons Ratio (y) = 0.02825 0.43789
# Poissons Ratio (z) = 0.21887 0.43267
#
# Static dielectric constant tensor:
#      x y z
#    x 1.770510 0.000000 -0.042380 
#    y 0.000000 1.784070 0.000000 
#    z -0.042380 0.000000 1.764720 
# 
# From -- ./inp_files/57872.got.cif
#   From: 2010.05.17/outbox.cif.g08.bks.cpg/sg5_29_cif.got.tgz:57872.got - 2010.06.03 18:56:24.
