data_PCOD9127112
_publ_section_title
;
Structure prediction by ZEFSAII (Michael W. Deem and Ramdas Pophale) SiO2 
 PCOD9127112
Probable space group: C 2
;
_chemical_formula_sum "Si O2"
_cell_formula_units_Z 24
_cell_length_a 12.317379
_cell_length_b 10.530922
_cell_length_c 7.329238
_cell_angle_alpha 90.000000
_cell_angle_beta 80.140444
_cell_angle_gamma 90.000000
_cell_volume 936.658649
_symmetry_space_group_name_H-M "C 2"
_symmetry_group_IT_number 5
_symmetry_cell_setting 'monoclinic'
loop_
_space_group_symop_operation_xyz
x,y,z
-x,y,-z
1/2+x,1/2+y,z
1/2-x,1/2+y,-z
loop_
_atom_site_type_symbol
_atom_site_label
_atom_site_fract_x
_atom_site_fract_y
_atom_site_fract_z
Si Si1 0.599884 0.612330 0.580227
Si Si2 0.025820 0.715512 0.200180
Si Si3 0.190322 0.645336 0.743341
Si Si4 0.866044 0.374145 0.354927
Si Si5 0.205053 0.508572 0.260045
Si Si6 0.723822 0.326314 0.062912
O O1 0.500000 0.548287 0.500000
O O2 0.700913 0.631492 0.407675
O O3 0.555236 0.751830 0.657703
O O4 0.669901 0.547842 0.721446
O O5 0.109665 0.616620 0.272476
O O6 0.095152 0.842807 0.143725
O O7 0.904287 0.737144 0.313867
O O8 0.000000 0.670039 0.000000
O O9 0.122291 0.512465 0.741038
O O10 0.226342 0.703827 0.927300
O O11 0.833739 0.413856 0.568272
O O12 0.774995 0.316089 0.246647
O O13 0.216425 0.433666 0.068779
#
# Coordination Sequence:
#
# PCOD9127112 Si02
#       6
#     4   4   4   4   4   4
#     4  11  25  48  68 105 145 192 239 289 363 427
#     4  10  22  43  75 106 138 183 241 297 354 416
#     4  10  24  45  68 105 141 182 247 290 351 422
#     4  11  24  42  76  99 143 186 239 292 356 421
#     4  11  24  47  71 106 144 184 238 295 355 432
#     4  11  21  45  73 107 141 180 233 303 358 423
#
# _framework density 25.622995
#
# number of rings (size 3 to 8) (size 9 to 14) (size 15 to 20)
#    0.000    1.333    3.333    2.000    2.333    2.000 
#   18.000    0.833    0.000    0.000    0.000    0.000 
#    0.000    0.000    0.000    0.000    0.000    0.000 
#
# Total GULP energy -66825.763597 kJ/mol
# GULP energy per Si atom -5568.813633 kJ/mol
# Density = 2.556468 g / cm^3
# Si number density = 25.622995 Si / 1000 Ang^3
#
#
#
# Elastic Constant Matrix: (Units=GPa)
#
#
# Indices 1 2 3 4 5 6 
#
# 1 113.6230 -20.0823 41.0404 0.0000 19.0645 0.0000
# 2 -20.0823 48.8832 -3.8490 0.0000 10.4422 0.0000
# 3 41.0404 -3.8490 101.3585 0.0000 17.7767 0.0000
# 4 0.0000 0.0000 0.0000 40.1924 0.0000 9.8979
# 5 19.0645 10.4422 17.7767 0.0000 42.2723 0.0000
# 6 0.0000 0.0000 0.0000 9.8979 0.0000 22.8522
#
#
#
# Elastic Compliance Matrix: (Units=1/GPa)
#
#
# Indices 1 2 3 4 5 6 
#
# 1 0.012064 0.005794 -0.003735 0.000000 -0.005301 0.000000
# 2 0.005794 0.024722 0.000132 0.000000 -0.008776 0.000000
# 3 -0.003735 0.000132 0.011977 0.000000 -0.003385 0.000000
# 4 0.000000 0.000000 0.000000 0.027851 0.000000 -0.012063
# 5 -0.005301 -0.008776 -0.003385 0.000000 0.029638 0.000000
# 6 0.000000 0.000000 0.000000 -0.012063 0.000000 0.048984
#
#
# Mechanical properties :
#
#
# Convention : Reuss Voigt Hill
#
# Bulk Modulus (GPa) = 18.81620 33.12030 25.96825
# Shear Modulus (GPa) = 29.66145 37.51374 33.58759
#
# Velocity S-wave (km/s) = 3.40606 3.83046 3.62448
# Velocity P-wave (km/s) = 4.77784 5.70240 5.26047
#
# Compressibility (1/GPa) = 0.05314570
#
# Stress axis : x y z
#
# Youngs Moduli (GPa) = 82.89336 40.44911 83.49439
#
# Poissons Ratio (x) = -0.23438 0.31184
# Poissons Ratio (y) = -0.48032 -0.01100
# Poissons Ratio (z) = 0.30959 -0.00533
#
# Static dielectric constant tensor:
#      x y z
#    x 2.059430 0.000000 -0.053410 
#    y 0.000000 2.225370 0.000000 
#    z -0.053410 0.000000 2.043630 
# 
# From -- ./inp_files/19327.got.cif
#   From: 2010.05.17/outbox.cif.g08.bks.cpg/sg5_10_cif.got.tgz:19327.got - 2010.06.03 18:56:24.
