data_PCOD9127049
_publ_section_title
;
Structure prediction by ZEFSAII (Michael W. Deem and Ramdas Pophale) SiO2 
 PCOD9127049
Probable space group: C 2
;
_chemical_formula_sum "Si O2"
_cell_formula_units_Z 26
_cell_length_a 12.400814
_cell_length_b 6.523547
_cell_length_c 13.678930
_cell_angle_alpha 90.000000
_cell_angle_beta 111.796685
_cell_angle_gamma 90.000000
_cell_volume 1027.475428
_symmetry_space_group_name_H-M "C 2"
_symmetry_group_IT_number 5
_symmetry_cell_setting 'monoclinic'
loop_
_space_group_symop_operation_xyz
x,y,z
-x,y,-z
1/2+x,1/2+y,z
1/2-x,1/2+y,-z
loop_
_atom_site_type_symbol
_atom_site_label
_atom_site_fract_x
_atom_site_fract_y
_atom_site_fract_z
Si Si1 0.936478 0.633710 0.623693
Si Si2 0.500000 0.620333 0.000000
Si Si3 0.008327 0.479734 0.848943
Si Si4 0.723223 0.506519 0.435672
Si Si5 0.737020 0.649911 0.032529
Si Si6 0.727765 0.063271 0.156204
Si Si7 0.837791 0.875677 0.377897
O O1 0.982727 0.489813 0.725249
O O2 0.857809 0.505605 0.520206
O O3 0.047011 0.753835 0.616430
O O4 0.844475 0.810277 0.630568
O O5 0.505215 0.767328 0.097612
O O6 0.624598 0.518424 0.027834
O O7 0.903328 0.613138 0.859449
O O8 0.131485 0.579849 0.910903
O O9 0.738205 0.701233 0.368719
O O10 0.656403 0.505106 0.519069
O O11 0.728073 0.846971 0.098393
O O12 0.719105 0.697984 0.911273
O O13 0.800650 0.022807 0.277723
#
# Coordination Sequence:
#
# PCOD9127049 Si02
#       7
#     4   2   4   4   4   4   4
#     4  11  23  44  70  97 134 182 224 291 343 402
#     4  10  24  44  66 104 146 174 232 282 330 430
#     4  11  20  43  69  96 142 177 222 293 338 400
#     4  10  22  43  68  94 134 178 225 284 340 398
#     4  11  21  45  69  97 143 181 225 287 341 408
#     4  11  23  44  68 102 139 183 228 284 341 415
#     4  11  23  46  68  99 139 173 235 285 340 409
#
# _framework density 25.304742000000001
#
# number of rings (size 3 to 8) (size 9 to 14) (size 15 to 20)
#    0.000    1.231    6.154    1.846    0.000    0.000 
#   13.846   12.308    0.000    0.000    0.000    0.000 
#    0.000    0.000    0.000    0.000    0.000    0.000 
#
# Total GULP energy -72441.091364 kJ/mol
# GULP energy per Si atom -5572.391643 kJ/mol
# Density = 2.524715 g / cm^3
# Si number density = 25.304742 Si / 1000 Ang^3
#
#
#
# Elastic Constant Matrix: (Units=GPa)
#
#
# Indices 1 2 3 4 5 6 
#
# 1 214.1331 46.5045 51.3052 0.0000 -12.4102 0.0000
# 2 46.5045 60.8634 2.8249 0.0000 1.0580 0.0000
# 3 51.3052 2.8249 133.6739 0.0000 7.3500 0.0000
# 4 0.0000 0.0000 0.0000 34.8801 0.0000 -7.2524
# 5 -12.4102 1.0580 7.3500 0.0000 26.7587 0.0000
# 6 0.0000 0.0000 0.0000 -7.2524 0.0000 45.9380
#
#
#
# Elastic Compliance Matrix: (Units=1/GPa)
#
#
# Indices 1 2 3 4 5 6 
#
# 1 0.006627 -0.005009 -0.002657 0.000000 0.004001 0.000000
# 2 -0.005009 0.020242 0.001692 0.000000 -0.003588 0.000000
# 3 -0.002657 0.001692 0.008667 0.000000 -0.003680 0.000000
# 4 0.000000 0.000000 0.000000 0.029643 0.000000 0.004680
# 5 0.004001 -0.003588 -0.003680 0.000000 0.040380 0.000000
# 6 0.000000 0.000000 0.000000 0.004680 0.000000 0.022507
#
#
# Mechanical properties :
#
#
# Convention : Reuss Voigt Hill
#
# Bulk Modulus (GPa) = 42.39754 67.77107 55.08431
# Shear Modulus (GPa) = 33.81199 42.05108 37.93153
#
# Velocity S-wave (km/s) = 3.65936 4.08092 3.87588
# Velocity P-wave (km/s) = 5.88606 7.00324 6.46881
#
# Compressibility (1/GPa) = 0.02358627
#
# Stress axis : x y z
#
# Youngs Moduli (GPa) = 150.90860 49.40307 115.37431
#
# Poissons Ratio (x) = 0.24748 0.30660
# Poissons Ratio (y) = 0.75596 -0.19524
# Poissons Ratio (z) = 0.40103 -0.08360
#
# Static dielectric constant tensor:
#      x y z
#    x 2.011620 0.000000 0.002280 
#    y 0.000000 2.159860 0.000000 
#    z 0.002280 0.000000 2.041190 
# 
# From -- ./inp_files/52127.got.cif
#   From: 2010.05.17/outbox.cif.g08.bks.cpg/sg5_27_cif.got.tgz:52127.got - 2010.06.03 18:56:24.
