data_PCOD9127711
_publ_section_title
;
Structure prediction by ZEFSAII (Michael W. Deem and Ramdas Pophale) SiO2 
 PCOD9127711
Probable space group: C 2
;
_chemical_formula_sum "Si O2"
_cell_formula_units_Z 28
_cell_length_a 24.560167
_cell_length_b 9.635956
_cell_length_c 7.575325
_cell_angle_alpha 90.000000
_cell_angle_beta 138.828911
_cell_angle_gamma 90.000000
_cell_volume 1180.205562
_symmetry_space_group_name_H-M "C 2"
_symmetry_group_IT_number 5
_symmetry_cell_setting 'monoclinic'
loop_
_space_group_symop_operation_xyz
x,y,z
-x,y,-z
1/2+x,1/2+y,z
1/2-x,1/2+y,-z
loop_
_atom_site_type_symbol
_atom_site_label
_atom_site_fract_x
_atom_site_fract_y
_atom_site_fract_z
Si Si1 0.397676 0.295110 0.553915
Si Si2 0.207888 0.875176 0.354727
Si Si3 0.984483 0.313117 0.650590
Si Si4 0.867276 0.094593 0.429629
Si Si5 0.477756 0.095319 0.244536
Si Si6 0.318529 0.164786 0.018009
Si Si7 0.641640 0.681026 0.203989
O O1 0.351154 0.324149 0.626231
O O2 0.405637 0.446860 0.486156
O O3 0.486350 0.222694 0.778595
O O4 0.346814 0.201867 0.286412
O O5 0.191443 0.802749 0.125611
O O6 0.296929 0.812126 0.628529
O O7 0.193441 0.039979 0.290164
O O8 0.981844 0.458279 0.746276
O O9 0.000000 0.381404 0.500000
O O10 0.904180 0.222506 0.415339
O O11 0.061097 0.218971 0.895243
O O12 0.768966 0.088292 0.182839
O O13 0.892829 0.145049 0.686783
O O14 0.500000 0.143354 0.500000
O O15 0.380282 0.078286 0.041294
#
# Coordination Sequence:
#
# PCOD9127711 Si02
#       7
#     4   4   4   4   4   4   4
#     4  10  23  41  69  94 136 174 229 275 332 397
#     4  10  24  41  66 101 128 181 221 275 335 396
#     4  11  25  40  70  98 137 176 221 277 343 394
#     4  10  24  43  64  99 130 180 220 276 340 391
#     4   9  22  43  64  97 133 177 222 273 334 401
#     4  10  23  42  69  94 138 172 226 279 326 399
#     4  10  24  44  64  97 141 171 228 276 333 405
#
# _framework density 23.724681
#
# number of rings (size 3 to 8) (size 9 to 14) (size 15 to 20)
#    0.000    2.000    0.000    0.429   12.000    5.714 
#    2.571    0.000    0.000    0.000    0.000    0.000 
#    0.000    0.000    0.000    0.000    0.000    0.000 
#
# Total GULP energy -77977.588836 kJ/mol
# GULP energy per Si atom -5569.827774 kJ/mol
# Density = 2.367068 g / cm^3
# Si number density = 23.724681 Si / 1000 Ang^3
#
#
#
# Elastic Constant Matrix: (Units=GPa)
#
#
# Indices 1 2 3 4 5 6 
#
# 1 51.2979 26.2375 23.5801 0.0000 8.7944 0.0000
# 2 26.2375 116.7088 -0.4918 0.0000 31.6079 0.0000
# 3 23.5801 -0.4918 64.5098 0.0000 9.0286 0.0000
# 4 0.0000 0.0000 0.0000 21.8647 0.0000 9.8864
# 5 8.7944 31.6079 9.0286 0.0000 49.8638 0.0000
# 6 0.0000 0.0000 0.0000 9.8864 0.0000 25.2966
#
#
#
# Elastic Compliance Matrix: (Units=1/GPa)
#
#
# Indices 1 2 3 4 5 6 
#
# 1 0.027301 -0.006490 -0.010189 0.000000 0.001144 0.000000
# 2 -0.006490 0.011953 0.003451 0.000000 -0.007057 0.000000
# 3 -0.010189 0.003451 0.019809 0.000000 -0.003977 0.000000
# 4 0.000000 0.000000 0.000000 0.055553 0.000000 -0.021711
# 5 0.001144 -0.007057 -0.003977 0.000000 0.025047 0.000000
# 6 0.000000 0.000000 0.000000 -0.021711 0.000000 0.048016
#
#
# Mechanical properties :
#
#
# Convention : Reuss Voigt Hill
#
# Bulk Modulus (GPa) = 30.66811 36.79646 33.73229
# Shear Modulus (GPa) = 22.22188 31.61771 26.91980
#
# Velocity S-wave (km/s) = 3.06380 3.65457 3.37215
# Velocity P-wave (km/s) = 5.04684 5.77506 5.42318
#
# Compressibility (1/GPa) = 0.03260716
#
# Stress axis : x y z
#
# Youngs Moduli (GPa) = 36.62865 83.65916 50.48260
#
# Poissons Ratio (x) = 0.54298 0.51436
# Poissons Ratio (y) = 0.23773 -0.17423
# Poissons Ratio (z) = 0.37320 -0.28873
#
# Static dielectric constant tensor:
#      x y z
#    x 2.041460 0.000000 0.109380 
#    y 0.000000 1.967710 0.000000 
#    z 0.109380 0.000000 1.978130 
# 
# From -- ./inp_files/31764.got.cif
#   From: 2010.05.17/outbox.cif.g08.bks.cpg/sg5_16_cif.got.tgz:31764.got - 2010.06.03 18:56:24.
