data_PCOD9127080
_publ_section_title
;
Structure prediction by ZEFSAII (Michael W. Deem and Ramdas Pophale) SiO2 
 PCOD9127080
Probable space group: C 2
;
_chemical_formula_sum "Si O2"
_cell_formula_units_Z 28
_cell_length_a 25.281640
_cell_length_b 9.896061
_cell_length_c 7.521083
_cell_angle_alpha 90.000000
_cell_angle_beta 43.188220
_cell_angle_gamma 90.000000
_cell_volume 1287.823133
_symmetry_space_group_name_H-M "C 2"
_symmetry_group_IT_number 5
_symmetry_cell_setting 'monoclinic'
loop_
_space_group_symop_operation_xyz
x,y,z
-x,y,-z
1/2+x,1/2+y,z
1/2-x,1/2+y,-z
loop_
_atom_site_type_symbol
_atom_site_label
_atom_site_fract_x
_atom_site_fract_y
_atom_site_fract_z
Si Si1 0.689801 0.536880 0.430591
Si Si2 0.348773 0.047051 0.221572
Si Si3 0.457694 0.837803 0.411903
Si Si4 0.106769 0.229553 0.911189
Si Si5 0.837718 0.741596 0.556965
Si Si6 0.817018 0.186472 0.893932
Si Si7 0.008211 0.636837 0.691402
O O1 0.779230 0.565619 0.254139
O O2 0.638097 0.636360 0.677072
O O3 0.675141 0.381401 0.513959
O O4 0.676500 0.559130 0.253065
O O5 0.322502 0.112107 0.470159
O O6 0.369016 0.887451 0.175423
O O7 0.423483 0.134764 0.982683
O O8 0.500000 0.845442 0.500000
O O9 0.370888 0.794438 0.660294
O O10 0.460490 0.988170 0.331092
O O11 0.514076 0.738337 0.165882
O O12 0.145716 0.178661 0.000630
O O13 0.925680 0.737402 0.407579
O O14 0.771276 0.731739 0.868547
O O15 0.000000 0.645451 0.500000
#
# Coordination Sequence:
#
# PCOD9127080 Si02
#       7
#     4   4   4   4   4   4   4
#     4  12  25  43  69 106 144 187 227 304 358 421
#     4  11  22  47  71  99 141 190 237 290 351 434
#     4   8  19  40  71  97 125 179 241 290 324 421
#     4  10  22  47  72  97 134 185 245 291 350 424
#     4  12  26  43  68 109 146 180 240 294 369 421
#     4  11  23  41  68 100 138 176 238 287 351 419
#     4  10  22  43  71 101 137 182 241 289 346 421
#
# _framework density 21.742115999999999
#
# number of rings (size 3 to 8) (size 9 to 14) (size 15 to 20)
#    0.000    1.429    2.857    2.143    4.000    0.571 
#   10.286    0.714    0.000    0.000    0.000    0.000 
#    0.000    0.000    0.000    0.000    0.000    0.000 
#
# Total GULP energy -78200.073828 kJ/mol
# GULP energy per Si atom -5585.719559 kJ/mol
# Density = 2.169263 g / cm^3
# Si number density = 21.742116 Si / 1000 Ang^3
#
#
#
# Elastic Constant Matrix: (Units=GPa)
#
#
# Indices 1 2 3 4 5 6 
#
# 1 93.3208 27.6378 35.0172 0.0000 -1.5369 0.0000
# 2 27.6378 45.6813 42.0608 0.0000 3.9880 0.0000
# 3 35.0172 42.0608 148.1596 0.0000 -21.4072 0.0000
# 4 0.0000 0.0000 0.0000 24.7626 0.0000 -2.0027
# 5 -1.5369 3.9880 -21.4072 0.0000 40.8905 0.0000
# 6 0.0000 0.0000 0.0000 -2.0027 0.0000 24.6411
#
#
#
# Elastic Compliance Matrix: (Units=1/GPa)
#
#
# Indices 1 2 3 4 5 6 
#
# 1 0.013215 -0.007130 -0.001003 0.000000 0.000667 0.000000
# 2 -0.007130 0.036042 -0.009838 0.000000 -0.008933 0.000000
# 3 -0.001003 -0.009838 0.010724 0.000000 0.006536 0.000000
# 4 0.000000 0.000000 0.000000 0.040651 0.000000 0.003304
# 5 0.000667 -0.008933 0.006536 0.000000 0.028774 0.000000
# 6 0.000000 0.000000 0.000000 0.003304 0.000000 0.040851
#
#
# Mechanical properties :
#
#
# Convention : Reuss Voigt Hill
#
# Bulk Modulus (GPa) = 41.59757 55.17703 48.38730
# Shear Modulus (GPa) = 23.34161 30.22191 26.78176
#
# Velocity S-wave (km/s) = 3.28009 3.73234 3.51350
# Velocity P-wave (km/s) = 5.78957 6.63376 6.22599
#
# Compressibility (1/GPa) = 0.02403987
#
# Stress axis : x y z
#
# Youngs Moduli (GPa) = 75.67402 27.74519 93.25231
#
# Poissons Ratio (x) = 0.19782 0.09351
# Poissons Ratio (y) = 0.53955 0.91738
# Poissons Ratio (z) = 0.07588 0.27295
#
# Static dielectric constant tensor:
#      x y z
#    x 1.829330 0.000000 0.000340 
#    y 0.000000 1.767790 0.000000 
#    z 0.000340 0.000000 1.816490 
# 
# From -- ./inp_files/31734.got.cif
#   From: 2010.05.17/outbox.cif.g08.bks.cpg/sg5_16_cif.got.tgz:31734.got - 2010.06.03 18:56:24.
