data_PCOD9127222
_publ_section_title
;
Structure prediction by ZEFSAII (Michael W. Deem and Ramdas Pophale) SiO2 
 PCOD9127222
Probable space group: C 2
;
_chemical_formula_sum "Si O2"
_cell_formula_units_Z 22
_cell_length_a 21.870871
_cell_length_b 10.913150
_cell_length_c 5.224270
_cell_angle_alpha 90.000000
_cell_angle_beta 55.953323
_cell_angle_gamma 90.000000
_cell_volume 1033.182821
_symmetry_space_group_name_H-M "C 2"
_symmetry_group_IT_number 5
_symmetry_cell_setting 'monoclinic'
loop_
_space_group_symop_operation_xyz
x,y,z
-x,y,-z
1/2+x,1/2+y,z
1/2-x,1/2+y,-z
loop_
_atom_site_type_symbol
_atom_site_label
_atom_site_fract_x
_atom_site_fract_y
_atom_site_fract_z
Si Si1 0.394780 0.427870 0.610583
Si Si2 0.321968 0.329176 0.306169
Si Si3 0.080791 0.212912 0.393374
Si Si4 0.851243 0.325558 0.259632
Si Si5 0.082586 0.595808 0.930837
Si Si6 0.000000 0.737444 0.500000
O O1 0.339543 0.417711 0.502844
O O2 0.419528 0.566418 0.586969
O O3 0.463050 0.335194 0.393488
O O4 0.359024 0.380663 0.959815
O O5 0.234976 0.319518 0.473775
O O6 0.359553 0.199279 0.294993
O O7 0.104011 0.265025 0.612712
O O8 0.000000 0.257870 0.500000
O O9 0.134542 0.256931 0.041378
O O10 0.880652 0.464172 0.164876
O O11 0.063226 0.646608 0.257677
O O12 0.000000 0.594981 0.000000
#
# Coordination Sequence:
#
# PCOD9127222 Si02
#       6
#     4   4   4   4   4   2
#     4  11  23  45  74  97 140 174 247 289 352 412
#     4  11  26  46  70 106 136 190 234 299 354 417
#     4  12  26  47  73 104 143 187 233 289 361 429
#     4  12  29  45  70 106 150 186 235 292 369 424
#     4  11  24  44  74  97 145 182 244 289 353 425
#     4  10  22  44  70 106 124 190 238 304 334 422
#
# _framework density 21.293423000000001
#
# number of rings (size 3 to 8) (size 9 to 14) (size 15 to 20)
#    0.000    0.727    2.727    3.818    8.909    0.000 
#    0.000    0.000    0.000    0.000    0.000    0.000 
#    0.000    0.000    0.000    0.000    0.000    0.000 
#
# Total GULP energy -61464.562652 kJ/mol
# GULP energy per Si atom -5587.687514 kJ/mol
# Density = 2.124496 g / cm^3
# Si number density = 21.293423 Si / 1000 Ang^3
#
#
#
# Elastic Constant Matrix: (Units=GPa)
#
#
# Indices 1 2 3 4 5 6 
#
# 1 59.6910 41.0108 2.2377 0.0000 -11.8364 0.0000
# 2 41.0108 142.9199 50.5031 0.0000 -6.5860 0.0000
# 3 2.2377 50.5031 68.0793 0.0000 2.9298 0.0000
# 4 0.0000 0.0000 0.0000 6.9472 0.0000 -6.7278
# 5 -11.8364 -6.5860 2.9298 0.0000 47.1700 0.0000
# 6 0.0000 0.0000 0.0000 -6.7278 0.0000 11.4842
#
#
#
# Elastic Compliance Matrix: (Units=1/GPa)
#
#
# Indices 1 2 3 4 5 6 
#
# 1 0.023088 -0.008257 0.005180 0.000000 0.004319 0.000000
# 2 -0.008257 0.012584 -0.009075 0.000000 0.000249 0.000000
# 3 0.005180 -0.009075 0.021306 0.000000 -0.001291 0.000000
# 4 0.000000 0.000000 0.000000 0.332686 0.000000 0.194898
# 5 0.004319 0.000249 -0.001291 0.000000 0.022399 0.000000
# 6 0.000000 0.000000 0.000000 0.194898 0.000000 0.201253
#
#
# Mechanical properties :
#
#
# Convention : Reuss Voigt Hill
#
# Bulk Modulus (GPa) = 30.60358 50.91037 40.75698
# Shear Modulus (GPa) = 7.70998 24.91620 16.31309
#
# Velocity S-wave (km/s) = 1.90491 3.42444 2.77087
# Velocity P-wave (km/s) = 4.38654 6.29258 5.42394
#
# Compressibility (1/GPa) = 0.03267591
#
# Stress axis : x y z
#
# Youngs Moduli (GPa) = 43.31289 79.46411 46.93541
#
# Poissons Ratio (x) = 0.65610 -0.24313
# Poissons Ratio (y) = 0.35761 0.42592
# Poissons Ratio (z) = -0.22437 0.72111
#
# Static dielectric constant tensor:
#      x y z
#    x 1.815550 0.000000 0.000420 
#    y 0.000000 1.733670 0.000000 
#    z 0.000420 0.000000 1.862480 
# 
# From -- ./inp_files/10254.got.cif
#   From: 2010.05.17/outbox.cif.g08.bks.cpg/sg5_6_cif.got.tgz:10254.got - 2010.06.03 18:56:24.
