data_PCOD9127960
_publ_section_title
;
Structure prediction by ZEFSAII (Michael W. Deem and Ramdas Pophale) SiO2 
 PCOD9127960
Probable space group: C 2
;
_chemical_formula_sum "Si O2"
_cell_formula_units_Z 28
_cell_length_a 17.348804
_cell_length_b 5.527037
_cell_length_c 15.301896
_cell_angle_alpha 90.000000
_cell_angle_beta 131.331952
_cell_angle_gamma 90.000000
_cell_volume 1101.759803
_symmetry_space_group_name_H-M "C 2"
_symmetry_group_IT_number 5
_symmetry_cell_setting 'monoclinic'
loop_
_space_group_symop_operation_xyz
x,y,z
-x,y,-z
1/2+x,1/2+y,z
1/2-x,1/2+y,-z
loop_
_atom_site_type_symbol
_atom_site_label
_atom_site_fract_x
_atom_site_fract_y
_atom_site_fract_z
Si Si1 0.724304 0.968280 0.863303
Si Si2 0.000000 0.233125 0.000000
Si Si3 0.605532 0.547651 0.237262
Si Si4 0.337640 0.971364 0.990468
Si Si5 0.872199 0.547408 0.702635
Si Si6 0.174209 0.165515 0.661170
Si Si7 0.837287 0.522755 0.479744
Si Si8 0.000000 0.836044 0.500000
O O1 0.802589 0.741930 0.939360
O O2 0.677762 0.878961 0.736088
O O3 0.766221 0.245254 0.901027
O O4 0.657496 0.950451 0.901525
O O5 0.076654 0.071576 0.114642
O O6 0.058659 0.408209 0.979493
O O7 0.565019 0.294315 0.241523
O O8 0.726842 0.556268 0.350255
O O9 0.569928 0.794639 0.254179
O O10 0.787535 0.562648 0.718892
O O11 0.819879 0.554587 0.568686
O O12 0.133593 0.261674 0.536686
O O13 0.086789 0.977436 0.620798
O O14 0.927967 0.689175 0.512727
#
# Coordination Sequence:
#
# PCOD9127960 Si02
#       8
#     4   2   4   4   4   4   4   2
#     4  10  23  46  72  95 144 187 225 284 363 402
#     4  12  26  44  74 110 142 184 250 280 346 416
#     4  11  24  43  72 105 141 186 227 299 343 413
#     4  10  23  44  70 103 137 185 236 285 336 422
#     4  11  24  45  76  98 142 186 235 287 361 410
#     4  11  24  42  70 102 137 184 228 289 351 422
#     4  11  25  46  69 105 142 185 232 295 360 416
#     4  12  26  42  68 106 134 178 236 288 354 418
#
# _framework density 25.413888
#
# number of rings (size 3 to 8) (size 9 to 14) (size 15 to 20)
#    0.000    1.143    1.429    4.714    4.000    3.429 
#    2.571    0.000    0.000    0.000    0.000    0.000 
#    0.000    0.000    0.000    0.000    0.000    0.000 
#
# Total GULP energy -78169.110343 kJ/mol
# GULP energy per Si atom -5583.507882 kJ/mol
# Density = 2.535605 g / cm^3
# Si number density = 25.413888 Si / 1000 Ang^3
#
#
#
# Elastic Constant Matrix: (Units=GPa)
#
#
# Indices 1 2 3 4 5 6 
#
# 1 86.6546 1.6038 27.5016 0.0000 -4.6585 0.0000
# 2 1.6038 134.8617 15.7187 0.0000 1.4161 -0.0001
# 3 27.5016 15.7187 111.8984 0.0000 -23.8582 0.0000
# 4 0.0000 0.0000 0.0000 33.7693 0.0000 -12.5247
# 5 -4.6585 1.4161 -23.8582 0.0000 36.2219 0.0000
# 6 0.0000 -0.0001 0.0000 -12.5247 0.0000 10.7287
#
#
#
# Elastic Compliance Matrix: (Units=1/GPa)
#
#
# Indices 1 2 3 4 5 6 
#
# 1 0.012531 0.000232 -0.003223 0.000000 -0.000521 0.000000
# 2 0.000232 0.007584 -0.001372 0.000000 -0.001170 0.000000
# 3 -0.003223 -0.001372 0.011453 0.000000 0.007183 0.000000
# 4 0.000000 0.000000 0.000000 0.052225 0.000000 0.060968
# 5 -0.000521 -0.001170 0.007183 0.000000 0.032318 0.000000
# 6 0.000000 0.000000 0.000000 0.060968 0.000000 0.164382
#
#
# Mechanical properties :
#
#
# Convention : Reuss Voigt Hill
#
# Bulk Modulus (GPa) = 43.77914 47.00702 45.39308
# Shear Modulus (GPa) = 16.84449 35.38335 26.11392
#
# Velocity S-wave (km/s) = 2.57730 3.73538 3.20901
# Velocity P-wave (km/s) = 5.11082 6.09433 5.62411
#
# Compressibility (1/GPa) = 0.02284193
#
# Stress axis : x y z
#
# Youngs Moduli (GPa) = 79.80355 131.84882 87.31265
#
# Poissons Ratio (x) = -0.03061 0.28144
# Poissons Ratio (y) = -0.01853 0.11979
# Poissons Ratio (z) = 0.25723 0.18090
#
# Static dielectric constant tensor:
#      x y z
#    x 1.989640 0.000000 0.044350 
#    y 0.000000 2.146100 0.000000 
#    z 0.044350 0.000000 2.064570 
# 
# From -- ./inp_files/55513.got.cif
#   From: 2010.05.17/outbox.cif.g08.bks.cpg/sg5_28_cif.got.tgz:55513.got - 2010.06.03 18:56:24.
