data_PCOD9127038
_publ_section_title
;
Structure prediction by ZEFSAII (Michael W. Deem and Ramdas Pophale) SiO2 
 PCOD9127038
Probable space group: C 2
;
_chemical_formula_sum "Si O2"
_cell_formula_units_Z 32
_cell_length_a 19.573532
_cell_length_b 13.782107
_cell_length_c 13.687144
_cell_angle_alpha 90.000000
_cell_angle_beta 25.261214
_cell_angle_gamma 90.000000
_cell_volume 1575.675787
_symmetry_space_group_name_H-M "C 2"
_symmetry_group_IT_number 5
_symmetry_cell_setting 'monoclinic'
loop_
_space_group_symop_operation_xyz
x,y,z
-x,y,-z
1/2+x,1/2+y,z
1/2-x,1/2+y,-z
loop_
_atom_site_type_symbol
_atom_site_label
_atom_site_fract_x
_atom_site_fract_y
_atom_site_fract_z
Si Si1 0.831219 0.526780 0.492692
Si Si2 0.082614 0.369144 0.170488
Si Si3 0.086167 0.977036 0.283849
Si Si4 0.577244 0.769750 0.805356
Si Si5 0.765806 0.177591 0.982400
Si Si6 0.064496 0.719784 0.692265
Si Si7 0.466622 0.423958 0.226511
Si Si8 0.166236 0.096917 0.899279
O O1 0.891697 0.608902 0.337674
O O2 0.691839 0.466289 0.619888
O O3 0.765653 0.584214 0.672306
O O4 0.973668 0.457875 0.347307
O O5 0.123462 0.272230 0.177884
O O6 0.980897 0.329341 0.211487
O O7 0.255639 0.410451 0.917956
O O8 0.000000 0.973097 0.500000
O O9 0.980302 0.941853 0.326739
O O10 0.151362 0.085330 0.175947
O O11 0.766932 0.761336 0.566105
O O12 0.500000 0.816963 0.000000
O O13 0.491866 0.664233 0.907767
O O14 0.588815 0.203394 0.176730
O O15 0.751627 0.148620 0.115026
O O16 0.015389 0.810638 0.823105
O O17 0.610580 0.489490 0.999872
#
# Coordination Sequence:
#
# PCOD9127038 Si02
#       8
#     4   4   4   4   4   4   4   4
#     4  12  23  42  68  98 129 168 219 274 323 388
#     4  11  24  41  64  93 130 169 217 268 322 383
#     4  11  25  44  64  91 131 176 215 265 325 393
#     4  11  21  37  64  96 126 168 220 270 319 377
#     4  10  24  45  63  93 132 169 217 269 322 385
#     4  12  22  39  66  97 130 167 214 274 321 382
#     4  11  23  41  66  94 133 171 213 271 326 384
#     4  10  22  43  67  95 131 168 219 269 326 381
#
# _framework density 20.308745999999999
#
# number of rings (size 3 to 8) (size 9 to 14) (size 15 to 20)
#    0.000    1.000    6.250    0.375    1.750    0.500 
#    2.250    0.000    2.750    0.000    0.000    0.000 
#    0.000    0.000    0.000    0.000    0.000    0.000 
#
# Total GULP energy -89165.717790 kJ/mol
# GULP energy per Si atom -5572.857362 kJ/mol
# Density = 2.026252 g / cm^3
# Si number density = 20.308746 Si / 1000 Ang^3
#
#
#
# Elastic Constant Matrix: (Units=GPa)
#
#
# Indices 1 2 3 4 5 6 
#
# 1 50.2446 1.7745 17.2038 0.0000 -13.9591 0.0000
# 2 1.7745 131.6861 11.6397 -0.0001 -7.3654 0.0000
# 3 17.2038 11.6397 54.6056 -0.0001 -17.3304 -0.0001
# 4 0.0000 -0.0001 -0.0001 34.4333 0.0000 -9.8844
# 5 -13.9591 -7.3654 -17.3304 0.0000 35.3902 0.0001
# 6 0.0000 0.0000 -0.0001 -9.8844 0.0001 -11.2899
#
#
#
# Elastic Compliance Matrix: (Units=1/GPa)
#
#
# Indices 1 2 3 4 5 6 
#
# 1 0.023618 0.000539 -0.005403 0.000000 0.006782 0.000000
# 2 0.000539 0.007779 -0.001476 0.000000 0.001109 0.000000
# 3 -0.005403 -0.001476 0.023155 0.000000 0.008900 0.000000
# 4 0.000000 0.000000 0.000000 0.023209 0.000000 -0.020319
# 5 0.006782 0.001109 0.008900 0.000000 0.035521 0.000000
# 6 0.000000 0.000000 0.000000 -0.020319 0.000000 -0.070785
#
#
# Mechanical properties :
#
#
# Convention : Reuss Voigt Hill
#
# Bulk Modulus (GPa) = 23.88333 33.08583 28.48458
# Shear Modulus (GPa) = 72.32253 25.43459 48.87856
#
# Velocity S-wave (km/s) = 5.97401 3.54276 4.91121
# Velocity P-wave (km/s) = 7.70524 5.74993 6.79825
#
# Compressibility (1/GPa) = 0.04187020
#
# Stress axis : x y z
#
# Youngs Moduli (GPa) = 42.34085 128.55074 43.18738
#
# Poissons Ratio (x) = -0.06924 0.23336
# Poissons Ratio (y) = -0.02281 0.06375
# Poissons Ratio (z) = 0.22879 0.18974
#
# Static dielectric constant tensor:
#      x y z
#    x 1.744100 0.000000 -0.001290 
#    y 0.000000 1.792620 0.000000 
#    z -0.001290 0.000000 1.708460 
# 
# From -- ./inp_files/57176.got.cif
#   From: 2010.05.17/outbox.cif.g08.bks.cpg/sg5_29_cif.got.tgz:57176.got - 2010.06.03 18:56:24.
