data_PCOD9127828
_publ_section_title
;
Structure prediction by ZEFSAII (Michael W. Deem and Ramdas Pophale) SiO2 
 PCOD9127828
Probable space group: C 2
;
_chemical_formula_sum "Si O2"
_cell_formula_units_Z 22
_cell_length_a 15.714797
_cell_length_b 7.821115
_cell_length_c 7.499542
_cell_angle_alpha 90.000000
_cell_angle_beta 97.909450
_cell_angle_gamma 90.000000
_cell_volume 912.979177
_symmetry_space_group_name_H-M "C 2"
_symmetry_group_IT_number 5
_symmetry_cell_setting 'monoclinic'
loop_
_space_group_symop_operation_xyz
x,y,z
-x,y,-z
1/2+x,1/2+y,z
1/2-x,1/2+y,-z
loop_
_atom_site_type_symbol
_atom_site_label
_atom_site_fract_x
_atom_site_fract_y
_atom_site_fract_z
Si Si1 0.817510 0.122700 0.066634
Si Si2 0.669558 0.349512 0.202650
Si Si3 0.055068 0.402610 0.783359
Si Si4 0.000000 0.710770 0.000000
Si Si5 0.305475 0.470673 0.412626
Si Si6 0.127174 0.335501 0.428478
O O1 0.734648 0.217863 0.125601
O O2 0.892005 0.263931 0.088641
O O3 0.841446 0.976863 0.221667
O O4 0.803261 0.032545 0.874416
O O5 0.673242 0.343750 0.418009
O O6 0.572311 0.318716 0.117816
O O7 0.103953 0.422748 0.610313
O O8 0.046183 0.581534 0.877415
O O9 0.959965 0.334136 0.708938
O O10 0.203889 0.438623 0.361061
O O11 0.339924 0.648858 0.504228
#
# Coordination Sequence:
#
# PCOD9127828 Si02
#       6
#     4   4   4   2   4   4
#     4  11  26  46  73 101 139 182 230 282 347 406
#     4  12  27  45  69 105 138 183 232 282 342 413
#     4  10  23  46  67  98 139 178 226 281 346 405
#     4  12  28  44  66 104 142 178 232 286 344 398
#     4  11  23  45  70 100 137 177 228 279 345 402
#     4  10  23  42  73  97 132 182 227 275 349 403
#
# _framework density 24.096934999999998
#
# number of rings (size 3 to 8) (size 9 to 14) (size 15 to 20)
#    0.000    1.091    3.636    2.182    7.636    0.000 
#    3.273    0.000    0.000    0.000    0.000    0.000 
#    0.000    0.000    0.000    0.000    0.000    0.000 
#
# Total GULP energy -61550.571457 kJ/mol
# GULP energy per Si atom -5595.506496 kJ/mol
# Density = 2.404209 g / cm^3
# Si number density = 24.096935 Si / 1000 Ang^3
#
#
#
# Elastic Constant Matrix: (Units=GPa)
#
#
# Indices 1 2 3 4 5 6 
#
# 1 83.5555 6.5854 0.6731 0.0000 21.7487 0.0000
# 2 6.5854 26.7974 -8.3654 0.0000 -3.5034 0.0000
# 3 0.6731 -8.3654 85.6065 0.0000 -9.3630 0.0000
# 4 0.0000 0.0000 0.0000 38.1382 0.0000 -9.8451
# 5 21.7487 -3.5034 -9.3630 0.0000 36.6539 0.0000
# 6 0.0000 0.0000 0.0000 -9.8451 0.0000 38.6426
#
#
#
# Elastic Compliance Matrix: (Units=1/GPa)
#
#
# Indices 1 2 3 4 5 6 
#
# 1 0.014983 -0.005513 -0.001735 0.000000 -0.009860 0.000000
# 2 -0.005513 0.041349 0.005014 0.000000 0.008504 0.000000
# 3 -0.001735 0.005014 0.012705 0.000000 0.004754 0.000000
# 4 0.000000 0.000000 0.000000 0.028066 0.000000 0.007151
# 5 -0.009860 0.008504 0.004754 0.000000 0.035160 0.000000
# 6 0.000000 0.000000 0.000000 0.007151 0.000000 0.027700
#
#
# Mechanical properties :
#
#
# Convention : Reuss Voigt Hill
#
# Bulk Modulus (GPa) = 15.48722 21.52729 18.50726
# Shear Modulus (GPa) = 26.88839 35.82467 31.35653
#
# Velocity S-wave (km/s) = 3.34405 3.85994 3.61122
# Velocity P-wave (km/s) = 4.62074 5.36829 5.00848
#
# Compressibility (1/GPa) = 0.06456936
#
# Stress axis : x y z
#
# Youngs Moduli (GPa) = 66.74170 24.18452 78.70956
#
# Poissons Ratio (x) = 0.13332 0.13656
# Poissons Ratio (y) = 0.36793 -0.39465
# Poissons Ratio (z) = 0.11580 -0.12126
#
# Static dielectric constant tensor:
#      x y z
#    x 1.887710 0.000000 0.003480 
#    y 0.000000 1.946670 0.000000 
#    z 0.003480 0.000000 1.954110 
# 
# From -- ./inp_files/22738.got.cif
#   From: 2010.05.17/outbox.cif.g08.bks.cpg/sg5_12_cif.got.tgz:22738.got - 2010.06.03 18:56:24.
