data_PCOD9127135
_publ_section_title
;
Structure prediction by ZEFSAII (Michael W. Deem and Ramdas Pophale) SiO2 
 PCOD9127135
Probable space group: C 2
;
_chemical_formula_sum "Si O2"
_cell_formula_units_Z 28
_cell_length_a 8.827095
_cell_length_b 10.673571
_cell_length_c 14.273227
_cell_angle_alpha 90.000000
_cell_angle_beta 70.556394
_cell_angle_gamma 90.000000
_cell_volume 1268.082190
_symmetry_space_group_name_H-M "C 2"
_symmetry_group_IT_number 5
_symmetry_cell_setting 'monoclinic'
loop_
_space_group_symop_operation_xyz
x,y,z
-x,y,-z
1/2+x,1/2+y,z
1/2-x,1/2+y,-z
loop_
_atom_site_type_symbol
_atom_site_label
_atom_site_fract_x
_atom_site_fract_y
_atom_site_fract_z
Si Si1 0.088623 0.595600 0.385374
Si Si2 0.444715 0.969790 0.245830
Si Si3 0.265489 0.197277 0.179890
Si Si4 0.810679 0.961437 0.127872
Si Si5 0.678560 0.683483 0.980943
Si Si6 0.950769 0.067740 0.274282
Si Si7 0.660882 0.314243 0.229493
O O1 0.987520 0.492436 0.346567
O O2 0.000000 0.621355 0.500000
O O3 0.279428 0.566612 0.363302
O O4 0.086505 0.710650 0.313151
O O5 0.619662 0.950170 0.168132
O O6 0.326966 0.857781 0.244594
O O7 0.369225 0.090422 0.208359
O O8 0.354949 0.330430 0.166306
O O9 0.243909 0.193952 0.072142
O O10 0.085612 0.175468 0.259389
O O11 0.883105 0.066099 0.182187
O O12 0.836979 0.030668 0.025215
O O13 0.793529 0.754127 0.881583
O O14 0.500000 0.736532 0.000000
O O15 0.053903 0.940101 0.259318
#
# Coordination Sequence:
#
# PCOD9127135 Si02
#       7
#     4   4   4   4   4   4   4
#     4  11  23  45  70  98 130 166 219 279 345 400
#     4  10  23  43  64  96 128 173 215 271 323 392
#     4  11  24  40  63  93 136 176 220 257 317 385
#     4  11  22  39  60  87 133 168 219 265 307 375
#     4  12  23  40  63  98 134 182 223 261 323 380
#     4  10  22  44  65  94 132 174 214 271 325 393
#     4  11  23  44  68  94 136 171 222 271 326 386
#
# _framework density 22.080587999999999
#
# number of rings (size 3 to 8) (size 9 to 14) (size 15 to 20)
#    0.000    1.143    4.286    2.571    4.000    1.714 
#    0.000    2.143    0.000    0.000    0.000    0.000 
#    0.000    0.000    0.000    0.000    0.000    0.000 
#
# Total GULP energy -77970.580914 kJ/mol
# GULP energy per Si atom -5569.327208 kJ/mol
# Density = 2.203033 g / cm^3
# Si number density = 22.080588 Si / 1000 Ang^3
#
#
#
# Elastic Constant Matrix: (Units=GPa)
#
#
# Indices 1 2 3 4 5 6 
#
# 1 87.1737 14.5089 35.8024 0.0000 -11.3928 0.0000
# 2 14.5089 75.0702 14.4805 0.0000 -4.1967 0.0000
# 3 35.8024 14.4805 130.8103 0.0000 -16.2488 0.0000
# 4 0.0000 0.0000 0.0000 11.8964 0.0000 2.8358
# 5 -11.3928 -4.1967 -16.2488 0.0000 23.2326 0.0000
# 6 0.0000 0.0000 0.0000 2.8358 0.0000 45.2323
#
#
#
# Elastic Compliance Matrix: (Units=1/GPa)
#
#
# Indices 1 2 3 4 5 6 
#
# 1 0.013550 -0.001807 -0.002983 0.000000 0.004232 0.000000
# 2 -0.001807 0.013903 -0.000923 0.000000 0.000980 0.000000
# 3 -0.002983 -0.000923 0.009156 0.000000 0.004774 0.000000
# 4 0.000000 0.000000 0.000000 0.085334 0.000000 -0.005350
# 5 0.004232 0.000980 0.004774 0.000000 0.048634 0.000000
# 6 0.000000 0.000000 0.000000 -0.005350 0.000000 0.022444
#
#
# Mechanical properties :
#
#
# Convention : Reuss Voigt Hill
#
# Bulk Modulus (GPa) = 39.70738 46.95976 43.33357
# Shear Modulus (GPa) = 23.49166 31.28976 27.39071
#
# Velocity S-wave (km/s) = 3.26530 3.76848 3.52588
# Velocity P-wave (km/s) = 5.67787 6.34420 6.02026
#
# Compressibility (1/GPa) = 0.02518424
#
# Stress axis : x y z
#
# Youngs Moduli (GPa) = 73.79916 71.92761 109.21451
#
# Poissons Ratio (x) = 0.12997 0.32578
# Poissons Ratio (y) = 0.13335 0.10078
# Poissons Ratio (z) = 0.22014 0.06637
#
# Static dielectric constant tensor:
#      x y z
#    x 1.893320 0.000000 -0.068450 
#    y 0.000000 2.016610 0.000000 
#    z -0.068450 0.000000 1.815510 
# 
# From -- ./inp_files/50253.got.cif
#   From: 2010.05.17/outbox.cif.g08.bks.cpg/sg5_26_cif.got.tgz:50253.got - 2010.06.03 18:56:24.
