data_PCOD9127036
_publ_section_title
;
Structure prediction by ZEFSAII (Michael W. Deem and Ramdas Pophale) SiO2 
 PCOD9127036
Probable space group: C 2
;
_chemical_formula_sum "Si O2"
_cell_formula_units_Z 32
_cell_length_a 32.411345
_cell_length_b 8.356460
_cell_length_c 12.953570
_cell_angle_alpha 90.000000
_cell_angle_beta 25.060093
_cell_angle_gamma 90.000000
_cell_volume 1486.047219
_symmetry_space_group_name_H-M "C 2"
_symmetry_group_IT_number 5
_symmetry_cell_setting 'monoclinic'
loop_
_space_group_symop_operation_xyz
x,y,z
-x,y,-z
1/2+x,1/2+y,z
1/2-x,1/2+y,-z
loop_
_atom_site_type_symbol
_atom_site_label
_atom_site_fract_x
_atom_site_fract_y
_atom_site_fract_z
Si Si1 0.481587 0.739670 0.422489
Si Si2 0.044303 0.531304 0.644213
Si Si3 0.713043 0.759821 0.556886
Si Si4 0.095843 0.587643 0.854573
Si Si5 0.772257 0.312386 0.693658
Si Si6 0.731616 0.602558 0.111352
Si Si7 0.841868 0.114966 0.107961
Si Si8 0.205570 0.746925 0.242804
O O1 0.500000 0.713345 0.500000
O O2 0.379042 0.659707 0.634113
O O3 0.482038 0.928697 0.396419
O O4 0.558099 0.657878 0.173485
O O5 0.131945 0.420034 0.494860
O O6 0.093136 0.703645 0.516305
O O7 0.951448 0.549544 0.927443
O O8 0.828220 0.734719 0.319792
O O9 0.663793 0.935563 0.670688
O O10 0.700456 0.702673 0.466690
O O11 0.660262 0.664594 0.768289
O O12 0.000000 0.605115 0.000000
O O13 0.726909 0.217197 0.892872
O O14 0.691391 0.434170 0.834675
O O15 0.735532 0.419562 0.134727
O O16 0.767218 0.628887 0.914074
O O17 0.762800 0.213238 0.218647
#
# Coordination Sequence:
#
# PCOD9127036 Si02
#       8
#     4   4   4   4   4   4   4   4
#     4  11  22  38  64  93 133 181 226 288 355 425
#     4  10  22  43  67  92 138 185 231 295 361 421
#     4  12  24  43  74 100 141 190 234 294 363 421
#     4  12  24  47  71 103 145 189 238 301 354 434
#     4  10  23  43  67  98 136 187 233 292 360 425
#     4  11  24  41  67  97 139 183 230 290 362 425
#     4  11  22  40  66  93 134 176 232 284 348 425
#     4  11  23  43  66  97 134 182 230 289 355 427
#
# _framework density 21.533636000000001
#
# number of rings (size 3 to 8) (size 9 to 14) (size 15 to 20)
#    0.000    1.000    5.000    3.000    1.750    1.000 
#    0.000    1.250    0.000    0.000    0.000    0.000 
#    0.000    0.000    0.000    0.000    0.000    0.000 
#
# Total GULP energy -89310.577107 kJ/mol
# GULP energy per Si atom -5581.911069 kJ/mol
# Density = 2.148462 g / cm^3
# Si number density = 21.533636 Si / 1000 Ang^3
#
#
#
# Elastic Constant Matrix: (Units=GPa)
#
#
# Indices 1 2 3 4 5 6 
#
# 1 47.9873 9.2014 -8.8530 0.0000 4.9495 0.0000
# 2 9.2014 54.5635 -11.1876 0.0000 -8.2014 0.0000
# 3 -8.8530 -11.1876 82.1467 0.0000 -9.4906 0.0000
# 4 0.0000 0.0000 0.0000 30.5374 0.0000 4.4363
# 5 4.9495 -8.2014 -9.4906 0.0000 25.1941 0.0000
# 6 0.0000 0.0000 0.0000 4.4363 0.0000 24.5567
#
#
#
# Elastic Compliance Matrix: (Units=1/GPa)
#
#
# Indices 1 2 3 4 5 6 
#
# 1 0.022449 -0.004345 0.001207 0.000000 -0.005370 0.000000
# 2 -0.004345 0.021125 0.003452 0.000000 0.009031 0.000000
# 3 0.001207 0.003452 0.013462 0.000000 0.005958 0.000000
# 4 0.000000 0.000000 0.000000 0.033629 0.000000 -0.006075
# 5 -0.005370 0.009031 0.005958 0.000000 0.045931 0.000000
# 6 0.000000 0.000000 0.000000 -0.006075 0.000000 0.041820
#
#
# Mechanical properties :
#
#
# Convention : Reuss Voigt Hill
#
# Bulk Modulus (GPa) = 17.34194 18.11323 17.72758
# Shear Modulus (GPa) = 25.37958 29.09342 27.23650
#
# Velocity S-wave (km/s) = 3.43680 3.67968 3.56031
# Velocity P-wave (km/s) = 4.88054 5.14618 5.01512
#
# Compressibility (1/GPa) = 0.05766368
#
# Stress axis : x y z
#
# Youngs Moduli (GPa) = 44.54619 47.33670 74.28376
#
# Poissons Ratio (x) = 0.20569 -0.08967
# Poissons Ratio (y) = 0.19357 -0.25644
# Poissons Ratio (z) = -0.05377 -0.16341
#
# Static dielectric constant tensor:
#      x y z
#    x 1.785540 0.000000 -0.031000 
#    y 0.000000 1.815100 0.000000 
#    z -0.031000 0.000000 1.740460 
# 
# From -- ./inp_files/48381.got.cif
#   From: 2010.05.17/outbox.cif.g08.bks.cpg/sg5_25_cif.got.tgz:48381.got - 2010.06.03 18:56:24.
