data_PCOD9127921
_publ_section_title
;
Structure prediction by ZEFSAII (Michael W. Deem and Ramdas Pophale) SiO2 
 PCOD9127921
Probable space group: C 2
;
_chemical_formula_sum "Si O2"
_cell_formula_units_Z 32
_cell_length_a 11.248450
_cell_length_b 8.945138
_cell_length_c 29.194750
_cell_angle_alpha 90.000000
_cell_angle_beta 28.696548
_cell_angle_gamma 90.000000
_cell_volume 1410.522760
_symmetry_space_group_name_H-M "C 2"
_symmetry_group_IT_number 5
_symmetry_cell_setting 'monoclinic'
loop_
_space_group_symop_operation_xyz
x,y,z
-x,y,-z
1/2+x,1/2+y,z
1/2-x,1/2+y,-z
loop_
_atom_site_type_symbol
_atom_site_label
_atom_site_fract_x
_atom_site_fract_y
_atom_site_fract_z
Si Si1 0.924158 0.328380 0.816957
Si Si2 0.763884 0.385940 0.051625
Si Si3 0.525467 0.323088 0.606049
Si Si4 0.771569 0.632275 0.545918
Si Si5 0.965957 0.784552 0.295544
Si Si6 0.517343 0.144091 0.796462
Si Si7 0.540733 0.692248 0.098218
Si Si8 0.100085 0.121517 0.256706
O O1 0.225328 0.320514 0.707768
O O2 0.853662 0.501884 0.837658
O O3 0.862094 0.268854 0.887955
O O4 0.821292 0.221435 0.812267
O O5 0.613843 0.290167 0.139580
O O6 0.612041 0.519757 0.080264
O O7 0.847773 0.270640 0.984047
O O8 0.000000 0.446288 0.000000
O O9 0.629361 0.490946 0.572876
O O10 0.629658 0.237172 0.527340
O O11 0.612329 0.255895 0.625841
O O12 0.587289 0.706237 0.645540
O O13 0.000000 0.578266 0.500000
O O14 0.833125 0.699700 0.298894
O O15 0.248177 0.726393 0.196658
O O16 0.975868 0.964027 0.284768
O O17 0.673108 0.083746 0.786836
#
# Coordination Sequence:
#
# PCOD9127921 Si02
#       8
#     4   4   4   4   4   4   4   4
#     4  11  23  44  70  98 135 178 227 275 339 411
#     4  12  27  45  68 101 140 177 226 287 341 405
#     4  10  23  44  65  98 137 173 225 280 332 400
#     4  11  22  43  65  98 138 177 219 282 338 391
#     4  10  23  46  65  97 136 172 227 276 336 413
#     4  12  24  44  71  98 136 177 229 277 334 413
#     4  11  24  46  68  96 137 175 221 284 339 399
#     4  11  24  44  70  96 137 181 222 277 341 402
#
# _framework density 22.686623999999998
#
# number of rings (size 3 to 8) (size 9 to 14) (size 15 to 20)
#    0.000    1.000    6.250    1.500    1.750    3.000 
#    2.250    0.000    0.000    0.000    0.000    0.000 
#    0.000    0.000    0.000    0.000    0.000    0.000 
#
# Total GULP energy -89445.236237 kJ/mol
# GULP energy per Si atom -5590.327265 kJ/mol
# Density = 2.263499 g / cm^3
# Si number density = 22.686624 Si / 1000 Ang^3
#
#
#
# Elastic Constant Matrix: (Units=GPa)
#
#
# Indices 1 2 3 4 5 6 
#
# 1 107.4698 45.1362 16.6023 -0.0035 33.9841 -0.0010
# 2 45.1362 90.3507 10.7572 0.0027 16.8956 0.0019
# 3 16.6023 10.7572 54.4709 0.0250 20.8600 -0.0038
# 4 -0.0035 0.0027 0.0250 30.3939 0.0000 11.2750
# 5 33.9841 16.8956 20.8600 0.0000 33.1035 -0.0008
# 6 -0.0010 0.0019 -0.0038 11.2750 -0.0008 39.2715
#
#
#
# Elastic Compliance Matrix: (Units=1/GPa)
#
#
# Indices 1 2 3 4 5 6 
#
# 1 0.015984 -0.005438 0.001876 0.000001 -0.014816 0.000000
# 2 -0.005438 0.014086 -0.000671 -0.000001 -0.001184 -0.000001
# 3 0.001876 -0.000671 0.024418 -0.000023 -0.016970 0.000009
# 4 0.000001 -0.000001 -0.000023 0.036823 0.000014 -0.010572
# 5 -0.014816 -0.001184 -0.016970 0.000014 0.056716 -0.000005
# 6 0.000000 -0.000001 0.000009 -0.010572 -0.000005 0.028499
#
#
# Mechanical properties :
#
#
# Convention : Reuss Voigt Hill
#
# Bulk Modulus (GPa) = 21.72859 44.14253 32.93556
# Shear Modulus (GPa) = 24.95842 32.54017 28.74930
#
# Velocity S-wave (km/s) = 3.32043 3.79137 3.56369
# Velocity P-wave (km/s) = 4.92939 6.21818 5.61091
#
# Compressibility (1/GPa) = 0.04602232
#
# Stress axis : x y z
#
# Youngs Moduli (GPa) = 62.56204 70.99326 40.95330
#
# Poissons Ratio (x) = 0.38605 -0.07683
# Poissons Ratio (y) = 0.34021 0.02748
# Poissons Ratio (z) = -0.11737 0.04763
#
# Static dielectric constant tensor:
#      x y z
#    x 1.893020 0.000000 -0.046340 
#    y 0.000000 1.814230 -0.000010 
#    z -0.046340 -0.000010 1.855680 
# 
# From -- ./inp_files/71734.got.cif
#   From: 2010.05.17/outbox.cif.g08.bks.cpg/sg5_36_cif.got.tgz:71734.got - 2010.06.03 18:56:24.
