data_PCOD9127201
_publ_section_title
;
Structure prediction by ZEFSAII (Michael W. Deem and Ramdas Pophale) SiO2 
 PCOD9127201
Probable space group: C 2
;
_chemical_formula_sum "Si O2"
_cell_formula_units_Z 26
_cell_length_a 6.101987
_cell_length_b 27.311625
_cell_length_c 7.646553
_cell_angle_alpha 90.000000
_cell_angle_beta 115.517694
_cell_angle_gamma 90.000000
_cell_volume 1150.028952
_symmetry_space_group_name_H-M "C 2"
_symmetry_group_IT_number 5
_symmetry_cell_setting 'monoclinic'
loop_
_space_group_symop_operation_xyz
x,y,z
-x,y,-z
1/2+x,1/2+y,z
1/2-x,1/2+y,-z
loop_
_atom_site_type_symbol
_atom_site_label
_atom_site_fract_x
_atom_site_fract_y
_atom_site_fract_z
Si Si1 0.998586 0.598170 0.707543
Si Si2 0.666602 0.679355 0.731176
Si Si3 0.000000 0.869823 0.000000
Si Si4 0.799172 0.496228 0.596536
Si Si5 0.000000 0.117678 0.000000
Si Si6 0.705384 0.900653 0.200330
Si Si7 0.729599 0.788915 0.709002
Si Si8 0.500000 0.325769 0.500000
O O1 0.901422 0.647149 0.764690
O O2 0.832378 0.550950 0.681454
O O3 0.000000 0.606582 0.500000
O O4 0.262796 0.586699 0.874252
O O5 0.500000 0.678183 0.500000
O O6 0.538969 0.651875 0.845757
O O7 0.716026 0.735849 0.790167
O O8 0.065793 0.902250 0.854149
O O9 0.789664 0.832680 0.861200
O O10 0.500000 0.489043 0.500000
O O11 0.876746 0.451319 0.744951
O O12 0.000000 0.494883 0.500000
O O13 0.782560 0.862601 0.376004
O O14 0.500000 0.882811 0.000000
O O15 0.500000 0.794337 0.500000
O O16 0.952940 0.792323 0.650011
#
# Coordination Sequence:
#
# PCOD9127201 Si02
#       8
#     4   4   2   4   2   4   4   2
#     4  11  25  48  74 102 149 189 254 311 382 452
#     4  11  24  45  72 106 148 196 250 305 380 453
#     4  10  24  44  67 102 148 184 251 298 380 440
#     4  11  27  50  80 108 150 199 251 316 380 449
#     4  12  26  44  75 104 148 200 241 320 376 454
#     4  11  24  43  71 102 140 192 244 309 371 454
#     4  10  23  41  67 101 142 190 238 301 373 440
#     4  10  22  44  68  98 144 188 244 302 382 428
#
# _framework density 22.608125000000001
#
# number of rings (size 3 to 8) (size 9 to 14) (size 15 to 20)
#    0.000    1.231    2.308    1.846    7.538    1.846 
#    6.923    0.769    0.000    0.000    0.000    0.000 
#    0.000    0.000    0.000    0.000    0.000    0.000 
#
# Total GULP energy -72522.941751 kJ/mol
# GULP energy per Si atom -5578.687827 kJ/mol
# Density = 2.255667 g / cm^3
# Si number density = 22.608125 Si / 1000 Ang^3
#
#
#
# Elastic Constant Matrix: (Units=GPa)
#
#
# Indices 1 2 3 4 5 6 
#
# 1 71.3683 31.7589 24.2454 0.0000 -5.5812 0.0000
# 2 31.7589 51.3102 3.5270 0.0000 -16.7721 0.0000
# 3 24.2454 3.5270 90.4627 0.0000 11.2721 0.0000
# 4 0.0000 0.0000 0.0000 5.0029 0.0000 -10.9775
# 5 -5.5812 -16.7721 11.2721 0.0000 42.0276 0.0000
# 6 0.0000 0.0000 0.0000 -10.9775 0.0000 -4.6569
#
#
#
# Elastic Compliance Matrix: (Units=1/GPa)
#
#
# Indices 1 2 3 4 5 6 
#
# 1 0.021633 -0.013394 -0.005139 0.000000 -0.001094 0.000000
# 2 -0.013394 0.031082 0.001090 0.000000 0.010333 0.000000
# 3 -0.005139 0.001090 0.012849 0.000000 -0.003694 0.000000
# 4 0.000000 0.000000 0.000000 0.032384 0.000000 -0.076337
# 5 -0.001094 0.010333 -0.003694 0.000000 0.028763 0.000000
# 6 0.000000 0.000000 0.000000 -0.076337 0.000000 -0.034790
#
#
# Mechanical properties :
#
#
# Convention : Reuss Voigt Hill
#
# Bulk Modulus (GPa) = 32.59619 36.91155 34.75387
# Shear Modulus (GPa) = 36.48751 18.71537 27.60144
#
# Velocity S-wave (km/s) = 4.02171 2.88030 3.49788
# Velocity P-wave (km/s) = 6.00123 5.23676 5.63198
#
# Compressibility (1/GPa) = 0.03067843
#
# Stress axis : x y z
#
# Youngs Moduli (GPa) = 46.22669 32.17264 77.82452
#
# Poissons Ratio (x) = 0.43092 0.39996
# Poissons Ratio (y) = 0.61916 -0.08486
# Poissons Ratio (z) = 0.23757 -0.03508
#
# Static dielectric constant tensor:
#      x y z
#    x 2.011020 0.000000 0.017140 
#    y 0.000000 1.753030 0.000000 
#    z 0.017140 0.000000 1.878930 
# 
# From -- ./inp_files/13254.got.cif
#   From: 2010.05.17/outbox.cif.g08.bks.cpg/sg5_7_cif.got.tgz:13254.got - 2010.06.03 18:56:24.
