data_PCOD9127614
_publ_section_title
;
Structure prediction by ZEFSAII (Michael W. Deem and Ramdas Pophale) SiO2 
 PCOD9127614
Probable space group: C 2
;
_chemical_formula_sum "Si O2"
_cell_formula_units_Z 32
_cell_length_a 11.933814
_cell_length_b 7.161644
_cell_length_c 18.168216
_cell_angle_alpha 90.000000
_cell_angle_beta 94.684089
_cell_angle_gamma 90.000000
_cell_volume 1547.573738
_symmetry_space_group_name_H-M "C 2"
_symmetry_group_IT_number 5
_symmetry_cell_setting 'monoclinic'
loop_
_space_group_symop_operation_xyz
x,y,z
-x,y,-z
1/2+x,1/2+y,z
1/2-x,1/2+y,-z
loop_
_atom_site_type_symbol
_atom_site_label
_atom_site_fract_x
_atom_site_fract_y
_atom_site_fract_z
Si Si1 0.063744 0.174470 0.265918
Si Si2 0.142819 0.052361 0.643881
Si Si3 0.870965 0.344708 0.482249
Si Si4 0.739849 0.182417 0.611713
Si Si5 0.873596 0.135183 0.983324
Si Si6 0.194898 0.892430 0.891980
Si Si7 0.556738 0.373511 0.138390
Si Si8 0.670723 0.045084 0.233797
O O1 0.177637 0.128240 0.317195
O O2 0.075553 0.393972 0.248760
O O3 0.958769 0.123641 0.311281
O O4 0.053850 0.054407 0.191417
O O5 0.132875 0.156030 0.565973
O O6 0.260335 0.102467 0.690232
O O7 0.146099 0.828493 0.634782
O O8 0.812893 0.301027 0.556737
O O9 0.809371 0.505120 0.432689
O O10 0.000000 0.399614 0.500000
O O11 0.891158 0.947929 0.934982
O O12 0.788198 0.268014 0.936736
O O13 0.824678 0.076042 0.059350
O O14 0.000000 0.214453 0.000000
O O15 0.070741 0.805287 0.881207
O O16 0.239878 0.940059 0.813854
O O17 0.624291 0.215806 0.184580
#
# Coordination Sequence:
#
# PCOD9127614 Si02
#       8
#     4   4   4   4   4   4   4   4
#     4  11  23  44  65  95 133 165 213 267 317 379
#     4  11  24  44  66  95 131 167 213 265 319 380
#     4  12  24  42  66  95 125 170 218 258 323 382
#     4  11  25  42  66  93 129 169 212 266 318 379
#     4  10  23  40  64  93 133 168 212 269 310 375
#     4  11  22  42  64  97 128 170 219 256 321 379
#     4  11  23  42  65  95 131 167 216 265 315 378
#     4  11  24  41  67  96 128 170 214 262 321 378
#
# _framework density 20.677527000000001
#
# number of rings (size 3 to 8) (size 9 to 14) (size 15 to 20)
#    0.000    1.000    5.000    1.500    0.000    4.500 
#    0.000    0.000    0.000    0.000    0.000    0.000 
#    0.000    0.000    0.000    0.000    0.000    0.000 
#
# Total GULP energy -89451.230497 kJ/mol
# GULP energy per Si atom -5590.701906 kJ/mol
# Density = 2.063046 g / cm^3
# Si number density = 20.677527 Si / 1000 Ang^3
#
#
#
# Elastic Constant Matrix: (Units=GPa)
#
#
# Indices 1 2 3 4 5 6 
#
# 1 72.2079 27.7639 6.8491 0.0000 9.3392 0.0000
# 2 27.7639 37.2154 -4.6136 0.0000 8.0533 0.0000
# 3 6.8491 -4.6136 70.5673 0.0000 2.7465 0.0000
# 4 0.0000 0.0000 0.0000 39.5190 0.0000 7.4593
# 5 9.3392 8.0533 2.7465 0.0000 44.3839 0.0000
# 6 0.0000 0.0000 0.0000 7.4593 0.0000 21.9944
#
#
#
# Elastic Compliance Matrix: (Units=1/GPa)
#
#
# Indices 1 2 3 4 5 6 
#
# 1 0.020080 -0.015053 -0.002882 0.000000 -0.001316 0.000000
# 2 -0.015053 0.039547 0.004213 0.000000 -0.004269 0.000000
# 3 -0.002882 0.004213 0.014768 0.000000 -0.001072 0.000000
# 4 0.000000 0.000000 0.000000 0.027035 0.000000 -0.009169
# 5 -0.001316 -0.004269 -0.001072 0.000000 0.023648 0.000000
# 6 0.000000 0.000000 0.000000 -0.009169 0.000000 0.048576
#
#
# Mechanical properties :
#
#
# Convention : Reuss Voigt Hill
#
# Bulk Modulus (GPa) = 21.29923 26.66550 23.98236
# Shear Modulus (GPa) = 23.06817 31.17887 27.12352
#
# Velocity S-wave (km/s) = 3.34371 3.88733 3.62572
# Velocity P-wave (km/s) = 5.02297 5.75086 5.39919
#
# Compressibility (1/GPa) = 0.04695006
#
# Stress axis : x y z
#
# Youngs Moduli (GPa) = 49.79990 25.28647 67.71527
#
# Poissons Ratio (x) = 0.38064 0.19515
# Poissons Ratio (y) = 0.74965 -0.28526
# Poissons Ratio (z) = 0.14352 -0.10652
#
# Static dielectric constant tensor:
#      x y z
#    x 1.730960 0.000000 -0.003170 
#    y 0.000000 1.717650 0.000000 
#    z -0.003170 0.000000 1.729870 
# 
# From -- ./inp_files/64981.got.cif
#   From: 2010.05.17/outbox.cif.g08.bks.cpg/sg5_33_cif.got.tgz:64981.got - 2010.06.03 18:56:24.
