data_PCOD9127254
_publ_section_title
;
Structure prediction by ZEFSAII (Michael W. Deem and Ramdas Pophale) SiO2 
 PCOD9127254
Probable space group: C 2
;
_chemical_formula_sum "Si O2"
_cell_formula_units_Z 26
_cell_length_a 16.697005
_cell_length_b 8.752141
_cell_length_c 23.581841
_cell_angle_alpha 90.000000
_cell_angle_beta 19.708791
_cell_angle_gamma 90.000000
_cell_volume 1162.169014
_symmetry_space_group_name_H-M "C 2"
_symmetry_group_IT_number 5
_symmetry_cell_setting 'monoclinic'
loop_
_space_group_symop_operation_xyz
x,y,z
-x,y,-z
1/2+x,1/2+y,z
1/2-x,1/2+y,-z
loop_
_atom_site_type_symbol
_atom_site_label
_atom_site_fract_x
_atom_site_fract_y
_atom_site_fract_z
Si Si1 0.500000 0.105981 0.000000
Si Si2 0.136991 0.250385 0.325472
Si Si3 0.999562 0.161879 0.184400
Si Si4 0.191292 0.366300 0.606700
Si Si5 0.778940 0.392989 0.048725
Si Si6 0.000000 0.013285 0.500000
Si Si7 0.614056 0.195916 0.624851
Si Si8 0.000000 0.512404 0.500000
O O1 0.681340 0.214817 0.845276
O O2 0.610833 0.992209 0.973620
O O3 0.178364 0.123588 0.346782
O O4 0.110514 0.408794 0.376007
O O5 0.875477 0.219283 0.476055
O O6 0.018542 0.262062 0.229023
O O7 0.728015 0.106304 0.367122
O O8 0.168422 0.015137 0.077966
O O9 0.053371 0.273533 0.096134
O O10 0.346487 0.423238 0.556661
O O11 0.365926 0.271971 0.449827
O O12 0.084371 0.513612 0.645952
O O13 0.571308 0.288678 0.213941
#
# Coordination Sequence:
#
# PCOD9127254 Si02
#       8
#     2   4   4   4   4   2   4   2
#     4  12  26  46  74 108 152 190 242 300 376 432
#     4  10  22  44  72 106 144 191 239 299 365 434
#     4  12  26  46  75 107 144 191 248 301 364 430
#     4  11  22  41  69 102 140 189 234 295 354 433
#     4  12  27  48  72 109 147 194 241 303 364 435
#     4   9  19  38  70  98 140 188 236 282 360 426
#     4  11  23  45  71 107 144 191 240 296 368 429
#     4  11  25  46  76 108 142 192 252 304 356 440
#
# _framework density 22.371962
#
# number of rings (size 3 to 8) (size 9 to 14) (size 15 to 20)
#    0.000    0.923    1.538    6.000    2.154    2.462 
#    2.769    0.000    0.000    0.000    0.000    0.000 
#    0.000    0.000    0.000    0.000    0.000    0.000 
#
# Total GULP energy -72698.027422 kJ/mol
# GULP energy per Si atom -5592.155956 kJ/mol
# Density = 2.232104 g / cm^3
# Si number density = 22.371962 Si / 1000 Ang^3
#
#
#
# Elastic Constant Matrix: (Units=GPa)
#
#
# Indices 1 2 3 4 5 6 
#
# 1 97.6287 49.1125 41.2921 -0.0023 14.2881 0.0078
# 2 49.1125 140.6555 78.1122 0.0123 16.6101 0.0038
# 3 41.2921 78.1122 125.8892 -0.0514 33.2467 0.0453
# 4 -0.0023 0.0123 -0.0514 11.0997 -0.0037 -0.7304
# 5 14.2881 16.6101 33.2467 -0.0037 40.9251 -0.0181
# 6 0.0078 0.0038 0.0453 -0.7304 -0.0181 21.5384
#
#
#
# Elastic Compliance Matrix: (Units=1/GPa)
#
#
# Indices 1 2 3 4 5 6 
#
# 1 0.012905 -0.003366 -0.001674 -0.000002 -0.001779 -0.000002
# 2 -0.003366 0.011785 -0.006691 -0.000043 0.001828 0.000013
# 3 -0.001674 -0.006691 0.014988 0.000071 -0.008876 -0.000035
# 4 -0.000002 -0.000043 0.000071 0.090294 -0.000030 0.003062
# 5 -0.001779 0.001828 -0.008876 -0.000030 0.031525 0.000044
# 6 -0.000002 0.000013 -0.000035 0.003062 0.000044 0.046533
#
#
# Mechanical properties :
#
#
# Convention : Reuss Voigt Hill
#
# Bulk Modulus (GPa) = 61.66994 77.91188 69.79091
# Shear Modulus (GPa) = 21.10617 27.75642 24.43129
#
# Velocity S-wave (km/s) = 3.07485 3.52615 3.30820
# Velocity P-wave (km/s) = 6.34286 7.17493 6.77168
#
# Compressibility (1/GPa) = 0.01621536
#
# Stress axis : x y z
#
# Youngs Moduli (GPa) = 77.49108 84.85514 66.71783
#
# Poissons Ratio (x) = 0.28562 0.11172
# Poissons Ratio (y) = 0.26083 0.44640
# Poissons Ratio (z) = 0.12976 0.56776
#
# Static dielectric constant tensor:
#      x y z
#    x 1.766070 0.000010 0.014370 
#    y 0.000010 1.897030 0.000010 
#    z 0.014370 0.000010 1.804880 
# 
# From -- ./inp_files/69154.got.cif
#   From: 2010.05.17/outbox.cif.g08.bks.cpg/sg5_35_cif.got.tgz:69154.got - 2010.06.03 18:56:24.
