data_PCOD9127192
_publ_section_title
;
Structure prediction by ZEFSAII (Michael W. Deem and Ramdas Pophale) SiO2 
 PCOD9127192
Probable space group: C 2
;
_chemical_formula_sum "Si O2"
_cell_formula_units_Z 30
_cell_length_a 9.189294
_cell_length_b 10.510353
_cell_length_c 24.466520
_cell_angle_alpha 90.000000
_cell_angle_beta 144.313100
_cell_angle_gamma 90.000000
_cell_volume 1378.494268
_symmetry_space_group_name_H-M "C 2"
_symmetry_group_IT_number 5
_symmetry_cell_setting 'monoclinic'
loop_
_space_group_symop_operation_xyz
x,y,z
-x,y,-z
1/2+x,1/2+y,z
1/2-x,1/2+y,-z
loop_
_atom_site_type_symbol
_atom_site_label
_atom_site_fract_x
_atom_site_fract_y
_atom_site_fract_z
Si Si1 0.631974 0.761720 0.645344
Si Si2 0.025423 0.785414 0.348893
Si Si3 0.483139 0.159557 0.847695
Si Si4 0.703970 0.549845 0.416649
Si Si5 0.728027 0.546525 0.299848
Si Si6 0.500000 0.806919 0.000000
Si Si7 0.037833 0.369321 0.135731
Si Si8 0.754142 0.649628 0.894406
O O1 0.830821 0.703649 0.748478
O O2 0.391415 0.672877 0.580218
O O3 0.738470 0.752047 0.616685
O O4 0.627957 0.912135 0.658398
O O5 0.912000 0.664736 0.345303
O O6 0.806561 0.824485 0.239650
O O7 0.096054 0.913658 0.403792
O O8 0.337695 0.192039 0.859381
O O9 0.512340 0.008150 0.856286
O O10 0.751755 0.223188 0.929886
O O11 0.618263 0.560196 0.327346
O O12 0.000000 0.543476 0.500000
O O13 0.487717 0.557876 0.186652
O O14 0.528255 0.873453 0.067537
O O15 0.843743 0.268300 0.100384
O O16 0.000000 0.601036 0.000000
#
# Coordination Sequence:
#
# PCOD9127192 Si02
#       8
#     4   4   4   4   4   2   4   4
#     4  11  22  43  66  97 130 170 213 267 327 390
#     4  10  22  44  68  95 130 169 213 267 327 386
#     4  12  24  40  62  91 131 172 218 268 314 379
#     4  11  24  45  70  96 129 169 215 268 330 393
#     4  10  24  42  67  99 129 172 218 264 329 385
#     4  12  26  36  60  96 126 172 224 260 310 380
#     4  11  24  41  61  91 127 173 220 263 319 375
#     4  11  23  42  60  91 133 172 214 269 316 374
#
# _framework density 21.762875000000001
#
# number of rings (size 3 to 8) (size 9 to 14) (size 15 to 20)
#    0.000    1.067    5.333    0.800    1.867    4.267 
#    0.000    0.667    0.000    0.000    0.000    0.000 
#    0.000    0.000    0.000    0.000    0.000    0.000 
#
# Total GULP energy -83863.549421 kJ/mol
# GULP energy per Si atom -5590.903295 kJ/mol
# Density = 2.171334 g / cm^3
# Si number density = 21.762875 Si / 1000 Ang^3
#
#
#
# Elastic Constant Matrix: (Units=GPa)
#
#
# Indices 1 2 3 4 5 6 
#
# 1 71.1619 59.3325 11.2482 0.0000 12.5930 0.0000
# 2 59.3325 153.5053 22.4053 0.0000 15.2278 0.0000
# 3 11.2482 22.4053 84.2055 0.0000 21.5613 0.0000
# 4 0.0000 0.0000 0.0000 20.9506 0.0000 3.5745
# 5 12.5930 15.2278 21.5613 0.0000 35.6727 0.0000
# 6 0.0000 0.0000 0.0000 3.5745 0.0000 -0.9900
#
#
#
# Elastic Compliance Matrix: (Units=1/GPa)
#
#
# Indices 1 2 3 4 5 6 
#
# 1 0.021326 -0.007861 0.000368 0.000000 -0.004396 0.000000
# 2 -0.007861 0.009815 -0.001419 0.000000 -0.000557 0.000000
# 3 0.000368 -0.001419 0.014295 0.000000 -0.008164 0.000000
# 4 0.000000 0.000000 0.000000 0.029537 0.000000 0.106641
# 5 -0.004396 -0.000557 -0.008164 0.000000 0.034757 0.000000
# 6 0.000000 0.000000 0.000000 0.106641 0.000000 -0.625043
#
#
# Mechanical properties :
#
#
# Convention : Reuss Voigt Hill
#
# Bulk Modulus (GPa) = 36.21444 54.98276 45.59860
# Shear Modulus (GPa) = -10.23987 25.51908 7.63961
#
# Velocity S-wave (km/s) = -2.17150 3.42804 1.87563
# Velocity P-wave (km/s) = 3.22325 6.40218 5.06840
#
# Compressibility (1/GPa) = 0.02761330
#
# Stress axis : x y z
#
# Youngs Moduli (GPa) = 46.89112 101.88406 69.95673
#
# Poissons Ratio (x) = 0.80087 -0.02577
# Poissons Ratio (y) = 0.36859 0.09926
# Poissons Ratio (z) = -0.01727 0.14456
#
# Static dielectric constant tensor:
#      x y z
#    x 1.755060 0.000000 0.012470 
#    y 0.000000 1.808700 0.000000 
#    z 0.012470 0.000000 1.858790 
# 
# From -- ./inp_files/64478.got.cif
#   From: 2010.05.17/outbox.cif.g08.bks.cpg/sg5_33_cif.got.tgz:64478.got - 2010.06.03 18:56:24.
