data_PCOD9127659
_publ_section_title
;
Structure prediction by ZEFSAII (Michael W. Deem and Ramdas Pophale) SiO2 
 PCOD9127659
Probable space group: C 2
;
_chemical_formula_sum "Si O2"
_cell_formula_units_Z 22
_cell_length_a 10.504093
_cell_length_b 10.707935
_cell_length_c 14.983486
_cell_angle_alpha 90.000000
_cell_angle_beta 145.297190
_cell_angle_gamma 90.000000
_cell_volume 959.474578
_symmetry_space_group_name_H-M "C 2"
_symmetry_group_IT_number 5
_symmetry_cell_setting 'monoclinic'
loop_
_space_group_symop_operation_xyz
x,y,z
-x,y,-z
1/2+x,1/2+y,z
1/2-x,1/2+y,-z
loop_
_atom_site_type_symbol
_atom_site_label
_atom_site_fract_x
_atom_site_fract_y
_atom_site_fract_z
Si Si1 0.925827 0.632090 0.665348
Si Si2 0.500000 0.080999 0.000000
Si Si3 0.139683 0.019702 0.164561
Si Si4 0.114619 0.425786 0.218672
Si Si5 0.627326 0.289728 0.935085
Si Si6 0.242481 0.674938 0.615508
O O1 0.054540 0.739784 0.795418
O O2 0.756118 0.678432 0.490699
O O3 0.111904 0.544780 0.725775
O O4 0.828842 0.538813 0.682373
O O5 0.376818 0.170603 0.000449
O O6 0.654429 0.986576 0.145447
O O7 0.094584 0.089640 0.231747
O O8 0.068540 0.878722 0.140398
O O9 0.000000 0.070876 0.000000
O O10 0.247804 0.307452 0.329948
O O11 0.855854 0.371865 0.070181
O O12 0.000000 0.622118 0.500000
#
# Coordination Sequence:
#
# PCOD9127659 Si02
#       6
#     4   2   4   4   4   4
#     4  10  23  41  62  95 127 168 212 253 332 377
#     4  10  24  40  62 100 120 152 224 264 306 372
#     4  11  20  41  68  91 125 161 213 268 314 371
#     4  11  23  41  66  93 126 170 213 266 316 376
#     4  11  22  42  70  93 125 164 215 274 309 376
#     4  10  25  40  61  92 131 171 207 261 324 380
#
# _framework density 22.929216
#
# number of rings (size 3 to 8) (size 9 to 14) (size 15 to 20)
#    0.000    1.455    2.727    1.091   11.455    0.000 
#    3.273    0.000    0.000    0.000    0.000    0.000 
#    0.000    0.000    0.000    0.000    0.000    0.000 
#
# Total GULP energy -61318.249870 kJ/mol
# GULP energy per Si atom -5574.386352 kJ/mol
# Density = 2.287703 g / cm^3
# Si number density = 22.929216 Si / 1000 Ang^3
#
#
#
# Elastic Constant Matrix: (Units=GPa)
#
#
# Indices 1 2 3 4 5 6 
#
# 1 52.5037 21.1493 45.3540 0.0001 -30.2540 0.0002
# 2 21.1493 94.9083 59.3054 0.0009 -28.7432 0.0008
# 3 45.3540 59.3054 127.0544 0.0018 -60.4561 0.0014
# 4 0.0001 0.0009 0.0018 16.4390 0.0005 -6.5144
# 5 -30.2540 -28.7432 -60.4561 0.0005 49.2752 0.0004
# 6 0.0002 0.0008 0.0014 -6.5144 0.0004 30.5810
#
#
#
# Elastic Compliance Matrix: (Units=1/GPa)
#
#
# Indices 1 2 3 4 5 6 
#
# 1 0.030633 0.000110 -0.004821 0.000000 0.012958 0.000000
# 2 0.000110 0.014878 -0.006781 0.000000 0.000427 0.000000
# 3 -0.004821 -0.006781 0.022744 -0.000004 0.020990 -0.000002
# 4 0.000000 0.000000 -0.000004 0.066440 -0.000005 0.014153
# 5 0.012958 0.000427 0.020990 -0.000005 0.054251 -0.000003
# 6 0.000000 0.000000 -0.000002 0.014153 -0.000003 0.035715
#
#
# Mechanical properties :
#
#
# Convention : Reuss Voigt Hill
#
# Bulk Modulus (GPa) = 22.08849 58.45375 40.27112
# Shear Modulus (GPa) = 19.03062 29.16955 24.10009
#
# Velocity S-wave (km/s) = 2.88405 3.57060 3.24553
# Velocity P-wave (km/s) = 4.55462 6.52284 5.62548
#
# Compressibility (1/GPa) = 0.04527245
#
# Stress axis : x y z
#
# Youngs Moduli (GPa) = 32.64496 67.21108 43.96746
#
# Poissons Ratio (x) = -0.00742 0.21195
# Poissons Ratio (y) = -0.00360 0.29815
# Poissons Ratio (z) = 0.15737 0.45577
#
# Static dielectric constant tensor:
#      x y z
#    x 1.921970 0.000000 -0.043400 
#    y 0.000000 1.866240 0.000000 
#    z -0.043400 0.000000 1.983870 
# 
# From -- ./inp_files/52850.got.cif
#   From: 2010.05.17/outbox.cif.g08.bks.cpg/sg5_27_cif.got.tgz:52850.got - 2010.06.03 18:56:24.
