data_PCOD9127965
_publ_section_title
;
Structure prediction by ZEFSAII (Michael W. Deem and Ramdas Pophale) SiO2 
 PCOD9127965
Probable space group: C 2
;
_chemical_formula_sum "Si O2"
_cell_formula_units_Z 28
_cell_length_a 19.686367
_cell_length_b 5.172329
_cell_length_c 21.862975
_cell_angle_alpha 90.000000
_cell_angle_beta 152.633892
_cell_angle_gamma 90.000000
_cell_volume 1023.319912
_symmetry_space_group_name_H-M "C 2"
_symmetry_group_IT_number 5
_symmetry_cell_setting 'monoclinic'
loop_
_space_group_symop_operation_xyz
x,y,z
-x,y,-z
1/2+x,1/2+y,z
1/2-x,1/2+y,-z
loop_
_atom_site_type_symbol
_atom_site_label
_atom_site_fract_x
_atom_site_fract_y
_atom_site_fract_z
Si Si1 0.759083 0.258020 0.086690
Si Si2 0.054458 0.399906 0.981589
Si Si3 0.517485 0.537246 0.832678
Si Si4 0.247830 0.010715 0.716472
Si Si5 0.908210 0.521623 0.370167
Si Si6 0.739743 0.846392 0.412823
Si Si7 0.487177 0.096999 0.673723
O O1 0.842626 0.527191 0.171143
O O2 0.882210 0.122233 0.144299
O O3 0.609818 0.287044 0.927260
O O4 0.702788 0.072156 0.095831
O O5 0.915611 0.593328 0.864017
O O6 0.039334 0.217205 0.910078
O O7 0.000000 0.258862 0.000000
O O8 0.348215 0.576509 0.675910
O O9 0.210198 0.753308 0.725834
O O10 0.234446 0.965730 0.633017
O O11 0.151283 0.248533 0.658203
O O12 0.000000 0.626975 0.500000
O O13 0.004099 0.473832 0.386816
O O14 0.890455 0.843453 0.573292
O O15 0.617648 0.988815 0.356938
#
# Coordination Sequence:
#
# PCOD9127965 Si02
#       7
#     4   4   4   4   4   4   4
#     4  11  23  45  72 103 140 194 247 310 374 454
#     4  11  25  43  70 106 142 189 246 316 371 449
#     4  10  23  44  70  98 142 189 242 300 385 445
#     4  11  27  48  74 106 152 198 249 306 386 447
#     4  12  26  48  73 107 151 201 246 309 378 455
#     4  10  25  47  68 110 143 199 246 320 372 453
#     4  11  26  44  73 110 149 193 261 312 377 449
#
# _framework density 27.361922
#
# number of rings (size 3 to 8) (size 9 to 14) (size 15 to 20)
#    0.000    1.143    2.857    1.286    8.000    1.714 
#    0.000    0.000    0.000    0.000    0.000    0.000 
#    0.000    0.000    0.000    0.000    0.000    0.000 
#
# Total GULP energy -78104.927336 kJ/mol
# GULP energy per Si atom -5578.923381 kJ/mol
# Density = 2.729964 g / cm^3
# Si number density = 27.361922 Si / 1000 Ang^3
#
#
#
# Elastic Constant Matrix: (Units=GPa)
#
#
# Indices 1 2 3 4 5 6 
#
# 1 172.4373 50.5501 16.2934 -0.0043 -3.1208 0.0024
# 2 50.5501 76.9475 23.7062 -0.0093 2.1362 -0.0006
# 3 16.2934 23.7062 89.9968 0.0005 -3.7316 0.0021
# 4 -0.0043 -0.0093 0.0005 20.3156 -0.0007 10.1098
# 5 -3.1208 2.1362 -3.7316 -0.0007 34.5377 0.0017
# 6 0.0024 -0.0006 0.0021 10.1098 0.0017 -35.9876
#
#
#
# Elastic Compliance Matrix: (Units=1/GPa)
#
#
# Indices 1 2 3 4 5 6 
#
# 1 0.007213 -0.004761 -0.000013 -0.000001 0.000945 0.000000
# 2 -0.004761 0.017343 -0.003786 0.000007 -0.001912 0.000001
# 3 -0.000013 -0.003786 0.012175 -0.000002 0.001548 0.000000
# 4 -0.000001 0.000007 -0.000002 0.043186 0.000000 0.012132
# 5 0.000945 -0.001912 0.001548 0.000000 0.029325 0.000001
# 6 0.000000 0.000001 0.000000 0.012132 0.000001 -0.024379
#
#
# Mechanical properties :
#
#
# Convention : Reuss Voigt Hill
#
# Bulk Modulus (GPa) = 50.98721 57.83123 54.40922
# Shear Modulus (GPa) = 46.07490 20.36195 33.21843
#
# Velocity S-wave (km/s) = 4.10799 2.73091 3.48809
# Velocity P-wave (km/s) = 6.41682 5.57901 6.01253
#
# Compressibility (1/GPa) = 0.01961276
#
# Stress axis : x y z
#
# Youngs Moduli (GPa) = 138.63491 57.66032 82.13425
#
# Poissons Ratio (x) = 0.27452 0.00104
# Poissons Ratio (y) = 0.66004 0.31093
# Poissons Ratio (z) = 0.00175 0.21828
#
# Static dielectric constant tensor:
#      x y z
#    x 2.368260 0.000000 -0.186470 
#    y 0.000000 2.212380 0.000000 
#    z -0.186470 0.000000 2.350690 
# 
# From -- ./inp_files/69346.got.cif
#   From: 2010.05.17/outbox.cif.g08.bks.cpg/sg5_35_cif.got.tgz:69346.got - 2010.06.03 18:56:24.
