data_PCOD9127718
_publ_section_title
;
Structure prediction by ZEFSAII (Michael W. Deem and Ramdas Pophale) SiO2 
 PCOD9127718
Probable space group: C 2
;
_chemical_formula_sum "Si O2"
_cell_formula_units_Z 28
_cell_length_a 9.914184
_cell_length_b 7.700820
_cell_length_c 28.100105
_cell_angle_alpha 90.000000
_cell_angle_beta 31.277994
_cell_angle_gamma 90.000000
_cell_volume 1113.855767
_symmetry_space_group_name_H-M "C 2"
_symmetry_group_IT_number 5
_symmetry_cell_setting 'monoclinic'
loop_
_space_group_symop_operation_xyz
x,y,z
-x,y,-z
1/2+x,1/2+y,z
1/2-x,1/2+y,-z
loop_
_atom_site_type_symbol
_atom_site_label
_atom_site_fract_x
_atom_site_fract_y
_atom_site_fract_z
Si Si1 0.908034 0.595790 0.293251
Si Si2 0.301409 0.498787 0.021387
Si Si3 0.910460 0.870731 0.887477
Si Si4 0.171219 0.109825 0.564905
Si Si5 0.491255 0.739455 0.712044
Si Si6 0.708204 0.202946 0.571922
Si Si7 0.729163 0.412749 0.170230
O O1 0.619183 0.650985 0.365912
O O2 0.957371 0.626940 0.334809
O O3 0.916416 0.391040 0.280650
O O4 0.107829 0.721758 0.207746
O O5 0.246798 0.697505 0.051562
O O6 0.014499 0.416475 0.106234
O O7 0.500000 0.422805 0.000000
O O8 0.414930 0.479854 0.934395
O O9 0.778033 0.964936 0.882966
O O10 0.201327 0.807551 0.786779
O O11 0.344739 0.138091 0.465651
O O12 0.183906 0.224276 0.608797
O O13 0.194205 0.910795 0.573675
O O14 0.447698 0.551009 0.748055
O O15 0.000000 0.152484 0.500000
#
# Coordination Sequence:
#
# PCOD9127718 Si02
#       7
#     4   4   4   4   4   4   4
#     4  11  24  44  70 103 143 185 237 295 351 420
#     4  11  26  46  72 102 141 187 235 299 359 432
#     4  11  26  47  70 104 143 184 238 298 360 429
#     4  11  22  44  66 105 143 186 243 291 354 418
#     4  11  25  41  71 106 138 189 237 288 364 424
#     4  10  23  41  69  98 145 189 236 296 348 420
#     4  11  24  49  72 104 146 186 236 303 355 428
#
# _framework density 25.137903000000001
#
# number of rings (size 3 to 8) (size 9 to 14) (size 15 to 20)
#    0.000    1.143    2.857    2.143    4.000    4.571 
#    0.000    0.000    0.000    0.000    0.000    0.000 
#    0.000    0.000    0.000    0.000    0.000    0.000 
#
# Total GULP energy -78378.278967 kJ/mol
# GULP energy per Si atom -5598.448498 kJ/mol
# Density = 2.508069 g / cm^3
# Si number density = 25.137903 Si / 1000 Ang^3
#
#
#
# Elastic Constant Matrix: (Units=GPa)
#
#
# Indices 1 2 3 4 5 6 
#
# 1 136.9597 1.2133 40.7307 -0.0025 10.6128 -0.0002
# 2 1.2133 69.1152 3.2494 -0.0011 12.5699 0.0012
# 3 40.7307 3.2494 64.3499 0.0319 28.1195 0.0108
# 4 -0.0025 -0.0011 0.0319 45.3623 0.0001 2.0458
# 5 10.6128 12.5699 28.1195 0.0001 33.1410 -0.0005
# 6 -0.0002 0.0012 0.0108 2.0458 -0.0005 28.4290
#
#
#
# Elastic Compliance Matrix: (Units=1/GPa)
#
#
# Indices 1 2 3 4 5 6 
#
# 1 0.009211 -0.000439 -0.007298 0.000006 0.003409 0.000003
# 2 -0.000439 0.015897 0.003255 -0.000002 -0.008651 -0.000002
# 3 -0.007298 0.003255 0.031011 -0.000022 -0.025210 -0.000011
# 4 0.000006 -0.000002 -0.000022 0.022117 0.000017 -0.001592
# 5 0.003409 -0.008651 -0.025210 0.000017 0.053754 0.000010
# 6 0.000003 -0.000002 -0.000011 -0.001592 0.000010 0.035290
#
#
# Mechanical properties :
#
#
# Convention : Reuss Voigt Hill
#
# Bulk Modulus (GPa) = 21.20601 40.09020 30.64810
# Shear Modulus (GPa) = 26.04702 36.40187 31.22445
#
# Velocity S-wave (km/s) = 3.22244 3.80950 3.52820
# Velocity P-wave (km/s) = 4.72226 5.94411 5.36806
#
# Compressibility (1/GPa) = 0.04715645
#
# Stress axis : x y z
#
# Youngs Moduli (GPa) = 108.56016 62.90671 32.24664
#
# Poissons Ratio (x) = 0.02758 0.23533
# Poissons Ratio (y) = 0.04760 -0.10496
# Poissons Ratio (z) = 0.79225 -0.20476
#
# Static dielectric constant tensor:
#      x y z
#    x 2.015170 0.000000 0.010580 
#    y 0.000000 1.961500 0.000000 
#    z 0.010580 0.000000 2.015760 
# 
# From -- ./inp_files/70137.got.cif
#   From: 2010.05.17/outbox.cif.g08.bks.cpg/sg5_36_cif.got.tgz:70137.got - 2010.06.03 18:56:24.
