data_PCOD9127820
_publ_section_title
;
Structure prediction by ZEFSAII (Michael W. Deem and Ramdas Pophale) SiO2 
 PCOD9127820
Probable space group: C 2
;
_chemical_formula_sum "Si O2"
_cell_formula_units_Z 28
_cell_length_a 11.484837
_cell_length_b 8.348029
_cell_length_c 25.032534
_cell_angle_alpha 90.000000
_cell_angle_beta 28.069311
_cell_angle_gamma 90.000000
_cell_volume 1129.300512
_symmetry_space_group_name_H-M "C 2"
_symmetry_group_IT_number 5
_symmetry_cell_setting 'monoclinic'
loop_
_space_group_symop_operation_xyz
x,y,z
-x,y,-z
1/2+x,1/2+y,z
1/2-x,1/2+y,-z
loop_
_atom_site_type_symbol
_atom_site_label
_atom_site_fract_x
_atom_site_fract_y
_atom_site_fract_z
Si Si1 0.254387 0.122300 0.425580
Si Si2 0.141475 0.574961 0.496956
Si Si3 0.942785 0.533125 0.874500
Si Si4 0.093638 0.894147 0.257311
Si Si5 0.974397 0.870762 0.105767
Si Si6 0.441592 0.876181 0.275302
Si Si7 0.352257 0.538955 0.260026
O O1 0.261331 0.151267 0.486534
O O2 0.491887 0.217987 0.308083
O O3 0.000000 0.175761 0.500000
O O4 0.298540 0.941255 0.385483
O O5 0.388365 0.496588 0.373396
O O6 0.000000 0.637773 0.500000
O O7 0.915689 0.471128 0.613924
O O8 0.933595 0.711402 0.901296
O O9 0.047271 0.518624 0.772452
O O10 0.136182 0.434276 0.832206
O O11 0.681651 0.443466 0.983680
O O12 0.058248 0.950543 0.211383
O O13 0.717066 0.830192 0.181516
O O14 0.913512 0.004334 0.174753
O O15 0.339907 0.724353 0.283238
#
# Coordination Sequence:
#
# PCOD9127820 Si02
#       7
#     4   4   4   4   4   4   4
#     4  12  25  44  73 113 154 201 252 312 380 456
#     4  10  23  42  72 105 148 197 243 305 371 449
#     4  12  27  48  77 108 147 200 249 317 379 448
#     4  11  25  46  73 106 148 194 249 306 374 451
#     4  12  27  50  75 108 152 195 255 314 378 449
#     4  12  26  48  74 112 149 193 256 306 378 454
#     4  11  23  48  76 107 147 197 245 313 376 448
#
# _framework density 24.794108999999999
#
# number of rings (size 3 to 8) (size 9 to 14) (size 15 to 20)
#    0.000    0.571    2.857    5.143    2.000    5.714 
#    2.571    0.000    0.000    0.000    0.000    0.000 
#    0.000    0.000    0.000    0.000    0.000    0.000 
#
# Total GULP energy -78264.920556 kJ/mol
# GULP energy per Si atom -5590.351468 kJ/mol
# Density = 2.473768 g / cm^3
# Si number density = 24.794109 Si / 1000 Ang^3
#
#
#
# Elastic Constant Matrix: (Units=GPa)
#
#
# Indices 1 2 3 4 5 6 
#
# 1 146.8636 25.7871 28.8621 -0.0005 7.9148 0.0002
# 2 25.7871 105.8508 9.8110 0.0001 1.2289 -0.0001
# 3 28.8621 9.8110 73.2358 -0.0010 -14.2574 -0.0003
# 4 -0.0005 0.0001 -0.0010 30.0469 -0.0001 0.0947
# 5 7.9148 1.2289 -14.2574 -0.0001 35.6391 0.0003
# 6 0.0002 -0.0001 -0.0003 0.0947 0.0003 38.4852
#
#
#
# Elastic Compliance Matrix: (Units=1/GPa)
#
#
# Indices 1 2 3 4 5 6 
#
# 1 0.007947 -0.001573 -0.003529 0.000000 -0.003122 0.000000
# 2 -0.001573 0.009905 -0.000765 0.000000 -0.000298 0.000000
# 3 -0.003529 -0.000765 0.016598 0.000001 0.007450 0.000000
# 4 0.000000 0.000000 0.000001 0.033282 0.000000 -0.000082
# 5 -0.003122 -0.000298 0.007450 0.000000 0.031743 0.000000
# 6 0.000000 0.000000 0.000000 -0.000082 0.000000 0.025984
#
#
# Mechanical properties :
#
#
# Convention : Reuss Voigt Hill
#
# Bulk Modulus (GPa) = 44.02162 50.54116 47.28139
# Shear Modulus (GPa) = 34.53874 38.26692 36.40283
#
# Velocity S-wave (km/s) = 3.73637 3.93286 3.83587
# Velocity P-wave (km/s) = 6.03385 6.40717 6.22331
#
# Compressibility (1/GPa) = 0.02271611
#
# Stress axis : x y z
#
# Youngs Moduli (GPa) = 125.83353 100.96136 60.24736
#
# Poissons Ratio (x) = 0.15878 0.21262
# Poissons Ratio (y) = 0.19790 0.04610
# Poissons Ratio (z) = 0.44408 0.07725
#
# Static dielectric constant tensor:
#      x y z
#    x 1.982070 0.000000 0.014160 
#    y 0.000000 2.034950 0.000000 
#    z 0.014160 0.000000 1.914250 
# 
# From -- ./inp_files/70354.got.cif
#   From: 2010.05.17/outbox.cif.g08.bks.cpg/sg5_36_cif.got.tgz:70354.got - 2010.06.03 18:56:24.
