data_PCOD9127489
_publ_section_title
;
Structure prediction by ZEFSAII (Michael W. Deem and Ramdas Pophale) SiO2 
 PCOD9127489
Probable space group: C 2
;
_chemical_formula_sum "Si O2"
_cell_formula_units_Z 22
_cell_length_a 24.681776
_cell_length_b 4.860283
_cell_length_c 14.566960
_cell_angle_alpha 90.000000
_cell_angle_beta 151.768828
_cell_angle_gamma 90.000000
_cell_volume 826.600635
_symmetry_space_group_name_H-M "C 2"
_symmetry_group_IT_number 5
_symmetry_cell_setting 'monoclinic'
loop_
_space_group_symop_operation_xyz
x,y,z
-x,y,-z
1/2+x,1/2+y,z
1/2-x,1/2+y,-z
loop_
_atom_site_type_symbol
_atom_site_label
_atom_site_fract_x
_atom_site_fract_y
_atom_site_fract_z
Si Si1 0.383289 0.795140 0.492300
Si Si2 0.573635 0.633884 0.918697
Si Si3 0.634429 0.117044 0.118430
Si Si4 0.767136 0.953352 0.586105
Si Si5 0.226451 0.869630 0.908382
Si Si6 0.000000 0.609570 0.500000
O O1 0.474080 0.658770 0.695607
O O2 0.272780 0.606614 0.306648
O O3 0.320544 0.022960 0.462826
O O4 0.443750 0.923619 0.495215
O O5 0.585478 0.326459 0.970611
O O6 0.685144 0.746927 0.032420
O O7 0.572883 0.830728 0.007503
O O8 0.634014 0.274323 0.216234
O O9 0.791746 0.230448 0.569282
O O10 0.098208 0.799602 0.689157
O O11 0.253339 0.687587 0.039518
#
# Coordination Sequence:
#
# PCOD9127489 Si02
#       6
#     4   4   4   4   4   2
#     4  10  26  42  76 101 143 185 237 283 357 413
#     4  12  23  45  67 103 142 181 238 278 350 419
#     4  10  25  43  72  99 140 178 225 296 343 408
#     4  10  22  47  75  99 139 180 234 293 348 409
#     4  12  26  42  64  98 141 188 235 284 335 421
#     4  12  24  46  70 106 144 194 228 286 362 408
#
# _framework density 26.615030000000001
#
# number of rings (size 3 to 8) (size 9 to 14) (size 15 to 20)
#    1.091    0.000    3.636    2.182    0.000    5.091 
#    0.000    5.455    0.000    0.000    0.000    0.000 
#    0.000    0.000    0.000    0.000    0.000    0.000 
#
# Total GULP energy -61647.363420 kJ/mol
# GULP energy per Si atom -5604.305765 kJ/mol
# Density = 2.655445 g / cm^3
# Si number density = 26.615030 Si / 1000 Ang^3
#
#
#
# Elastic Constant Matrix: (Units=GPa)
#
#
# Indices 1 2 3 4 5 6 
#
# 1 138.7618 24.6989 12.4103 -0.0001 -1.5206 0.0000
# 2 24.6989 122.1558 39.0660 0.0009 -9.0949 0.0004
# 3 12.4103 39.0660 203.3406 0.0000 -1.2217 0.0001
# 4 -0.0001 0.0009 0.0000 27.6135 0.0001 -8.3070
# 5 -1.5206 -9.0949 -1.2217 0.0001 29.1874 0.0000
# 6 0.0000 0.0004 0.0001 -8.3070 0.0000 26.9815
#
#
#
# Elastic Compliance Matrix: (Units=1/GPa)
#
#
# Indices 1 2 3 4 5 6 
#
# 1 0.007482 -0.001462 -0.000176 0.000000 -0.000073 0.000000
# 2 -0.001462 0.009217 -0.001665 0.000000 0.002726 0.000000
# 3 -0.000176 -0.001665 0.005247 0.000000 -0.000308 0.000000
# 4 0.000000 0.000000 0.000000 0.039911 0.000000 0.012288
# 5 -0.000073 0.002726 -0.000308 0.000000 0.035094 0.000000
# 6 0.000000 0.000000 0.000000 0.012288 0.000000 0.040845
#
#
# Mechanical properties :
#
#
# Convention : Reuss Voigt Hill
#
# Bulk Modulus (GPa) = 65.19243 68.51206 66.85224
# Shear Modulus (GPa) = 33.44130 42.62869 38.03499
#
# Velocity S-wave (km/s) = 3.54853 4.00644 3.78442
# Velocity P-wave (km/s) = 6.42940 6.87021 6.65346
#
# Compressibility (1/GPa) = 0.01533920
#
# Stress axis : x y z
#
# Youngs Moduli (GPa) = 133.65850 108.49073 190.59640
#
# Poissons Ratio (x) = 0.15860 0.03359
# Poissons Ratio (y) = 0.19539 0.31739
# Poissons Ratio (z) = 0.02355 0.18066
#
# Static dielectric constant tensor:
#      x y z
#    x 2.172020 0.000000 -0.009060 
#    y 0.000000 1.975260 0.000000 
#    z -0.009060 0.000000 2.070050 
# 
# From -- ./inp_files/58013.got.cif
#   From: 2010.05.17/outbox.cif.g08.bks.cpg/sg5_30_cif.got.tgz:58013.got - 2010.06.03 18:56:24.
