data_PCOD9127189
_publ_section_title
;
Structure prediction by ZEFSAII (Michael W. Deem and Ramdas Pophale) SiO2 
 PCOD9127189
Probable space group: C 2
;
_chemical_formula_sum "Si O2"
_cell_formula_units_Z 30
_cell_length_a 11.082380
_cell_length_b 8.923270
_cell_length_c 29.072919
_cell_angle_alpha 90.000000
_cell_angle_beta 148.043671
_cell_angle_gamma 90.000000
_cell_volume 1521.686629
_symmetry_space_group_name_H-M "C 2"
_symmetry_group_IT_number 5
_symmetry_cell_setting 'monoclinic'
loop_
_space_group_symop_operation_xyz
x,y,z
-x,y,-z
1/2+x,1/2+y,z
1/2-x,1/2+y,-z
loop_
_atom_site_type_symbol
_atom_site_label
_atom_site_fract_x
_atom_site_fract_y
_atom_site_fract_z
Si Si1 0.000000 0.933571 0.000000
Si Si2 0.805409 0.204691 0.155399
Si Si3 0.022916 0.870081 0.605989
Si Si4 0.467566 0.644542 0.078625
Si Si5 0.781369 0.646782 0.261103
Si Si6 0.712809 0.136591 0.539174
Si Si7 0.036349 0.363671 0.312328
Si Si8 0.067321 0.454592 0.972711
O O1 0.195158 0.821744 0.083152
O O2 0.962568 0.046874 0.030602
O O3 0.629254 0.068884 0.106592
O O4 0.049877 0.143897 0.216833
O O5 0.850540 0.295031 0.217180
O O6 0.894221 0.748541 0.532917
O O7 0.088880 0.787649 0.675010
O O8 0.251824 0.914046 0.651739
O O9 0.862273 0.009398 0.564105
O O10 0.701363 0.659607 0.182185
O O11 0.386992 0.813164 0.044103
O O12 0.289577 0.553769 0.051722
O O13 0.932601 0.497210 0.309288
O O14 0.500000 0.074087 0.500000
O O15 0.867143 0.234322 0.623620
O O16 0.000000 0.389468 0.000000
#
# Coordination Sequence:
#
# PCOD9127189 Si02
#       8
#     2   4   4   4   4   4   4   4
#     4  12  22  44  66  88 130 182 226 270 324 376
#     4  11  22  41  62  88 130 168 215 272 315 372
#     4  10  23  41  66  96 126 162 204 256 313 388
#     4  12  25  41  65  91 128 173 225 270 323 380
#     4  11  22  41  62  92 130 164 206 265 319 365
#     4  10  22  44  68  94 124 162 204 249 319 384
#     4  10  23  41  62  92 127 163 202 259 316 377
#     4  12  24  42  62  90 121 173 222 265 321 376
#
# _framework density 19.714967000000001
#
# number of rings (size 3 to 8) (size 9 to 14) (size 15 to 20)
#    0.000    1.067    4.000    2.400    1.867    1.067 
#    2.400    0.000    0.000    0.000    0.000    0.000 
#    0.000    0.000    0.000    0.000    0.000    0.000 
#
# Total GULP energy -83722.768493 kJ/mol
# GULP energy per Si atom -5581.517900 kJ/mol
# Density = 1.967009 g / cm^3
# Si number density = 19.714967 Si / 1000 Ang^3
#
#
#
# Elastic Constant Matrix: (Units=GPa)
#
#
# Indices 1 2 3 4 5 6 
#
# 1 55.3194 37.2383 10.7737 0.0000 2.2722 0.0000
# 2 37.2383 99.2694 21.6915 0.0000 11.0402 0.0000
# 3 10.7737 21.6915 80.6438 0.0000 -3.9296 0.0000
# 4 0.0000 0.0000 0.0000 21.0121 0.0000 1.5816
# 5 2.2722 11.0402 -3.9296 0.0000 19.3688 0.0000
# 6 0.0000 0.0000 0.0000 1.5816 0.0000 33.7679
#
#
#
# Elastic Compliance Matrix: (Units=1/GPa)
#
#
# Indices 1 2 3 4 5 6 
#
# 1 0.024328 -0.009236 -0.000655 0.000000 0.002278 0.000000
# 2 -0.009236 0.015161 -0.003244 0.000000 -0.008217 0.000000
# 3 -0.000655 -0.003244 0.013589 0.000000 0.004683 0.000000
# 4 0.000000 0.000000 0.000000 0.047760 0.000000 -0.002237
# 5 0.002278 -0.008217 0.004683 0.000000 0.056996 0.000000
# 6 0.000000 0.000000 0.000000 -0.002237 0.000000 0.029719
#
#
# Mechanical properties :
#
#
# Convention : Reuss Voigt Hill
#
# Bulk Modulus (GPa) = 37.30402 41.62663 39.46533
# Shear Modulus (GPa) = 22.44576 25.86503 24.15540
#
# Velocity S-wave (km/s) = 3.37785 3.62601 3.50413
# Velocity P-wave (km/s) = 5.84602 6.22018 6.03600
#
# Compressibility (1/GPa) = 0.02680676
#
# Stress axis : x y z
#
# Youngs Moduli (GPa) = 41.10447 65.95819 73.59123
#
# Poissons Ratio (x) = 0.60921 0.04819
# Poissons Ratio (y) = 0.37966 0.23876
# Poissons Ratio (z) = 0.02691 0.21400
#
# Static dielectric constant tensor:
#      x y z
#    x 1.727280 0.000000 -0.007230 
#    y 0.000000 1.651270 0.000000 
#    z -0.007230 0.000000 1.704020 
# 
# From -- ./inp_files/60293.got.cif
#   From: 2010.05.17/outbox.cif.g08.bks.cpg/sg5_31_cif.got.tgz:60293.got - 2010.06.03 18:56:24.
