data_PCOD9127617
_publ_section_title
;
Structure prediction by ZEFSAII (Michael W. Deem and Ramdas Pophale) SiO2 
 PCOD9127617
Probable space group: C 2
;
_chemical_formula_sum "Si O2"
_cell_formula_units_Z 28
_cell_length_a 23.067085
_cell_length_b 13.766392
_cell_length_c 9.879105
_cell_angle_alpha 90.000000
_cell_angle_beta 29.937198
_cell_angle_gamma 90.000000
_cell_volume 1565.578682
_symmetry_space_group_name_H-M "C 2"
_symmetry_group_IT_number 5
_symmetry_cell_setting 'monoclinic'
loop_
_space_group_symop_operation_xyz
x,y,z
-x,y,-z
1/2+x,1/2+y,z
1/2-x,1/2+y,-z
loop_
_atom_site_type_symbol
_atom_site_label
_atom_site_fract_x
_atom_site_fract_y
_atom_site_fract_z
Si Si1 0.868193 0.524870 0.769760
Si Si2 0.263301 0.471053 0.690980
Si Si3 0.502018 0.358767 0.249357
Si Si4 0.000000 0.718644 0.000000
Si Si5 0.861587 0.343067 0.281248
Si Si6 0.236893 0.973498 0.758819
Si Si7 0.000000 0.715125 0.500000
Si Si8 0.249347 0.131200 0.508601
O O1 0.805717 0.503007 0.754562
O O2 0.000000 0.483015 0.500000
O O3 0.892882 0.640511 0.736176
O O4 0.797068 0.487764 0.042500
O O5 0.390962 0.426520 0.450585
O O6 0.189895 0.397289 0.746123
O O7 0.267680 0.569150 0.593330
O O8 0.521727 0.290272 0.080531
O O9 0.479796 0.284503 0.415254
O O10 0.616619 0.422063 0.041001
O O11 0.886038 0.654037 0.251209
O O12 0.810354 0.399615 0.515437
O O13 0.817008 0.232723 0.367610
O O14 0.000000 0.348031 0.000000
O O15 0.212168 0.065552 0.711452
#
# Coordination Sequence:
#
# PCOD9127617 Si02
#       8
#     4   4   4   2   4   4   2   4
#     4  10  23  40  65  91 121 159 216 259 314 371
#     4  11  24  41  63  94 127 166 210 266 316 373
#     4  12  22  42  64  93 125 165 213 264 314 371
#     4  12  20  40  66  94 118 166 224 248 298 382
#     4  11  24  39  63  91 129 168 207 259 319 371
#     4  11  24  41  63  94 127 166 210 266 316 373
#     4  10  24  40  68  88 118 168 220 256 310 376
#     4  11  24  39  64  93 128 164 216 257 316 375
#
# _framework density 17.88476
#
# number of rings (size 3 to 8) (size 9 to 14) (size 15 to 20)
#    0.429    0.571    2.857    4.286    8.000    0.000 
#    0.000    0.000    0.000    0.000    0.000    0.000 
#    0.000    0.000    0.000    0.000    0.000    0.000 
#
# Total GULP energy -78204.441437 kJ/mol
# GULP energy per Si atom -5586.031531 kJ/mol
# Density = 1.784405 g / cm^3
# Si number density = 17.884760 Si / 1000 Ang^3
#
#
#
# Elastic Constant Matrix: (Units=GPa)
#
#
# Indices 1 2 3 4 5 6 
#
# 1 103.5036 36.5555 26.1080 0.0000 0.3959 0.0000
# 2 36.5555 112.0168 28.0162 0.0000 -4.3357 0.0000
# 3 26.1080 28.0162 66.6508 0.0000 -15.2820 0.0000
# 4 0.0000 0.0000 0.0000 35.8124 0.0000 -4.7379
# 5 0.3959 -4.3357 -15.2820 0.0000 46.4207 0.0000
# 6 0.0000 0.0000 0.0000 -4.7379 0.0000 33.7939
#
#
#
# Elastic Compliance Matrix: (Units=1/GPa)
#
#
# Indices 1 2 3 4 5 6 
#
# 1 0.011635 -0.002936 -0.003687 0.000000 -0.001587 0.000000
# 2 -0.002936 0.010727 -0.003379 0.000000 -0.000085 0.000000
# 3 -0.003687 -0.003379 0.019256 0.000000 0.006055 0.000000
# 4 0.000000 0.000000 0.000000 0.028451 0.000000 0.003989
# 5 -0.001587 -0.000085 0.006055 0.000000 0.023541 0.000000
# 6 0.000000 0.000000 0.000000 0.003989 0.000000 0.030150
#
#
# Mechanical properties :
#
#
# Convention : Reuss Voigt Hill
#
# Bulk Modulus (GPa) = 46.26525 51.50342 48.88433
# Shear Modulus (GPa) = 33.11936 35.97149 34.54542
#
# Velocity S-wave (km/s) = 4.30795 4.48961 4.39972
# Velocity P-wave (km/s) = 7.11823 7.46561 7.29399
#
# Compressibility (1/GPa) = 0.02161450
#
# Stress axis : x y z
#
# Youngs Moduli (GPa) = 85.95043 93.22204 51.93071
#
# Poissons Ratio (x) = 0.27371 0.19148
# Poissons Ratio (y) = 0.25236 0.17545
# Poissons Ratio (z) = 0.31692 0.31495
#
# Static dielectric constant tensor:
#      x y z
#    x 1.571110 0.000000 -0.011950 
#    y 0.000000 1.593610 0.000000 
#    z -0.011950 0.000000 1.584320 
# 
# From -- ./inp_files/29583.got.cif
#   From: 2010.05.17/outbox.cif.g08.bks.cpg/sg5_15_cif.got.tgz:29583.got - 2010.06.03 18:56:24.
