data_PCOD9127485
_publ_section_title
;
Structure prediction by ZEFSAII (Michael W. Deem and Ramdas Pophale) SiO2 
 PCOD9127485
Probable space group: C 2
;
_chemical_formula_sum "Si O2"
_cell_formula_units_Z 28
_cell_length_a 6.154228
_cell_length_b 19.549708
_cell_length_c 11.559421
_cell_angle_alpha 90.000000
_cell_angle_beta 57.149485
_cell_angle_gamma 90.000000
_cell_volume 1168.355668
_symmetry_space_group_name_H-M "C 2"
_symmetry_group_IT_number 5
_symmetry_cell_setting 'monoclinic'
loop_
_space_group_symop_operation_xyz
x,y,z
-x,y,-z
1/2+x,1/2+y,z
1/2-x,1/2+y,-z
loop_
_atom_site_type_symbol
_atom_site_label
_atom_site_fract_x
_atom_site_fract_y
_atom_site_fract_z
Si Si1 0.235636 0.189430 0.018172
Si Si2 0.476129 0.850850 0.261131
Si Si3 0.324169 0.699549 0.323334
Si Si4 0.480782 0.100682 0.749878
Si Si5 0.500000 0.359340 0.000000
Si Si6 0.756665 0.949337 0.865186
Si Si7 0.324622 0.976322 0.658502
Si Si8 0.500000 0.632340 0.500000
O O1 0.356937 0.129625 0.903285
O O2 0.500000 0.218778 0.000000
O O3 0.000000 0.220748 0.000000
O O4 0.070180 0.173214 0.178429
O O5 0.312144 0.782018 0.325999
O O6 0.344775 0.897909 0.203084
O O7 0.746545 0.826017 0.128975
O O8 0.561610 0.901274 0.340753
O O9 0.105865 0.658140 0.318705
O O10 0.367304 0.678246 0.441083
O O11 0.368314 0.026933 0.753167
O O12 0.783698 0.092629 0.635557
O O13 0.616890 0.406278 0.067290
O O14 0.500000 0.983507 0.000000
O O15 0.014927 0.981460 0.732718
O O16 0.500000 0.000949 0.500000
#
# Coordination Sequence:
#
# PCOD9127485 Si02
#       8
#     4   4   4   4   2   4   4   2
#     4  10  22  47  73 110 145 194 256 325 380 468
#     4  10  23  41  70 103 143 194 242 314 380 460
#     4  11  25  44  71 111 146 191 256 323 385 466
#     4  11  26  48  72 104 147 201 253 315 389 469
#     4   8  18  38  64  98 134 184 232 302 374 442
#     4   9  20  44  68 101 139 189 246 310 376 449
#     4  11  25  47  70 104 151 196 254 308 386 476
#     4  12  24  44  76 100 148 194 242 316 392 466
#
# _framework density 23.965304
#
# number of rings (size 3 to 8) (size 9 to 14) (size 15 to 20)
#    0.000    1.714    1.429    1.286    2.000   10.286 
#   25.714    0.000    0.000    0.000    0.000    0.000 
#    0.000    0.000    0.000    0.000    0.000    0.000 
#
# Total GULP energy -77962.044420 kJ/mol
# GULP energy per Si atom -5568.717459 kJ/mol
# Density = 2.391076 g / cm^3
# Si number density = 23.965304 Si / 1000 Ang^3
#
#
#
# Elastic Constant Matrix: (Units=GPa)
#
#
# Indices 1 2 3 4 5 6 
#
# 1 111.4511 36.5323 42.4294 0.0000 -18.8538 0.0000
# 2 36.5323 98.9427 16.5890 0.0000 -0.1596 0.0000
# 3 42.4294 16.5890 138.0116 0.0000 -13.8010 0.0000
# 4 0.0000 0.0000 0.0000 28.9199 0.0000 13.8121
# 5 -18.8538 -0.1596 -13.8010 0.0000 53.9250 0.0000
# 6 0.0000 0.0000 0.0000 13.8121 0.0000 10.3292
#
#
#
# Elastic Compliance Matrix: (Units=1/GPa)
#
#
# Indices 1 2 3 4 5 6 
#
# 1 0.011922 -0.003918 -0.002852 0.000000 0.003427 0.000000
# 2 -0.003918 0.011607 -0.000333 0.000000 -0.001421 0.000000
# 3 -0.002852 -0.000333 0.008274 0.000000 0.001120 0.000000
# 4 0.000000 0.000000 0.000000 0.095689 0.000000 -0.127954
# 5 0.003427 -0.001421 0.001120 0.000000 0.020025 0.000000
# 6 0.000000 0.000000 0.000000 -0.127954 0.000000 0.267913
#
#
# Mechanical properties :
#
#
# Convention : Reuss Voigt Hill
#
# Bulk Modulus (GPa) = 56.82284 59.94520 58.38402
# Shear Modulus (GPa) = 11.48101 35.49178 23.48640
#
# Velocity S-wave (km/s) = 2.19114 3.85251 3.13392
# Velocity P-wave (km/s) = 5.49212 6.69751 6.12454
#
# Compressibility (1/GPa) = 0.01759856
#
# Stress axis : x y z
#
# Youngs Moduli (GPa) = 83.87653 86.15409 120.85475
#
# Poissons Ratio (x) = 0.33759 0.34463
# Poissons Ratio (y) = 0.32866 0.04020
# Poissons Ratio (z) = 0.23918 0.02866
#
# Static dielectric constant tensor:
#      x y z
#    x 1.976320 0.000000 -0.042510 
#    y 0.000000 1.953830 0.000000 
#    z -0.042510 0.000000 1.917970 
# 
# From -- ./inp_files/33896.got.cif
#   From: 2010.05.17/outbox.cif.g08.bks.cpg/sg5_17_cif.got.tgz:33896.got - 2010.06.03 18:56:24.
