data_PCOD9127883
_publ_section_title
;
Structure prediction by ZEFSAII (Michael W. Deem and Ramdas Pophale) SiO2 
 PCOD9127883
Probable space group: C 2
;
_chemical_formula_sum "Si O2"
_cell_formula_units_Z 26
_cell_length_a 14.366388
_cell_length_b 8.561488
_cell_length_c 14.237876
_cell_angle_alpha 90.000000
_cell_angle_beta 143.419873
_cell_angle_gamma 90.000000
_cell_volume 1043.636448
_symmetry_space_group_name_H-M "C 2"
_symmetry_group_IT_number 5
_symmetry_cell_setting 'monoclinic'
loop_
_space_group_symop_operation_xyz
x,y,z
-x,y,-z
1/2+x,1/2+y,z
1/2-x,1/2+y,-z
loop_
_atom_site_type_symbol
_atom_site_label
_atom_site_fract_x
_atom_site_fract_y
_atom_site_fract_z
Si Si1 0.574794 0.408570 0.764097
Si Si2 0.500000 0.621388 0.000000
Si Si3 0.288504 0.912356 0.166292
Si Si4 0.746585 0.835153 0.563965
Si Si5 0.255517 0.158017 0.008652
Si Si6 0.198677 0.194999 0.330913
Si Si7 0.500000 0.793118 0.500000
Si Si8 0.500000 0.369736 0.500000
O O1 0.430234 0.310442 0.689428
O O2 0.721590 0.292521 0.894105
O O3 0.544454 0.457420 0.632456
O O4 0.604509 0.558777 0.852531
O O5 0.354320 0.511382 0.908840
O O6 0.435141 0.709242 0.856254
O O7 0.418636 0.884427 0.348647
O O8 0.354211 0.017347 0.134004
O O9 0.216045 0.755527 0.063068
O O10 0.667935 0.792352 0.401031
O O11 0.657772 0.735807 0.572599
O O12 0.755757 0.017152 0.602427
O O13 0.353300 0.265536 0.408752
#
# Coordination Sequence:
#
# PCOD9127883 Si02
#       8
#     4   2   4   4   4   4   2   2
#     4  10  23  45  72 106 143 184 232 294 356 427
#     4  12  24  44  72 104 144 184 232 300 362 422
#     4  11  26  44  73 101 138 189 237 292 358 427
#     4  11  26  45  73 104 142 190 245 291 346 433
#     4  10  23  43  70 102 142 179 228 295 360 408
#     4  11  24  47  72 105 142 185 237 295 361 423
#     4  12  27  45  72 102 139 203 244 282 351 437
#     4  10  23  45  74 102 139 185 232 292 357 439
#
# _framework density 24.912889
#
# number of rings (size 3 to 8) (size 9 to 14) (size 15 to 20)
#    0.000    1.231    1.538    3.231    8.615    0.615 
#    2.769    0.000    0.000    2.769    0.000    0.000 
#    0.000    0.000    0.000    0.000    0.000    0.000 
#
# Total GULP energy -72486.193352 kJ/mol
# GULP energy per Si atom -5575.861027 kJ/mol
# Density = 2.485619 g / cm^3
# Si number density = 24.912889 Si / 1000 Ang^3
#
#
#
# Elastic Constant Matrix: (Units=GPa)
#
#
# Indices 1 2 3 4 5 6 
#
# 1 131.6526 25.5821 44.9153 0.0000 -12.4525 0.0000
# 2 25.5821 56.1914 40.6441 0.0000 -9.6464 0.0000
# 3 44.9153 40.6441 178.9141 0.0000 -43.1031 0.0000
# 4 0.0000 0.0000 0.0000 45.4387 0.0000 0.6645
# 5 -12.4525 -9.6464 -43.1031 0.0000 49.9421 0.0000
# 6 0.0000 0.0000 0.0000 0.6645 0.0000 32.4935
#
#
#
# Elastic Compliance Matrix: (Units=1/GPa)
#
#
# Indices 1 2 3 4 5 6 
#
# 1 0.008675 -0.002842 -0.001443 0.000000 0.000368 0.000000
# 2 -0.002842 0.022227 -0.004384 0.000000 -0.000199 0.000000
# 3 -0.001443 -0.004384 0.008404 0.000000 0.006047 0.000000
# 4 0.000000 0.000000 0.000000 0.022014 0.000000 -0.000450
# 5 0.000368 -0.000199 0.006047 0.000000 0.025295 0.000000
# 6 0.000000 0.000000 0.000000 -0.000450 0.000000 0.030785
#
#
# Mechanical properties :
#
#
# Convention : Reuss Voigt Hill
#
# Bulk Modulus (GPa) = 45.52153 65.44901 55.48527
# Shear Modulus (GPa) = 35.19584 42.61596 38.90590
#
# Velocity S-wave (km/s) = 3.76274 4.14043 3.95609
# Velocity P-wave (km/s) = 6.09833 7.01325 6.57173
#
# Compressibility (1/GPa) = 0.02196763
#
# Stress axis : x y z
#
# Youngs Moduli (GPa) = 115.26913 44.99038 118.98734
#
# Poissons Ratio (x) = 0.12788 0.17176
# Poissons Ratio (y) = 0.32763 0.52161
# Poissons Ratio (z) = 0.16639 0.19722
#
# Static dielectric constant tensor:
#      x y z
#    x 2.049500 0.000000 0.038130 
#    y 0.000000 2.006770 0.000000 
#    z 0.038130 0.000000 1.988860 
# 
# From -- ./inp_files/54283.got.cif
#   From: 2010.05.17/outbox.cif.g08.bks.cpg/sg5_28_cif.got.tgz:54283.got - 2010.06.03 18:56:24.
