data_PCOD9127737
_publ_section_title
;
Structure prediction by ZEFSAII (Michael W. Deem and Ramdas Pophale) SiO2 
 PCOD9127737
Probable space group: C 2
;
_chemical_formula_sum "Si O2"
_cell_formula_units_Z 24
_cell_length_a 22.754545
_cell_length_b 4.961167
_cell_length_c 9.445459
_cell_angle_alpha 90.000000
_cell_angle_beta 116.560198
_cell_angle_gamma 90.000000
_cell_volume 953.758572
_symmetry_space_group_name_H-M "C 2"
_symmetry_group_IT_number 5
_symmetry_cell_setting 'monoclinic'
loop_
_space_group_symop_operation_xyz
x,y,z
-x,y,-z
1/2+x,1/2+y,z
1/2-x,1/2+y,-z
loop_
_atom_site_type_symbol
_atom_site_label
_atom_site_fract_x
_atom_site_fract_y
_atom_site_fract_z
Si Si1 0.461459 0.884470 0.210607
Si Si2 0.927332 0.747290 0.671638
Si Si3 0.214693 0.934138 0.421115
Si Si4 0.215565 0.230451 0.128018
Si Si5 0.500000 0.543579 0.500000
Si Si6 0.838505 0.734888 0.080067
Si Si7 0.500000 0.561586 0.000000
O O1 0.454243 0.717317 0.346000
O O2 0.413572 0.140494 0.170451
O O3 0.453520 0.739665 0.051305
O O4 0.539435 0.955061 0.291715
O O5 0.850748 0.788870 0.596226
O O6 0.955787 0.873154 0.558843
O O7 0.958378 0.883852 0.845670
O O8 0.262749 0.677874 0.451504
O O9 0.204390 0.105774 0.268248
O O10 0.291898 0.192674 0.165794
O O11 0.173797 0.040932 0.976950
O O12 0.192717 0.534089 0.072296
#
# Coordination Sequence:
#
# PCOD9127737 Si02
#       7
#     4   4   4   4   2   4   2
#     4  11  24  41  71 101 142 187 233 306 359 426
#     4  11  26  46  71 107 142 189 247 295 368 426
#     4  12  29  46  73 102 150 196 233 291 359 443
#     4  10  23  45  66 105 136 182 241 288 342 437
#     4  10  26  44  66 100 140 182 238 302 354 442
#     4  10  23  41  73  98 138 182 236 295 354 406
#     4  10  24  42  72 106 138 182 236 308 352 428
#
# _framework density 25.163602999999998
#
# number of rings (size 3 to 8) (size 9 to 14) (size 15 to 20)
#    0.000    1.333    0.000    3.000   16.333    1.333 
#    0.000    0.000    0.000    0.000    0.000    0.000 
#    0.000    0.000    0.000    0.000    0.000    0.000 
#
# Total GULP energy -67197.040248 kJ/mol
# GULP energy per Si atom -5599.753354 kJ/mol
# Density = 2.510633 g / cm^3
# Si number density = 25.163603 Si / 1000 Ang^3
#
#
#
# Elastic Constant Matrix: (Units=GPa)
#
#
# Indices 1 2 3 4 5 6 
#
# 1 103.1713 1.9873 27.7225 0.0000 -1.5318 0.0000
# 2 1.9873 70.2607 13.3988 0.0000 0.2716 0.0000
# 3 27.7225 13.3988 103.4451 0.0000 -23.6254 0.0000
# 4 0.0000 0.0000 0.0000 31.4948 0.0000 5.6524
# 5 -1.5318 0.2716 -23.6254 0.0000 27.2943 0.0000
# 6 0.0000 0.0000 0.0000 5.6524 0.0000 34.0396
#
#
#
# Elastic Compliance Matrix: (Units=1/GPa)
#
#
# Indices 1 2 3 4 5 6 
#
# 1 0.010570 0.000363 -0.003421 0.000000 -0.002372 0.000000
# 2 0.000363 0.014714 -0.002533 0.000000 -0.002318 0.000000
# 3 -0.003421 -0.002533 0.013553 0.000000 0.011564 0.000000
# 4 0.000000 0.000000 0.000000 0.032727 0.000000 -0.005434
# 5 -0.002372 -0.002318 0.011564 0.000000 0.046537 0.000000
# 6 0.000000 0.000000 0.000000 -0.005434 0.000000 0.030280
#
#
# Mechanical properties :
#
#
# Convention : Reuss Voigt Hill
#
# Bulk Modulus (GPa) = 36.16005 40.34383 38.25194
# Shear Modulus (GPa) = 29.62407 34.15030 31.88719
#
# Velocity S-wave (km/s) = 3.43484 3.68792 3.56363
# Velocity P-wave (km/s) = 5.48927 5.84823 5.67159
#
# Compressibility (1/GPa) = 0.02765483
#
# Stress axis : x y z
#
# Youngs Moduli (GPa) = 94.60988 67.96083 73.78448
#
# Poissons Ratio (x) = -0.02465 0.25244
# Poissons Ratio (y) = -0.03431 0.18686
# Poissons Ratio (z) = 0.32368 0.17211
#
# Static dielectric constant tensor:
#      x y z
#    x 1.988910 0.000000 0.057940 
#    y 0.000000 1.983830 0.000000 
#    z 0.057940 0.000000 2.015780 
# 
# From -- ./inp_files/30279.got.cif
#   From: 2010.05.17/outbox.cif.g08.bks.cpg/sg5_16_cif.got.tgz:30279.got - 2010.06.03 18:56:24.
