data_PCOD9127505
_publ_section_title
;
Structure prediction by ZEFSAII (Michael W. Deem and Ramdas Pophale) SiO2 
 PCOD9127505
Probable space group: C 2
;
_chemical_formula_sum "Si O2"
_cell_formula_units_Z 22
_cell_length_a 12.854637
_cell_length_b 9.477029
_cell_length_c 19.774243
_cell_angle_alpha 90.000000
_cell_angle_beta 22.536973
_cell_angle_gamma 90.000000
_cell_volume 923.309963
_symmetry_space_group_name_H-M "C 2"
_symmetry_group_IT_number 5
_symmetry_cell_setting 'monoclinic'
loop_
_space_group_symop_operation_xyz
x,y,z
-x,y,-z
1/2+x,1/2+y,z
1/2-x,1/2+y,-z
loop_
_atom_site_type_symbol
_atom_site_label
_atom_site_fract_x
_atom_site_fract_y
_atom_site_fract_z
Si Si1 0.704891 0.272160 0.819902
Si Si2 0.816077 0.355136 0.169762
Si Si3 0.927284 0.567663 0.216339
Si Si4 0.500000 0.975077 0.500000
Si Si5 0.759541 0.742099 0.442415
Si Si6 0.042895 0.059768 0.866493
O O1 0.598302 0.210985 0.812481
O O2 0.680428 0.441779 0.831415
O O3 0.011473 0.215675 0.643128
O O4 0.500000 0.225497 0.000000
O O5 0.530427 0.297219 0.314305
O O6 0.981012 0.214756 0.089787
O O7 0.781390 0.453246 0.256224
O O8 0.000000 0.423156 0.000000
O O9 0.816882 0.612437 0.356405
O O10 0.237055 0.515820 0.033941
O O11 0.636136 0.870293 0.472480
O O12 0.255201 0.064779 0.677595
#
# Coordination Sequence:
#
# PCOD9127505 Si02
#       6
#     4   4   4   2   4   4
#     4  11  25  46  70 103 146 199 243 309 380 446
#     4  12  25  42  73 115 148 193 254 316 370 455
#     4  12  23  46  74 101 150 199 245 311 374 448
#     4  10  22  48  68 100 150 204 234 316 372 442
#     4  11  23  48  72 102 153 192 249 306 380 440
#     4  11  23  44  71 105 151 191 247 309 384 432
#
# _framework density 23.827318999999999
#
# number of rings (size 3 to 8) (size 9 to 14) (size 15 to 20)
#    0.000    0.727    5.455    3.273    0.000    4.364 
#    6.545    0.000    0.000    0.000    0.000    0.000 
#    0.000    0.000    0.000    0.000    0.000    0.000 
#
# Total GULP energy -61511.355856 kJ/mol
# GULP energy per Si atom -5591.941441 kJ/mol
# Density = 2.377309 g / cm^3
# Si number density = 23.827319 Si / 1000 Ang^3
#
#
#
# Elastic Constant Matrix: (Units=GPa)
#
#
# Indices 1 2 3 4 5 6 
#
# 1 79.5613 24.6646 60.7822 0.0010 -8.9431 0.0041
# 2 24.6646 107.0365 14.4559 -0.0191 9.6839 0.0063
# 3 60.7822 14.4559 211.1187 -0.0006 14.0177 0.0014
# 4 0.0010 -0.0191 -0.0006 31.1252 -0.0081 1.4437
# 5 -8.9431 9.6839 14.0177 -0.0081 44.8685 -0.0030
# 6 0.0041 0.0063 0.0014 1.4437 -0.0030 26.8029
#
#
#
# Elastic Compliance Matrix: (Units=1/GPa)
#
#
# Indices 1 2 3 4 5 6 
#
# 1 0.018825 -0.004165 -0.005559 -0.000002 0.006388 -0.000001
# 2 -0.004165 0.010508 0.000700 0.000006 -0.003317 -0.000003
# 3 -0.005559 0.000700 0.006508 0.000000 -0.003292 0.000000
# 4 -0.000002 0.000006 0.000000 0.032209 0.000004 -0.001735
# 5 0.006388 -0.003317 -0.003292 0.000004 0.025305 0.000003
# 6 -0.000001 -0.000003 0.000000 -0.001735 0.000003 0.037403
#
#
# Mechanical properties :
#
#
# Convention : Reuss Voigt Hill
#
# Bulk Modulus (GPa) = 56.20284 66.39132 61.29708
# Shear Modulus (GPa) = 32.31319 40.41357 36.36338
#
# Velocity S-wave (km/s) = 3.68658 4.12284 3.91080
# Velocity P-wave (km/s) = 6.46219 7.11251 6.79513
#
# Compressibility (1/GPa) = 0.01779269
#
# Stress axis : x y z
#
# Youngs Moduli (GPa) = 53.12152 95.16630 153.66380
#
# Poissons Ratio (x) = 0.39637 0.85417
# Poissons Ratio (y) = 0.22125 -0.10754
# Poissons Ratio (z) = 0.29529 -0.06660
#
# Static dielectric constant tensor:
#      x y z
#    x 1.951970 0.000010 0.049140 
#    y 0.000010 1.892630 0.000000 
#    z 0.049140 0.000000 2.006980 
# 
# From -- ./inp_files/68682.got.cif
#   From: 2010.05.17/outbox.cif.g08.bks.cpg/sg5_35_cif.got.tgz:68682.got - 2010.06.03 18:56:24.
