data_PCOD9127517
_publ_section_title
;
Structure prediction by ZEFSAII (Michael W. Deem and Ramdas Pophale) SiO2 
 PCOD9127517
Probable space group: C 2
;
_chemical_formula_sum "Si O2"
_cell_formula_units_Z 28
_cell_length_a 27.027042
_cell_length_b 4.948233
_cell_length_c 8.744758
_cell_angle_alpha 90.000000
_cell_angle_beta 59.981500
_cell_angle_gamma 90.000000
_cell_volume 1012.619052
_symmetry_space_group_name_H-M "C 2"
_symmetry_group_IT_number 5
_symmetry_cell_setting 'monoclinic'
loop_
_space_group_symop_operation_xyz
x,y,z
-x,y,-z
1/2+x,1/2+y,z
1/2-x,1/2+y,-z
loop_
_atom_site_type_symbol
_atom_site_label
_atom_site_fract_x
_atom_site_fract_y
_atom_site_fract_z
Si Si1 0.589472 0.207320 0.613661
Si Si2 0.500000 0.141073 0.500000
Si Si3 0.307581 0.861291 0.546927
Si Si4 0.626064 0.246908 0.089326
Si Si5 0.676796 0.507115 0.707598
Si Si6 0.936443 0.241655 0.827990
Si Si7 0.500000 0.976320 0.000000
Si Si8 0.721051 0.510590 0.121127
O O1 0.548339 0.286258 0.533819
O O2 0.637716 0.385831 0.628128
O O3 0.543846 0.131874 0.819043
O O4 0.633514 0.981872 0.477095
O O5 0.472183 0.918285 0.656640
O O6 0.328887 0.814303 0.338467
O O7 0.246005 0.998368 0.613312
O O8 0.286116 0.628315 0.698419
O O9 0.620390 0.928180 0.087366
O O10 0.663129 0.360809 0.168460
O O11 0.568643 0.425113 0.190639
O O12 0.653615 0.372577 0.894543
O O13 0.961875 0.285960 0.954346
O O14 0.764212 0.267110 0.010113
#
# Coordination Sequence:
#
# PCOD9127517 Si02
#       8
#     4   2   4   4   4   4   2   4
#     4  11  24  50  73 115 152 204 268 318 400 460
#     4  10  26  50  78 108 154 210 262 336 384 466
#     4  12  27  45  75 114 156 207 254 329 394 477
#     4  12  26  47  74 108 150 205 254 321 389 469
#     4  12  26  44  77 111 159 202 260 320 401 470
#     4  11  25  47  74 107 148 195 264 317 391 455
#     4  10  22  48  74 106 150 204 258 322 378 460
#     4  12  28  46  73 109 157 206 255 310 392 471
#
# _framework density 27.651073
#
# number of rings (size 3 to 8) (size 9 to 14) (size 15 to 20)
#    0.000    0.571    4.286    2.571    6.000    1.143 
#   10.286    0.000    0.000    0.000    0.000    0.000 
#    0.000    0.000    0.000    0.000    0.000    0.000 
#
# Total GULP energy -78083.292472 kJ/mol
# GULP energy per Si atom -5577.378034 kJ/mol
# Density = 2.758814 g / cm^3
# Si number density = 27.651073 Si / 1000 Ang^3
#
#
#
# Elastic Constant Matrix: (Units=GPa)
#
#
# Indices 1 2 3 4 5 6 
#
# 1 194.2544 30.1492 31.3645 0.0000 -8.8776 0.0000
# 2 30.1492 101.7991 37.3272 0.0000 -12.7670 0.0000
# 3 31.3645 37.3272 139.5669 0.0000 -0.5887 0.0000
# 4 0.0000 0.0000 0.0000 40.9846 0.0000 1.6252
# 5 -8.8776 -12.7670 -0.5887 0.0000 43.0215 0.0000
# 6 0.0000 0.0000 0.0000 1.6252 0.0000 36.2741
#
#
#
# Elastic Compliance Matrix: (Units=1/GPa)
#
#
# Indices 1 2 3 4 5 6 
#
# 1 0.005517 -0.001202 -0.000915 0.000000 0.000769 0.000000
# 2 -0.001202 0.011610 -0.002822 0.000000 0.003159 0.000000
# 3 -0.000915 -0.002822 0.008121 0.000000 -0.000915 0.000000
# 4 0.000000 0.000000 0.000000 0.024443 0.000000 -0.001095
# 5 0.000769 0.003159 -0.000915 0.000000 0.024328 0.000000
# 6 0.000000 0.000000 0.000000 -0.001095 0.000000 0.027617
#
#
# Mechanical properties :
#
#
# Convention : Reuss Voigt Hill
#
# Bulk Modulus (GPa) = 65.05665 70.36690 67.71177
# Shear Modulus (GPa) = 42.86772 46.50801 44.68786
#
# Velocity S-wave (km/s) = 3.94167 4.10562 4.02448
# Velocity P-wave (km/s) = 6.65541 6.92663 6.79237
#
# Compressibility (1/GPa) = 0.01537122
#
# Stress axis : x y z
#
# Youngs Moduli (GPa) = 181.24587 86.13231 123.13018
#
# Poissons Ratio (x) = 0.10353 0.11269
# Poissons Ratio (y) = 0.21786 0.34743
# Poissons Ratio (z) = 0.16587 0.24304
#
# Static dielectric constant tensor:
#      x y z
#    x 2.191000 0.000000 -0.105440 
#    y 0.000000 2.237600 0.000000 
#    z -0.105440 0.000000 2.237410 
# 
# From -- ./inp_files/32122.got.cif
#   From: 2010.05.17/outbox.cif.g08.bks.cpg/sg5_17_cif.got.tgz:32122.got - 2010.06.03 18:56:24.
