data_PCOD9127142
_publ_section_title
;
Structure prediction by ZEFSAII (Michael W. Deem and Ramdas Pophale) SiO2 
 PCOD9127142
Probable space group: C 2
;
_chemical_formula_sum "Si O2"
_cell_formula_units_Z 24
_cell_length_a 12.174163
_cell_length_b 8.419748
_cell_length_c 11.290485
_cell_angle_alpha 90.000000
_cell_angle_beta 87.302714
_cell_angle_gamma 90.000000
_cell_volume 1156.030745
_symmetry_space_group_name_H-M "C 2"
_symmetry_group_IT_number 5
_symmetry_cell_setting 'monoclinic'
loop_
_space_group_symop_operation_xyz
x,y,z
-x,y,-z
1/2+x,1/2+y,z
1/2-x,1/2+y,-z
loop_
_atom_site_type_symbol
_atom_site_label
_atom_site_fract_x
_atom_site_fract_y
_atom_site_fract_z
Si Si1 0.500000 0.803500 0.000000
Si Si2 0.629319 0.247974 0.966854
Si Si3 0.193416 0.095445 0.894656
Si Si4 0.568096 0.250138 0.384998
Si Si5 0.055278 0.521005 0.782229
Si Si6 0.500000 0.558542 0.500000
Si Si7 0.172592 0.238214 0.642716
O O1 0.395373 0.692674 0.024062
O O2 0.506205 0.911585 0.117209
O O3 0.683439 0.413259 0.928961
O O4 0.638134 0.124246 0.858234
O O5 0.500000 0.270635 0.000000
O O6 0.691869 0.173553 0.074651
O O7 0.167619 0.125793 0.758942
O O8 0.500000 0.182735 0.500000
O O9 0.523522 0.144795 0.280098
O O10 0.534248 0.436663 0.392573
O O11 0.698769 0.246841 0.395021
O O12 0.120134 0.404580 0.689836
O O13 0.599690 0.664737 0.541878
#
# Coordination Sequence:
#
# PCOD9127142 Si02
#       7
#     2   4   4   4   4   2   4
#     4  10  22  44  66 110 142 184 228 274 350 422
#     4  12  24  43  69 100 144 184 225 280 340 421
#     4  11  24  43  69 103 144 186 225 282 347 412
#     4  10  26  45  71  99 137 179 236 286 346 405
#     4  11  24  44  70 106 141 180 229 285 347 415
#     4  10  26  46  68  98 134 182 238 286 350 394
#     4  11  25  45  69  98 140 176 237 291 338 411
#
# _framework density 20.760694000000001
#
# number of rings (size 3 to 8) (size 9 to 14) (size 15 to 20)
#    0.500    0.667    1.667    4.000    5.833    0.000 
#    6.000    0.000    0.000    0.000    0.000    0.000 
#    0.000    0.000    0.000    0.000    0.000    0.000 
#
# Total GULP energy -67030.434870 kJ/mol
# GULP energy per Si atom -5585.869572 kJ/mol
# Density = 2.071344 g / cm^3
# Si number density = 20.760694 Si / 1000 Ang^3
#
#
#
# Elastic Constant Matrix: (Units=GPa)
#
#
# Indices 1 2 3 4 5 6 
#
# 1 111.7416 17.8111 39.3481 0.0000 -4.7110 0.0000
# 2 17.8111 100.3901 34.6861 0.0000 -2.2737 0.0000
# 3 39.3481 34.6861 76.3803 0.0000 2.2057 0.0000
# 4 0.0000 0.0000 0.0000 -4.6658 0.0000 20.6337
# 5 -4.7110 -2.2737 2.2057 0.0000 39.3915 0.0000
# 6 0.0000 0.0000 0.0000 20.6337 0.0000 23.5601
#
#
#
# Elastic Compliance Matrix: (Units=1/GPa)
#
#
# Indices 1 2 3 4 5 6 
#
# 1 0.011038 0.000071 -0.005766 0.000000 0.001647 0.000000
# 2 0.000071 0.011854 -0.005449 0.000000 0.000998 0.000000
# 3 -0.005766 -0.005449 0.018596 0.000000 -0.002045 0.000000
# 4 0.000000 0.000000 0.000000 -0.043982 0.000000 0.038519
# 5 0.001647 0.000998 -0.002045 0.000000 0.025755 0.000000
# 6 0.000000 0.000000 0.000000 0.038519 0.000000 0.008710
#
#
# Mechanical properties :
#
#
# Convention : Reuss Voigt Hill
#
# Bulk Modulus (GPa) = 52.08113 52.46695 52.27404
# Shear Modulus (GPa) = 82.42945 24.76828 53.59887
#
# Velocity S-wave (km/s) = 6.30799 3.45778 5.08660
# Velocity P-wave (km/s) = 8.84281 6.42408 7.72865
#
# Compressibility (1/GPa) = 0.01920081
#
# Stress axis : x y z
#
# Youngs Moduli (GPa) = 90.59810 84.36231 53.77424
#
# Poissons Ratio (x) = -0.00601 0.31007
# Poissons Ratio (y) = -0.00646 0.29299
# Poissons Ratio (z) = 0.52240 0.45965
#
# Static dielectric constant tensor:
#      x y z
#    x 1.747930 0.000000 0.003330 
#    y 0.000000 1.740190 0.000000 
#    z 0.003330 0.000000 1.795420 
# 
# From -- ./inp_files/38390.got.cif
#   From: 2010.05.17/outbox.cif.g08.bks.cpg/sg5_20_cif.got.tgz:38390.got - 2010.06.03 18:56:24.
