data_PCOD9127480
_publ_section_title
;
Structure prediction by ZEFSAII (Michael W. Deem and Ramdas Pophale) SiO2 
 PCOD9127480
Probable space group: C 2
;
_chemical_formula_sum "Si O2"
_cell_formula_units_Z 22
_cell_length_a 17.331760
_cell_length_b 7.380743
_cell_length_c 7.595940
_cell_angle_alpha 90.000000
_cell_angle_beta 99.835298
_cell_angle_gamma 90.000000
_cell_volume 957.401305
_symmetry_space_group_name_H-M "C 2"
_symmetry_group_IT_number 5
_symmetry_cell_setting 'monoclinic'
loop_
_space_group_symop_operation_xyz
x,y,z
-x,y,-z
1/2+x,1/2+y,z
1/2-x,1/2+y,-z
loop_
_atom_site_type_symbol
_atom_site_label
_atom_site_fract_x
_atom_site_fract_y
_atom_site_fract_z
Si Si1 0.875402 0.947490 0.753304
Si Si2 0.669937 0.098363 0.066069
Si Si3 0.901643 0.674097 0.523129
Si Si4 0.000000 0.149332 0.000000
Si Si5 0.520706 0.990478 0.786315
Si Si6 0.246284 0.236358 0.255205
O O1 0.827900 0.776751 0.811647
O O2 0.928868 0.866540 0.617874
O O3 0.820127 0.111949 0.684086
O O4 0.927720 0.022821 0.930858
O O5 0.710127 0.926980 0.177846
O O6 0.720432 0.141815 0.909558
O O7 0.579796 0.066584 0.961218
O O8 0.935418 0.570245 0.367495
O O9 0.815927 0.732635 0.423945
O O10 0.931940 0.544473 0.693457
O O11 0.983523 0.281125 0.159087
#
# Coordination Sequence:
#
# PCOD9127480 Si02
#       6
#     4   4   4   2   4   4
#     4  12  25  41  73 105 138 192 249 296 364 439
#     4  11  22  46  71 100 147 187 248 296 358 445
#     4  10  25  44  68 104 151 183 238 311 370 419
#     4  12  24  44  78 108 142 198 260 288 374 448
#     4  10  22  47  71  99 146 191 237 304 363 432
#     4  11  24  43  70 107 141 198 235 302 365 444
#
# _framework density 22.978870000000001
#
# number of rings (size 3 to 8) (size 9 to 14) (size 15 to 20)
#    0.000    1.091    3.636    2.182    2.545    0.000 
#    0.000    9.091    0.000    0.000    0.000    0.000 
#    0.000    0.000    0.000    0.000    0.000    0.000 
#
# Total GULP energy -61235.066514 kJ/mol
# GULP energy per Si atom -5566.824229 kJ/mol
# Density = 2.292657 g / cm^3
# Si number density = 22.978870 Si / 1000 Ang^3
#
#
#
# Elastic Constant Matrix: (Units=GPa)
#
#
# Indices 1 2 3 4 5 6 
#
# 1 67.8858 48.7298 36.0135 0.0000 20.8638 0.0000
# 2 48.7298 161.5808 68.2418 0.0000 10.5253 0.0000
# 3 36.0135 68.2418 180.9788 0.0000 19.6216 0.0000
# 4 0.0000 0.0000 0.0000 -48.5335 0.0000 81.4901
# 5 20.8638 10.5253 19.6216 0.0000 51.6113 0.0000
# 6 0.0000 0.0000 0.0000 81.4901 0.0000 -38.7700
#
#
#
# Elastic Compliance Matrix: (Units=1/GPa)
#
#
# Indices 1 2 3 4 5 6 
#
# 1 0.021577 -0.005421 -0.001485 0.000000 -0.007052 0.000000
# 2 -0.005421 0.008734 -0.002356 0.000000 0.001306 0.000000
# 3 -0.001485 -0.002356 0.006876 0.000000 -0.001533 0.000000
# 4 0.000000 0.000000 0.000000 0.008147 0.000000 0.017123
# 5 -0.007052 0.001306 -0.001533 0.000000 0.022543 0.000000
# 6 0.000000 0.000000 0.000000 0.017123 0.000000 0.010198
#
#
# Mechanical properties :
#
#
# Convention : Reuss Voigt Hill
#
# Bulk Modulus (GPa) = 53.58305 79.60172 66.59238
# Shear Modulus (GPa) = 48.62923 10.02557 29.32740
#
# Velocity S-wave (km/s) = 4.60527 2.09103 3.57638
# Velocity P-wave (km/s) = 7.18659 6.36760 6.78946
#
# Compressibility (1/GPa) = 0.01866262
#
# Stress axis : x y z
#
# Youngs Moduli (GPa) = 46.34572 114.49998 145.44018
#
# Poissons Ratio (x) = 0.62066 0.21599
# Poissons Ratio (y) = 0.25122 0.34267
# Poissons Ratio (z) = 0.06883 0.26978
#
# Static dielectric constant tensor:
#      x y z
#    x 2.660540 0.000000 0.196600 
#    y 0.000000 1.822880 0.000000 
#    z 0.196600 0.000000 2.062130 
# 
# From -- ./inp_files/28378.got.cif
#   From: 2010.05.17/outbox.cif.g08.bks.cpg/sg5_15_cif.got.tgz:28378.got - 2010.06.03 18:56:24.
