data_PCOD9127488
_publ_section_title
;
Structure prediction by ZEFSAII (Michael W. Deem and Ramdas Pophale) SiO2 
 PCOD9127488
Probable space group: C 2
;
_chemical_formula_sum "Si O2"
_cell_formula_units_Z 26
_cell_length_a 4.907775
_cell_length_b 14.311765
_cell_length_c 16.720706
_cell_angle_alpha 90.000000
_cell_angle_beta 112.315236
_cell_angle_gamma 90.000000
_cell_volume 1086.488802
_symmetry_space_group_name_H-M "C 2"
_symmetry_group_IT_number 5
_symmetry_cell_setting 'monoclinic'
loop_
_space_group_symop_operation_xyz
x,y,z
-x,y,-z
1/2+x,1/2+y,z
1/2-x,1/2+y,-z
loop_
_atom_site_type_symbol
_atom_site_label
_atom_site_fract_x
_atom_site_fract_y
_atom_site_fract_z
Si Si1 0.602493 0.841330 0.255020
Si Si2 0.700407 0.134629 0.728118
Si Si3 0.339606 0.060115 0.556971
Si Si4 0.000000 0.728359 0.000000
Si Si5 0.493026 0.583184 0.093764
Si Si6 0.744798 0.885586 0.088957
Si Si7 0.319072 0.443511 0.678083
O O1 0.659830 0.733176 0.275240
O O2 0.612271 0.860091 0.160602
O O3 0.313255 0.878003 0.266866
O O4 0.886139 0.897267 0.320486
O O5 0.399753 0.117631 0.645664
O O6 0.721792 0.119431 0.825813
O O7 0.891729 0.048463 0.715122
O O8 0.500000 0.110103 0.500000
O O9 0.000000 0.045716 0.500000
O O10 0.539668 0.966959 0.591083
O O11 0.875880 0.796753 0.055798
O O12 0.237763 0.661835 0.070738
O O13 0.437280 0.478479 0.117711
O O14 0.500000 0.574163 0.000000
O O15 0.500000 0.919928 0.000000
#
# Coordination Sequence:
#
# PCOD9127488 Si02
#       7
#     4   4   4   2   4   4   4
#     4  12  25  46  70 107 139 195 237 293 360 434
#     4  10  26  44  75 100 149 184 242 298 363 427
#     4  10  22  47  75 105 144 187 232 303 365 428
#     4  12  26  44  68  96 142 192 244 306 356 414
#     4  12  25  46  68 103 138 197 238 300 359 426
#     4  12  26  41  68  96 144 188 250 300 350 426
#     4  10  26  44  73 103 140 183 235 289 362 421
#
# _framework density 23.930296999999999
#
# number of rings (size 3 to 8) (size 9 to 14) (size 15 to 20)
#    0.923    0.000    3.077    3.231    6.462    3.692 
#    2.769    4.615    0.000    0.000    0.000    0.000 
#    0.000    0.000    0.000    0.000    0.000    0.000 
#
# Total GULP energy -72588.405590 kJ/mol
# GULP energy per Si atom -5583.723507 kJ/mol
# Density = 2.387583 g / cm^3
# Si number density = 23.930297 Si / 1000 Ang^3
#
#
#
# Elastic Constant Matrix: (Units=GPa)
#
#
# Indices 1 2 3 4 5 6 
#
# 1 59.7320 -0.5953 15.0552 0.0000 -2.6061 0.0000
# 2 -0.5953 123.6011 15.9904 0.0000 1.1157 0.0000
# 3 15.0552 15.9904 169.8017 0.0000 13.6633 0.0000
# 4 0.0000 0.0000 0.0000 17.8702 0.0000 6.8266
# 5 -2.6061 1.1157 13.6633 0.0000 36.6513 0.0000
# 6 0.0000 0.0000 0.0000 6.8266 0.0000 21.0270
#
#
#
# Elastic Compliance Matrix: (Units=1/GPa)
#
#
# Indices 1 2 3 4 5 6 
#
# 1 0.017255 0.000287 -0.001706 0.000000 0.001854 0.000000
# 2 0.000287 0.008195 -0.000803 0.000000 0.000070 0.000000
# 3 -0.001706 -0.000803 0.006313 0.000000 -0.002450 0.000000
# 4 0.000000 0.000000 0.000000 0.063882 0.000000 -0.020740
# 5 0.001854 0.000070 -0.002450 0.000000 0.028327 0.000000
# 6 0.000000 0.000000 0.000000 -0.020740 0.000000 0.054291
#
#
# Mechanical properties :
#
#
# Convention : Reuss Voigt Hill
#
# Bulk Modulus (GPa) = 36.60343 46.00395 41.30369
# Shear Modulus (GPa) = 26.06678 36.62198 31.34438
#
# Velocity S-wave (km/s) = 3.30400 3.91623 3.62307
# Velocity P-wave (km/s) = 5.46665 6.30198 5.89912
#
# Compressibility (1/GPa) = 0.02731985
#
# Stress axis : x y z
#
# Youngs Moduli (GPa) = 57.95342 122.02324 158.39638
#
# Poissons Ratio (x) = -0.03503 0.27025
# Poissons Ratio (y) = -0.01664 0.12717
# Poissons Ratio (z) = 0.09888 0.09797
#
# Static dielectric constant tensor:
#      x y z
#    x 1.974380 0.000000 -0.013300 
#    y 0.000000 1.912140 0.000000 
#    z -0.013300 0.000000 1.998670 
# 
# From -- ./inp_files/64091.got.cif
#   From: 2010.05.17/outbox.cif.g08.bks.cpg/sg5_33_cif.got.tgz:64091.got - 2010.06.03 18:56:24.
