data_PCOD9127130
_publ_section_title
;
Structure prediction by ZEFSAII (Michael W. Deem and Ramdas Pophale) SiO2 
 PCOD9127130
Probable space group: C 2
;
_chemical_formula_sum "Si O2"
_cell_formula_units_Z 28
_cell_length_a 7.900496
_cell_length_b 31.169873
_cell_length_c 5.392554
_cell_angle_alpha 90.000000
_cell_angle_beta 63.631592
_cell_angle_gamma 90.000000
_cell_volume 1189.791762
_symmetry_space_group_name_H-M "C 2"
_symmetry_group_IT_number 5
_symmetry_cell_setting 'monoclinic'
loop_
_space_group_symop_operation_xyz
x,y,z
-x,y,-z
1/2+x,1/2+y,z
1/2-x,1/2+y,-z
loop_
_atom_site_type_symbol
_atom_site_label
_atom_site_fract_x
_atom_site_fract_y
_atom_site_fract_z
Si Si1 0.615547 0.267530 0.167895
Si Si2 0.500000 0.124108 0.000000
Si Si3 0.201284 0.012679 0.743794
Si Si4 0.500000 0.462365 0.500000
Si Si5 0.816403 0.434053 0.950160
Si Si6 0.316908 0.600270 0.450047
Si Si7 0.707664 0.179715 0.236101
Si Si8 0.883610 0.341350 0.816664
O O1 0.500000 0.276527 0.500000
O O2 0.758077 0.228662 0.149380
O O3 0.500000 0.250762 0.000000
O O4 0.715771 0.309350 0.995287
O O5 0.622113 0.097666 0.728424
O O6 0.340685 0.153815 0.979689
O O7 0.218319 0.063531 0.731538
O O8 0.162937 0.993976 0.496595
O O9 0.332821 0.978879 0.793304
O O10 0.000000 0.005017 0.000000
O O11 0.381555 0.434286 0.770417
O O12 0.818517 0.389877 0.795124
O O13 0.000000 0.432080 0.000000
O O14 0.500000 0.591256 0.500000
O O15 0.331173 0.647763 0.322341
O O16 0.500000 0.182437 0.500000
O O17 0.000000 0.325657 0.500000
O O18 0.000000 0.342617 0.000000
#
# Coordination Sequence:
#
# PCOD9127130 Si02
#       8
#     4   2   4   2   4   4   4   4
#     4  11  23  45  78 107 142 194 244 300 369 442
#     4  10  22  44  64  98 132 182 230 296 342 440
#     4  10  23  44  64  98 139 179 241 296 347 434
#     4  10  22  44  66  98 134 184 240 298 340 442
#     4  10  25  45  71  97 145 185 237 302 371 427
#     4  11  24  44  68  98 141 186 237 295 364 419
#     4   9  21  43  65  99 140 178 238 295 350 433
#     4  11  26  48  71 109 152 183 241 308 371 447
#
# _framework density 23.533531
#
# number of rings (size 3 to 8) (size 9 to 14) (size 15 to 20)
#    0.000    1.714    1.429    0.857    7.000    1.714 
#   12.857    0.000    0.000    0.000    0.000    0.000 
#    0.000    0.000    0.000    0.000    0.000    0.000 
#
# Total GULP energy -78120.922326 kJ/mol
# GULP energy per Si atom -5580.065880 kJ/mol
# Density = 2.347997 g / cm^3
# Si number density = 23.533531 Si / 1000 Ang^3
#
#
#
# Elastic Constant Matrix: (Units=GPa)
#
#
# Indices 1 2 3 4 5 6 
#
# 1 72.9602 40.0161 23.0858 0.0000 2.2639 0.0000
# 2 40.0161 148.6597 31.3208 0.0000 -5.4675 0.0000
# 3 23.0858 31.3208 116.2033 0.0000 -6.6907 0.0000
# 4 0.0000 0.0000 0.0000 -99.2841 0.0000 -172.0245
# 5 2.2639 -5.4675 -6.6907 0.0000 30.5797 0.0000
# 6 0.0000 0.0000 0.0000 -172.0245 0.0000 -244.5578
#
#
#
# Elastic Compliance Matrix: (Units=1/GPa)
#
#
# Indices 1 2 3 4 5 6 
#
# 1 0.016789 -0.004111 -0.002371 0.000000 -0.002497 0.000000
# 2 -0.004111 0.008161 -0.001298 0.000000 0.001480 0.000000
# 3 -0.002371 -0.001298 0.009543 0.000000 0.002032 0.000000
# 4 0.000000 0.000000 0.000000 0.046041 0.000000 -0.032386
# 5 -0.002497 0.001480 0.002032 0.000000 0.033595 0.000000
# 6 0.000000 0.000000 0.000000 -0.032386 0.000000 0.018691
#
#
# Mechanical properties :
#
#
# Convention : Reuss Voigt Hill
#
# Bulk Modulus (GPa) = 52.81742 58.51872 55.66807
# Shear Modulus (GPa) = 32.32211 -46.42576 -7.05183
#
# Velocity S-wave (km/s) = 3.71003 -4.44638 -1.73292
# Velocity P-wave (km/s) = 6.39098 1.20014 4.43871
#
# Compressibility (1/GPa) = 0.01893315
#
# Stress axis : x y z
#
# Youngs Moduli (GPa) = 59.56356 122.52886 104.78445
#
# Poissons Ratio (x) = 0.50378 0.24844
# Poissons Ratio (y) = 0.24490 0.13598
# Poissons Ratio (z) = 0.14122 0.15901
#
# Static dielectric constant tensor:
#      x y z
#    x 2.013240 0.000000 0.005300 
#    y 0.000000 1.913370 0.000000 
#    z 0.005300 0.000000 2.286120 
# 
# From -- ./inp_files/3901.got.cif
#   From: 2010.05.17/outbox.cif.g08.bks.cpg/sg5_2_cif.got.tgz:3901.got - 2010.06.03 18:56:24.
