data_PCOD9127447
_publ_section_title
;
Structure prediction by ZEFSAII (Michael W. Deem and Ramdas Pophale) SiO2 
 PCOD9127447
Probable space group: C 2
;
_chemical_formula_sum "Si O2"
_cell_formula_units_Z 22
_cell_length_a 9.658992
_cell_length_b 9.663181
_cell_length_c 13.822258
_cell_angle_alpha 90.000000
_cell_angle_beta 42.637269
_cell_angle_gamma 90.000000
_cell_volume 873.870385
_symmetry_space_group_name_H-M "C 2"
_symmetry_group_IT_number 5
_symmetry_cell_setting 'monoclinic'
loop_
_space_group_symop_operation_xyz
x,y,z
-x,y,-z
1/2+x,1/2+y,z
1/2-x,1/2+y,-z
loop_
_atom_site_type_symbol
_atom_site_label
_atom_site_fract_x
_atom_site_fract_y
_atom_site_fract_z
Si Si1 0.864132 0.326820 0.436339
Si Si2 0.164265 0.573379 0.273544
Si Si3 0.115470 0.967763 0.072054
Si Si4 0.589288 0.219949 0.742678
Si Si5 0.000000 0.806880 0.500000
Si Si6 0.220038 0.215838 0.143494
O O1 0.029473 0.443314 0.378165
O O2 0.774417 0.242463 0.572566
O O3 0.671392 0.385553 0.474045
O O4 0.987712 0.228718 0.299414
O O5 0.063450 0.608031 0.222359
O O6 0.113084 0.704110 0.366771
O O7 0.403506 0.539934 0.145771
O O8 0.033558 0.863729 0.196532
O O9 0.240673 0.086347 0.062138
O O10 0.217580 0.857553 0.944855
O O11 0.659659 0.200124 0.817001
#
# Coordination Sequence:
#
# PCOD9127447 Si02
#       6
#     4   4   4   4   2   4
#     4  11  24  46  82 115 157 197 266 330 390 468
#     4  11  24  47  79 112 157 205 257 324 394 465
#     4  12  28  53  78 113 164 217 263 326 397 485
#     4  11  27  47  83 116 154 210 264 336 395 467
#     4  10  22  46  74 120 152 202 258 322 396 458
#     4  12  28  52  81 118 158 213 269 324 403 472
#
# _framework density 25.175359
#
# number of rings (size 3 to 8) (size 9 to 14) (size 15 to 20)
#    0.000    0.727    3.636    2.182    5.091    2.909 
#    0.000    1.818    0.000    0.000    0.000    0.000 
#    0.000    0.000    0.000    0.000    0.000    0.000 
#
# Total GULP energy -61553.700775 kJ/mol
# GULP energy per Si atom -5595.790980 kJ/mol
# Density = 2.511806 g / cm^3
# Si number density = 25.175359 Si / 1000 Ang^3
#
#
#
# Elastic Constant Matrix: (Units=GPa)
#
#
# Indices 1 2 3 4 5 6 
#
# 1 177.8891 67.6829 63.6791 0.0000 8.8238 0.0000
# 2 67.6829 99.0141 56.0283 0.0000 8.3595 0.0000
# 3 63.6791 56.0283 179.8214 0.0000 28.8806 0.0000
# 4 0.0000 0.0000 0.0000 19.5263 0.0000 5.0376
# 5 8.8238 8.3595 28.8806 0.0000 41.5675 0.0000
# 6 0.0000 0.0000 0.0000 5.0376 0.0000 48.7496
#
#
#
# Elastic Compliance Matrix: (Units=1/GPa)
#
#
# Indices 1 2 3 4 5 6 
#
# 1 0.007859 -0.004608 -0.001382 0.000000 0.000219 0.000000
# 2 -0.004608 0.014965 -0.003044 0.000000 0.000084 0.000000
# 3 -0.001382 -0.003044 0.007715 0.000000 -0.004454 0.000000
# 4 0.000000 0.000000 0.000000 0.052616 0.000000 -0.005437
# 5 0.000219 0.000084 -0.004454 0.000000 0.027089 0.000000
# 6 0.000000 0.000000 0.000000 -0.005437 0.000000 0.021075
#
#
# Mechanical properties :
#
#
# Convention : Reuss Voigt Hill
#
# Bulk Modulus (GPa) = 80.20146 92.38945 86.29545
# Shear Modulus (GPa) = 32.56393 39.92432 36.24412
#
# Velocity S-wave (km/s) = 3.60041 3.98659 3.79841
# Velocity P-wave (km/s) = 7.01500 7.61371 7.32048
#
# Compressibility (1/GPa) = 0.01246860
#
# Stress axis : x y z
#
# Youngs Moduli (GPa) = 127.24579 66.82130 129.62534
#
# Poissons Ratio (x) = 0.30793 0.17918
# Poissons Ratio (y) = 0.58639 0.39463
# Poissons Ratio (z) = 0.17589 0.20343
#
# Static dielectric constant tensor:
#      x y z
#    x 2.040910 0.000000 0.012450 
#    y 0.000000 1.950000 0.000000 
#    z 0.012450 0.000000 2.050400 
# 
# From -- ./inp_files/31861.got.cif
#   From: 2010.05.17/outbox.cif.g08.bks.cpg/sg5_16_cif.got.tgz:31861.got - 2010.06.03 18:56:24.
