data_PCOD9127968
_publ_section_title
;
Structure prediction by ZEFSAII (Michael W. Deem and Ramdas Pophale) SiO2 
 PCOD9127968
Probable space group: C 2
;
_chemical_formula_sum "Si O2"
_cell_formula_units_Z 26
_cell_length_a 21.311124
_cell_length_b 8.928666
_cell_length_c 5.558551
_cell_angle_alpha 90.000000
_cell_angle_beta 90.946383
_cell_angle_gamma 90.000000
_cell_volume 1057.536295
_symmetry_space_group_name_H-M "C 2"
_symmetry_group_IT_number 5
_symmetry_cell_setting 'monoclinic'
loop_
_space_group_symop_operation_xyz
x,y,z
-x,y,-z
1/2+x,1/2+y,z
1/2-x,1/2+y,-z
loop_
_atom_site_type_symbol
_atom_site_label
_atom_site_fract_x
_atom_site_fract_y
_atom_site_fract_z
Si Si1 0.188394 0.841310 0.357208
Si Si2 0.500000 0.760878 0.000000
Si Si3 0.807110 0.592377 0.011481
Si Si4 0.714277 0.805260 0.273285
Si Si5 0.105367 0.096761 0.220653
Si Si6 0.584280 0.197035 0.682974
Si Si7 0.000000 0.444875 0.500000
Si Si8 0.000000 0.928669 0.500000
O O1 0.205420 0.690513 0.223654
O O2 0.249599 0.888687 0.509918
O O3 0.134798 0.795119 0.542749
O O4 0.154307 0.960914 0.180315
O O5 0.563383 0.660607 0.001605
O O6 0.503127 0.854225 0.249182
O O7 0.795397 0.421032 0.945806
O O8 0.760292 0.670756 0.196119
O O9 0.878694 0.627270 0.091777
O O10 0.648046 0.729794 0.329473
O O11 0.053682 0.032919 0.398084
O O12 0.526946 0.313943 0.704698
O O13 0.559154 0.057048 0.528138
#
# Coordination Sequence:
#
# PCOD9127968 Si02
#       8
#     4   2   4   4   4   4   2   2
#     4  10  23  44  71 103 141 191 245 311 377 453
#     4  12  28  46  70 110 154 202 248 314 380 456
#     4  11  23  43  71 104 142 188 246 312 382 450
#     4  11  24  44  68 109 140 191 246 312 383 453
#     4  11  24  46  70 108 146 194 251 305 385 454
#     4   9  22  42  73 101 146 193 248 305 377 453
#     4  11  25  48  68 114 150 198 254 308 386 450
#     4   9  21  46  72 106 142 200 244 314 370 466
#
# _framework density 24.585446000000001
#
# number of rings (size 3 to 8) (size 9 to 14) (size 15 to 20)
#    0.000    1.538    0.000    3.231    6.462    1.231 
#   16.615    0.000    0.000    0.000    0.000    0.000 
#    0.000    0.000    0.000    0.000    0.000    0.000 
#
# Total GULP energy -72660.304514 kJ/mol
# GULP energy per Si atom -5589.254193 kJ/mol
# Density = 2.452949 g / cm^3
# Si number density = 24.585446 Si / 1000 Ang^3
#
#
#
# Elastic Constant Matrix: (Units=GPa)
#
#
# Indices 1 2 3 4 5 6 
#
# 1 138.8431 72.0642 41.6806 0.0000 32.5923 0.0000
# 2 72.0642 148.3609 49.3256 0.0000 21.8972 0.0000
# 3 41.6806 49.3256 90.9885 0.0000 25.4140 0.0000
# 4 0.0000 0.0000 0.0000 43.7466 0.0000 -6.0399
# 5 32.5923 21.8972 25.4140 0.0000 38.3110 0.0000
# 6 0.0000 0.0000 0.0000 -6.0399 0.0000 261.7362
#
#
#
# Elastic Compliance Matrix: (Units=1/GPa)
#
#
# Indices 1 2 3 4 5 6 
#
# 1 0.011176 -0.004117 -0.001092 0.000000 -0.006431 0.000000
# 2 -0.004117 0.009884 -0.003526 0.000000 0.000192 0.000000
# 3 -0.001092 -0.003526 0.015441 0.000000 -0.007298 0.000000
# 4 0.000000 0.000000 0.000000 0.022932 0.000000 0.000529
# 5 -0.006431 0.000192 -0.007298 0.000000 0.036305 0.000000
# 6 0.000000 0.000000 0.000000 0.000529 0.000000 0.003833
#
#
# Mechanical properties :
#
#
# Convention : Reuss Voigt Hill
#
# Bulk Modulus (GPa) = 52.54325 78.25926 65.40125
# Shear Modulus (GPa) = 40.52404 83.10022 61.81213
#
# Velocity S-wave (km/s) = 4.06432 5.82013 5.01960
# Velocity P-wave (km/s) = 6.59113 8.77872 7.76238
#
# Compressibility (1/GPa) = 0.01903194
#
# Stress axis : x y z
#
# Youngs Moduli (GPa) = 89.47405 101.17503 64.76444
#
# Poissons Ratio (x) = 0.41650 0.07072
# Poissons Ratio (y) = 0.36833 0.22836
# Poissons Ratio (z) = 0.09770 0.35674
#
# Static dielectric constant tensor:
#      x y z
#    x 1.984550 0.000000 0.044070 
#    y 0.000000 1.960470 0.000000 
#    z 0.044070 0.000000 1.763780 
# 
# From -- ./inp_files/10187.got.cif
#   From: 2010.05.17/outbox.cif.g08.bks.cpg/sg5_6_cif.got.tgz:10187.got - 2010.06.03 18:56:24.
