data_PCOD9128933
_publ_section_title
;
Structure prediction by ZEFSAII (Michael W. Deem and Ramdas Pophale) SiO2 
 PCOD9128933
Probable space group: C 2
;
_chemical_formula_sum "Si O2"
_cell_formula_units_Z 20
_cell_length_a 5.031523
_cell_length_b 19.027532
_cell_length_c 8.719437
_cell_angle_alpha 90.000000
_cell_angle_beta 92.258986
_cell_angle_gamma 90.000000
_cell_volume 834.128061
_symmetry_space_group_name_H-M "C 2"
_symmetry_group_IT_number 5
_symmetry_cell_setting 'monoclinic'
loop_
_space_group_symop_operation_xyz
x,y,z
-x,y,-z
1/2+x,1/2+y,z
1/2-x,1/2+y,-z
loop_
_atom_site_type_symbol
_atom_site_label
_atom_site_fract_x
_atom_site_fract_y
_atom_site_fract_z
Si Si1 0.091534 0.489810 0.830666
Si Si2 0.747234 0.406009 0.603364
Si Si3 0.470949 0.722300 0.313688
Si Si4 0.606668 0.341634 0.170886
Si Si5 0.465057 0.133975 0.316174
O O1 0.285055 0.422186 0.835177
O O2 0.160083 0.563454 0.755945
O O3 0.845629 0.463282 0.723886
O O4 0.000000 0.502652 0.000000
O O5 0.500000 0.433282 0.500000
O O6 0.616550 0.343998 0.700744
O O7 0.000000 0.390251 0.500000
O O8 0.500000 0.731227 0.500000
O O9 0.757690 0.695175 0.269827
O O10 0.340746 0.790205 0.230884
O O11 0.256157 0.660392 0.273150
O O12 0.500000 0.323446 0.000000
O O13 0.500000 0.125367 0.500000
#
# Coordination Sequence:
#
# PCOD9128933 Si02
#       5
#     4   4   4   4   4
#     4  12  27  48  78 118 161 205 262 330 400 468
#     4  12  27  45  75 116 153 205 260 322 389 460
#     4  10  26  49  77 111 150 205 264 322 381 467
#     4  12  28  49  78 118 164 205 260 330 400 472
#     4  10  25  48  77 110 152 200 264 323 383 465
#
# _framework density 23.977132999999998
#
# number of rings (size 3 to 8) (size 9 to 14) (size 15 to 20)
#    0.000    0.800    4.000    0.600    8.400    2.400 
#    0.000    2.000    0.000    0.000    0.000    0.000 
#    0.000    0.000    0.000    0.000    0.000    0.000 
#
# Total GULP energy -55964.316152 kJ/mol
# GULP energy per Si atom -5596.431615 kJ/mol
# Density = 2.392256 g / cm^3
# Si number density = 23.977133 Si / 1000 Ang^3
#
#
#
# Elastic Constant Matrix: (Units=GPa)
#
#
# Indices 1 2 3 4 5 6 
#
# 1 137.8005 31.2704 57.6502 0.0000 19.6992 0.0000
# 2 31.2704 152.8663 34.8775 0.0000 16.8871 0.0000
# 3 57.6502 34.8775 135.5515 0.0000 29.5454 0.0000
# 4 0.0000 0.0000 0.0000 18.7638 0.0000 8.8130
# 5 19.6992 16.8871 29.5454 0.0000 31.2459 0.0000
# 6 0.0000 0.0000 0.0000 8.8130 0.0000 42.6045
#
#
#
# Elastic Compliance Matrix: (Units=1/GPa)
#
#
# Indices 1 2 3 4 5 6 
#
# 1 0.009101 -0.000892 -0.003143 0.000000 -0.002283 0.000000
# 2 -0.000892 0.007209 -0.000943 0.000000 -0.002442 0.000000
# 3 -0.003143 -0.000943 0.010598 0.000000 -0.007530 0.000000
# 4 0.000000 0.000000 0.000000 0.059029 0.000000 -0.012210
# 5 -0.002283 -0.002442 -0.007530 0.000000 0.041883 0.000000
# 6 0.000000 0.000000 0.000000 -0.012210 0.000000 0.025997
#
#
# Mechanical properties :
#
#
# Convention : Reuss Voigt Hill
#
# Bulk Modulus (GPa) = 58.99592 74.86828 66.93210
# Shear Modulus (GPa) = 29.51151 38.68420 34.09785
#
# Velocity S-wave (km/s) = 3.51211 4.02105 3.77516
# Velocity P-wave (km/s) = 6.41132 7.26987 6.85405
#
# Compressibility (1/GPa) = 0.01695032
#
# Stress axis : x y z
#
# Youngs Moduli (GPa) = 109.88065 138.71294 94.35701
#
# Poissons Ratio (x) = 0.12377 0.29660
# Poissons Ratio (y) = 0.09804 0.08900
# Poissons Ratio (z) = 0.34539 0.13083
#
# Static dielectric constant tensor:
#      x y z
#    x 1.915150 0.000000 -0.022450 
#    y 0.000000 1.949110 0.000000 
#    z -0.022450 0.000000 1.877310 
# 
# From -- ./inp_files/12125.got.cif
#   From: 2010.05.17/outbox.cif.g08.bks.cpg/sg5_7_cif.got.tgz:12125.got - 2010.06.03 18:56:24.
