data_PCOD9128543
_publ_section_title
;
Structure prediction by ZEFSAII (Michael W. Deem and Ramdas Pophale) SiO2 
 PCOD9128543
Probable space group: C 2
;
_chemical_formula_sum "Si O2"
_cell_formula_units_Z 16
_cell_length_a 12.183193
_cell_length_b 7.013889
_cell_length_c 13.315288
_cell_angle_alpha 90.000000
_cell_angle_beta 32.970135
_cell_angle_gamma 90.000000
_cell_volume 619.199446
_symmetry_space_group_name_H-M "C 2"
_symmetry_group_IT_number 5
_symmetry_cell_setting 'monoclinic'
loop_
_space_group_symop_operation_xyz
x,y,z
-x,y,-z
1/2+x,1/2+y,z
1/2-x,1/2+y,-z
loop_
_atom_site_type_symbol
_atom_site_label
_atom_site_fract_x
_atom_site_fract_y
_atom_site_fract_z
Si Si1 0.778713 0.776230 0.716874
Si Si2 0.093163 0.102327 0.663951
Si Si3 0.686189 0.156341 0.905318
Si Si4 0.474395 0.160899 0.755312
O O1 0.643430 0.689323 0.733475
O O2 0.000000 0.807854 0.500000
O O3 0.821565 0.641485 0.779469
O O4 0.704203 0.976297 0.816885
O O5 0.301949 0.086959 0.442080
O O6 0.917964 0.222046 0.742142
O O7 0.010142 0.889079 0.737559
O O8 0.500000 0.273455 0.000000
O O9 0.620469 0.097692 0.067929
#
# Coordination Sequence:
#
# PCOD9128543 Si02
#       4
#     4   4   4   4
#     4   9  22  47  76  98 137 188 228 290 348 400
#     4  10  24  47  75 100 143 180 234 289 343 411
#     4  11  26  41  70 106 140 183 231 277 352 409
#     4  10  24  45  71 110 133 187 230 284 353 407
#
# _framework density 25.839815999999999
#
# number of rings (size 3 to 8) (size 9 to 14) (size 15 to 20)
#    0.000    2.000    0.000    0.000   17.500    0.000 
#   22.500    0.000    0.000    0.000    0.000    0.000 
#    0.000    0.000    0.000    0.000    0.000    0.000 
#
# Total GULP energy -44811.316318 kJ/mol
# GULP energy per Si atom -5601.414540 kJ/mol
# Density = 2.578100 g / cm^3
# Si number density = 25.839816 Si / 1000 Ang^3
#
#
#
# Elastic Constant Matrix: (Units=GPa)
#
#
# Indices 1 2 3 4 5 6 
#
# 1 198.9193 26.7944 44.2648 -0.0001 -30.3852 -0.0003
# 2 26.7944 84.6422 10.6162 -0.0006 -2.0144 0.0004
# 3 44.2648 10.6162 109.5381 -0.0007 -2.9743 0.0007
# 4 -0.0001 -0.0006 -0.0007 23.7368 0.0007 14.5248
# 5 -30.3852 -2.0144 -2.9743 0.0007 55.4443 -0.0004
# 6 -0.0003 0.0004 0.0007 14.5248 -0.0004 36.1187
#
#
#
# Elastic Compliance Matrix: (Units=1/GPa)
#
#
# Indices 1 2 3 4 5 6 
#
# 1 0.006247 -0.001615 -0.002280 0.000000 0.003243 0.000000
# 2 -0.001615 0.012385 -0.000561 0.000001 -0.000465 0.000000
# 3 -0.002280 -0.000561 0.010085 0.000001 -0.000729 0.000000
# 4 0.000000 0.000001 0.000001 0.055879 -0.000001 -0.022471
# 5 0.003243 -0.000465 -0.000729 -0.000001 0.019757 0.000001
# 6 0.000000 0.000000 0.000000 -0.022471 0.000001 0.036723
#
#
# Mechanical properties :
#
#
# Convention : Reuss Voigt Hill
#
# Bulk Modulus (GPa) = 50.48686 61.82782 56.15734
# Shear Modulus (GPa) = 31.93071 43.82158 37.87614
#
# Velocity S-wave (km/s) = 3.51909 4.12259 3.83274
# Velocity P-wave (km/s) = 6.00773 6.82937 6.43168
#
# Compressibility (1/GPa) = 0.01980714
#
# Stress axis : x y z
#
# Youngs Moduli (GPa) = 160.06796 80.74435 99.15565
#
# Poissons Ratio (x) = 0.13036 0.22608
# Poissons Ratio (y) = 0.25843 0.05558
# Poissons Ratio (z) = 0.36496 0.04526
#
# Static dielectric constant tensor:
#      x y z
#    x 2.075300 0.000000 -0.058480 
#    y 0.000000 2.060130 0.000000 
#    z -0.058480 0.000000 1.987720 
# 
# From -- ./inp_files/18000.got.cif
#   From: 2010.05.17/outbox.cif.g08.bks.cpg/sg5_9_cif.got.tgz:18000.got - 2010.06.03 18:56:24.
