data_PCOD9128846
_publ_section_title
;
Structure prediction by ZEFSAII (Michael W. Deem and Ramdas Pophale) SiO2 
 PCOD9128846
Probable space group: C 2
;
_chemical_formula_sum "Si O2"
_cell_formula_units_Z 32
_cell_length_a 7.569320
_cell_length_b 26.816471
_cell_length_c 12.211506
_cell_angle_alpha 90.000000
_cell_angle_beta 35.391507
_cell_angle_gamma 90.000000
_cell_volume 1435.577132
_symmetry_space_group_name_H-M "C 2"
_symmetry_group_IT_number 5
_symmetry_cell_setting 'monoclinic'
loop_
_space_group_symop_operation_xyz
x,y,z
-x,y,-z
1/2+x,1/2+y,z
1/2-x,1/2+y,-z
loop_
_atom_site_type_symbol
_atom_site_label
_atom_site_fract_x
_atom_site_fract_y
_atom_site_fract_z
Si Si1 0.276471 0.131200 0.514735
Si Si2 0.832449 0.182137 0.883494
Si Si3 0.801307 0.357856 0.298614
Si Si4 0.867481 0.037448 0.684646
Si Si5 0.800543 0.592645 0.896022
Si Si6 0.148001 0.939211 0.197856
Si Si7 0.238016 0.370228 0.285629
Si Si8 0.679708 0.288209 0.026905
O O1 0.500000 0.118849 0.500000
O O2 0.475644 0.123278 0.302613
O O3 0.089723 0.179706 0.656793
O O4 0.019917 0.089564 0.636723
O O5 0.804889 0.232131 0.970158
O O6 0.500000 0.177352 0.000000
O O7 0.853275 0.134153 0.949346
O O8 0.500000 0.331697 0.500000
O O9 0.656647 0.401951 0.298610
O O10 0.042856 0.371930 0.272851
O O11 0.017222 0.321628 0.120208
O O12 0.513421 0.052206 0.848668
O O13 0.000000 0.022111 0.500000
O O14 0.969807 0.993645 0.712776
O O15 0.500000 0.566439 0.000000
O O16 0.990722 0.912716 0.174523
O O17 0.500000 0.946887 0.000000
O O18 0.000000 0.380353 0.500000
O O19 0.415252 0.318193 0.224583
O O20 0.500000 0.288836 0.000000
#
# Coordination Sequence:
#
# PCOD9128846 Si02
#       8
#     4   4   4   4   4   4   4   4
#     4  11  23  42  68  94 133 176 219 273 334 398
#     4  11  22  43  70  93 136 177 226 281 333 401
#     4  11  22  44  66  92 138 172 217 282 330 399
#     4  10  25  45  65  96 133 170 223 276 332 400
#     4  11  23  44  66  99 135 178 221 278 335 399
#     4  12  25  42  70  98 127 180 223 272 345 400
#     4  11  23  44  68  95 136 175 222 278 337 401
#     4   9  22  43  64  98 128 174 225 274 336 395
#
# _framework density 22.290685
#
# number of rings (size 3 to 8) (size 9 to 14) (size 15 to 20)
#    0.000    1.250    5.000    0.375    1.750    1.000 
#   13.500    0.000    0.000    0.000    0.000    0.000 
#    0.000    0.000    0.000    0.000    0.000    0.000 
#
# Total GULP energy -89125.594936 kJ/mol
# GULP energy per Si atom -5570.349683 kJ/mol
# Density = 2.223995 g / cm^3
# Si number density = 22.290685 Si / 1000 Ang^3
#
#
#
# Elastic Constant Matrix: (Units=GPa)
#
#
# Indices 1 2 3 4 5 6 
#
# 1 90.5123 13.8394 13.0077 0.0000 -21.5453 0.0000
# 2 13.8394 55.6510 0.9732 0.0000 -8.8645 0.0000
# 3 13.0077 0.9732 63.9991 0.0000 -14.9180 0.0000
# 4 0.0000 0.0000 0.0000 -34.2307 0.0000 -3.0809
# 5 -21.5453 -8.8645 -14.9180 0.0000 40.5221 0.0000
# 6 0.0000 0.0000 0.0000 -3.0809 0.0000 6.0899
#
#
#
# Elastic Compliance Matrix: (Units=1/GPa)
#
#
# Indices 1 2 3 4 5 6 
#
# 1 0.012988 -0.002259 -0.001215 0.000000 0.005964 0.000000
# 2 -0.002259 0.019042 0.000941 0.000000 0.003311 0.000000
# 3 -0.001215 0.000941 0.017234 0.000000 0.005905 0.000000
# 4 0.000000 0.000000 0.000000 -0.027941 0.000000 -0.014135
# 5 0.005964 0.003311 0.005905 0.000000 0.030747 0.000000
# 6 0.000000 0.000000 0.000000 -0.014135 0.000000 0.157054
#
#
# Mechanical properties :
#
#
# Convention : Reuss Voigt Hill
#
# Bulk Modulus (GPa) = 22.62496 29.53366 26.07931
# Shear Modulus (GPa) = 21.84151 14.63240 18.23695
#
# Velocity S-wave (km/s) = 3.13365 2.56488 2.86342
# Velocity P-wave (km/s) = 4.82338 4.69570 4.75997
#
# Compressibility (1/GPa) = 0.04419898
#
# Stress axis : x y z
#
# Youngs Moduli (GPa) = 76.99492 52.51608 58.02408
#
# Poissons Ratio (x) = 0.11861 0.07051
# Poissons Ratio (y) = 0.17390 -0.05462
# Poissons Ratio (z) = 0.09356 -0.04944
#
# Static dielectric constant tensor:
#      x y z
#    x 1.959100 0.000000 0.077980 
#    y 0.000000 1.869470 0.000000 
#    z 0.077980 0.000000 1.957320 
# 
# From -- ./inp_files/51674.got.cif
#   From: 2010.05.17/outbox.cif.g08.bks.cpg/sg5_26_cif.got.tgz:51674.got - 2010.06.03 18:56:24.
