data_PCOD9128750
_publ_section_title
;
Structure prediction by ZEFSAII (Michael W. Deem and Ramdas Pophale) SiO2 
 PCOD9128750
Probable space group: C 2
;
_chemical_formula_sum "Si O2"
_cell_formula_units_Z 20
_cell_length_a 9.047262
_cell_length_b 10.374231
_cell_length_c 10.778070
_cell_angle_alpha 90.000000
_cell_angle_beta 140.046749
_cell_angle_gamma 90.000000
_cell_volume 649.619314
_symmetry_space_group_name_H-M "C 2"
_symmetry_group_IT_number 5
_symmetry_cell_setting 'monoclinic'
loop_
_space_group_symop_operation_xyz
x,y,z
-x,y,-z
1/2+x,1/2+y,z
1/2-x,1/2+y,-z
loop_
_atom_site_type_symbol
_atom_site_label
_atom_site_fract_x
_atom_site_fract_y
_atom_site_fract_z
Si Si1 0.746915 0.018730 0.593390
Si Si2 0.258295 0.533200 0.949280
Si Si3 0.720900 0.781900 0.214321
Si Si4 0.723264 0.060096 0.279645
Si Si5 0.002097 0.289496 0.669004
O O1 0.500000 0.063080 0.500000
O O2 0.988511 0.015897 0.827966
O O3 0.747644 0.063748 0.447846
O O4 0.682804 0.865997 0.532248
O O5 0.235049 0.657711 0.843587
O O6 0.176124 0.399737 0.833211
O O7 0.052234 0.563488 0.910212
O O8 0.649121 0.741870 0.308549
O O9 0.831223 0.922681 0.303785
O O10 0.500000 0.828301 0.000000
O O11 0.846810 0.178521 0.293800
#
# Coordination Sequence:
#
# PCOD9128750 Si02
#       5
#     4   4   4   4   4
#     4  10  24  52  80 123 176 227 280 364 446 531
#     4  10  24  50  88 118 165 231 286 355 444 526
#     4  10  24  49  83 119 166 227 285 356 439 529
#     4  10  26  54  81 125 169 221 292 363 433 531
#     4  10  26  53  84 124 167 222 294 361 433 529
#
# _framework density 30.787261000000001
#
# number of rings (size 3 to 8) (size 9 to 14) (size 15 to 20)
#    0.000    2.400    0.000    0.000    5.600    6.400 
#   25.200   16.000    0.000    0.000    0.000    0.000 
#    0.000    0.000    0.000    0.000    0.000    0.000 
#
# Total GULP energy -55910.838781 kJ/mol
# GULP energy per Si atom -5591.083878 kJ/mol
# Density = 3.071719 g / cm^3
# Si number density = 30.787261 Si / 1000 Ang^3
#
#
#
# Elastic Constant Matrix: (Units=GPa)
#
#
# Indices 1 2 3 4 5 6 
#
# 1 271.2040 166.2350 105.8511 0.0011 1.1605 0.0017
# 2 166.2350 254.8153 122.7311 0.0008 -17.7569 0.0010
# 3 105.8511 122.7311 200.0348 0.0003 23.0166 0.0008
# 4 0.0011 0.0008 0.0003 -1.8041 0.0004 -100.1396
# 5 1.1605 -17.7569 23.0166 0.0004 97.5312 0.0009
# 6 0.0017 0.0010 0.0008 -100.1396 0.0009 31.5296
#
#
#
# Elastic Compliance Matrix: (Units=1/GPa)
#
#
# Indices 1 2 3 4 5 6 
#
# 1 0.006349 -0.003671 -0.001051 0.000000 -0.000496 0.000000
# 2 -0.003671 0.008046 -0.003256 0.000000 0.002277 0.000000
# 3 -0.001051 -0.003256 0.007832 0.000000 -0.002429 0.000000
# 4 0.000000 0.000000 0.000000 -0.003126 0.000000 -0.009930
# 5 -0.000496 0.002277 -0.002429 0.000000 0.011247 0.000000
# 6 0.000000 0.000000 0.000000 -0.009930 0.000000 0.000179
#
#
# Mechanical properties :
#
#
# Convention : Reuss Voigt Hill
#
# Bulk Modulus (GPa) = 159.42138 168.40984 163.91561
# Shear Modulus (GPa) = 102.93668 47.53380 75.23524
#
# Velocity S-wave (km/s) = 5.78856 3.93357 4.94876
# Velocity P-wave (km/s) = 9.82703 8.68622 9.27419
#
# Compressibility (1/GPa) = 0.00627268
#
# Stress axis : x y z
#
# Youngs Moduli (GPa) = 157.49452 124.28282 127.67368
#
# Poissons Ratio (x) = 0.45621 0.13414
# Poissons Ratio (y) = 0.57812 0.41575
# Poissons Ratio (z) = 0.16547 0.40470
#
# Static dielectric constant tensor:
#      x y z
#    x 2.591880 0.000000 -0.094510 
#    y 0.000000 2.704230 0.000000 
#    z -0.094510 0.000000 2.643160 
# 
# From -- ./inp_files/19065.got.cif
#   From: 2010.05.17/outbox.cif.g08.bks.cpg/sg5_10_cif.got.tgz:19065.got - 2010.06.03 18:56:24.
