data_PCOD9128397
_publ_section_title
;
Structure prediction by ZEFSAII (Michael W. Deem and Ramdas Pophale) SiO2 
 PCOD9128397
Probable space group: C 2
;
_chemical_formula_sum "Si O2"
_cell_formula_units_Z 20
_cell_length_a 14.355301
_cell_length_b 5.000860
_cell_length_c 10.627432
_cell_angle_alpha 90.000000
_cell_angle_beta 98.833381
_cell_angle_gamma 90.000000
_cell_volume 753.882065
_symmetry_space_group_name_H-M "C 2"
_symmetry_group_IT_number 5
_symmetry_cell_setting 'monoclinic'
loop_
_space_group_symop_operation_xyz
x,y,z
-x,y,-z
1/2+x,1/2+y,z
1/2-x,1/2+y,-z
loop_
_atom_site_type_symbol
_atom_site_label
_atom_site_fract_x
_atom_site_fract_y
_atom_site_fract_z
Si Si1 0.094062 0.930700 0.544723
Si Si2 0.954713 0.566196 0.243592
Si Si3 0.049075 0.082292 0.142392
Si Si4 0.267453 0.152050 0.574502
Si Si5 0.252732 0.943488 0.083408
O O1 0.063349 0.679999 0.621704
O O2 0.137983 0.822181 0.420890
O O3 0.000000 0.091099 0.500000
O O4 0.178901 0.070348 0.641655
O O5 0.851293 0.495533 0.170471
O O6 0.024270 0.318546 0.233740
O O7 0.996735 0.812705 0.172447
O O8 0.159993 0.024614 0.143843
O O9 0.000000 0.167001 0.000000
O O10 0.209088 0.358295 0.471877
O O11 0.253503 0.137989 0.962221
#
# Coordination Sequence:
#
# PCOD9128397 Si02
#       5
#     4   4   4   4   4
#     4  10  24  43  68  94 133 172 212 266 321 376
#     4  12  26  41  67 100 127 172 218 259 325 387
#     4  12  24  43  67  94 134 166 220 263 321 384
#     4   8  20  42  64  86 128 160 214 260 312 368
#     4  12  23  42  67  87 127 171 206 267 320 366
#
# _framework density 26.529349
#
# number of rings (size 3 to 8) (size 9 to 14) (size 15 to 20)
#    1.200    0.000    4.000    1.800    2.800    4.000 
#    0.000    0.000    0.000    0.000    0.000    0.000 
#    0.000    0.000    0.000    0.000    0.000    0.000 
#
# Total GULP energy -55776.355456 kJ/mol
# GULP energy per Si atom -5577.635546 kJ/mol
# Density = 2.646897 g / cm^3
# Si number density = 26.529349 Si / 1000 Ang^3
#
#
#
# Elastic Constant Matrix: (Units=GPa)
#
#
# Indices 1 2 3 4 5 6 
#
# 1 194.0756 7.6408 28.8158 0.0000 -39.6012 0.0000
# 2 7.6408 126.9559 15.3514 0.0000 -21.7381 0.0000
# 3 28.8158 15.3514 85.5940 0.0000 -13.6117 0.0000
# 4 0.0000 0.0000 0.0000 37.0979 0.0000 -19.5315
# 5 -39.6012 -21.7381 -13.6117 0.0000 23.8023 0.0000
# 6 0.0000 0.0000 0.0000 -19.5315 0.0000 40.2813
#
#
#
# Elastic Compliance Matrix: (Units=1/GPa)
#
#
# Indices 1 2 3 4 5 6 
#
# 1 0.008335 0.002240 -0.000745 0.000000 0.015488 0.000000
# 2 0.002240 0.009949 -0.000551 0.000000 0.012498 0.000000
# 3 -0.000745 -0.000551 0.012932 0.000000 0.005652 0.000000
# 4 0.000000 0.000000 0.000000 0.036196 0.000000 0.017551
# 5 0.015488 0.012498 0.005652 0.000000 0.082428 0.000000
# 6 0.000000 0.000000 0.000000 0.017551 0.000000 0.033335
#
#
# Mechanical properties :
#
#
# Convention : Reuss Voigt Hill
#
# Bulk Modulus (GPa) = 30.20753 56.69352 43.45053
# Shear Modulus (GPa) = 25.99829 43.89081 34.94455
#
# Velocity S-wave (km/s) = 3.13386 4.07187 3.63327
# Velocity P-wave (km/s) = 4.95035 6.59723 5.83221
#
# Compressibility (1/GPa) = 0.03310432
#
# Stress axis : x y z
#
# Youngs Moduli (GPa) = 119.97028 100.51738 77.33016
#
# Poissons Ratio (x) = -0.22520 0.05761
# Poissons Ratio (y) = -0.26878 0.04261
# Poissons Ratio (z) = 0.08937 0.05538
#
# Static dielectric constant tensor:
#      x y z
#    x 2.181460 0.000000 0.030400 
#    y 0.000000 2.016100 0.000000 
#    z 0.030400 0.000000 2.342120 
# 
# From -- ./inp_files/40962.got.cif
#   From: 2010.05.17/outbox.cif.g08.bks.cpg/sg5_21_cif.got.tgz:40962.got - 2010.06.03 18:56:24.
