data_PCOD9128140
_publ_section_title
;
Structure prediction by ZEFSAII (Michael W. Deem and Ramdas Pophale) SiO2 
 PCOD9128140
Probable space group: C 2
;
_chemical_formula_sum "Si O2"
_cell_formula_units_Z 22
_cell_length_a 17.990757
_cell_length_b 8.905834
_cell_length_c 7.020933
_cell_angle_alpha 90.000000
_cell_angle_beta 49.261299
_cell_angle_gamma 90.000000
_cell_volume 852.339345
_symmetry_space_group_name_H-M "C 2"
_symmetry_group_IT_number 5
_symmetry_cell_setting 'monoclinic'
loop_
_space_group_symop_operation_xyz
x,y,z
-x,y,-z
1/2+x,1/2+y,z
1/2-x,1/2+y,-z
loop_
_atom_site_type_symbol
_atom_site_label
_atom_site_fract_x
_atom_site_fract_y
_atom_site_fract_z
Si Si1 0.366666 0.950190 0.817159
Si Si2 0.905400 0.708269 0.027373
Si Si3 0.686904 0.130086 0.432102
Si Si4 0.842540 0.942971 0.624918
Si Si5 0.111511 0.029871 0.870811
Si Si6 0.500000 0.685991 0.500000
O O1 0.434391 0.804140 0.729404
O O2 0.349984 0.982755 0.619117
O O3 0.258733 0.952145 0.091379
O O4 0.416128 0.089050 0.843950
O O5 0.829940 0.646880 0.313875
O O6 0.890762 0.881789 0.990582
O O7 0.000000 0.717016 0.000000
O O8 0.632199 0.266847 0.417081
O O9 0.804330 0.141853 0.200498
O O10 0.838609 0.966922 0.404082
O O11 0.919345 0.071019 0.553934
O O12 0.000000 0.076676 0.000000
#
# Coordination Sequence:
#
# PCOD9128140 Si02
#       6
#     4   4   4   4   4   2
#     4  12  26  49  79 113 157 210 260 324 389 473
#     4  10  23  47  72 109 151 197 258 323 385 466
#     4  11  25  46  78 110 154 210 255 323 396 459
#     4  11  27  48  75 114 163 202 260 333 389 467
#     4  10  24  45  77 112 154 206 261 318 394 467
#     4  12  30  48  78 124 152 212 270 316 400 470
#
# _framework density 25.811319000000001
#
# number of rings (size 3 to 8) (size 9 to 14) (size 15 to 20)
#    0.000    1.091    1.818    2.182   10.182    3.636 
#    3.273    0.000    0.000    0.000    0.000    0.000 
#    0.000    0.000    0.000    0.000    0.000    0.000 
#
# Total GULP energy -61404.388292 kJ/mol
# GULP energy per Si atom -5582.217117 kJ/mol
# Density = 2.575257 g / cm^3
# Si number density = 25.811319 Si / 1000 Ang^3
#
#
#
# Elastic Constant Matrix: (Units=GPa)
#
#
# Indices 1 2 3 4 5 6 
#
# 1 67.1116 56.0418 32.7315 0.0000 -12.9007 0.0000
# 2 56.0418 115.3305 38.1886 0.0000 -10.9010 0.0000
# 3 32.7315 38.1886 131.9097 0.0000 -23.9590 0.0000
# 4 0.0000 0.0000 0.0000 46.1544 0.0000 -7.4388
# 5 -12.9007 -10.9010 -23.9590 0.0000 44.9653 0.0000
# 6 0.0000 0.0000 0.0000 -7.4388 0.0000 47.0277
#
#
#
# Elastic Compliance Matrix: (Units=1/GPa)
#
#
# Indices 1 2 3 4 5 6 
#
# 1 0.026645 -0.011769 -0.002584 0.000000 0.003414 0.000000
# 2 -0.011769 0.014824 -0.001475 0.000000 -0.000568 0.000000
# 3 -0.002584 -0.001475 0.009355 0.000000 0.003886 0.000000
# 4 0.000000 0.000000 0.000000 0.022233 0.000000 0.003517
# 5 0.003414 -0.000568 0.003886 0.000000 0.025152 0.000000
# 6 0.000000 0.000000 0.000000 0.003517 0.000000 0.021820
#
#
# Mechanical properties :
#
#
# Convention : Reuss Voigt Hill
#
# Bulk Modulus (GPa) = 52.16943 63.14173 57.65558
# Shear Modulus (GPa) = 31.63072 40.12215 35.87643
#
# Velocity S-wave (km/s) = 3.50445 3.94692 3.73225
# Velocity P-wave (km/s) = 6.05233 6.72954 6.39990
#
# Compressibility (1/GPa) = 0.01916831
#
# Stress axis : x y z
#
# Youngs Moduli (GPa) = 37.53050 67.45771 106.89646
#
# Poissons Ratio (x) = 0.79391 0.27624
# Poissons Ratio (y) = 0.44170 0.15763
# Poissons Ratio (z) = 0.09699 0.09947
#
# Static dielectric constant tensor:
#      x y z
#    x 2.047720 0.000000 -0.003860 
#    y 0.000000 2.072580 0.000000 
#    z -0.003860 0.000000 2.152920 
# 
# From -- ./inp_files/28844.got.cif
#   From: 2010.05.17/outbox.cif.g08.bks.cpg/sg5_15_cif.got.tgz:28844.got - 2010.06.03 18:56:24.
