data_PCOD9128245
_publ_section_title
;
Structure prediction by ZEFSAII (Michael W. Deem and Ramdas Pophale) SiO2 
 PCOD9128245
Probable space group: C 2
;
_chemical_formula_sum "Si O2"
_cell_formula_units_Z 20
_cell_length_a 8.362069
_cell_length_b 5.458731
_cell_length_c 19.779794
_cell_angle_alpha 90.000000
_cell_angle_beta 60.267782
_cell_angle_gamma 90.000000
_cell_volume 784.013248
_symmetry_space_group_name_H-M "C 2"
_symmetry_group_IT_number 5
_symmetry_cell_setting 'monoclinic'
loop_
_space_group_symop_operation_xyz
x,y,z
-x,y,-z
1/2+x,1/2+y,z
1/2-x,1/2+y,-z
loop_
_atom_site_type_symbol
_atom_site_label
_atom_site_fract_x
_atom_site_fract_y
_atom_site_fract_z
Si Si1 0.786570 0.186840 0.529133
Si Si2 0.847311 0.548133 0.694656
Si Si3 0.712435 0.956126 0.969284
Si Si4 0.311551 0.558868 0.665630
Si Si5 0.589705 0.404170 0.214113
O O1 0.762476 0.466554 0.511198
O O2 0.700890 0.135855 0.621876
O O3 0.000000 0.144615 0.500000
O O4 0.935188 0.299648 0.648876
O O5 0.623050 0.493598 0.739012
O O6 0.873838 0.781235 0.640159
O O7 0.898061 0.623217 0.761003
O O8 0.827979 0.944912 0.875943
O O9 0.500000 0.904847 0.000000
O O10 0.775428 0.728470 0.002374
O O11 0.280032 0.523501 0.754191
#
# Coordination Sequence:
#
# PCOD9128245 Si02
#       5
#     4   4   4   4   4
#     4  12  28  47  71 103 143 184 229 287 352 411
#     4  10  24  39  71  96 132 169 235 278 334 396
#     4  12  28  46  72 102 145 183 230 286 351 410
#     4  10  26  42  72  95 138 173 235 275 341 405
#     4  10  26  42  71  97 135 177 232 276 341 404
#
# _framework density 25.509771000000001
#
# number of rings (size 3 to 8) (size 9 to 14) (size 15 to 20)
#    1.200    0.000    0.000    3.600   14.000    0.000 
#    0.000    0.000    0.000    0.000    0.000    0.000 
#    0.000    0.000    0.000    0.000    0.000    0.000 
#
# Total GULP energy -55737.355517 kJ/mol
# GULP energy per Si atom -5573.735552 kJ/mol
# Density = 2.545171 g / cm^3
# Si number density = 25.509771 Si / 1000 Ang^3
#
#
#
# Elastic Constant Matrix: (Units=GPa)
#
#
# Indices 1 2 3 4 5 6 
#
# 1 90.7896 12.5462 23.3692 0.0000 5.8710 0.0000
# 2 12.5462 175.8758 31.6339 0.0000 13.5840 0.0000
# 3 23.3692 31.6339 147.4956 0.0000 13.2221 0.0000
# 4 0.0000 0.0000 0.0000 46.4972 0.0000 24.8396
# 5 5.8710 13.5840 13.2221 0.0000 39.9369 0.0000
# 6 0.0000 0.0000 0.0000 24.8396 0.0000 66.7736
#
#
#
# Elastic Compliance Matrix: (Units=1/GPa)
#
#
# Indices 1 2 3 4 5 6 
#
# 1 0.011565 -0.000452 -0.001646 0.000000 -0.001002 0.000000
# 2 -0.000452 0.006038 -0.001077 0.000000 -0.001631 0.000000
# 3 -0.001646 -0.001077 0.007438 0.000000 -0.001854 0.000000
# 4 0.000000 0.000000 0.000000 0.026841 0.000000 -0.009985
# 5 -0.001002 -0.001631 -0.001854 0.000000 0.026355 0.000000
# 6 0.000000 0.000000 0.000000 -0.009985 0.000000 0.018690
#
#
# Mechanical properties :
#
#
# Convention : Reuss Voigt Hill
#
# Bulk Modulus (GPa) = 53.49965 61.02886 57.26426
# Shear Modulus (GPa) = 45.65931 53.74900 49.70415
#
# Velocity S-wave (km/s) = 4.23528 4.59518 4.41890
# Velocity P-wave (km/s) = 6.70332 7.22011 6.96651
#
# Compressibility (1/GPa) = 0.01869171
#
# Stress axis : x y z
#
# Youngs Moduli (GPa) = 86.46570 165.62483 134.44726
#
# Poissons Ratio (x) = 0.07480 0.22127
# Poissons Ratio (y) = 0.03905 0.14483
# Poissons Ratio (z) = 0.14230 0.17841
#
# Static dielectric constant tensor:
#      x y z
#    x 2.139600 0.000000 -0.082830 
#    y 0.000000 2.120640 0.000000 
#    z -0.082830 0.000000 2.078880 
# 
# From -- ./inp_files/59157.got.cif
#   From: 2010.05.17/outbox.cif.g08.bks.cpg/sg5_30_cif.got.tgz:59157.got - 2010.06.03 18:56:24.
