data_PCOD9128587
_publ_section_title
;
Structure prediction by ZEFSAII (Michael W. Deem and Ramdas Pophale) SiO2 
 PCOD9128587
Probable space group: C 2
;
_chemical_formula_sum "Si O2"
_cell_formula_units_Z 18
_cell_length_a 10.814914
_cell_length_b 14.263837
_cell_length_c 5.015668
_cell_angle_alpha 90.000000
_cell_angle_beta 97.833664
_cell_angle_gamma 90.000000
_cell_volume 766.507350
_symmetry_space_group_name_H-M "C 2"
_symmetry_group_IT_number 5
_symmetry_cell_setting 'monoclinic'
loop_
_space_group_symop_operation_xyz
x,y,z
-x,y,-z
1/2+x,1/2+y,z
1/2-x,1/2+y,-z
loop_
_atom_site_type_symbol
_atom_site_label
_atom_site_fract_x
_atom_site_fract_y
_atom_site_fract_z
Si Si1 0.234653 0.157610 0.234631
Si Si2 0.237949 0.367097 0.085660
Si Si3 0.350342 0.539192 0.308234
Si Si4 0.000000 0.476676 0.000000
Si Si5 0.500000 0.423321 0.000000
Si Si6 0.500000 0.103681 0.500000
O O1 0.201573 0.263934 0.161363
O O2 0.163681 0.114211 0.465843
O O3 0.380274 0.159118 0.360407
O O4 0.207612 0.090814 0.973425
O O5 0.274588 0.441623 0.329715
O O6 0.369262 0.367024 0.958198
O O7 0.115053 0.414383 0.928154
O O8 0.479350 0.494824 0.237026
O O9 0.961251 0.541327 0.741304
#
# Coordination Sequence:
#
# PCOD9128587 Si02
#       6
#     4   4   4   2   2   2
#     4  12  24  43  74 107 143 192 245 296 376 429
#     4  10  24  47  74 110 143 194 243 308 359 446
#     4  10  24  46  69 106 146 185 240 309 358 429
#     4  12  24  46  72 100 152 186 242 304 374 414
#     4   8  20  50  68 106 148 194 236 308 362 434
#     4  12  20  44  68 100 140 196 236 302 352 442
#
# _framework density 23.483142999999998
#
# number of rings (size 3 to 8) (size 9 to 14) (size 15 to 20)
#    1.333    0.000    4.444    0.000    0.000    8.000 
#    4.000    0.000    0.000    0.000    0.000    0.000 
#    0.000    0.000    0.000    0.000    0.000    0.000 
#
# Total GULP energy -50182.740130 kJ/mol
# GULP energy per Si atom -5575.860014 kJ/mol
# Density = 2.342969 g / cm^3
# Si number density = 23.483143 Si / 1000 Ang^3
#
#
#
# Elastic Constant Matrix: (Units=GPa)
#
#
# Indices 1 2 3 4 5 6 
#
# 1 49.9917 -25.5902 -15.6119 0.0000 -8.8447 0.0000
# 2 -25.5902 108.3708 21.4115 0.0000 -5.2403 0.0000
# 3 -15.6119 21.4115 119.0385 0.0000 -16.3484 0.0000
# 4 0.0000 0.0000 0.0000 20.5413 0.0000 -7.3739
# 5 -8.8447 -5.2403 -16.3484 0.0000 32.8895 0.0000
# 6 0.0000 0.0000 0.0000 -7.3739 0.0000 21.6004
#
#
#
# Elastic Compliance Matrix: (Units=1/GPa)
#
#
# Indices 1 2 3 4 5 6 
#
# 1 0.025864 0.005851 0.003674 0.000000 0.009714 0.000000
# 2 0.005851 0.010907 -0.000794 0.000000 0.002917 0.000000
# 3 0.003674 -0.000794 0.009813 0.000000 0.005739 0.000000
# 4 0.000000 0.000000 0.000000 0.055482 0.000000 0.018940
# 5 0.009714 0.002917 0.005739 0.000000 0.036335 0.000000
# 6 0.000000 0.000000 0.000000 0.018940 0.000000 0.052761
#
#
# Mechanical properties :
#
#
# Convention : Reuss Voigt Hill
#
# Bulk Modulus (GPa) = 15.61343 26.42444 21.01894
# Shear Modulus (GPa) = 25.63454 34.81901 30.22678
#
# Velocity S-wave (km/s) = 3.30754 3.85479 3.59161
# Velocity P-wave (km/s) = 4.60974 5.57580 5.11562
#
# Compressibility (1/GPa) = 0.06404743
#
# Stress axis : x y z
#
# Youngs Moduli (GPa) = 38.66315 91.68270 101.90062
#
# Poissons Ratio (x) = -0.53647 -0.37435
# Poissons Ratio (y) = -0.22623 0.08090
# Poissons Ratio (z) = -0.14204 0.07279
#
# Static dielectric constant tensor:
#      x y z
#    x 2.027640 0.000000 0.041630 
#    y 0.000000 1.816820 0.000000 
#    z 0.041630 0.000000 1.951410 
# 
# From -- ./inp_files/4582.got.cif
#   From: 2010.05.17/outbox.cif.g08.bks.cpg/sg5_3_cif.got.tgz:4582.got - 2010.06.03 18:56:24.
