data_PCOD9128270
_publ_section_title
;
Structure prediction by ZEFSAII (Michael W. Deem and Ramdas Pophale) SiO2 
 PCOD9128270
Probable space group: C 2
;
_chemical_formula_sum "Si O2"
_cell_formula_units_Z 28
_cell_length_a 26.030035
_cell_length_b 8.221352
_cell_length_c 22.179409
_cell_angle_alpha 90.000000
_cell_angle_beta 14.822344
_cell_angle_gamma 90.000000
_cell_volume 1214.247375
_symmetry_space_group_name_H-M "C 2"
_symmetry_group_IT_number 5
_symmetry_cell_setting 'monoclinic'
loop_
_space_group_symop_operation_xyz
x,y,z
-x,y,-z
1/2+x,1/2+y,z
1/2-x,1/2+y,-z
loop_
_atom_site_type_symbol
_atom_site_label
_atom_site_fract_x
_atom_site_fract_y
_atom_site_fract_z
Si Si1 0.755112 0.171160 0.344881
Si Si2 0.824498 0.673774 0.115373
Si Si3 0.500000 0.907575 0.000000
Si Si4 0.956796 0.458629 0.746650
Si Si5 0.859675 0.113908 0.799403
Si Si6 0.135833 0.789213 0.672241
Si Si7 0.195019 0.946000 0.492027
Si Si8 0.000000 0.905758 0.000000
O O1 0.814301 0.286327 0.334336
O O2 0.536875 0.100033 0.610095
O O3 0.897768 0.023151 0.165001
O O4 0.805919 0.295440 0.232975
O O5 0.944770 0.521740 0.006448
O O6 0.964956 0.786312 0.914994
O O7 0.669045 0.612843 0.240833
O O8 0.816326 0.791851 0.183359
O O9 0.876359 0.300714 0.802372
O O10 0.163623 0.386462 0.539349
O O11 0.812391 0.527440 0.963468
O O12 0.061694 0.019506 0.589646
O O13 0.059381 0.869509 0.698099
O O14 0.193380 0.599369 0.606302
#
# Coordination Sequence:
#
# PCOD9128270 Si02
#       8
#     4   4   2   4   4   4   4   2
#     4  11  21  43  64  95 129 169 231 279 316 391
#     4  11  21  44  65  96 130 177 226 283 322 396
#     4  10  24  40  70  96 126 176 238 282 310 388
#     4  11  23  42  66  99 135 174 215 280 339 408
#     4  11  25  43  66 101 143 170 210 283 354 395
#     4  11  21  38  69  97 128 175 224 273 333 401
#     4  11  23  40  68 100 134 171 220 276 343 407
#     4  10  24  40  68  94 128 178 238 282 310 386
#
# _framework density 23.059553000000001
#
# number of rings (size 3 to 8) (size 9 to 14) (size 15 to 20)
#    0.000    1.143    2.857    4.286    0.000    0.000 
#    0.000    7.143    0.000    0.000    0.000    0.000 
#    0.000    0.000    0.000    0.000    0.000    0.000 
#
# Total GULP energy -77944.532486 kJ/mol
# GULP energy per Si atom -5567.466606 kJ/mol
# Density = 2.300707 g / cm^3
# Si number density = 23.059553 Si / 1000 Ang^3
#
#
#
# Elastic Constant Matrix: (Units=GPa)
#
#
# Indices 1 2 3 4 5 6 
#
# 1 113.1027 55.2018 -2.9026 0.0056 -21.0704 -0.0029
# 2 55.2018 107.7843 7.5604 0.0107 2.5678 -0.0063
# 3 -2.9026 7.5604 23.2875 0.0145 -2.1281 -0.0069
# 4 0.0056 0.0107 0.0145 43.1979 -0.0060 10.8230
# 5 -21.0704 2.5678 -2.1281 -0.0060 35.4629 0.0019
# 6 -0.0029 -0.0063 -0.0069 10.8230 0.0019 40.1206
#
#
#
# Elastic Compliance Matrix: (Units=1/GPa)
#
#
# Indices 1 2 3 4 5 6 
#
# 1 0.014776 -0.008176 0.005382 0.000000 0.009694 0.000000
# 2 -0.008176 0.014045 -0.006150 -0.000002 -0.006244 0.000001
# 3 0.005382 -0.006150 0.046195 -0.000017 0.006415 0.000012
# 4 0.000000 -0.000002 -0.000017 0.024827 0.000003 -0.006697
# 5 0.009694 -0.006244 0.006415 0.000003 0.034795 -0.000002
# 6 0.000000 0.000001 0.000012 -0.006697 -0.000002 0.026732
#
#
# Mechanical properties :
#
#
# Convention : Reuss Voigt Hill
#
# Bulk Modulus (GPa) = 17.50417 40.43261 28.96839
# Shear Modulus (GPa) = 25.21423 36.04395 30.62909
#
# Velocity S-wave (km/s) = 3.31031 3.95787 3.64848
# Velocity P-wave (km/s) = 4.71362 6.20148 5.50802
#
# Compressibility (1/GPa) = 0.05712923
#
# Stress axis : x y z
#
# Youngs Moduli (GPa) = 67.67690 71.19844 21.64738
#
# Poissons Ratio (x) = 0.58212 -0.11651
# Poissons Ratio (y) = 0.55333 0.13312
# Poissons Ratio (z) = -0.36424 0.43784
#
# Static dielectric constant tensor:
#      x y z
#    x 1.969430 0.000000 0.042500 
#    y 0.000000 1.864930 0.000000 
#    z 0.042500 0.000000 1.933450 
# 
# From -- ./inp_files/67362.got.cif
#   From: 2010.05.17/outbox.cif.g08.bks.cpg/sg5_34_cif.got.tgz:67362.got - 2010.06.03 18:56:24.
