data_PCOD9128760
_publ_section_title
;
Structure prediction by ZEFSAII (Michael W. Deem and Ramdas Pophale) SiO2 
 PCOD9128760
Probable space group: C 2
;
_chemical_formula_sum "Si O2"
_cell_formula_units_Z 22
_cell_length_a 16.922666
_cell_length_b 9.239055
_cell_length_c 11.336620
_cell_angle_alpha 90.000000
_cell_angle_beta 151.374582
_cell_angle_gamma 90.000000
_cell_volume 849.159264
_symmetry_space_group_name_H-M "C 2"
_symmetry_group_IT_number 5
_symmetry_cell_setting 'monoclinic'
loop_
_space_group_symop_operation_xyz
x,y,z
-x,y,-z
1/2+x,1/2+y,z
1/2-x,1/2+y,-z
loop_
_atom_site_type_symbol
_atom_site_label
_atom_site_fract_x
_atom_site_fract_y
_atom_site_fract_z
Si Si1 0.445696 0.395160 0.795250
Si Si2 0.796746 0.642148 0.458635
Si Si3 0.000000 0.007382 0.500000
Si Si4 0.513785 0.764301 0.688354
Si Si5 0.199879 0.432929 0.731623
Si Si6 0.864380 0.379426 0.901547
O O1 0.414848 0.246029 0.686889
O O2 0.132730 0.567109 0.567050
O O3 0.500000 0.367973 0.000000
O O4 0.618138 0.467895 0.985731
O O5 0.699143 0.515620 0.400729
O O6 0.672828 0.804549 0.597602
O O7 0.669331 0.752456 0.235276
O O8 0.823238 0.933652 0.307578
O O9 0.956405 0.109104 0.330805
O O10 0.615538 0.871136 0.736319
O O11 0.556889 0.815859 0.874922
O O12 0.000000 0.471173 0.000000
#
# Coordination Sequence:
#
# PCOD9128760 Si02
#       6
#     4   4   2   4   4   4
#     4  10  24  50  75 115 167 216 280 350 422 501
#     4  11  26  49  78 120 168 224 281 351 425 504
#     4  10  28  56  84 118 168 226 286 344 424 504
#     4  10  26  54  78 118 166 220 281 357 416 502
#     4   9  22  50  77 106 159 217 271 347 415 493
#     4  12  29  50  83 127 166 222 286 348 419 515
#
# _framework density 25.907979999999998
#
# number of rings (size 3 to 8) (size 9 to 14) (size 15 to 20)
#    0.000    1.818    0.000    1.636   10.182    7.273 
#    9.818    0.000    0.000    0.000    0.000    0.000 
#    0.000    0.000    0.000    0.000    0.000    0.000 
#
# Total GULP energy -61257.693028 kJ/mol
# GULP energy per Si atom -5568.881184 kJ/mol
# Density = 2.584901 g / cm^3
# Si number density = 25.907980 Si / 1000 Ang^3
#
#
#
# Elastic Constant Matrix: (Units=GPa)
#
#
# Indices 1 2 3 4 5 6 
#
# 1 163.8605 62.6485 78.0654 0.0000 -10.2947 0.0000
# 2 62.6485 113.8550 53.1532 0.0000 -6.8025 0.0000
# 3 78.0654 53.1532 125.3977 0.0000 -7.5157 0.0000
# 4 0.0000 0.0000 0.0000 26.9068 0.0000 -14.1456
# 5 -10.2947 -6.8025 -7.5157 0.0000 53.8381 0.0000
# 6 0.0000 0.0000 0.0000 -14.1456 0.0000 31.3954
#
#
#
# Elastic Compliance Matrix: (Units=1/GPa)
#
#
# Indices 1 2 3 4 5 6 
#
# 1 0.009495 -0.003042 -0.004574 0.000000 0.000793 0.000000
# 2 -0.003042 0.011954 -0.003144 0.000000 0.000490 0.000000
# 3 -0.004574 -0.003144 0.012180 0.000000 0.000429 0.000000
# 4 0.000000 0.000000 0.000000 0.048701 0.000000 0.021943
# 5 0.000793 0.000490 0.000429 0.000000 0.018847 0.000000
# 6 0.000000 0.000000 0.000000 0.021943 0.000000 0.041739
#
#
# Mechanical properties :
#
#
# Convention : Reuss Voigt Hill
#
# Bulk Modulus (GPa) = 82.57939 87.87193 85.22566
# Shear Modulus (GPa) = 29.67850 36.37780 33.02815
#
# Velocity S-wave (km/s) = 3.38825 3.75122 3.57434
# Velocity P-wave (km/s) = 6.87388 7.26311 7.07117
#
# Compressibility (1/GPa) = 0.01210956
#
# Stress axis : x y z
#
# Youngs Moduli (GPa) = 105.32348 83.65523 82.09855
#
# Poissons Ratio (x) = 0.25445 0.37552
# Poissons Ratio (y) = 0.32036 0.25812
# Poissons Ratio (z) = 0.48175 0.26302
#
# Static dielectric constant tensor:
#      x y z
#    x 2.323550 0.000000 0.328500 
#    y 0.000000 2.105480 0.000000 
#    z 0.328500 0.000000 2.340490 
# 
# From -- ./inp_files/42309.got.cif
#   From: 2010.05.17/outbox.cif.g08.bks.cpg/sg5_22_cif.got.tgz:42309.got - 2010.06.03 18:56:24.
