data_PCOD9128528
_publ_section_title
;
Structure prediction by ZEFSAII (Michael W. Deem and Ramdas Pophale) SiO2 
 PCOD9128528
Probable space group: C 2
;
_chemical_formula_sum "Si O2"
_cell_formula_units_Z 12
_cell_length_a 7.554386
_cell_length_b 10.709630
_cell_length_c 7.736941
_cell_angle_alpha 90.000000
_cell_angle_beta 53.459808
_cell_angle_gamma 90.000000
_cell_volume 502.916694
_symmetry_space_group_name_H-M "C 2"
_symmetry_group_IT_number 5
_symmetry_cell_setting 'monoclinic'
loop_
_space_group_symop_operation_xyz
x,y,z
-x,y,-z
1/2+x,1/2+y,z
1/2-x,1/2+y,-z
loop_
_atom_site_type_symbol
_atom_site_label
_atom_site_fract_x
_atom_site_fract_y
_atom_site_fract_z
Si Si1 0.821662 0.980820 0.465873
Si Si2 0.403847 0.306483 0.867143
Si Si3 0.316631 0.035347 0.842013
O O1 0.000000 0.034113 0.500000
O O2 0.905231 0.838030 0.382801
O O3 0.576821 0.005941 0.674882
O O4 0.799707 0.020148 0.277113
O O5 0.279485 0.179693 0.903041
O O6 0.500000 0.284372 0.000000
O O7 0.265828 0.433804 0.970895
#
# Coordination Sequence:
#
# PCOD9128528 Si02
#       3
#     4   4   4
#     4  10  24  45  69 104 137 183 227 285 343 408
#     4  10  24  46  70 104 138 183 231 281 348 408
#     4  10  24  49  70 102 141 181 231 285 344 411
#
# _framework density 23.860811999999999
#
# number of rings (size 3 to 8) (size 9 to 14) (size 15 to 20)
#    0.000    2.000    0.000    0.000    9.333    2.667 
#   18.000    0.000    0.000    0.000    0.000    0.000 
#    0.000    0.000    0.000    0.000    0.000    0.000 
#
# Total GULP energy -33450.859399 kJ/mol
# GULP energy per Si atom -5575.143233 kJ/mol
# Density = 2.380650 g / cm^3
# Si number density = 23.860812 Si / 1000 Ang^3
#
#
#
# Elastic Constant Matrix: (Units=GPa)
#
#
# Indices 1 2 3 4 5 6 
#
# 1 173.9334 48.8181 47.5703 -0.0001 12.1458 0.0002
# 2 48.8181 167.2197 41.2930 0.0000 -10.8884 0.0000
# 3 47.5703 41.2930 59.5309 0.0000 -9.1985 0.0000
# 4 -0.0001 0.0000 0.0000 16.6997 0.0000 -10.9879
# 5 12.1458 -10.8884 -9.1985 0.0000 51.9779 -0.0001
# 6 0.0002 0.0000 0.0000 -10.9879 -0.0001 26.8624
#
#
#
# Elastic Compliance Matrix: (Units=1/GPa)
#
#
# Indices 1 2 3 4 5 6 
#
# 1 0.007926 -0.001007 -0.006121 0.000000 -0.003146 0.000000
# 2 -0.001007 0.007365 -0.004142 0.000000 0.001045 0.000000
# 3 -0.006121 -0.004142 0.025342 0.000000 0.005047 0.000000
# 4 0.000000 0.000000 0.000000 0.081933 0.000000 0.033514
# 5 -0.003146 0.001045 0.005047 0.000000 0.021086 0.000000
# 6 0.000000 0.000000 0.000000 0.033514 0.000000 0.050936
#
#
# Mechanical properties :
#
#
# Convention : Reuss Voigt Hill
#
# Bulk Modulus (GPa) = 55.27225 75.11634 65.19430
# Shear Modulus (GPa) = 22.40546 36.64149 29.52348
#
# Velocity S-wave (km/s) = 3.06765 3.92297 3.52137
# Velocity P-wave (km/s) = 5.98013 7.21588 6.62688
#
# Compressibility (1/GPa) = 0.01809226
#
# Stress axis : x y z
#
# Youngs Moduli (GPa) = 126.17069 135.77382 39.45962
#
# Poissons Ratio (x) = 0.13676 0.24153
# Poissons Ratio (y) = 0.12708 0.16346
# Poissons Ratio (z) = 0.77227 0.56243
#
# Static dielectric constant tensor:
#      x y z
#    x 1.939660 0.000000 -0.048460 
#    y 0.000000 1.925280 0.000000 
#    z -0.048460 0.000000 1.994280 
# 
# From -- ./inp_files/13461.got.cif
#   From: 2010.05.17/outbox.cif.g08.bks.cpg/sg5_7_cif.got.tgz:13461.got - 2010.06.03 18:56:24.
