data_PCOD9128564
_publ_section_title
;
Structure prediction by ZEFSAII (Michael W. Deem and Ramdas Pophale) SiO2 
 PCOD9128564
Probable space group: C 2
;
_chemical_formula_sum "Si O2"
_cell_formula_units_Z 18
_cell_length_a 18.143042
_cell_length_b 9.598674
_cell_length_c 5.263634
_cell_angle_alpha 90.000000
_cell_angle_beta 120.193054
_cell_angle_gamma 90.000000
_cell_volume 792.299754
_symmetry_space_group_name_H-M "C 2"
_symmetry_group_IT_number 5
_symmetry_cell_setting 'monoclinic'
loop_
_space_group_symop_operation_xyz
x,y,z
-x,y,-z
1/2+x,1/2+y,z
1/2-x,1/2+y,-z
loop_
_atom_site_type_symbol
_atom_site_label
_atom_site_fract_x
_atom_site_fract_y
_atom_site_fract_z
Si Si1 0.605303 0.708700 0.354396
Si Si2 0.339484 0.619338 0.051108
Si Si3 0.735588 0.328703 0.167215
Si Si4 0.553123 0.188534 0.831795
Si Si5 0.500000 0.921698 0.500000
O O1 0.593328 0.644740 0.057321
O O2 0.699285 0.780464 0.502567
O O3 0.545935 0.826875 0.371674
O O4 0.615036 0.595542 0.597374
O O5 0.278755 0.492127 0.877284
O O6 0.284317 0.757054 0.015590
O O7 0.643013 0.260670 0.027911
O O8 0.500000 0.250937 0.500000
O O9 0.562855 0.027599 0.755756
O O10 0.500000 0.191957 0.000000
#
# Coordination Sequence:
#
# PCOD9128564 Si02
#       5
#     4   4   4   4   2
#     4  10  25  38  72  93 135 171 221 269 325 396
#     4  10  25  40  70  95 133 176 220 268 328 395
#     4  10  24  46  65 103 132 178 216 274 331 396
#     4  10  25  39  71  93 135 172 220 266 328 394
#     4  10  24  46  66 102 130 178 220 274 328 394
#
# _framework density 22.718672999999999
#
# number of rings (size 3 to 8) (size 9 to 14) (size 15 to 20)
#    2.000    0.000    0.000    1.333    9.333    0.000 
#    6.000    0.000    0.000    0.000    0.000    0.000 
#    0.000    0.000    0.000    0.000    0.000    0.000 
#
# Total GULP energy -50169.158983 kJ/mol
# GULP energy per Si atom -5574.350998 kJ/mol
# Density = 2.266696 g / cm^3
# Si number density = 22.718673 Si / 1000 Ang^3
#
#
#
# Elastic Constant Matrix: (Units=GPa)
#
#
# Indices 1 2 3 4 5 6 
#
# 1 98.6836 8.4348 40.2894 0.0000 -29.6261 0.0000
# 2 8.4348 37.2366 9.8164 0.0000 -7.8910 0.0000
# 3 40.2894 9.8164 81.8263 0.0000 -28.9606 0.0000
# 4 0.0000 0.0000 0.0000 -27.0133 0.0000 -1.4989
# 5 -29.6261 -7.8910 -28.9606 0.0000 54.3535 0.0000
# 6 0.0000 0.0000 0.0000 -1.4989 0.0000 27.5653
#
#
#
# Elastic Compliance Matrix: (Units=1/GPa)
#
#
# Indices 1 2 3 4 5 6 
#
# 1 0.013629 -0.000789 -0.004963 0.000000 0.004670 0.000000
# 2 -0.000789 0.028122 -0.002086 0.000000 0.002541 0.000000
# 3 -0.004963 -0.002086 0.017069 0.000000 0.006087 0.000000
# 4 0.000000 0.000000 0.000000 -0.036908 0.000000 -0.002007
# 5 0.004670 0.002541 0.006087 0.000000 0.024555 0.000000
# 6 0.000000 0.000000 0.000000 -0.002007 0.000000 0.036168
#
#
# Mechanical properties :
#
#
# Convention : Reuss Voigt Hill
#
# Bulk Modulus (GPa) = 23.17800 37.20309 30.19055
# Shear Modulus (GPa) = 44.36752 21.59482 32.98117
#
# Velocity S-wave (km/s) = 4.42397 3.08641 3.81428
# Velocity P-wave (km/s) = 6.02658 5.39559 5.71979
#
# Compressibility (1/GPa) = 0.04314436
#
# Stress axis : x y z
#
# Youngs Moduli (GPa) = 73.37254 35.55878 58.58470
#
# Poissons Ratio (x) = 0.02807 0.29077
# Poissons Ratio (y) = 0.05791 0.12219
# Poissons Ratio (z) = 0.36417 0.07417
#
# Static dielectric constant tensor:
#      x y z
#    x 1.858810 0.000000 0.079780 
#    y 0.000000 1.824890 0.000000 
#    z 0.079780 0.000000 1.990890 
# 
# From -- ./inp_files/7889.got.cif
#   From: 2010.05.17/outbox.cif.g08.bks.cpg/sg5_4_cif.got.tgz:7889.got - 2010.06.03 18:56:24.
