data_PCOD9128249
_publ_section_title
;
Structure prediction by ZEFSAII (Michael W. Deem and Ramdas Pophale) SiO2 
 PCOD9128249
Probable space group: C 2
;
_chemical_formula_sum "Si O2"
_cell_formula_units_Z 32
_cell_length_a 5.684837
_cell_length_b 18.100297
_cell_length_c 15.613567
_cell_angle_alpha 90.000000
_cell_angle_beta 80.312465
_cell_angle_gamma 90.000000
_cell_volume 1583.683069
_symmetry_space_group_name_H-M "C 2"
_symmetry_group_IT_number 5
_symmetry_cell_setting 'monoclinic'
loop_
_space_group_symop_operation_xyz
x,y,z
-x,y,-z
1/2+x,1/2+y,z
1/2-x,1/2+y,-z
loop_
_atom_site_type_symbol
_atom_site_label
_atom_site_fract_x
_atom_site_fract_y
_atom_site_fract_z
Si Si1 0.161332 0.431800 0.404322
Si Si2 0.928561 0.165816 0.238273
Si Si3 0.656005 0.667469 0.406457
Si Si4 0.552956 0.975657 0.831997
Si Si5 0.527437 0.071502 0.321807
Si Si6 0.565401 0.828857 0.731927
Si Si7 0.470218 0.303528 0.404565
Si Si8 0.991333 0.036918 0.100979
O O1 0.400363 0.389225 0.413180
O O2 0.000000 0.433421 0.500000
O O3 0.191010 0.511088 0.359102
O O4 0.058688 0.377187 0.336284
O O5 0.652440 0.140773 0.267679
O O6 0.010553 0.250537 0.221565
O O7 0.003582 0.110883 0.158040
O O8 0.024974 0.147170 0.327044
O O9 0.500000 0.670561 0.500000
O O10 0.858489 0.606272 0.403158
O O11 0.767979 0.748083 0.384615
O O12 0.604222 0.024469 0.743575
O O13 0.270725 0.996732 0.867574
O O14 0.765230 0.993912 0.885976
O O15 0.580834 0.890113 0.804801
O O16 0.803893 0.800916 0.669674
O O17 0.500000 0.277386 0.500000
O O18 0.000000 0.052925 0.000000
#
# Coordination Sequence:
#
# PCOD9128249 Si02
#       8
#     4   4   4   4   4   4   4   4
#     4  11  23  38  54  86 123 174 236 280 326 383
#     4  11  23  43  65  95 129 173 226 276 341 408
#     4  12  24  37  61  90 133 183 233 279 333 394
#     4  10  24  44  70 104 133 173 221 273 350 412
#     4  10  24  40  57  91 130 173 223 286 331 395
#     4  11  23  40  65  89 131 177 219 287 335 399
#     4  12  23  38  59  86 128 185 237 277 337 391
#     4  11  24  48  76 103 138 173 216 280 354 425
#
# _framework density 20.206064999999999
#
# number of rings (size 3 to 8) (size 9 to 14) (size 15 to 20)
#    0.000    1.000    5.000    1.500    7.000    0.000 
#    0.000    1.250    0.000    0.000    0.000    0.000 
#    0.000    0.000    0.000    0.000    0.000    0.000 
#
# Total GULP energy -89097.748784 kJ/mol
# GULP energy per Si atom -5568.609299 kJ/mol
# Density = 2.016007 g / cm^3
# Si number density = 20.206065 Si / 1000 Ang^3
#
#
#
# Elastic Constant Matrix: (Units=GPa)
#
#
# Indices 1 2 3 4 5 6 
#
# 1 53.9879 32.9285 28.9847 0.0000 6.0976 0.0000
# 2 32.9285 145.6524 48.1938 0.0000 7.4640 0.0000
# 3 28.9847 48.1938 107.3866 0.0000 13.6761 0.0000
# 4 0.0000 0.0000 0.0000 56.6495 0.0000 -10.4995
# 5 6.0976 7.4640 13.6761 0.0000 30.2014 0.0000
# 6 0.0000 0.0000 0.0000 -10.4995 0.0000 34.0394
#
#
#
# Elastic Compliance Matrix: (Units=1/GPa)
#
#
# Indices 1 2 3 4 5 6 
#
# 1 0.023367 -0.003734 -0.004402 0.000000 -0.001802 0.000000
# 2 -0.003734 0.008664 -0.002869 0.000000 -0.000088 0.000000
# 3 -0.004402 -0.002869 0.012293 0.000000 -0.003969 0.000000
# 4 0.000000 0.000000 0.000000 0.018723 0.000000 0.005775
# 5 -0.001802 -0.000088 -0.003969 0.000000 0.035294 0.000000
# 6 0.000000 0.000000 0.000000 0.005775 0.000000 0.031159
#
#
# Mechanical properties :
#
#
# Convention : Reuss Voigt Hill
#
# Bulk Modulus (GPa) = 44.81447 58.58234 51.69840
# Shear Modulus (GPa) = 31.45705 37.30605 34.38155
#
# Velocity S-wave (km/s) = 3.94993 4.30150 4.12946
# Velocity P-wave (km/s) = 6.55968 7.32980 6.95541
#
# Compressibility (1/GPa) = 0.02231422
#
# Stress axis : x y z
#
# Youngs Moduli (GPa) = 42.79586 115.42467 81.34502
#
# Poissons Ratio (x) = 0.43098 0.35806
# Poissons Ratio (y) = 0.15979 0.23339
# Poissons Ratio (z) = 0.18838 0.33117
#
# Static dielectric constant tensor:
#      x y z
#    x 1.836510 0.000000 0.055960 
#    y 0.000000 1.722230 0.000000 
#    z 0.055960 0.000000 1.704310 
# 
# From -- ./inp_files/49344.got.cif
#   From: 2010.05.17/outbox.cif.g08.bks.cpg/sg5_25_cif.got.tgz:49344.got - 2010.06.03 18:56:24.
