data_PCOD9128076
_publ_section_title
;
Structure prediction by ZEFSAII (Michael W. Deem and Ramdas Pophale) SiO2 
 PCOD9128076
Probable space group: C 2
;
_chemical_formula_sum "Si O2"
_cell_formula_units_Z 20
_cell_length_a 7.354386
_cell_length_b 12.448374
_cell_length_c 17.138902
_cell_angle_alpha 90.000000
_cell_angle_beta 137.821622
_cell_angle_gamma 90.000000
_cell_volume 1053.537231
_symmetry_space_group_name_H-M "C 2"
_symmetry_group_IT_number 5
_symmetry_cell_setting 'monoclinic'
loop_
_space_group_symop_operation_xyz
x,y,z
-x,y,-z
1/2+x,1/2+y,z
1/2-x,1/2+y,-z
loop_
_atom_site_type_symbol
_atom_site_label
_atom_site_fract_x
_atom_site_fract_y
_atom_site_fract_z
Si Si1 0.207262 0.648110 0.206964
Si Si2 0.665199 0.184023 0.624170
Si Si3 0.000000 0.891089 0.500000
Si Si4 0.505516 0.028639 0.296612
Si Si5 0.992191 0.872454 0.904560
Si Si6 0.500000 0.001612 0.000000
O O1 0.521187 0.680312 0.298692
O O2 0.141908 0.581936 0.264099
O O3 0.042168 0.758909 0.149368
O O4 0.125881 0.575444 0.107537
O O5 0.500000 0.131114 0.500000
O O6 0.551760 0.306383 0.587100
O O7 0.612611 0.122040 0.686553
O O8 0.264847 0.964032 0.582718
O O9 0.264533 0.948487 0.195934
O O10 0.263218 0.930459 0.962179
O O11 0.000000 0.854177 0.000000
#
# Coordination Sequence:
#
# PCOD9128076 Si02
#       6
#     4   4   2   4   4   2
#     4  12  25  43  70  99 133 176 227 267 329 403
#     4  10  23  46  66  98 134 171 220 280 321 395
#     4  10  24  44  68 100 134 168 220 282 324 390
#     4  12  24  44  71  96 132 179 220 271 338 386
#     4  12  25  43  67  99 135 176 222 275 325 389
#     4  12  26  42  70 100 132 180 222 272 328 390
#
# _framework density 18.983667000000001
#
# number of rings (size 3 to 8) (size 9 to 14) (size 15 to 20)
#    0.600    0.000    7.000    1.200    0.000    4.800 
#    3.600    0.000    0.000    0.000    0.000    0.000 
#    0.000    0.000    0.000    0.000    0.000    0.000 
#
# Total GULP energy -55848.945875 kJ/mol
# GULP energy per Si atom -5584.894587 kJ/mol
# Density = 1.894046 g / cm^3
# Si number density = 18.983667 Si / 1000 Ang^3
#
#
#
# Elastic Constant Matrix: (Units=GPa)
#
#
# Indices 1 2 3 4 5 6 
#
# 1 76.2433 34.8249 27.8177 0.0000 3.0282 0.0000
# 2 34.8249 106.8641 29.8045 0.0001 9.5026 0.0000
# 3 27.8177 29.8045 89.1334 0.0003 24.5996 0.0000
# 4 0.0000 0.0001 0.0003 34.0072 0.0001 5.3963
# 5 3.0282 9.5026 24.5996 0.0001 31.9905 0.0000
# 6 0.0000 0.0000 0.0000 5.3963 0.0000 18.5859
#
#
#
# Elastic Compliance Matrix: (Units=1/GPa)
#
#
# Indices 1 2 3 4 5 6 
#
# 1 0.016708 -0.004445 -0.004641 0.000000 0.003307 0.000000
# 2 -0.004445 0.011509 -0.002074 0.000000 -0.001403 0.000000
# 3 -0.004641 -0.002074 0.016591 0.000000 -0.011702 0.000000
# 4 0.000000 0.000000 0.000000 0.030826 0.000000 -0.008950
# 5 0.003307 -0.001403 -0.011702 0.000000 0.040362 0.000000
# 6 0.000000 0.000000 0.000000 -0.008950 0.000000 0.056403
#
#
# Mechanical properties :
#
#
# Convention : Reuss Voigt Hill
#
# Bulk Modulus (GPa) = 44.46693 50.79276 47.62984
# Shear Modulus (GPa) = 24.72629 28.90297 26.81463
#
# Velocity S-wave (km/s) = 3.61294 3.90618 3.76242
# Velocity P-wave (km/s) = 6.39367 6.86720 6.63466
#
# Compressibility (1/GPa) = 0.02248862
#
# Stress axis : x y z
#
# Youngs Moduli (GPa) = 59.85182 86.88620 60.27436
#
# Poissons Ratio (x) = 0.38617 0.27974
# Poissons Ratio (y) = 0.26601 0.12502
# Poissons Ratio (z) = 0.27778 0.18022
#
# Static dielectric constant tensor:
#      x y z
#    x 1.818530 0.000000 0.085650 
#    y 0.000000 1.655670 0.000000 
#    z 0.085650 0.000000 1.685410 
# 
# From -- ./inp_files/33028.got.cif
#   From: 2010.05.17/outbox.cif.g08.bks.cpg/sg5_17_cif.got.tgz:33028.got - 2010.06.03 18:56:24.
