data_PCOD9128620
_publ_section_title
;
Structure prediction by ZEFSAII (Michael W. Deem and Ramdas Pophale) SiO2 
 PCOD9128620
Probable space group: C 2
;
_chemical_formula_sum "Si O2"
_cell_formula_units_Z 30
_cell_length_a 11.977383
_cell_length_b 10.521267
_cell_length_c 17.137469
_cell_angle_alpha 90.000000
_cell_angle_beta 140.209367
_cell_angle_gamma 90.000000
_cell_volume 1382.120274
_symmetry_space_group_name_H-M "C 2"
_symmetry_group_IT_number 5
_symmetry_cell_setting 'monoclinic'
loop_
_space_group_symop_operation_xyz
x,y,z
-x,y,-z
1/2+x,1/2+y,z
1/2-x,1/2+y,-z
loop_
_atom_site_type_symbol
_atom_site_label
_atom_site_fract_x
_atom_site_fract_y
_atom_site_fract_z
Si Si1 0.670994 0.915710 0.876203
Si Si2 0.815190 0.665319 0.201930
Si Si3 0.815734 0.791270 0.633091
Si Si4 0.800090 0.557750 0.365038
Si Si5 0.500000 0.262127 0.000000
Si Si6 0.914400 0.245410 0.641290
Si Si7 0.569052 0.889639 0.113797
Si Si8 0.242115 0.124180 0.740657
O O1 0.526732 0.859289 0.738898
O O2 0.594794 0.876277 0.918248
O O3 0.692079 0.065629 0.872957
O O4 0.853806 0.848951 0.961166
O O5 0.809458 0.582317 0.277964
O O6 0.659290 0.763315 0.131195
O O7 0.990810 0.746757 0.285742
O O8 0.798646 0.928070 0.665052
O O9 0.701910 0.791386 0.493310
O O10 0.743636 0.689143 0.656990
O O11 0.702690 0.673359 0.357235
O O12 0.000000 0.547618 0.500000
O O13 0.606977 0.190153 0.125677
O O14 0.059155 0.148991 0.684694
O O15 0.708055 0.976550 0.233838
O O16 0.500000 0.959287 0.000000
#
# Coordination Sequence:
#
# PCOD9128620 Si02
#       8
#     4   4   4   4   2   4   4   4
#     4  11  25  49  73 102 148 188 246 306 370 438
#     4  12  26  47  72 110 140 193 247 295 373 438
#     4  12  25  43  76 108 149 196 241 300 372 442
#     4  12  23  45  72 107 151 187 244 300 358 448
#     4  10  24  46  74 100 136 196 244 306 364 430
#     4  11  24  45  74 106 146 194 237 304 368 441
#     4  12  27  47  72 105 149 188 247 315 360 436
#     4  11  23  47  69 104 143 193 247 296 374 434
#
# _framework density 21.705781000000002
#
# number of rings (size 3 to 8) (size 9 to 14) (size 15 to 20)
#    0.000    0.533    4.667    4.400    2.800    0.000 
#    2.400    0.000    0.000    0.000    0.000    0.000 
#    0.000    0.000    0.000    0.000    0.000    0.000 
#
# Total GULP energy -83928.069499 kJ/mol
# GULP energy per Si atom -5595.204633 kJ/mol
# Density = 2.165638 g / cm^3
# Si number density = 21.705781 Si / 1000 Ang^3
#
#
#
# Elastic Constant Matrix: (Units=GPa)
#
#
# Indices 1 2 3 4 5 6 
#
# 1 157.6252 39.3872 36.3360 0.0000 24.6438 0.0000
# 2 39.3872 95.6470 9.8194 0.0000 23.0589 0.0000
# 3 36.3360 9.8194 54.7260 0.0000 10.1376 0.0000
# 4 0.0000 0.0000 0.0000 -6.8969 0.0000 -3.9890
# 5 24.6438 23.0589 10.1376 0.0000 29.4329 0.0000
# 6 0.0000 0.0000 0.0000 -3.9890 0.0000 65.2972
#
#
#
# Elastic Compliance Matrix: (Units=1/GPa)
#
#
# Indices 1 2 3 4 5 6 
#
# 1 0.008535 -0.002099 -0.004562 0.000000 -0.003931 0.000000
# 2 -0.002099 0.013417 0.000649 0.000000 -0.008978 0.000000
# 3 -0.004562 0.000649 0.021974 0.000000 -0.004257 0.000000
# 4 0.000000 0.000000 0.000000 -0.140045 0.000000 -0.008555
# 5 -0.003931 -0.008978 -0.004257 0.000000 0.045767 0.000000
# 6 0.000000 0.000000 0.000000 -0.008555 0.000000 0.014792
#
#
# Mechanical properties :
#
#
# Convention : Reuss Voigt Hill
#
# Bulk Modulus (GPa) = 31.34531 53.23150 42.28840
# Shear Modulus (GPa) = -387.51042 32.39700 -177.55671
#
# Velocity S-wave (km/s) = -13.37596 3.86755 -9.05423
# Velocity P-wave (km/s) = 14.96939 6.67242 9.47527
#
# Compressibility (1/GPa) = 0.03190270
#
# Stress axis : x y z
#
# Youngs Moduli (GPa) = 117.16808 74.53166 45.50816
#
# Poissons Ratio (x) = 0.15642 0.20761
# Poissons Ratio (y) = 0.24589 -0.02954
# Poissons Ratio (z) = 0.53453 -0.04838
#
# Static dielectric constant tensor:
#      x y z
#    x 1.760070 0.000000 -0.026990 
#    y 0.000000 1.808800 0.000000 
#    z -0.026990 0.000000 1.770880 
# 
# From -- ./inp_files/60493.got.cif
#   From: 2010.05.17/outbox.cif.g08.bks.cpg/sg5_31_cif.got.tgz:60493.got - 2010.06.03 18:56:24.
