data_PCOD9128547
_publ_section_title
;
Structure prediction by ZEFSAII (Michael W. Deem and Ramdas Pophale) SiO2 
 PCOD9128547
Probable space group: C 2
;
_chemical_formula_sum "Si O2"
_cell_formula_units_Z 20
_cell_length_a 18.100590
_cell_length_b 4.851341
_cell_length_c 9.093160
_cell_angle_alpha 90.000000
_cell_angle_beta 82.491404
_cell_angle_gamma 90.000000
_cell_volume 791.642952
_symmetry_space_group_name_H-M "C 2"
_symmetry_group_IT_number 5
_symmetry_cell_setting 'monoclinic'
loop_
_space_group_symop_operation_xyz
x,y,z
-x,y,-z
1/2+x,1/2+y,z
1/2-x,1/2+y,-z
loop_
_atom_site_type_symbol
_atom_site_label
_atom_site_fract_x
_atom_site_fract_y
_atom_site_fract_z
Si Si1 0.290761 0.757870 0.770605
Si Si2 0.873468 0.734081 0.278162
Si Si3 0.077041 0.190124 0.907679
Si Si4 0.640768 0.262356 0.135244
Si Si5 0.081260 0.507226 0.427357
O O1 0.210186 0.837386 0.734481
O O2 0.292943 0.442163 0.813650
O O3 0.356732 0.785327 0.634439
O O4 0.320418 0.962799 0.892670
O O5 0.887766 0.465394 0.171903
O O6 0.883493 0.661177 0.444092
O O7 0.929581 0.980988 0.226147
O O8 0.000000 0.284064 0.000000
O O9 0.110860 0.965654 0.017159
O O10 0.580222 0.190391 0.277547
O O11 0.000000 0.413900 0.500000
#
# Coordination Sequence:
#
# PCOD9128547 Si02
#       5
#     4   4   4   4   4
#     4  10  25  44  75 104 148 193 256 303 373 446
#     4  12  27  44  78 110 150 203 250 317 377 452
#     4  12  27  46  74 109 156 195 254 309 385 451
#     4  10  24  45  72  99 155 187 251 302 372 442
#     4  10  26  45  79 108 152 195 255 310 381 442
#
# _framework density 25.263915000000001
#
# number of rings (size 3 to 8) (size 9 to 14) (size 15 to 20)
#    1.200    0.000    0.000    4.200    8.400    4.000 
#    0.000    0.000    0.000    0.000    0.000    0.000 
#    0.000    0.000    0.000    0.000    0.000    0.000 
#
# Total GULP energy -55794.186902 kJ/mol
# GULP energy per Si atom -5579.418690 kJ/mol
# Density = 2.520641 g / cm^3
# Si number density = 25.263915 Si / 1000 Ang^3
#
#
#
# Elastic Constant Matrix: (Units=GPa)
#
#
# Indices 1 2 3 4 5 6 
#
# 1 92.7453 13.5587 38.6970 0.0000 -27.2428 0.0000
# 2 13.5587 150.2377 38.8442 0.0000 -9.3940 0.0000
# 3 38.6970 38.8442 101.5642 0.0000 -28.2983 0.0000
# 4 0.0000 0.0000 0.0000 17.8492 0.0000 -5.3771
# 5 -27.2428 -9.3940 -28.2983 0.0000 41.7040 0.0000
# 6 0.0000 0.0000 0.0000 -5.3771 0.0000 27.9651
#
#
#
# Elastic Compliance Matrix: (Units=1/GPa)
#
#
# Indices 1 2 3 4 5 6 
#
# 1 0.014288 0.000058 -0.003529 0.000000 0.006952 0.000000
# 2 0.000058 0.007390 -0.002928 0.000000 -0.000284 0.000000
# 3 -0.003529 -0.002928 0.014162 0.000000 0.006645 0.000000
# 4 0.000000 0.000000 0.000000 0.059470 0.000000 0.011435
# 5 0.006952 -0.000284 0.006645 0.000000 0.032965 0.000000
# 6 0.000000 0.000000 0.000000 0.011435 0.000000 0.037958
#
#
# Mechanical properties :
#
#
# Convention : Reuss Voigt Hill
#
# Bulk Modulus (GPa) = 43.39872 58.52743 50.96308
# Shear Modulus (GPa) = 26.77947 34.40016 30.58982
#
# Velocity S-wave (km/s) = 3.25928 3.69403 3.48345
# Velocity P-wave (km/s) = 5.60172 6.43515 6.03285
#
# Compressibility (1/GPa) = 0.02304215
#
# Stress axis : x y z
#
# Youngs Moduli (GPa) = 69.98720 135.31675 70.61352
#
# Poissons Ratio (x) = -0.00780 0.24920
# Poissons Ratio (y) = -0.00403 0.20672
# Poissons Ratio (z) = 0.24699 0.39615
#
# Static dielectric constant tensor:
#      x y z
#    x 2.111590 0.000000 0.019060 
#    y 0.000000 1.964410 0.000000 
#    z 0.019060 0.000000 2.040310 
# 
# From -- ./inp_files/28151.got.cif
#   From: 2010.05.17/outbox.cif.g08.bks.cpg/sg5_15_cif.got.tgz:28151.got - 2010.06.03 18:56:24.
