data_PCOD9128947
_publ_section_title
;
Structure prediction by ZEFSAII (Michael W. Deem and Ramdas Pophale) SiO2 
 PCOD9128947
Probable space group: C 2
;
_chemical_formula_sum "Si O2"
_cell_formula_units_Z 14
_cell_length_a 12.720794
_cell_length_b 8.373302
_cell_length_c 5.064818
_cell_angle_alpha 90.000000
_cell_angle_beta 92.038200
_cell_angle_gamma 90.000000
_cell_volume 539.138033
_symmetry_space_group_name_H-M "C 2"
_symmetry_group_IT_number 5
_symmetry_cell_setting 'monoclinic'
loop_
_space_group_symop_operation_xyz
x,y,z
-x,y,-z
1/2+x,1/2+y,z
1/2-x,1/2+y,-z
loop_
_atom_site_type_symbol
_atom_site_label
_atom_site_fract_x
_atom_site_fract_y
_atom_site_fract_z
Si Si1 0.709926 0.378450 0.695341
Si Si2 0.886558 0.216947 0.377696
Si Si3 0.596421 0.263391 0.173806
Si Si4 0.000000 0.450351 0.000000
O O1 0.818627 0.313956 0.585879
O O2 0.684925 0.566217 0.708935
O O3 0.626121 0.320525 0.464751
O O4 0.689015 0.299271 0.975586
O O5 0.000000 0.160234 0.500000
O O6 0.921784 0.340691 0.156916
O O7 0.500000 0.344178 0.000000
O O8 0.563349 0.078757 0.182300
#
# Coordination Sequence:
#
# PCOD9128947 Si02
#       4
#     4   4   4   2
#     4  12  28  50  81 116 160 204 268 313 409 450
#     4  12  30  49  80 120 154 210 261 331 379 485
#     4  10  25  49  82 112 156 210 252 330 380 472
#     4  10  28  46  82 110 166 194 270 314 402 440
#
# _framework density 25.967376999999999
#
# number of rings (size 3 to 8) (size 9 to 14) (size 15 to 20)
#    0.857    0.000    0.000    4.286   18.000    0.000 
#    0.000    0.000    0.000    0.000    0.000    0.000 
#    0.000    0.000    0.000    0.000    0.000    0.000 
#
# Total GULP energy -39219.715026 kJ/mol
# GULP energy per Si atom -5602.816432 kJ/mol
# Density = 2.590827 g / cm^3
# Si number density = 25.967377 Si / 1000 Ang^3
#
#
#
# Elastic Constant Matrix: (Units=GPa)
#
#
# Indices 1 2 3 4 5 6 
#
# 1 132.2743 63.0443 -3.2979 0.0000 -22.8008 0.0000
# 2 63.0443 196.5999 74.6435 0.0000 -8.2213 0.0000
# 3 -3.2979 74.6435 83.8086 0.0000 -7.6390 0.0000
# 4 0.0000 0.0000 0.0000 53.4200 0.0000 14.6465
# 5 -22.8008 -8.2213 -7.6390 0.0000 63.7181 0.0000
# 6 0.0000 0.0000 0.0000 14.6465 0.0000 45.8721
#
#
#
# Elastic Compliance Matrix: (Units=1/GPa)
#
#
# Indices 1 2 3 4 5 6 
#
# 1 0.011021 -0.005546 0.005730 0.000000 0.003915 0.000000
# 2 -0.005546 0.010478 -0.009714 0.000000 -0.001797 0.000000
# 3 0.005730 -0.009714 0.021113 0.000000 0.003328 0.000000
# 4 0.000000 0.000000 0.000000 0.020516 0.000000 -0.006550
# 5 0.003915 -0.001797 0.003328 0.000000 0.017262 0.000000
# 6 0.000000 0.000000 0.000000 -0.006550 0.000000 0.023891
#
#
# Mechanical properties :
#
#
# Convention : Reuss Voigt Hill
#
# Bulk Modulus (GPa) = 42.46018 75.71807 59.08913
# Shear Modulus (GPa) = 38.11223 51.15491 44.63357
#
# Velocity S-wave (km/s) = 3.83521 4.44325 4.15038
# Velocity P-wave (km/s) = 5.99989 7.45288 6.76550
#
# Compressibility (1/GPa) = 0.02355148
#
# Stress axis : x y z
#
# Youngs Moduli (GPa) = 90.73505 95.43833 47.36493
#
# Poissons Ratio (x) = 0.52930 -0.27140
# Poissons Ratio (y) = 0.50322 0.46011
# Poissons Ratio (z) = -0.51992 0.92711
#
# Static dielectric constant tensor:
#      x y z
#    x 2.277580 0.000000 0.064300 
#    y 0.000000 2.018880 0.000000 
#    z 0.064300 0.000000 1.954320 
# 
# From -- ./inp_files/4161.got.cif
#   From: 2010.05.17/outbox.cif.g08.bks.cpg/sg5_3_cif.got.tgz:4161.got - 2010.06.03 18:56:24.
