data_PCOD9128087
_publ_section_title
;
Structure prediction by ZEFSAII (Michael W. Deem and Ramdas Pophale) SiO2 
 PCOD9128087
Probable space group: C 2
;
_chemical_formula_sum "Si O2"
_cell_formula_units_Z 22
_cell_length_a 6.004466
_cell_length_b 19.030792
_cell_length_c 8.272037
_cell_angle_alpha 90.000000
_cell_angle_beta 78.118069
_cell_angle_gamma 90.000000
_cell_volume 924.990726
_symmetry_space_group_name_H-M "C 2"
_symmetry_group_IT_number 5
_symmetry_cell_setting 'monoclinic'
loop_
_space_group_symop_operation_xyz
x,y,z
-x,y,-z
1/2+x,1/2+y,z
1/2-x,1/2+y,-z
loop_
_atom_site_type_symbol
_atom_site_label
_atom_site_fract_x
_atom_site_fract_y
_atom_site_fract_z
Si Si1 0.424549 0.414320 0.187442
Si Si2 0.123620 0.549161 0.152187
Si Si3 0.926465 0.155394 0.240530
Si Si4 0.826745 0.022494 0.670540
Si Si5 0.500000 0.191455 0.500000
Si Si6 0.662960 0.260554 0.812472
O O1 0.276204 0.483432 0.178967
O O2 0.639364 0.445800 0.253017
O O3 0.305158 0.341949 0.252735
O O4 0.500000 0.394276 0.000000
O O5 0.256804 0.622641 0.130685
O O6 0.930993 0.544141 0.318620
O O7 0.000000 0.537206 0.000000
O O8 0.753008 0.161121 0.418956
O O9 0.089343 0.088638 0.239018
O O10 0.092282 0.222049 0.194305
O O11 0.000000 0.018268 0.500000
O O12 0.547764 0.228115 0.667816
O O13 0.500000 0.253250 0.000000
#
# Coordination Sequence:
#
# PCOD9128087 Si02
#       6
#     4   4   4   4   2   4
#     4  10  23  46  69 101 142 189 244 309 362 444
#     4  11  23  43  76 104 146 196 247 308 375 444
#     4  11  25  46  71 109 150 191 247 313 374 444
#     4  11  23  41  70 105 137 183 246 299 368 438
#     4  12  26  48  74 104 150 200 240 310 370 460
#     4  11  27  49  73 107 153 199 248 308 383 448
#
# _framework density 23.784025
#
# number of rings (size 3 to 8) (size 9 to 14) (size 15 to 20)
#    0.000    1.091    1.818    3.818    1.273    8.727 
#    3.273    0.000    0.000    0.000    0.000    0.000 
#    0.000    0.000    0.000    0.000    0.000    0.000 
#
# Total GULP energy -61239.483728 kJ/mol
# GULP energy per Si atom -5567.225793 kJ/mol
# Density = 2.372989 g / cm^3
# Si number density = 23.784025 Si / 1000 Ang^3
#
#
#
# Elastic Constant Matrix: (Units=GPa)
#
#
# Indices 1 2 3 4 5 6 
#
# 1 109.5557 61.8992 21.1459 0.0000 -10.9227 0.0000
# 2 61.8992 158.3770 11.0784 0.0000 -6.5421 0.0000
# 3 21.1459 11.0784 106.8194 0.0000 -7.4077 0.0000
# 4 0.0000 0.0000 0.0000 52.9263 0.0000 21.5549
# 5 -10.9227 -6.5421 -7.4077 0.0000 35.1222 0.0000
# 6 0.0000 0.0000 0.0000 21.5549 0.0000 49.7958
#
#
#
# Elastic Compliance Matrix: (Units=1/GPa)
#
#
# Indices 1 2 3 4 5 6 
#
# 1 0.012321 -0.004583 -0.001783 0.000000 0.002602 0.000000
# 2 -0.004583 0.008104 0.000074 0.000000 0.000100 0.000000
# 3 -0.001783 0.000074 0.009813 0.000000 0.001529 0.000000
# 4 0.000000 0.000000 0.000000 0.022938 0.000000 -0.009929
# 5 0.002602 0.000100 0.001529 0.000000 0.029622 0.000000
# 6 0.000000 0.000000 0.000000 -0.009929 0.000000 0.024380
#
#
# Mechanical properties :
#
#
# Convention : Reuss Voigt Hill
#
# Bulk Modulus (GPa) = 56.64885 62.55545 59.60215
# Shear Modulus (GPa) = 39.79369 46.27745 43.03557
#
# Velocity S-wave (km/s) = 4.09482 4.41584 4.25836
# Velocity P-wave (km/s) = 6.79901 7.23588 7.02085
#
# Compressibility (1/GPa) = 0.01765261
#
# Stress axis : x y z
#
# Youngs Moduli (GPa) = 81.16289 123.39144 101.90571
#
# Poissons Ratio (x) = 0.56553 0.18173
# Poissons Ratio (y) = 0.37199 -0.00751
# Poissons Ratio (z) = 0.14474 -0.00909
#
# Static dielectric constant tensor:
#      x y z
#    x 1.991270 0.000000 -0.018020 
#    y 0.000000 2.052420 0.000000 
#    z -0.018020 0.000000 2.012970 
# 
# From -- ./inp_files/12496.got.cif
#   From: 2010.05.17/outbox.cif.g08.bks.cpg/sg5_7_cif.got.tgz:12496.got - 2010.06.03 18:56:24.
