data_PCOD9128362
_publ_section_title
;
Structure prediction by ZEFSAII (Michael W. Deem and Ramdas Pophale) SiO2 
 PCOD9128362
Probable space group: C 2
;
_chemical_formula_sum "Si O2"
_cell_formula_units_Z 20
_cell_length_a 8.578170
_cell_length_b 22.211332
_cell_length_c 5.630973
_cell_angle_alpha 90.000000
_cell_angle_beta 56.207146
_cell_angle_gamma 90.000000
_cell_volume 891.624227
_symmetry_space_group_name_H-M "C 2"
_symmetry_group_IT_number 5
_symmetry_cell_setting 'monoclinic'
loop_
_space_group_symop_operation_xyz
x,y,z
-x,y,-z
1/2+x,1/2+y,z
1/2-x,1/2+y,-z
loop_
_atom_site_type_symbol
_atom_site_label
_atom_site_fract_x
_atom_site_fract_y
_atom_site_fract_z
Si Si1 0.272230 0.003900 0.193363
Si Si2 0.643058 0.714046 0.063106
Si Si3 0.500000 0.235987 0.500000
Si Si4 0.713026 0.948277 0.324784
Si Si5 0.298131 0.310901 0.287905
Si Si6 0.500000 0.611905 0.500000
O O1 0.178810 0.068684 0.318313
O O2 0.208928 0.968658 0.485525
O O3 0.500000 0.005926 0.000000
O O4 0.209763 0.973620 0.993418
O O5 0.687996 0.761468 0.230561
O O6 0.525513 0.657214 0.258337
O O7 0.500000 0.743618 0.000000
O O8 0.851720 0.698697 0.784378
O O9 0.357694 0.279997 0.482458
O O10 0.500000 0.971111 0.500000
O O11 0.709384 0.876201 0.346979
O O12 0.500000 0.320263 0.000000
#
# Coordination Sequence:
#
# PCOD9128362 Si02
#       6
#     4   4   2   4   4   2
#     4  10  26  47  70 107 146 193 250 307 372 436
#     4  11  26  45  71 108 144 198 245 306 374 439
#     4  10  24  45  68 106 155 186 244 302 384 444
#     4  10  24  44  72 106 146 193 244 309 376 444
#     4  10  24  42  70 108 147 189 238 310 376 444
#     4  12  28  45  76 102 145 198 252 304 358 458
#
# _framework density 22.430973000000002
#
# number of rings (size 3 to 8) (size 9 to 14) (size 15 to 20)
#    0.000    1.600    0.000    1.200   15.400    4.800 
#    1.800    0.000    0.000    0.000    0.000    0.000 
#    0.000    0.000    0.000    0.000    0.000    0.000 
#
# Total GULP energy -55739.151299 kJ/mol
# GULP energy per Si atom -5573.915130 kJ/mol
# Density = 2.237992 g / cm^3
# Si number density = 22.430973 Si / 1000 Ang^3
#
#
#
# Elastic Constant Matrix: (Units=GPa)
#
#
# Indices 1 2 3 4 5 6 
#
# 1 114.0266 42.3159 65.3280 0.0000 20.1299 0.0000
# 2 42.3159 81.5833 36.2060 0.0000 24.0197 0.0000
# 3 65.3280 36.2060 143.8304 0.0000 2.6661 0.0000
# 4 0.0000 0.0000 0.0000 245.8664 0.0000 78.0319
# 5 20.1299 24.0197 2.6661 0.0000 49.9571 0.0000
# 6 0.0000 0.0000 0.0000 78.0319 0.0000 67.1548
#
#
#
# Elastic Compliance Matrix: (Units=1/GPa)
#
#
# Indices 1 2 3 4 5 6 
#
# 1 0.013798 -0.003816 -0.005243 0.000000 -0.003445 0.000000
# 2 -0.003816 0.017303 -0.002499 0.000000 -0.006649 0.000000
# 3 -0.005243 -0.002499 0.009911 0.000000 0.002785 0.000000
# 4 0.000000 0.000000 0.000000 0.006443 0.000000 -0.007487
# 5 -0.003445 -0.006649 0.002785 0.000000 0.024454 0.000000
# 6 0.000000 0.000000 0.000000 -0.007487 0.000000 0.023591
#
#
# Mechanical properties :
#
#
# Convention : Reuss Voigt Hill
#
# Bulk Modulus (GPa) = 55.87508 69.68225 62.77866
# Shear Modulus (GPa) = 40.13456 85.63502 62.88479
#
# Velocity S-wave (km/s) = 4.23454 6.18547 5.30053
# Velocity P-wave (km/s) = 6.99087 9.06344 8.09377
#
# Compressibility (1/GPa) = 0.01789707
#
# Stress axis : x y z
#
# Youngs Moduli (GPa) = 72.47597 57.79269 100.89455
#
# Poissons Ratio (x) = 0.22052 0.52895
# Poissons Ratio (y) = 0.27654 0.25217
# Poissons Ratio (z) = 0.37996 0.14445
#
# Static dielectric constant tensor:
#      x y z
#    x 1.639190 0.000000 -0.193450 
#    y 0.000000 1.907970 0.000000 
#    z -0.193450 0.000000 1.756270 
# 
# From -- ./inp_files/2814.got.cif
#   From: 2010.05.17/outbox.cif.g08.bks.cpg/sg5_2_cif.got.tgz:2814.got - 2010.06.03 18:56:24.
