data_PCOD9128099
_publ_section_title
;
Structure prediction by ZEFSAII (Michael W. Deem and Ramdas Pophale) SiO2 
 PCOD9128099
Probable space group: C 2
;
_chemical_formula_sum "Si O2"
_cell_formula_units_Z 28
_cell_length_a 9.066428
_cell_length_b 10.837787
_cell_length_c 15.089395
_cell_angle_alpha 90.000000
_cell_angle_beta 58.126359
_cell_angle_gamma 90.000000
_cell_volume 1259.117217
_symmetry_space_group_name_H-M "C 2"
_symmetry_group_IT_number 5
_symmetry_cell_setting 'monoclinic'
loop_
_space_group_symop_operation_xyz
x,y,z
-x,y,-z
1/2+x,1/2+y,z
1/2-x,1/2+y,-z
loop_
_atom_site_type_symbol
_atom_site_label
_atom_site_fract_x
_atom_site_fract_y
_atom_site_fract_z
Si Si1 0.483235 0.011830 0.403189
Si Si2 0.899076 0.596043 0.169056
Si Si3 0.437865 0.281485 0.701198
Si Si4 0.304142 0.879967 0.073321
Si Si5 0.210766 0.860472 0.756384
Si Si6 0.196150 0.013536 0.935884
Si Si7 0.836589 0.986477 0.597925
O O1 0.500000 0.040265 0.500000
O O2 0.528320 0.140720 0.338081
O O3 0.600605 0.895558 0.338418
O O4 0.291476 0.967882 0.442233
O O5 0.828110 0.513352 0.111965
O O6 0.840099 0.735608 0.176875
O O7 0.784150 0.552626 0.290248
O O8 0.108844 0.575598 0.112559
O O9 0.287248 0.296373 0.823257
O O10 0.592549 0.348725 0.706315
O O11 0.396104 0.362501 0.628337
O O12 0.500000 0.835484 0.000000
O O13 0.208834 0.907581 0.010155
O O14 0.191174 0.962680 0.837915
O O15 0.000000 0.070600 0.000000
O O16 0.000000 0.052762 0.500000
#
# Coordination Sequence:
#
# PCOD9128099 Si02
#       7
#     4   4   4   4   4   4   4
#     4  12  27  49  73 104 142 189 245 301 364 432
#     4  10  23  46  71 103 149 184 242 300 356 433
#     4  11  23  47  71 104 148 183 244 299 350 437
#     4   9  21  43  71 104 147 194 234 291 366 424
#     4  12  23  46  71 107 145 185 244 299 349 437
#     4  11  21  41  73 107 146 191 241 287 358 430
#     4  11  23  47  70 101 141 185 236 302 369 422
#
# _framework density 22.237803
#
# number of rings (size 3 to 8) (size 9 to 14) (size 15 to 20)
#    0.000    1.143    4.286    1.286    0.000    2.286 
#   12.857    2.857    0.000    0.000    0.000    0.000 
#    0.000    0.000    0.000    0.000    0.000    0.000 
#
# Total GULP energy -77971.067689 kJ/mol
# GULP energy per Si atom -5569.361978 kJ/mol
# Density = 2.218719 g / cm^3
# Si number density = 22.237803 Si / 1000 Ang^3
#
#
#
# Elastic Constant Matrix: (Units=GPa)
#
#
# Indices 1 2 3 4 5 6 
#
# 1 140.4297 26.6471 46.5859 0.0000 -8.8783 0.0000
# 2 26.6471 75.7210 10.1776 0.0000 1.4060 0.0000
# 3 46.5859 10.1776 117.0995 0.0000 -9.9381 0.0000
# 4 0.0000 0.0000 0.0000 3.7812 0.0000 6.8657
# 5 -8.8783 1.4060 -9.9381 0.0000 54.2998 0.0000
# 6 0.0000 0.0000 0.0000 6.8657 0.0000 19.2037
#
#
#
# Elastic Compliance Matrix: (Units=1/GPa)
#
#
# Indices 1 2 3 4 5 6 
#
# 1 0.008735 -0.002665 -0.003165 0.000000 0.000918 0.000000
# 2 -0.002665 0.014193 -0.000245 0.000000 -0.000848 0.000000
# 3 -0.003165 -0.000245 0.009931 0.000000 0.001306 0.000000
# 4 0.000000 0.000000 0.000000 0.753833 0.000000 -0.269511
# 5 0.000918 -0.000848 0.001306 0.000000 0.018827 0.000000
# 6 0.000000 0.000000 0.000000 -0.269511 0.000000 0.148429
#
#
# Mechanical properties :
#
#
# Convention : Reuss Voigt Hill
#
# Bulk Modulus (GPa) = 48.29273 55.56351 51.92812
# Shear Modulus (GPa) = 5.13873 32.11291 18.62582
#
# Velocity S-wave (km/s) = 1.52178 3.80421 2.89723
# Velocity P-wave (km/s) = 4.98512 6.65855 5.88166
#
# Compressibility (1/GPa) = 0.02070705
#
# Stress axis : x y z
#
# Youngs Moduli (GPa) = 114.48295 70.45677 100.69227
#
# Poissons Ratio (x) = 0.18780 0.31874
# Poissons Ratio (y) = 0.30515 0.02468
# Poissons Ratio (z) = 0.36239 0.01727
#
# Static dielectric constant tensor:
#      x y z
#    x 1.912980 0.000000 -0.102100 
#    y 0.000000 1.852600 0.000000 
#    z -0.102100 0.000000 1.943260 
# 
# From -- ./inp_files/50429.got.cif
#   From: 2010.05.17/outbox.cif.g08.bks.cpg/sg5_26_cif.got.tgz:50429.got - 2010.06.03 18:56:24.
