data_PCOD9128067
_publ_section_title
;
Structure prediction by ZEFSAII (Michael W. Deem and Ramdas Pophale) SiO2 
 PCOD9128067
Probable space group: C 2
;
_chemical_formula_sum "Si O2"
_cell_formula_units_Z 28
_cell_length_a 14.091493
_cell_length_b 8.636899
_cell_length_c 9.070650
_cell_angle_alpha 90.000000
_cell_angle_beta 68.663970
_cell_angle_gamma 90.000000
_cell_volume 1028.297285
_symmetry_space_group_name_H-M "C 2"
_symmetry_group_IT_number 5
_symmetry_cell_setting 'monoclinic'
loop_
_space_group_symop_operation_xyz
x,y,z
-x,y,-z
1/2+x,1/2+y,z
1/2-x,1/2+y,-z
loop_
_atom_site_type_symbol
_atom_site_label
_atom_site_fract_x
_atom_site_fract_y
_atom_site_fract_z
Si Si1 0.791883 0.735900 0.450874
Si Si2 0.135681 0.791653 0.273013
Si Si3 0.392446 0.457109 0.151876
Si Si4 0.591506 0.802130 0.848923
Si Si5 0.104780 0.143356 0.350341
Si Si6 0.720854 0.836914 0.040324
Si Si7 0.965583 0.524232 0.373067
O O1 0.797505 0.803826 0.613022
O O2 0.690281 0.693579 0.422147
O O3 0.864352 0.835655 0.298606
O O4 0.849912 0.576775 0.452343
O O5 0.104720 0.970782 0.277289
O O6 0.202948 0.938063 0.905638
O O7 0.197618 0.733083 0.096140
O O8 0.541839 0.171392 0.331525
O O9 0.500000 0.425924 0.000000
O O10 0.620832 0.630711 0.775271
O O11 0.542835 0.917579 0.761448
O O12 0.500000 0.745929 0.000000
O O13 0.662536 0.894597 0.925954
O O14 0.141956 0.251523 0.192457
O O15 0.000000 0.139191 0.500000
O O16 0.000000 0.437421 0.500000
#
# Coordination Sequence:
#
# PCOD9128067 Si02
#       7
#     4   4   4   4   4   4   4
#     4  10  23  45  78 115 157 213 270 329 403 483
#     4  11  24  46  80 116 159 212 271 337 406 478
#     4  10  23  47  78 116 159 210 269 334 406 483
#     4  11  26  46  72 112 159 210 265 329 399 474
#     4  11  25  48  80 121 164 213 270 332 401 486
#     4  11  25  47  78 116 161 208 264 331 405 483
#     4  10  23  47  76 114 160 210 270 336 403 479
#
# _framework density 27.229478
#
# number of rings (size 3 to 8) (size 9 to 14) (size 15 to 20)
#    0.000    1.429    0.000    3.857    0.000   12.000 
#    0.000   14.286    0.000   13.714    0.000    4.000 
#    0.000    0.000    0.000    0.000    0.000    0.000 
#
# Total GULP energy -78194.582536 kJ/mol
# GULP energy per Si atom -5585.327324 kJ/mol
# Density = 2.716750 g / cm^3
# Si number density = 27.229478 Si / 1000 Ang^3
#
#
#
# Elastic Constant Matrix: (Units=GPa)
#
#
# Indices 1 2 3 4 5 6 
#
# 1 155.3428 48.4907 78.2281 0.0000 11.5399 0.0000
# 2 48.4907 98.4582 55.5421 0.0000 17.0286 0.0000
# 3 78.2281 55.5421 206.9742 0.0000 9.3477 0.0000
# 4 0.0000 0.0000 0.0000 15.2317 0.0000 5.7943
# 5 11.5399 17.0286 9.3477 0.0000 69.9684 0.0000
# 6 0.0000 0.0000 0.0000 5.7943 0.0000 22.8618
#
#
#
# Elastic Compliance Matrix: (Units=1/GPa)
#
#
# Indices 1 2 3 4 5 6 
#
# 1 0.008579 -0.002751 -0.002485 0.000000 -0.000413 0.000000
# 2 -0.002751 0.013301 -0.002418 0.000000 -0.002460 0.000000
# 3 -0.002485 -0.002418 0.006413 0.000000 0.000142 0.000000
# 4 0.000000 0.000000 0.000000 0.072658 0.000000 -0.018415
# 5 -0.000413 -0.002460 0.000142 0.000000 0.014940 0.000000
# 6 0.000000 0.000000 0.000000 -0.018415 0.000000 0.048408
#
#
# Mechanical properties :
#
#
# Convention : Reuss Voigt Hill
#
# Bulk Modulus (GPa) = 77.02342 91.69968 84.36155
# Shear Modulus (GPa) = 27.18307 40.18000 33.68153
#
# Velocity S-wave (km/s) = 3.16301 3.84553 3.52085
# Velocity P-wave (km/s) = 6.45660 7.31213 6.89764
#
# Compressibility (1/GPa) = 0.01298306
#
# Stress axis : x y z
#
# Youngs Moduli (GPa) = 116.57038 75.17957 155.92186
#
# Poissons Ratio (x) = 0.20685 0.38752
# Poissons Ratio (y) = 0.32074 0.37709
# Poissons Ratio (z) = 0.28971 0.18182
#
# Static dielectric constant tensor:
#      x y z
#    x 2.292620 0.000000 -0.026450 
#    y 0.000000 2.169220 0.000000 
#    z -0.026450 0.000000 2.158690 
# 
# From -- ./inp_files/24204.got.cif
#   From: 2010.05.17/outbox.cif.g08.bks.cpg/sg5_13_cif.got.tgz:24204.got - 2010.06.03 18:56:24.
