data_PCOD9128447
_publ_section_title
;
Structure prediction by ZEFSAII (Michael W. Deem and Ramdas Pophale) SiO2 
 PCOD9128447
Probable space group: C 2
;
_chemical_formula_sum "Si O2"
_cell_formula_units_Z 26
_cell_length_a 14.177608
_cell_length_b 9.266990
_cell_length_c 11.083400
_cell_angle_alpha 90.000000
_cell_angle_beta 119.549937
_cell_angle_gamma 90.000000
_cell_volume 1266.767959
_symmetry_space_group_name_H-M "C 2"
_symmetry_group_IT_number 5
_symmetry_cell_setting 'monoclinic'
loop_
_space_group_symop_operation_xyz
x,y,z
-x,y,-z
1/2+x,1/2+y,z
1/2-x,1/2+y,-z
loop_
_atom_site_type_symbol
_atom_site_label
_atom_site_fract_x
_atom_site_fract_y
_atom_site_fract_z
Si Si1 0.107860 0.544920 0.990819
Si Si2 0.140113 0.347871 0.391220
Si Si3 0.967878 0.232110 0.105630
Si Si4 0.000000 0.187799 0.500000
Si Si5 0.646229 0.163855 0.493742
Si Si6 0.156665 0.040549 0.778487
Si Si7 0.906094 0.712465 0.270768
O O1 0.107175 0.620280 0.859147
O O2 0.105189 0.372709 0.965587
O O3 0.217661 0.583021 0.131141
O O4 0.000000 0.580854 0.000000
O O5 0.076807 0.302413 0.230675
O O6 0.253442 0.266838 0.467487
O O7 0.156590 0.515552 0.426912
O O8 0.058063 0.288829 0.440183
O O9 0.908809 0.120806 0.155864
O O10 0.000000 0.160846 0.000000
O O11 0.906308 0.092138 0.380390
O O12 0.533562 0.232934 0.379233
O O13 0.638929 0.139530 0.634372
O O14 0.146451 0.868725 0.778780
#
# Coordination Sequence:
#
# PCOD9128447 Si02
#       7
#     4   4   4   2   4   4   4
#     4  11  25  44  70  95 137 185 226 281 343 407
#     4  11  25  43  71  98 135 179 228 282 345 404
#     4  10  24  45  68  97 137 180 225 279 346 408
#     4  10  24  44  68  98 136 178 228 282 340 404
#     4  11  26  43  71  98 136 177 230 287 340 402
#     4  11  25  43  69 101 135 179 230 280 338 404
#     4  11  25  45  66 101 137 178 229 286 337 403
#
# _framework density 20.524675999999999
#
# number of rings (size 3 to 8) (size 9 to 14) (size 15 to 20)
#    0.000    1.231    1.538    2.769   17.231    0.615 
#    0.000    0.000    0.000    0.000    0.000    0.000 
#    0.000    0.000    0.000    0.000    0.000    0.000 
#
# Total GULP energy -72691.616194 kJ/mol
# GULP energy per Si atom -5591.662784 kJ/mol
# Density = 2.047796 g / cm^3
# Si number density = 20.524676 Si / 1000 Ang^3
#
#
#
# Elastic Constant Matrix: (Units=GPa)
#
#
# Indices 1 2 3 4 5 6 
#
# 1 78.1197 17.9766 48.1274 0.0000 24.9538 0.0000
# 2 17.9766 45.1485 18.6094 0.0000 8.2354 0.0000
# 3 48.1274 18.6094 120.6164 0.0000 15.1149 0.0000
# 4 0.0000 0.0000 0.0000 31.3224 0.0000 4.6252
# 5 24.9538 8.2354 15.1149 0.0000 41.7575 0.0000
# 6 0.0000 0.0000 0.0000 4.6252 0.0000 26.1453
#
#
#
# Elastic Compliance Matrix: (Units=1/GPa)
#
#
# Indices 1 2 3 4 5 6 
#
# 1 0.020626 -0.003860 -0.006479 0.000000 -0.009219 0.000000
# 2 -0.003860 0.024875 -0.002066 0.000000 -0.001851 0.000000
# 3 -0.006479 -0.002066 0.011165 0.000000 0.000238 0.000000
# 4 0.000000 0.000000 0.000000 0.032782 0.000000 -0.005799
# 5 -0.009219 -0.001851 0.000238 0.000000 0.029736 0.000000
# 6 0.000000 0.000000 0.000000 -0.005799 0.000000 0.039274
#
#
# Mechanical properties :
#
#
# Convention : Reuss Voigt Hill
#
# Bulk Modulus (GPa) = 31.39129 45.92350 38.65739
# Shear Modulus (GPa) = 25.78833 30.45645 28.12239
#
# Velocity S-wave (km/s) = 3.54850 3.85631 3.70560
# Velocity P-wave (km/s) = 5.66716 6.50012 6.09788
#
# Compressibility (1/GPa) = 0.03185597
#
# Stress axis : x y z
#
# Youngs Moduli (GPa) = 48.48352 40.20054 89.56688
#
# Poissons Ratio (x) = 0.15518 0.58030
# Poissons Ratio (y) = 0.18716 0.18501
# Poissons Ratio (z) = 0.31412 0.08304
#
# Static dielectric constant tensor:
#      x y z
#    x 1.723490 0.000000 -0.013340 
#    y 0.000000 1.685820 0.000000 
#    z -0.013340 0.000000 1.782830 
# 
# From -- ./inp_files/41631.got.cif
#   From: 2010.05.17/outbox.cif.g08.bks.cpg/sg5_21_cif.got.tgz:41631.got - 2010.06.03 18:56:24.
