data_PCOD9128467
_publ_section_title
;
Structure prediction by ZEFSAII (Michael W. Deem and Ramdas Pophale) SiO2 
 PCOD9128467
Probable space group: C 2
;
_chemical_formula_sum "Si O2"
_cell_formula_units_Z 12
_cell_length_a 8.883042
_cell_length_b 5.324866
_cell_length_c 20.127215
_cell_angle_alpha 90.000000
_cell_angle_beta 149.920998
_cell_angle_gamma 90.000000
_cell_volume 477.155171
_symmetry_space_group_name_H-M "C 2"
_symmetry_group_IT_number 5
_symmetry_cell_setting 'monoclinic'
loop_
_space_group_symop_operation_xyz
x,y,z
-x,y,-z
1/2+x,1/2+y,z
1/2-x,1/2+y,-z
loop_
_atom_site_type_symbol
_atom_site_label
_atom_site_fract_x
_atom_site_fract_y
_atom_site_fract_z
Si Si1 0.854252 0.755850 0.140369
Si Si2 0.887482 0.103148 0.267964
Si Si3 0.152068 0.592967 0.379233
O O1 0.046286 0.695190 0.148832
O O2 0.985049 0.562036 0.244009
O O3 0.931422 0.016656 0.208111
O O4 0.500000 0.736461 0.000000
O O5 0.087612 0.314817 0.380575
O O6 0.979881 0.839680 0.339009
O O7 0.500000 0.645175 0.500000
#
# Coordination Sequence:
#
# PCOD9128467 Si02
#       3
#     4   4   4
#     4  10  26  44  73 101 144 183 239 291 360 422
#     4  10  25  42  71 101 139 182 236 288 357 420
#     4  10  24  44  71 102 139 185 233 293 354 422
#
# _framework density 25.149052999999999
#
# number of rings (size 3 to 8) (size 9 to 14) (size 15 to 20)
#    2.000    0.000    0.000    1.000    9.333    4.000 
#    0.000    0.000    0.000    0.000    0.000    0.000 
#    0.000    0.000    0.000    0.000    0.000    0.000 
#
# Total GULP energy -33402.602321 kJ/mol
# GULP energy per Si atom -5567.100387 kJ/mol
# Density = 2.509181 g / cm^3
# Si number density = 25.149053 Si / 1000 Ang^3
#
#
#
# Elastic Constant Matrix: (Units=GPa)
#
#
# Indices 1 2 3 4 5 6 
#
# 1 86.1776 59.5643 17.5727 0.0003 34.7743 -0.0004
# 2 59.5643 192.6250 34.8747 -0.0015 38.0981 0.0002
# 3 17.5727 34.8747 138.1413 0.0088 34.2775 0.0013
# 4 0.0003 -0.0015 0.0088 22.1229 0.0017 30.0568
# 5 34.7743 38.0981 34.2775 0.0017 45.6578 0.0003
# 6 -0.0004 0.0002 0.0013 30.0568 0.0003 45.0659
#
#
#
# Elastic Compliance Matrix: (Units=1/GPa)
#
#
# Indices 1 2 3 4 5 6 
#
# 1 0.018851 -0.003644 0.001635 -0.000005 -0.012544 0.000004
# 2 -0.003644 0.006936 -0.000664 0.000011 -0.002513 -0.000007
# 3 0.001635 -0.000664 0.009057 -0.000030 -0.007491 0.000020
# 4 -0.000005 0.000011 -0.000030 0.481589 0.000002 -0.321196
# 5 -0.012544 -0.002513 -0.007491 0.000002 0.039177 -0.000002
# 6 0.000004 -0.000007 0.000020 -0.321196 -0.000002 0.236412
#
#
# Mechanical properties :
#
#
# Convention : Reuss Voigt Hill
#
# Bulk Modulus (GPa) = 33.90127 71.21860 52.55994
# Shear Modulus (GPa) = 6.19424 42.89812 24.54618
#
# Velocity S-wave (km/s) = 1.57110 4.13456 3.12753
# Velocity P-wave (km/s) = 4.09885 7.15352 5.82981
#
# Compressibility (1/GPa) = 0.02949742
#
# Stress axis : x y z
#
# Youngs Moduli (GPa) = 53.04719 144.18396 110.40767
#
# Poissons Ratio (x) = 0.52543 -0.18047
# Poissons Ratio (y) = 0.19331 0.07328
# Poissons Ratio (z) = -0.08671 0.09569
#
# Static dielectric constant tensor:
#      x y z
#    x 0.936990 0.000010 0.620640 
#    y 0.000010 2.137100 -0.000010 
#    z 0.620640 -0.000010 1.590090 
# 
# From -- ./inp_files/13446.got.cif
#   From: 2010.05.17/outbox.cif.g08.bks.cpg/sg5_7_cif.got.tgz:13446.got - 2010.06.03 18:56:24.
