data_PCOD9128641
_publ_section_title
;
Structure prediction by ZEFSAII (Michael W. Deem and Ramdas Pophale) SiO2 
 PCOD9128641
Probable space group: C 2
;
_chemical_formula_sum "Si O2"
_cell_formula_units_Z 22
_cell_length_a 30.079909
_cell_length_b 5.787710
_cell_length_c 4.959079
_cell_angle_alpha 90.000000
_cell_angle_beta 87.567254
_cell_angle_gamma 90.000000
_cell_volume 862.566755
_symmetry_space_group_name_H-M "C 2"
_symmetry_group_IT_number 5
_symmetry_cell_setting 'monoclinic'
loop_
_space_group_symop_operation_xyz
x,y,z
-x,y,-z
1/2+x,1/2+y,z
1/2-x,1/2+y,-z
loop_
_atom_site_type_symbol
_atom_site_label
_atom_site_fract_x
_atom_site_fract_y
_atom_site_fract_z
Si Si1 0.564343 0.778460 0.844788
Si Si2 0.347871 0.257479 0.624346
Si Si3 0.057766 0.989471 0.349587
Si Si4 0.658549 0.960699 0.885131
Si Si5 0.000000 0.658434 0.000000
Si Si6 0.252323 0.366268 0.649507
O O1 0.547411 0.580673 0.649347
O O2 0.617236 0.807938 0.795271
O O3 0.555421 0.707576 0.152989
O O4 0.536223 0.009980 0.821717
O O5 0.391684 0.401693 0.659549
O O6 0.302750 0.376376 0.742735
O O7 0.343719 0.184041 0.313164
O O8 0.351151 0.028766 0.806282
O O9 0.028705 0.798464 0.209434
O O10 0.708603 0.866799 0.847118
O O11 0.248414 0.609535 0.487016
#
# Coordination Sequence:
#
# PCOD9128641 Si02
#       6
#     4   4   4   4   2   4
#     4  12  28  50  79 110 151 205 262 325 401 477
#     4  11  24  47  76 111 153 199 252 323 391 473
#     4  12  28  50  79 110 151 205 262 325 401 477
#     4  11  24  47  76 111 153 199 252 323 391 473
#     4  12  30  54  72 116 160 202 266 346 400 482
#     4  10  24  46  76 116 158 208 262 322 400 484
#
# _framework density 25.505268000000001
#
# number of rings (size 3 to 8) (size 9 to 14) (size 15 to 20)
#    0.000    0.727    1.818    3.818    0.000   14.545 
#    0.000    0.000    0.000    0.000    0.000    0.000 
#    0.000    0.000    0.000    0.000    0.000    0.000 
#
# Total GULP energy -61607.993682 kJ/mol
# GULP energy per Si atom -5600.726698 kJ/mol
# Density = 2.544722 g / cm^3
# Si number density = 25.505268 Si / 1000 Ang^3
#
#
#
# Elastic Constant Matrix: (Units=GPa)
#
#
# Indices 1 2 3 4 5 6 
#
# 1 191.8326 52.2933 35.5011 0.0000 11.7640 0.0000
# 2 52.2933 86.3743 7.7503 0.0000 -3.6845 0.0000
# 3 35.5011 7.7503 74.7750 0.0000 -4.4208 0.0000
# 4 0.0000 0.0000 0.0000 41.5591 0.0000 -3.6494
# 5 11.7640 -3.6845 -4.4208 0.0000 26.2813 0.0000
# 6 0.0000 0.0000 0.0000 -3.6494 0.0000 56.0741
#
#
#
# Elastic Compliance Matrix: (Units=1/GPa)
#
#
# Indices 1 2 3 4 5 6 
#
# 1 0.007254 -0.004287 -0.003260 0.000000 -0.004397 0.000000
# 2 -0.004287 0.014275 0.000796 0.000000 0.004054 0.000000
# 3 -0.003260 0.000796 0.015081 0.000000 0.004108 0.000000
# 4 0.000000 0.000000 0.000000 0.024200 0.000000 0.001575
# 5 -0.004397 0.004054 0.004108 0.000000 0.041277 0.000000
# 6 0.000000 0.000000 0.000000 0.001575 0.000000 0.017936
#
#
# Mechanical properties :
#
#
# Convention : Reuss Voigt Hill
#
# Bulk Modulus (GPa) = 43.27536 60.45236 51.86386
# Shear Modulus (GPa) = 35.40344 41.94538 38.67441
#
# Velocity S-wave (km/s) = 3.72974 4.05974 3.89823
# Velocity P-wave (km/s) = 5.96255 6.76230 6.37498
#
# Compressibility (1/GPa) = 0.02310784
#
# Stress axis : x y z
#
# Youngs Moduli (GPa) = 137.84744 70.05468 66.30643
#
# Poissons Ratio (x) = 0.30033 0.21614
# Poissons Ratio (y) = 0.59096 -0.05275
# Poissons Ratio (z) = 0.44935 -0.05573
#
# Static dielectric constant tensor:
#      x y z
#    x 2.037810 0.000000 0.006890 
#    y 0.000000 2.009990 0.000000 
#    z 0.006890 0.000000 1.953380 
# 
# From -- ./inp_files/11025.got.cif
#   From: 2010.05.17/outbox.cif.g08.bks.cpg/sg5_6_cif.got.tgz:11025.got - 2010.06.03 18:56:24.
