data_PCOD9128922
_publ_section_title
;
Structure prediction by ZEFSAII (Michael W. Deem and Ramdas Pophale) SiO2 
 PCOD9128922
Probable space group: C 2
;
_chemical_formula_sum "Si O2"
_cell_formula_units_Z 24
_cell_length_a 13.629838
_cell_length_b 5.362742
_cell_length_c 22.778167
_cell_angle_alpha 90.000000
_cell_angle_beta 145.192441
_cell_angle_gamma 90.000000
_cell_volume 950.379357
_symmetry_space_group_name_H-M "C 2"
_symmetry_group_IT_number 5
_symmetry_cell_setting 'monoclinic'
loop_
_space_group_symop_operation_xyz
x,y,z
-x,y,-z
1/2+x,1/2+y,z
1/2-x,1/2+y,-z
loop_
_atom_site_type_symbol
_atom_site_label
_atom_site_fract_x
_atom_site_fract_y
_atom_site_fract_z
Si Si1 0.500000 0.631691 0.500000
Si Si2 0.597840 0.930742 0.175728
Si Si3 0.158007 0.908055 0.361110
Si Si4 0.392412 0.228445 0.531820
Si Si5 0.000000 0.298314 0.000000
Si Si6 0.627312 0.075539 0.825207
Si Si7 0.178760 0.422586 0.721147
O O1 0.497577 0.444772 0.553678
O O2 0.319972 0.774612 0.411657
O O3 0.527758 0.945793 0.074375
O O4 0.457468 0.952103 0.158974
O O5 0.720952 0.169824 0.240894
O O6 0.697579 0.665184 0.227253
O O7 0.230586 0.183143 0.409498
O O8 0.149957 0.808042 0.423654
O O9 0.984962 0.827224 0.243903
O O10 0.512267 0.987055 0.600120
O O11 0.172071 0.140426 0.071096
O O12 0.619734 0.923426 0.760406
#
# Coordination Sequence:
#
# PCOD9128922 Si02
#       7
#     2   4   4   4   2   4   4
#     4  12  24  40  68 102 144 192 232 286 348 420
#     4  11  25  48  76 108 141 188 241 302 364 430
#     4  11  24  44  68 103 144 188 238 288 350 423
#     4  11  24  42  68 101 147 190 236 287 346 429
#     4  10  26  48  76 106 142 186 246 308 364 426
#     4  10  25  48  73 105 144 191 241 301 362 426
#     4  10  26  45  72 108 148 186 240 296 354 430
#
# _framework density 25.253074999999999
#
# number of rings (size 3 to 8) (size 9 to 14) (size 15 to 20)
#    0.000    1.333    1.667    1.500    7.000   10.667 
#    0.000    0.000    0.000    0.000    0.000    0.000 
#    0.000    0.000    0.000    0.000    0.000    0.000 
#
# Total GULP energy -67194.499241 kJ/mol
# GULP energy per Si atom -5599.541603 kJ/mol
# Density = 2.519560 g / cm^3
# Si number density = 25.253075 Si / 1000 Ang^3
#
#
#
# Elastic Constant Matrix: (Units=GPa)
#
#
# Indices 1 2 3 4 5 6 
#
# 1 234.2642 50.3046 54.5383 0.0000 18.3162 0.0000
# 2 50.3046 103.6426 42.3144 -0.0001 18.3681 0.0006
# 3 54.5383 42.3144 155.5392 0.0000 15.7204 0.0001
# 4 0.0000 -0.0001 0.0000 30.8566 -0.0001 2.4371
# 5 18.3162 18.3681 15.7204 -0.0001 38.3190 0.0000
# 6 0.0000 0.0006 0.0001 2.4371 0.0000 32.0780
#
#
#
# Elastic Compliance Matrix: (Units=1/GPa)
#
#
# Indices 1 2 3 4 5 6 
#
# 1 0.005002 -0.001762 -0.001167 0.000000 -0.001068 0.000000
# 2 -0.001762 0.012152 -0.002279 0.000000 -0.004048 0.000000
# 3 -0.001167 -0.002279 0.007607 0.000000 -0.001471 0.000000
# 4 0.000000 0.000000 0.000000 0.032604 0.000000 -0.002477
# 5 -0.001068 -0.004048 -0.001471 0.000000 0.029151 0.000000
# 6 0.000000 0.000000 0.000000 -0.002477 0.000000 0.031362
#
#
# Mechanical properties :
#
#
# Convention : Reuss Voigt Hill
#
# Bulk Modulus (GPa) = 69.70997 87.52896 78.61946
# Shear Modulus (GPa) = 37.57295 43.33664 40.45479
#
# Velocity S-wave (km/s) = 3.86146 4.14707 4.00681
# Velocity P-wave (km/s) = 6.89533 7.59387 7.25302
#
# Compressibility (1/GPa) = 0.01434515
#
# Stress axis : x y z
#
# Youngs Moduli (GPa) = 199.91217 82.29337 131.45946
#
# Poissons Ratio (x) = 0.14503 0.15336
# Poissons Ratio (y) = 0.35232 0.29957
# Poissons Ratio (z) = 0.23322 0.18753
#
# Static dielectric constant tensor:
#      x y z
#    x 2.027490 0.000000 -0.040240 
#    y 0.000000 2.075400 0.000000 
#    z -0.040240 0.000000 2.111000 
# 
# From -- ./inp_files/53915.got.cif
#   From: 2010.05.17/outbox.cif.g08.bks.cpg/sg5_27_cif.got.tgz:53915.got - 2010.06.03 18:56:24.
