data_PCOD9128419
_publ_section_title
;
Structure prediction by ZEFSAII (Michael W. Deem and Ramdas Pophale) SiO2 
 PCOD9128419
Probable space group: C 2
;
_chemical_formula_sum "Si O2"
_cell_formula_units_Z 24
_cell_length_a 17.225406
_cell_length_b 8.067899
_cell_length_c 21.133638
_cell_angle_alpha 90.000000
_cell_angle_beta 20.808381
_cell_angle_gamma 90.000000
_cell_volume 1043.351320
_symmetry_space_group_name_H-M "C 2"
_symmetry_group_IT_number 5
_symmetry_cell_setting 'monoclinic'
loop_
_space_group_symop_operation_xyz
x,y,z
-x,y,-z
1/2+x,1/2+y,z
1/2-x,1/2+y,-z
loop_
_atom_site_type_symbol
_atom_site_label
_atom_site_fract_x
_atom_site_fract_y
_atom_site_fract_z
Si Si1 0.000000 0.366431 0.000000
Si Si2 0.344953 0.164973 0.374325
Si Si3 0.633511 0.593837 0.241062
Si Si4 0.791144 0.506631 0.980385
Si Si5 0.011338 0.443894 0.624880
Si Si6 0.976797 0.196138 0.149279
Si Si7 0.500000 0.098435 0.500000
O O1 0.205957 0.489366 0.836952
O O2 0.972880 0.252044 0.959893
O O3 0.512036 0.127531 0.191175
O O4 0.247868 0.349937 0.446206
O O5 0.466957 0.100222 0.344794
O O6 0.852658 0.294228 0.766871
O O7 0.383156 0.562939 0.452835
O O8 0.697035 0.540433 0.121782
O O9 0.910194 0.330018 0.891123
O O10 0.595194 0.528378 0.079975
O O11 0.949362 0.493909 0.601411
O O12 0.717794 0.195496 0.352733
#
# Coordination Sequence:
#
# PCOD9128419 Si02
#       7
#     2   4   4   4   4   4   2
#     4  10  24  46  68 108 146 186 236 318 364 420
#     4  10  24  43  75 100 141 195 243 294 357 440
#     4   9  23  44  69 102 143 184 241 300 356 434
#     4  11  24  46  76 106 137 196 245 295 358 444
#     4  10  25  45  72 101 148 190 241 298 363 434
#     4  11  28  45  75 105 148 186 250 299 365 440
#     4  12  28  46  70 116 152 190 240 312 382 424
#
# _framework density 23.002797000000001
#
# number of rings (size 3 to 8) (size 9 to 14) (size 15 to 20)
#    1.000    0.667    0.000    2.000   14.000    2.667 
#    3.000    0.000    0.000    0.000    0.000    0.000 
#    0.000    0.000    0.000    0.000    0.000    0.000 
#
# Total GULP energy -66999.317192 kJ/mol
# GULP energy per Si atom -5583.276433 kJ/mol
# Density = 2.295044 g / cm^3
# Si number density = 23.002797 Si / 1000 Ang^3
#
#
#
# Elastic Constant Matrix: (Units=GPa)
#
#
# Indices 1 2 3 4 5 6 
#
# 1 94.2784 40.7661 29.1186 -0.0012 -20.9628 0.0001
# 2 40.7661 57.6204 33.9293 -0.0004 -13.0468 0.0016
# 3 29.1186 33.9293 153.7440 -0.0006 -12.9396 0.0043
# 4 -0.0012 -0.0004 -0.0006 32.0524 0.0007 -2.7659
# 5 -20.9628 -13.0468 -12.9396 0.0007 32.2148 0.0005
# 6 0.0001 0.0016 0.0043 -2.7659 0.0005 27.7729
#
#
#
# Elastic Compliance Matrix: (Units=1/GPa)
#
#
# Indices 1 2 3 4 5 6 
#
# 1 0.016484 -0.009961 -0.000373 0.000000 0.006542 0.000001
# 2 -0.009961 0.027389 -0.003902 0.000000 0.003043 -0.000001
# 3 -0.000373 -0.003902 0.007537 0.000000 0.001205 -0.000001
# 4 0.000000 0.000000 0.000000 0.031469 -0.000001 0.003134
# 5 0.006542 0.003043 0.001205 -0.000001 0.037015 -0.000001
# 6 0.000001 -0.000001 -0.000001 0.003134 -0.000001 0.036318
#
#
# Mechanical properties :
#
#
# Convention : Reuss Voigt Hill
#
# Bulk Modulus (GPa) = 43.59490 57.03010 50.31250
# Shear Modulus (GPa) = 25.99674 31.86328 28.93001
#
# Velocity S-wave (km/s) = 3.36543 3.72585 3.55022
# Velocity P-wave (km/s) = 5.83906 6.58451 6.22296
#
# Compressibility (1/GPa) = 0.02293847
#
# Stress axis : x y z
#
# Youngs Moduli (GPa) = 60.66454 36.51093 132.67180
#
# Poissons Ratio (x) = 0.36370 0.04950
# Poissons Ratio (y) = 0.60430 0.51764
# Poissons Ratio (z) = 0.02263 0.14245
#
# Static dielectric constant tensor:
#      x y z
#    x 1.827110 0.000000 -0.012010 
#    y 0.000000 1.958080 0.000000 
#    z -0.012010 0.000000 1.892010 
# 
# From -- ./inp_files/69081.got.cif
#   From: 2010.05.17/outbox.cif.g08.bks.cpg/sg5_35_cif.got.tgz:69081.got - 2010.06.03 18:56:24.
