data_PCOD9128282
_publ_section_title
;
Structure prediction by ZEFSAII (Michael W. Deem and Ramdas Pophale) SiO2 
 PCOD9128282
Probable space group: C 2
;
_chemical_formula_sum "Si O2"
_cell_formula_units_Z 26
_cell_length_a 11.507533
_cell_length_b 18.151731
_cell_length_c 12.852738
_cell_angle_alpha 90.000000
_cell_angle_beta 155.488872
_cell_angle_gamma 90.000000
_cell_volume 1113.801832
_symmetry_space_group_name_H-M "C 2"
_symmetry_group_IT_number 5
_symmetry_cell_setting 'monoclinic'
loop_
_space_group_symop_operation_xyz
x,y,z
-x,y,-z
1/2+x,1/2+y,z
1/2-x,1/2+y,-z
loop_
_atom_site_type_symbol
_atom_site_label
_atom_site_fract_x
_atom_site_fract_y
_atom_site_fract_z
Si Si1 0.458025 0.252510 0.071560
Si Si2 0.000000 0.145733 0.500000
Si Si3 0.500000 0.371303 0.500000
Si Si4 0.555145 0.916854 0.420850
Si Si5 0.311180 0.282152 0.540911
Si Si6 0.467416 0.635361 0.694389
Si Si7 0.500000 0.966775 0.000000
Si Si8 0.341773 0.493957 0.074181
O O1 0.737251 0.201069 0.291734
O O2 0.460383 0.293053 0.182657
O O3 0.500000 0.298345 0.000000
O O4 0.218505 0.192702 0.885770
O O5 0.038578 0.099404 0.426288
O O6 0.376159 0.320243 0.487690
O O7 0.254571 0.419066 0.251300
O O8 0.500000 0.921161 0.500000
O O9 0.559283 0.831416 0.385292
O O10 0.874818 0.947863 0.667817
O O11 0.336039 0.961220 0.167985
O O12 0.280457 0.194583 0.496910
O O13 0.530014 0.576305 0.833018
O O14 0.630054 0.002703 0.000743
#
# Coordination Sequence:
#
# PCOD9128282 Si02
#       8
#     4   2   2   4   4   4   2   4
#     4   9  20  37  63 104 142 180 235 306 373 429
#     4   8  18  37  58 106 137 182 228 300 376 429
#     4  12  26  49  74 106 149 198 246 304 378 459
#     4  12  29  50  76 105 153 206 255 308 375 459
#     4  11  25  46  72 111 142 194 253 312 377 445
#     4  10  24  40  72 105 148 188 249 313 379 441
#     4  12  24  48  74 108 150 192 246 308 378 458
#     4  12  27  50  75 111 150 201 251 310 383 455
#
# _framework density 23.343471000000001
#
# number of rings (size 3 to 8) (size 9 to 14) (size 15 to 20)
#    0.000    1.231    3.077    0.462   18.308    0.615 
#    1.385    1.538    0.000    0.000    0.000    0.000 
#    0.000    0.000    0.000    0.000    0.000    0.000 
#
# Total GULP energy -72489.068045 kJ/mol
# GULP energy per Si atom -5576.082157 kJ/mol
# Density = 2.329034 g / cm^3
# Si number density = 23.343471 Si / 1000 Ang^3
#
#
#
# Elastic Constant Matrix: (Units=GPa)
#
#
# Indices 1 2 3 4 5 6 
#
# 1 87.6972 13.3046 12.0110 0.0014 -19.9082 0.0015
# 2 13.3046 109.3507 33.7393 0.0006 -20.3901 -0.0002
# 3 12.0110 33.7393 106.7735 0.0043 -22.7283 0.0024
# 4 0.0014 0.0006 0.0043 40.3086 0.0029 -2.5426
# 5 -19.9082 -20.3901 -22.7283 0.0029 45.3512 0.0017
# 6 0.0015 -0.0002 0.0024 -2.5426 0.0017 12.9488
#
#
#
# Elastic Compliance Matrix: (Units=1/GPa)
#
#
# Indices 1 2 3 4 5 6 
#
# 1 0.012697 -0.000518 -0.000143 -0.000001 0.005269 -0.000002
# 2 -0.000518 0.010616 -0.002607 0.000000 0.003239 0.000000
# 3 -0.000143 -0.002607 0.011130 -0.000002 0.004343 -0.000003
# 4 -0.000001 0.000000 -0.000002 0.025120 -0.000003 0.004933
# 5 0.005269 0.003239 0.004343 -0.000003 0.027996 -0.000006
# 6 -0.000002 0.000000 -0.000003 0.004933 -0.000006 0.078196
#
#
# Mechanical properties :
#
#
# Convention : Reuss Voigt Hill
#
# Bulk Modulus (GPa) = 35.83273 46.88122 41.35698
# Shear Modulus (GPa) = 27.53402 36.03947 31.78674
#
# Velocity S-wave (km/s) = 3.43814 3.93348 3.69412
# Velocity P-wave (km/s) = 5.58073 6.38409 5.99588
#
# Compressibility (1/GPa) = 0.02790744
#
# Stress axis : x y z
#
# Youngs Moduli (GPa) = 78.75733 94.19520 89.84784
#
# Poissons Ratio (x) = 0.04882 0.01284
# Poissons Ratio (y) = 0.04081 0.23422
# Poissons Ratio (z) = 0.01126 0.24555
#
# Static dielectric constant tensor:
#      x y z
#    x 1.959090 0.000000 -0.086310 
#    y 0.000000 1.906390 0.000000 
#    z -0.086310 0.000000 2.154620 
# 
# From -- ./inp_files/40519.got.cif
#   From: 2010.05.17/outbox.cif.g08.bks.cpg/sg5_21_cif.got.tgz:40519.got - 2010.06.03 18:56:24.
