data_PCOD9128837
_publ_section_title
;
Structure prediction by ZEFSAII (Michael W. Deem and Ramdas Pophale) SiO2 
 PCOD9128837
Probable space group: C 2
;
_chemical_formula_sum "Si O2"
_cell_formula_units_Z 24
_cell_length_a 22.930770
_cell_length_b 5.379408
_cell_length_c 12.285423
_cell_angle_alpha 90.000000
_cell_angle_beta 136.795532
_cell_angle_gamma 90.000000
_cell_volume 1037.486938
_symmetry_space_group_name_H-M "C 2"
_symmetry_group_IT_number 5
_symmetry_cell_setting 'monoclinic'
loop_
_space_group_symop_operation_xyz
x,y,z
-x,y,-z
1/2+x,1/2+y,z
1/2-x,1/2+y,-z
loop_
_atom_site_type_symbol
_atom_site_label
_atom_site_fract_x
_atom_site_fract_y
_atom_site_fract_z
Si Si1 0.836232 0.155320 0.041841
Si Si2 0.213672 0.493259 0.214437
Si Si3 0.327223 0.880312 0.246983
Si Si4 0.624467 0.171812 0.503417
Si Si5 0.501404 0.422475 0.182873
Si Si6 0.581768 0.937048 0.228097
O O1 0.831506 0.391073 0.955726
O O2 0.740483 0.050901 0.910115
O O3 0.864407 0.209873 0.202921
O O4 0.904570 0.975654 0.079794
O O5 0.268143 0.731054 0.252069
O O6 0.284956 0.297575 0.351737
O O7 0.146625 0.499053 0.220410
O O8 0.393979 0.033431 0.408833
O O9 0.556594 0.372982 0.367996
O O10 0.627939 0.979005 0.407632
O O11 0.513647 0.161409 0.138633
O O12 0.541364 0.661998 0.175616
#
# Coordination Sequence:
#
# PCOD9128837 Si02
#       6
#     4   4   4   4   4   4
#     4  11  25  45  73 101 147 191 249 299 365 444
#     4  11  24  42  72 104 143 193 243 300 359 443
#     4  11  23  46  71 105 137 200 247 302 360 440
#     4   9  24  41  74 107 141 184 246 295 368 425
#     4  10  25  46  70 108 144 186 231 309 368 426
#     4  10  25  44  71 106 144 183 241 296 374 428
#
# _framework density 23.132822000000001
#
# number of rings (size 3 to 8) (size 9 to 14) (size 15 to 20)
#    1.000    0.667    1.667    1.000   11.667    0.667 
#    0.000    5.000    0.000    0.000    0.000    0.000 
#    0.000    0.000    0.000    0.000    0.000    0.000 
#
# Total GULP energy -67017.600796 kJ/mol
# GULP energy per Si atom -5584.800066 kJ/mol
# Density = 2.308017 g / cm^3
# Si number density = 23.132822 Si / 1000 Ang^3
#
#
#
# Elastic Constant Matrix: (Units=GPa)
#
#
# Indices 1 2 3 4 5 6 
#
# 1 30.5131 -4.8542 27.3741 0.0000 -0.3633 0.0000
# 2 -4.8542 89.6620 22.8966 0.0000 0.8187 0.0000
# 3 27.3741 22.8966 109.4817 0.0000 -20.1103 0.0000
# 4 0.0000 0.0000 0.0000 17.9264 0.0000 9.5687
# 5 -0.3633 0.8187 -20.1103 0.0000 24.4782 0.0000
# 6 0.0000 0.0000 0.0000 9.5687 0.0000 24.6317
#
#
#
# Elastic Compliance Matrix: (Units=1/GPa)
#
#
# Indices 1 2 3 4 5 6 
#
# 1 0.047657 0.006669 -0.015571 0.000000 -0.012308 0.000000
# 2 0.006669 0.012887 -0.005210 0.000000 -0.004612 0.000000
# 3 -0.015571 -0.005210 0.016614 0.000000 0.013592 0.000000
# 4 0.000000 0.000000 0.000000 0.070377 0.000000 -0.027339
# 5 -0.012308 -0.004612 0.013592 0.000000 0.051991 0.000000
# 6 0.000000 0.000000 0.000000 -0.027339 0.000000 0.051219
#
#
# Mechanical properties :
#
#
# Convention : Reuss Voigt Hill
#
# Bulk Modulus (GPa) = 20.43637 35.60997 28.02317
# Shear Modulus (GPa) = 16.93320 25.68995 21.31158
#
# Velocity S-wave (km/s) = 2.70848 3.33609 3.03854
# Velocity P-wave (km/s) = 4.31679 5.50150 4.94475
#
# Compressibility (1/GPa) = 0.04893237
#
# Stress axis : x y z
#
# Youngs Moduli (GPa) = 20.98345 77.60048 60.19199
#
# Poissons Ratio (x) = -0.51750 0.93727
# Poissons Ratio (y) = -0.13994 0.31358
# Poissons Ratio (z) = 0.32674 0.40427
#
# Static dielectric constant tensor:
#      x y z
#    x 1.839730 0.000000 -0.024760 
#    y 0.000000 1.942660 0.000000 
#    z -0.024760 0.000000 1.868730 
# 
# From -- ./inp_files/45523.got.cif
#   From: 2010.05.17/outbox.cif.g08.bks.cpg/sg5_23_cif.got.tgz:45523.got - 2010.06.03 18:56:24.
