data_PCOD9128404
_publ_section_title
;
Structure prediction by ZEFSAII (Michael W. Deem and Ramdas Pophale) SiO2 
 PCOD9128404
Probable space group: C 2
;
_chemical_formula_sum "Si O2"
_cell_formula_units_Z 24
_cell_length_a 22.884144
_cell_length_b 4.953208
_cell_length_c 23.626087
_cell_angle_alpha 90.000000
_cell_angle_beta 157.628112
_cell_angle_gamma 90.000000
_cell_volume 1019.297318
_symmetry_space_group_name_H-M "C 2"
_symmetry_group_IT_number 5
_symmetry_cell_setting 'monoclinic'
loop_
_space_group_symop_operation_xyz
x,y,z
-x,y,-z
1/2+x,1/2+y,z
1/2-x,1/2+y,-z
loop_
_atom_site_type_symbol
_atom_site_label
_atom_site_fract_x
_atom_site_fract_y
_atom_site_fract_z
Si Si1 0.143146 0.806470 0.656050
Si Si2 0.082250 0.117741 0.707369
Si Si3 0.851006 0.020469 0.102915
Si Si4 0.064172 0.205503 0.193729
Si Si5 0.724549 0.708236 0.629683
Si Si6 0.130547 0.966917 0.080174
O O1 0.168312 0.068888 0.638510
O O2 0.299279 0.657701 0.808818
O O3 0.000000 0.650861 0.500000
O O4 0.090308 0.866004 0.672372
O O5 0.231482 0.290499 0.821892
O O6 0.097671 0.046157 0.786365
O O7 0.916028 0.228246 0.540268
O O8 0.983646 0.118113 0.179686
O O9 0.792634 0.721658 0.036106
O O10 0.202954 0.002172 0.304614
O O11 0.136785 0.502598 0.262275
O O12 0.938640 0.146255 0.032544
O O13 0.000000 0.809449 0.000000
#
# Coordination Sequence:
#
# PCOD9128404 Si02
#       6
#     4   4   4   4   4   4
#     4  10  24  43  70 106 147 194 239 307 378 447
#     4  11  27  45  74 104 149 200 244 301 386 442
#     4  12  26  48  75 108 150 192 248 310 365 440
#     4  12  26  47  73 109 144 195 252 307 361 442
#     4  11  27  48  73 108 151 190 246 308 375 445
#     4  12  24  42  77 106 147 191 253 306 379 439
#
# _framework density 23.545629000000002
#
# number of rings (size 3 to 8) (size 9 to 14) (size 15 to 20)
#    0.000    0.667    3.333    3.000    7.000    2.667 
#    0.000    0.000    0.000    0.000    0.000    0.000 
#    0.000    0.000    0.000    0.000    0.000    0.000 
#
# Total GULP energy -67138.593328 kJ/mol
# GULP energy per Si atom -5594.882777 kJ/mol
# Density = 2.349204 g / cm^3
# Si number density = 23.545629 Si / 1000 Ang^3
#
#
#
# Elastic Constant Matrix: (Units=GPa)
#
#
# Indices 1 2 3 4 5 6 
#
# 1 158.0801 -12.7322 54.4165 0.0023 -34.2281 0.0036
# 2 -12.7322 41.3604 12.9263 0.0025 -12.9248 0.0068
# 3 54.4165 12.9263 164.2701 0.0016 -36.1684 0.0026
# 4 0.0023 0.0025 0.0016 39.0183 -0.0003 11.7458
# 5 -34.2281 -12.9248 -36.1684 -0.0003 46.9718 -0.0003
# 6 0.0036 0.0068 0.0026 11.7458 -0.0003 23.6649
#
#
#
# Elastic Compliance Matrix: (Units=1/GPa)
#
#
# Indices 1 2 3 4 5 6 
#
# 1 0.008800 0.005308 -0.001926 0.000000 0.006390 -0.000003
# 2 0.005308 0.029699 -0.001739 0.000001 0.010700 -0.000009
# 3 -0.001926 -0.001739 0.007764 0.000000 0.004097 0.000000
# 4 0.000000 0.000001 0.000000 0.030131 0.000000 -0.014955
# 5 0.006390 0.010700 0.004097 0.000000 0.032045 -0.000004
# 6 -0.000003 -0.000009 0.000000 -0.014955 -0.000004 0.049680
#
#
# Mechanical properties :
#
#
# Convention : Reuss Voigt Hill
#
# Bulk Modulus (GPa) = 20.18229 52.54797 36.36513
# Shear Modulus (GPa) = 29.18019 42.53767 35.85893
#
# Velocity S-wave (km/s) = 3.52419 4.25503 3.90674
# Velocity P-wave (km/s) = 5.01499 6.81955 5.98567
#
# Compressibility (1/GPa) = 0.04954838
#
# Stress axis : x y z
#
# Youngs Moduli (GPa) = 113.63746 33.67125 128.79410
#
# Poissons Ratio (x) = -0.17871 0.24803
# Poissons Ratio (y) = -0.60314 0.22400
# Poissons Ratio (z) = 0.21884 0.05856
#
# Static dielectric constant tensor:
#      x y z
#    x 1.894540 0.000000 0.072020 
#    y 0.000000 1.927910 0.000000 
#    z 0.072020 0.000000 1.933840 
# 
# From -- ./inp_files/69589.got.cif
#   From: 2010.05.17/outbox.cif.g08.bks.cpg/sg5_35_cif.got.tgz:69589.got - 2010.06.03 18:56:24.
