data_PCOD9128919
_publ_section_title
;
Structure prediction by ZEFSAII (Michael W. Deem and Ramdas Pophale) SiO2 
 PCOD9128919
Probable space group: C 2
;
_chemical_formula_sum "Si O2"
_cell_formula_units_Z 32
_cell_length_a 10.149832
_cell_length_b 9.783253
_cell_length_c 26.190604
_cell_angle_alpha 90.000000
_cell_angle_beta 34.454828
_cell_angle_gamma 90.000000
_cell_volume 1471.353635
_symmetry_space_group_name_H-M "C 2"
_symmetry_group_IT_number 5
_symmetry_cell_setting 'monoclinic'
loop_
_space_group_symop_operation_xyz
x,y,z
-x,y,-z
1/2+x,1/2+y,z
1/2-x,1/2+y,-z
loop_
_atom_site_type_symbol
_atom_site_label
_atom_site_fract_x
_atom_site_fract_y
_atom_site_fract_z
Si Si1 0.098341 0.136650 0.182089
Si Si2 0.772662 0.625228 0.289032
Si Si3 0.984889 0.791436 0.450075
Si Si4 0.491188 0.886360 0.279313
Si Si5 0.228567 0.050423 0.514097
Si Si6 0.524114 0.075168 0.101102
Si Si7 0.179158 0.429015 0.334225
Si Si8 0.770029 0.786084 0.037382
O O1 0.327681 0.048618 0.120718
O O2 0.089934 0.192143 0.127291
O O3 0.143721 0.276809 0.200186
O O4 0.879950 0.042446 0.266457
O O5 0.936834 0.529432 0.270664
O O6 0.496839 0.576253 0.376973
O O7 0.884454 0.611780 0.197493
O O8 0.771166 0.776280 0.313522
O O9 0.813834 0.700944 0.470758
O O10 0.000000 0.720506 0.500000
O O11 0.244653 0.809798 0.350492
O O12 0.884057 0.942610 0.488450
O O13 0.566854 0.910196 0.313166
O O14 0.483139 0.977482 0.437490
O O15 0.672728 0.937878 0.060937
O O16 0.671919 0.202830 0.032545
O O17 0.000000 0.792505 0.000000
#
# Coordination Sequence:
#
# PCOD9128919 Si02
#       8
#     4   4   4   4   4   4   4   4
#     4  11  24  43  73 100 133 179 221 279 338 408
#     4  11  24  41  68  99 137 177 227 282 332 397
#     4  11  21  39  61  86 130 181 222 276 327 373
#     4  11  22  41  65  91 137 180 219 279 331 390
#     4  11  22  38  64  96 130 179 230 263 323 396
#     4  11  24  48  72 102 137 169 225 281 343 406
#     4  12  24  42  66  99 138 183 230 270 332 401
#     4  10  25  48  72 103 134 174 219 279 351 411
#
# _framework density 21.748681000000001
#
# number of rings (size 3 to 8) (size 9 to 14) (size 15 to 20)
#    0.000    1.000    6.250    0.000    1.750    1.000 
#    2.250    1.875    2.750    0.000    0.000    0.000 
#    0.000    0.000    0.000    0.000    0.000    0.000 
#
# Total GULP energy -89078.067982 kJ/mol
# GULP energy per Si atom -5567.379249 kJ/mol
# Density = 2.169918 g / cm^3
# Si number density = 21.748681 Si / 1000 Ang^3
#
#
#
# Elastic Constant Matrix: (Units=GPa)
#
#
# Indices 1 2 3 4 5 6 
#
# 1 37.2815 44.2204 6.3700 0.0000 -0.1138 0.0000
# 2 44.2204 159.2867 59.3885 0.0000 -0.3276 0.0000
# 3 6.3700 59.3885 85.2936 0.0001 5.5948 -0.0004
# 4 0.0000 0.0000 0.0001 43.1491 0.0000 -9.0832
# 5 -0.1138 -0.3276 5.5948 0.0000 25.9329 0.0001
# 6 0.0000 0.0000 -0.0004 -9.0832 0.0001 39.8773
#
#
#
# Elastic Compliance Matrix: (Units=1/GPa)
#
#
# Indices 1 2 3 4 5 6 
#
# 1 0.042821 -0.014499 0.006996 0.000000 -0.001505 0.000000
# 2 -0.014499 0.013439 -0.008400 0.000000 0.001918 0.000000
# 3 0.006996 -0.008400 0.017301 0.000000 -0.003808 0.000000
# 4 0.000000 0.000000 0.000000 0.024343 0.000000 0.005545
# 5 -0.001505 0.001918 -0.003808 0.000000 0.039400 0.000000
# 6 0.000000 0.000000 0.000000 0.005545 0.000000 0.026340
#
#
# Mechanical properties :
#
#
# Convention : Reuss Voigt Hill
#
# Bulk Modulus (GPa) = 23.94995 55.75772 39.85384
# Shear Modulus (GPa) = 23.88138 33.25074 28.56606
#
# Velocity S-wave (km/s) = 3.31730 3.91431 3.62810
# Velocity P-wave (km/s) = 5.07037 6.79132 5.99294
#
# Compressibility (1/GPa) = 0.04175374
#
# Stress axis : x y z
#
# Youngs Moduli (GPa) = 23.35308 74.40926 57.80157
#
# Poissons Ratio (x) = 1.07888 -0.40440
# Poissons Ratio (y) = 0.33860 0.48556
# Poissons Ratio (z) = -0.16339 0.62507
#
# Static dielectric constant tensor:
#      x y z
#    x 1.763420 0.000000 0.014910 
#    y 0.000000 1.810300 0.000000 
#    z 0.014910 0.000000 1.876060 
# 
# From -- ./inp_files/71742.got.cif
#   From: 2010.05.17/outbox.cif.g08.bks.cpg/sg5_36_cif.got.tgz:71742.got - 2010.06.03 18:56:24.
