data_PCOD9128007
_publ_section_title
;
Structure prediction by ZEFSAII (Michael W. Deem and Ramdas Pophale) SiO2 
 PCOD9128007
Probable space group: C 2
;
_chemical_formula_sum "Si O2"
_cell_formula_units_Z 32
_cell_length_a 11.812585
_cell_length_b 9.305851
_cell_length_c 14.271567
_cell_angle_alpha 90.000000
_cell_angle_beta 87.848332
_cell_angle_gamma 90.000000
_cell_volume 1567.712393
_symmetry_space_group_name_H-M "C 2"
_symmetry_group_IT_number 5
_symmetry_cell_setting 'monoclinic'
loop_
_space_group_symop_operation_xyz
x,y,z
-x,y,-z
1/2+x,1/2+y,z
1/2-x,1/2+y,-z
loop_
_atom_site_type_symbol
_atom_site_label
_atom_site_fract_x
_atom_site_fract_y
_atom_site_fract_z
Si Si1 0.216999 0.457470 0.724385
Si Si2 0.829778 0.541770 0.069067
Si Si3 0.456060 0.316400 0.128918
Si Si4 0.388923 0.716814 0.736268
Si Si5 0.784801 0.463377 0.868617
Si Si6 0.881171 0.696642 0.733416
Si Si7 0.071344 0.086296 0.083603
Si Si8 0.991615 0.449156 0.611154
O O1 0.171750 0.453449 0.833732
O O2 0.292597 0.601647 0.714963
O O3 0.298456 0.322741 0.703287
O O4 0.112590 0.463626 0.657920
O O5 0.917686 0.670552 0.080266
O O6 0.704256 0.613047 0.067566
O O7 0.837726 0.459347 0.971018
O O8 0.347797 0.422664 0.128072
O O9 0.503523 0.266129 0.228204
O O10 0.557274 0.413020 0.084878
O O11 0.339453 0.847038 0.798673
O O12 0.466140 0.637965 0.812160
O O13 0.445318 0.793855 0.646803
O O14 0.818312 0.614908 0.821291
O O15 0.913897 0.577470 0.655653
O O16 0.000000 0.145980 0.000000
O O17 0.000000 0.458337 0.500000
#
# Coordination Sequence:
#
# PCOD9128007 Si02
#       8
#     4   4   4   4   4   4   4   4
#     4  11  23  42  68  93 129 168 212 265 322 391
#     4  11  23  35  60  95 132 178 216 249 308 369
#     4  12  22  42  60  91 137 178 212 270 297 365
#     4  10  23  45  62  96 129 168 218 268 316 381
#     4  11  24  36  62  95 135 177 217 254 308 373
#     4  11  25  42  67  98 126 173 217 264 325 386
#     4  11  22  36  63  91 134 178 213 250 303 373
#     4  11  26  48  69  94 126 161 213 284 344 387
#
# _framework density 20.411908
#
# number of rings (size 3 to 8) (size 9 to 14) (size 15 to 20)
#    0.000    1.000    7.500    0.000    5.250    2.000 
#    0.000    0.625    0.000    0.000    0.000    0.000 
#    0.000    0.000    0.000    0.000    0.000    0.000 
#
# Total GULP energy -89373.976132 kJ/mol
# GULP energy per Si atom -5585.873508 kJ/mol
# Density = 2.036545 g / cm^3
# Si number density = 20.411908 Si / 1000 Ang^3
#
#
#
# Elastic Constant Matrix: (Units=GPa)
#
#
# Indices 1 2 3 4 5 6 
#
# 1 70.6194 37.5760 48.4194 0.0000 8.8379 0.0000
# 2 37.5760 108.5802 42.4368 0.0000 -1.8248 0.0000
# 3 48.4194 42.4368 147.6998 0.0000 -0.7276 0.0000
# 4 0.0000 0.0000 0.0000 19.7602 0.0000 8.4899
# 5 8.8379 -1.8248 -0.7276 0.0000 19.4539 0.0000
# 6 0.0000 0.0000 0.0000 8.4899 0.0000 12.6237
#
#
#
# Elastic Compliance Matrix: (Units=1/GPa)
#
#
# Indices 1 2 3 4 5 6 
#
# 1 0.022565 -0.005724 -0.005807 0.000000 -0.011005 0.000000
# 2 -0.005724 0.011842 -0.001508 0.000000 0.003655 0.000000
# 3 -0.005807 -0.001508 0.009121 0.000000 0.002838 0.000000
# 4 0.000000 0.000000 0.000000 0.071172 0.000000 -0.047866
# 5 -0.011005 0.003655 0.002838 0.000000 0.056852 0.000000
# 6 0.000000 0.000000 0.000000 -0.047866 0.000000 0.111407
#
#
# Mechanical properties :
#
#
# Convention : Reuss Voigt Hill
#
# Bulk Modulus (GPa) = 57.30685 64.86264 61.08475
# Shear Modulus (GPa) = 15.88037 23.59871 19.73954
#
# Velocity S-wave (km/s) = 2.79228 3.40387 3.11313
# Velocity P-wave (km/s) = 6.20741 6.87709 6.55081
#
# Compressibility (1/GPa) = 0.01744992
#
# Stress axis : x y z
#
# Youngs Moduli (GPa) = 44.31632 84.44876 109.63409
#
# Poissons Ratio (x) = 0.48342 0.63662
# Poissons Ratio (y) = 0.25369 0.16529
# Poissons Ratio (z) = 0.25734 0.12732
#
# Static dielectric constant tensor:
#      x y z
#    x 1.768660 0.000000 -0.021090 
#    y 0.000000 1.789910 0.000000 
#    z -0.021090 0.000000 1.816510 
# 
# From -- ./inp_files/52465.got.cif
#   From: 2010.05.17/outbox.cif.g08.bks.cpg/sg5_27_cif.got.tgz:52465.got - 2010.06.03 18:56:24.
