data_PCOD9128986
_publ_section_title
;
Structure prediction by ZEFSAII (Michael W. Deem and Ramdas Pophale) SiO2 
 PCOD9128986
Probable space group: C 2
;
_chemical_formula_sum "Si O2"
_cell_formula_units_Z 20
_cell_length_a 7.734184
_cell_length_b 6.513034
_cell_length_c 17.318190
_cell_angle_alpha 90.000000
_cell_angle_beta 64.353502
_cell_angle_gamma 90.000000
_cell_volume 786.424798
_symmetry_space_group_name_H-M "C 2"
_symmetry_group_IT_number 5
_symmetry_cell_setting 'monoclinic'
loop_
_space_group_symop_operation_xyz
x,y,z
-x,y,-z
1/2+x,1/2+y,z
1/2-x,1/2+y,-z
loop_
_atom_site_type_symbol
_atom_site_label
_atom_site_fract_x
_atom_site_fract_y
_atom_site_fract_z
Si Si1 0.322986 0.232280 0.388755
Si Si2 0.233516 0.904308 0.279106
Si Si3 0.500000 0.872583 0.000000
Si Si4 0.530146 0.120367 0.131628
Si Si5 0.376938 0.562198 0.159324
Si Si6 0.500000 0.029672 0.500000
O O1 0.511798 0.342964 0.319328
O O2 0.143494 0.384393 0.424603
O O3 0.274946 0.030771 0.348289
O O4 0.848701 0.192163 0.242522
O O5 0.876866 0.665816 0.465098
O O6 0.314619 0.047840 0.194476
O O7 0.432355 0.717921 0.079605
O O8 0.607107 0.036736 0.035053
O O9 0.511639 0.365436 0.135452
O O10 0.660666 0.016972 0.172053
#
# Coordination Sequence:
#
# PCOD9128986 Si02
#       6
#     4   4   2   4   4   2
#     4  12  26  48  76 110 150 190 242 304 360 450
#     4  11  26  48  78 109 150 194 248 301 366 432
#     4  10  26  40  74 100 156 186 258 296 368 422
#     4  11  26  46  73 109 146 199 246 305 364 429
#     4  11  26  46  73 109 146 199 246 305 364 429
#     4  12  28  48  76 112 146 192 240 294 380 434
#
# _framework density 25.431549
#
# number of rings (size 3 to 8) (size 9 to 14) (size 15 to 20)
#    0.000    0.800    2.000    3.000    8.400    8.000 
#    0.000    0.000    0.000    0.000    0.000    0.000 
#    0.000    0.000    0.000    0.000    0.000    0.000 
#
# Total GULP energy -55907.604171 kJ/mol
# GULP energy per Si atom -5590.760417 kJ/mol
# Density = 2.537367 g / cm^3
# Si number density = 25.431549 Si / 1000 Ang^3
#
#
#
# Elastic Constant Matrix: (Units=GPa)
#
#
# Indices 1 2 3 4 5 6 
#
# 1 75.5662 32.8533 -2.5091 0.0000 -1.7778 0.0000
# 2 32.8533 105.6546 24.8906 0.0000 -1.3838 0.0000
# 3 -2.5091 24.8906 80.7881 0.0000 -9.0208 0.0000
# 4 0.0000 0.0000 0.0000 52.2681 0.0000 9.7564
# 5 -1.7778 -1.3838 -9.0208 0.0000 41.2652 0.0000
# 6 0.0000 0.0000 0.0000 9.7564 0.0000 37.2941
#
#
#
# Elastic Compliance Matrix: (Units=1/GPa)
#
#
# Indices 1 2 3 4 5 6 
#
# 1 0.015677 -0.005394 0.002259 0.000000 0.000988 0.000000
# 2 -0.005394 0.012067 -0.003963 0.000000 -0.000694 0.000000
# 3 0.002259 -0.003963 0.014007 0.000000 0.003026 0.000000
# 4 0.000000 0.000000 0.000000 0.020114 0.000000 -0.005262
# 5 0.000988 -0.000694 0.003026 0.000000 0.024914 0.000000
# 6 0.000000 0.000000 0.000000 -0.005262 0.000000 0.028190
#
#
# Mechanical properties :
#
#
# Convention : Reuss Voigt Hill
#
# Bulk Modulus (GPa) = 36.29068 41.38649 38.83858
# Shear Modulus (GPa) = 36.14030 39.95042 38.04536
#
# Velocity S-wave (km/s) = 3.77381 3.96776 3.87200
# Velocity P-wave (km/s) = 5.76973 6.10736 5.94094
#
# Compressibility (1/GPa) = 0.02755529
#
# Stress axis : x y z
#
# Youngs Moduli (GPa) = 63.78859 82.87400 71.39262
#
# Poissons Ratio (x) = 0.44702 -0.16128
# Poissons Ratio (y) = 0.34407 0.28291
# Poissons Ratio (z) = -0.14411 0.32840
#
# Static dielectric constant tensor:
#      x y z
#    x 2.142710 0.000000 -0.033240 
#    y 0.000000 2.006260 0.000000 
#    z -0.033240 0.000000 2.044510 
# 
# From -- ./inp_files/64843.got.cif
#   From: 2010.05.17/outbox.cif.g08.bks.cpg/sg5_33_cif.got.tgz:64843.got - 2010.06.03 18:56:24.
