data_PCOD9128082
_publ_section_title
;
Structure prediction by ZEFSAII (Michael W. Deem and Ramdas Pophale) SiO2 
 PCOD9128082
Probable space group: C 2
;
_chemical_formula_sum "Si O2"
_cell_formula_units_Z 24
_cell_length_a 11.747729
_cell_length_b 7.842574
_cell_length_c 13.473247
_cell_angle_alpha 90.000000
_cell_angle_beta 83.557343
_cell_angle_gamma 90.000000
_cell_volume 1233.483656
_symmetry_space_group_name_H-M "C 2"
_symmetry_group_IT_number 5
_symmetry_cell_setting 'monoclinic'
loop_
_space_group_symop_operation_xyz
x,y,z
-x,y,-z
1/2+x,1/2+y,z
1/2-x,1/2+y,-z
loop_
_atom_site_type_symbol
_atom_site_label
_atom_site_fract_x
_atom_site_fract_y
_atom_site_fract_z
Si Si1 0.972673 0.878130 0.616912
Si Si2 0.460244 0.706156 0.279054
Si Si3 0.186411 0.500468 0.916638
Si Si4 0.403091 0.716509 0.939413
Si Si5 0.026316 0.585268 0.751093
Si Si6 0.713335 0.222216 0.240392
O O1 0.844542 0.821799 0.661238
O O2 0.000000 0.851472 0.500000
O O3 0.047219 0.750154 0.679736
O O4 0.992415 0.072899 0.646920
O O5 0.542307 0.712014 0.174784
O O6 0.334047 0.643360 0.258890
O O7 0.449347 0.906260 0.306701
O O8 0.281104 0.625809 0.949626
O O9 0.100077 0.583080 0.844553
O O10 0.256017 0.358199 0.846955
O O11 0.120305 0.399558 0.008669
O O12 0.500000 0.631805 0.000000
O O13 0.889358 0.599507 0.783260
#
# Coordination Sequence:
#
# PCOD9128082 Si02
#       6
#     4   4   4   4   4   4
#     4  10  23  46  67  99 135 173 227 276 334 395
#     4  11  22  44  67  97 136 171 220 279 328 398
#     4  11  24  40  63  95 137 175 223 269 329 395
#     4  12  24  39  65  97 132 179 221 264 332 399
#     4   9  22  43  66  91 133 173 218 276 330 387
#     4   9  21  44  61  93 132 166 222 273 322 401
#
# _framework density 19.457087000000001
#
# number of rings (size 3 to 8) (size 9 to 14) (size 15 to 20)
#    1.000    0.667    5.000    0.000    2.333    4.667 
#    6.000    0.000    0.000    0.000    0.000    0.000 
#    0.000    0.000    0.000    0.000    0.000    0.000 
#
# Total GULP energy -66854.087346 kJ/mol
# GULP energy per Si atom -5571.173945 kJ/mol
# Density = 1.941280 g / cm^3
# Si number density = 19.457087 Si / 1000 Ang^3
#
#
#
# Elastic Constant Matrix: (Units=GPa)
#
#
# Indices 1 2 3 4 5 6 
#
# 1 138.7712 37.2112 38.0447 0.0000 6.4257 0.0000
# 2 37.2112 56.8553 29.4710 0.0000 5.2128 0.0000
# 3 38.0447 29.4710 96.6715 0.0000 -9.7632 0.0000
# 4 0.0000 0.0000 0.0000 28.3884 0.0000 4.3222
# 5 6.4257 5.2128 -9.7632 0.0000 17.9923 0.0000
# 6 0.0000 0.0000 0.0000 4.3222 0.0000 31.5305
#
#
#
# Elastic Compliance Matrix: (Units=1/GPa)
#
#
# Indices 1 2 3 4 5 6 
#
# 1 0.009270 -0.004362 -0.002672 0.000000 -0.003497 0.000000
# 2 -0.004362 0.024817 -0.006790 0.000000 -0.009317 0.000000
# 3 -0.002672 -0.006790 0.014559 0.000000 0.010821 0.000000
# 4 0.000000 0.000000 0.000000 0.035977 0.000000 -0.004932
# 5 -0.003497 -0.009317 0.010821 0.000000 0.065399 0.000000
# 6 0.000000 0.000000 0.000000 -0.004932 0.000000 0.032391
#
#
# Mechanical properties :
#
#
# Convention : Reuss Voigt Hill
#
# Bulk Modulus (GPa) = 47.62158 55.75020 51.68589
# Shear Modulus (GPa) = 23.03516 28.08697 25.56106
#
# Velocity S-wave (km/s) = 3.44451 3.80351 3.62845
# Velocity P-wave (km/s) = 6.35200 6.92849 6.64650
#
# Compressibility (1/GPa) = 0.02099888
#
# Stress axis : x y z
#
# Youngs Moduli (GPa) = 107.87447 40.29484 68.68781
#
# Poissons Ratio (x) = 0.17575 0.18351
# Poissons Ratio (y) = 0.47052 0.46640
# Poissons Ratio (z) = 0.28820 0.27361
#
# Static dielectric constant tensor:
#      x y z
#    x 1.722470 0.000000 0.001780 
#    y 0.000000 1.709580 0.000000 
#    z 0.001780 0.000000 1.656740 
# 
# From -- ./inp_files/38336.got.cif
#   From: 2010.05.17/outbox.cif.g08.bks.cpg/sg5_20_cif.got.tgz:38336.got - 2010.06.03 18:56:24.
