data_PCOD9128732
_publ_section_title
;
Structure prediction by ZEFSAII (Michael W. Deem and Ramdas Pophale) SiO2 
 PCOD9128732
Probable space group: C 2
;
_chemical_formula_sum "Si O2"
_cell_formula_units_Z 20
_cell_length_a 17.539775
_cell_length_b 6.870175
_cell_length_c 24.237433
_cell_angle_alpha 90.000000
_cell_angle_beta 17.761228
_cell_angle_gamma 90.000000
_cell_volume 890.944790
_symmetry_space_group_name_H-M "C 2"
_symmetry_group_IT_number 5
_symmetry_cell_setting 'monoclinic'
loop_
_space_group_symop_operation_xyz
x,y,z
-x,y,-z
1/2+x,1/2+y,z
1/2-x,1/2+y,-z
loop_
_atom_site_type_symbol
_atom_site_label
_atom_site_fract_x
_atom_site_fract_y
_atom_site_fract_z
Si Si1 0.500000 0.573010 0.000000
Si Si2 0.301960 0.270705 0.889783
Si Si3 0.267166 0.965992 0.439612
Si Si4 0.443778 0.788459 0.659217
Si Si5 0.463063 0.642902 0.224023
Si Si6 0.000000 0.421771 0.500000
O O1 0.382651 0.707922 0.032753
O O2 0.297348 0.419319 0.163033
O O3 0.539086 0.129600 0.716069
O O4 0.398255 0.490534 0.831227
O O5 0.166581 0.229148 0.041756
O O6 0.992852 0.059021 0.635268
O O7 0.360254 0.890321 0.434383
O O8 0.308184 0.793427 0.368171
O O9 0.490788 0.803047 0.562180
O O10 0.254118 0.542285 0.330248
#
# Coordination Sequence:
#
# PCOD9128732 Si02
#       6
#     2   4   4   4   4   2
#     4  10  24  48  78 112 152 188 252 304 376 440
#     4  11  23  45  75 108 148 191 244 310 365 442
#     4  11  25  46  75 104 152 201 241 305 373 438
#     4  11  24  46  75 107 149 198 246 303 366 445
#     4  12  24  46  73 109 150 195 247 300 375 434
#     4  12  24  44  72 112 150 186 252 296 362 454
#
# _framework density 22.448080000000001
#
# number of rings (size 3 to 8) (size 9 to 14) (size 15 to 20)
#    0.000    0.800    6.000    1.200    0.000    0.800 
#    0.000   12.000    0.000    0.000    0.000    0.000 
#    0.000    0.000    0.000    0.000    0.000    0.000 
#
# Total GULP energy -55842.110157 kJ/mol
# GULP energy per Si atom -5584.211016 kJ/mol
# Density = 2.239699 g / cm^3
# Si number density = 22.448080 Si / 1000 Ang^3
#
#
#
# Elastic Constant Matrix: (Units=GPa)
#
#
# Indices 1 2 3 4 5 6 
#
# 1 152.3124 48.7004 33.4375 -0.0080 6.4889 0.0222
# 2 48.7004 99.7067 27.9636 -0.0183 -7.2148 0.0172
# 3 33.4375 27.9636 54.9133 -0.0282 -2.8599 0.0662
# 4 -0.0080 -0.0183 -0.0282 39.8322 -0.0036 14.1670
# 5 6.4889 -7.2148 -2.8599 -0.0036 35.1087 0.0417
# 6 0.0222 0.0172 0.0662 14.1670 0.0417 18.7480
#
#
#
# Elastic Compliance Matrix: (Units=1/GPa)
#
#
# Indices 1 2 3 4 5 6 
#
# 1 0.008539 -0.003337 -0.003634 -0.000009 -0.002560 0.000018
# 2 -0.003337 0.013136 -0.004504 0.000003 0.002949 -0.000001
# 3 -0.003634 -0.004504 0.022800 0.000055 0.001604 -0.000117
# 4 -0.000009 0.000003 0.000055 0.034333 0.000041 -0.025944
# 5 -0.002560 0.002949 0.001604 0.000041 0.029693 -0.000102
# 6 0.000018 -0.000001 -0.000117 -0.025944 -0.000102 0.072944
#
#
# Mechanical properties :
#
#
# Convention : Reuss Voigt Hill
#
# Bulk Modulus (GPa) = 46.45420 58.57061 52.51240
# Shear Modulus (GPa) = 23.63290 31.85983 27.74636
#
# Velocity S-wave (km/s) = 3.24818 3.77140 3.51953
# Velocity P-wave (km/s) = 5.89971 6.71661 6.32137
#
# Compressibility (1/GPa) = 0.02152658
#
# Stress axis : x y z
#
# Youngs Moduli (GPa) = 117.10692 76.12772 43.85931
#
# Poissons Ratio (x) = 0.25404 0.15937
# Poissons Ratio (y) = 0.39079 0.19753
# Poissons Ratio (z) = 0.42553 0.34285
#
# Static dielectric constant tensor:
#      x y z
#    x 1.782720 0.000010 0.019210 
#    y 0.000010 1.864580 0.000010 
#    z 0.019210 0.000010 1.896860 
# 
# From -- ./inp_files/26627.got.cif
#   From: 2010.05.17/outbox.cif.g08.bks.cpg/sg5_14_cif.got.tgz:26627.got - 2010.06.03 18:56:24.
