data_PCOD9128461
_publ_section_title
;
Structure prediction by ZEFSAII (Michael W. Deem and Ramdas Pophale) SiO2 
 PCOD9128461
Probable space group: C 2
;
_chemical_formula_sum "Si O2"
_cell_formula_units_Z 26
_cell_length_a 21.397943
_cell_length_b 11.309315
_cell_length_c 12.155537
_cell_angle_alpha 90.000000
_cell_angle_beta 23.955787
_cell_angle_gamma 90.000000
_cell_volume 1194.379340
_symmetry_space_group_name_H-M "C 2"
_symmetry_group_IT_number 5
_symmetry_cell_setting 'monoclinic'
loop_
_space_group_symop_operation_xyz
x,y,z
-x,y,-z
1/2+x,1/2+y,z
1/2-x,1/2+y,-z
loop_
_atom_site_type_symbol
_atom_site_label
_atom_site_fract_x
_atom_site_fract_y
_atom_site_fract_z
Si Si1 0.000000 0.163350 0.000000
Si Si2 0.400150 0.360790 0.759418
Si Si3 0.203961 0.188526 0.363131
Si Si4 0.013768 0.990719 0.781665
Si Si5 0.452854 0.877431 0.702445
Si Si6 0.318029 0.258341 0.404432
Si Si7 0.465255 0.136396 0.780949
O O1 0.049308 0.077040 0.021756
O O2 0.857479 0.241827 0.271057
O O3 0.500000 0.416133 0.500000
O O4 0.564180 0.778798 0.573357
O O5 0.482912 0.237907 0.660426
O O6 0.226017 0.342651 0.001482
O O7 0.137658 0.067141 0.515895
O O8 0.396661 0.381470 0.308420
O O9 0.298380 0.164998 0.101341
O O10 0.314271 0.240236 0.280150
O O11 0.899976 0.939112 0.871723
O O12 0.500000 0.887722 0.500000
O O13 0.474578 0.004597 0.722950
O O14 0.412912 0.159555 0.318311
#
# Coordination Sequence:
#
# PCOD9128461 Si02
#       7
#     2   4   4   4   4   4   4
#     4  10  24  44  70 108 140 184 238 298 366 430
#     4  11  25  45  69 102 143 191 242 296 361 430
#     4  11  25  45  69 108 142 188 239 301 363 432
#     4  10  25  43  74  96 144 186 233 304 358 427
#     4  12  27  44  75 105 146 193 244 297 354 442
#     4  10  25  44  70 104 138 184 240 297 366 425
#     4  11  25  44  71 102 141 189 241 299 360 424
#
# _framework density 21.768629000000001
#
# number of rings (size 3 to 8) (size 9 to 14) (size 15 to 20)
#    0.000    1.231    1.538    1.846   12.923    8.000 
#    0.000    0.000    0.000    0.000    0.000    0.000 
#    0.000    0.000    0.000    0.000    0.000    0.000 
#
# Total GULP energy -72741.983561 kJ/mol
# GULP energy per Si atom -5595.537197 kJ/mol
# Density = 2.171908 g / cm^3
# Si number density = 21.768629 Si / 1000 Ang^3
#
#
#
# Elastic Constant Matrix: (Units=GPa)
#
#
# Indices 1 2 3 4 5 6 
#
# 1 94.7209 20.5390 9.9326 0.0000 -8.7029 0.0000
# 2 20.5390 58.8419 -7.5288 0.0000 -6.6232 0.0000
# 3 9.9326 -7.5288 70.9463 0.0000 -1.6634 0.0000
# 4 0.0000 0.0000 0.0000 15.7441 0.0000 7.3427
# 5 -8.7029 -6.6232 -1.6634 0.0000 39.3419 0.0000
# 6 0.0000 0.0000 0.0000 7.3427 0.0000 19.1970
#
#
#
# Elastic Compliance Matrix: (Units=1/GPa)
#
#
# Indices 1 2 3 4 5 6 
#
# 1 0.011851 -0.004195 -0.002061 0.000000 0.001828 0.000000
# 2 -0.004195 0.019070 0.002667 0.000000 0.002395 0.000000
# 3 -0.002061 0.002667 0.014681 0.000000 0.000614 0.000000
# 4 0.000000 0.000000 0.000000 0.077306 0.000000 -0.029569
# 5 0.001828 0.002395 0.000614 0.000000 0.026252 0.000000
# 6 0.000000 0.000000 0.000000 -0.029569 0.000000 0.063401
#
#
# Mechanical properties :
#
#
# Convention : Reuss Voigt Hill
#
# Bulk Modulus (GPa) = 26.02542 30.04385 28.03464
# Shear Modulus (GPa) = 21.50104 28.29435 24.89769
#
# Velocity S-wave (km/s) = 3.14619 3.60915 3.38559
# Velocity P-wave (km/s) = 5.01791 5.58564 5.30937
#
# Compressibility (1/GPa) = 0.03842397
#
# Stress axis : x y z
#
# Youngs Moduli (GPa) = 84.38088 52.43920 68.11444
#
# Poissons Ratio (x) = 0.21996 0.14041
# Poissons Ratio (y) = 0.35395 -0.18167
# Poissons Ratio (z) = 0.17394 -0.13986
#
# Static dielectric constant tensor:
#      x y z
#    x 1.819640 0.000000 0.009920 
#    y 0.000000 1.765800 0.000000 
#    z 0.009920 0.000000 1.796930 
# 
# From -- ./inp_files/58149.got.cif
#   From: 2010.05.17/outbox.cif.g08.bks.cpg/sg5_30_cif.got.tgz:58149.got - 2010.06.03 18:56:24.
