data_PCOD9128796
_publ_section_title
;
Structure prediction by ZEFSAII (Michael W. Deem and Ramdas Pophale) SiO2 
 PCOD9128796
Probable space group: C 2
;
_chemical_formula_sum "Si O2"
_cell_formula_units_Z 20
_cell_length_a 8.529790
_cell_length_b 5.311900
_cell_length_c 21.131739
_cell_angle_alpha 90.000000
_cell_angle_beta 56.419611
_cell_angle_gamma 90.000000
_cell_volume 797.675275
_symmetry_space_group_name_H-M "C 2"
_symmetry_group_IT_number 5
_symmetry_cell_setting 'monoclinic'
loop_
_space_group_symop_operation_xyz
x,y,z
-x,y,-z
1/2+x,1/2+y,z
1/2-x,1/2+y,-z
loop_
_atom_site_type_symbol
_atom_site_label
_atom_site_fract_x
_atom_site_fract_y
_atom_site_fract_z
Si Si1 0.389691 0.666510 0.636968
Si Si2 0.901338 0.308477 0.779993
Si Si3 0.194214 0.666062 0.418936
Si Si4 0.628806 0.304174 0.164704
Si Si5 0.045699 0.645895 0.916706
O O1 0.368450 0.717414 0.716514
O O2 0.619195 0.675675 0.579486
O O3 0.311145 0.400316 0.629188
O O4 0.306649 0.898932 0.616404
O O5 0.969387 0.592296 0.770739
O O6 0.985450 0.065207 0.796343
O O7 0.708767 0.343314 0.863274
O O8 0.000000 0.686616 0.500000
O O9 0.842450 0.394645 0.129800
O O10 0.617597 0.220109 0.094300
O O11 0.000000 0.639646 0.000000
#
# Coordination Sequence:
#
# PCOD9128796 Si02
#       5
#     4   4   4   4   4
#     4  12  26  43  76 101 145 184 232 285 345 407
#     4  10  26  42  69  98 136 176 234 278 344 404
#     4  12  26  47  72 107 143 184 230 282 347 416
#     4  10  25  41  66  92 135 168 236 277 347 398
#     4  10  26  43  69  94 137 178 231 284 346 403
#
# _framework density 25.072859999999999
#
# number of rings (size 3 to 8) (size 9 to 14) (size 15 to 20)
#    1.200    0.000    0.000    4.200   11.200    0.800 
#    0.000    0.000    0.000    0.000    0.000    0.000 
#    0.000    0.000    0.000    0.000    0.000    0.000 
#
# Total GULP energy -55847.853349 kJ/mol
# GULP energy per Si atom -5584.785335 kJ/mol
# Density = 2.501579 g / cm^3
# Si number density = 25.072860 Si / 1000 Ang^3
#
#
#
# Elastic Constant Matrix: (Units=GPa)
#
#
# Indices 1 2 3 4 5 6 
#
# 1 35.8710 18.8956 -20.7834 0.0000 6.1437 0.0000
# 2 18.8956 176.7336 17.7848 0.0000 33.4881 0.0000
# 3 -20.7834 17.7848 78.8206 0.0000 -0.4143 0.0000
# 4 0.0000 0.0000 0.0000 27.9465 0.0000 8.2645
# 5 6.1437 33.4881 -0.4143 0.0000 39.7734 0.0000
# 6 0.0000 0.0000 0.0000 8.2645 0.0000 24.9661
#
#
#
# Elastic Compliance Matrix: (Units=1/GPa)
#
#
# Indices 1 2 3 4 5 6 
#
# 1 0.036891 -0.004725 0.010785 0.000000 -0.001608 0.000000
# 2 -0.004725 0.007532 -0.002975 0.000000 -0.005643 0.000000
# 3 0.010785 -0.002975 0.016207 0.000000 0.001008 0.000000
# 4 0.000000 0.000000 0.000000 0.039666 0.000000 -0.013130
# 5 -0.001608 -0.005643 0.001008 0.000000 0.030152 0.000000
# 6 0.000000 0.000000 0.000000 -0.013130 0.000000 0.044401
#
#
# Mechanical properties :
#
#
# Convention : Reuss Voigt Hill
#
# Bulk Modulus (GPa) = 14.96998 35.91324 25.44161
# Shear Modulus (GPa) = 26.18549 36.90575 31.54562
#
# Velocity S-wave (km/s) = 3.23519 3.84075 3.55090
# Velocity P-wave (km/s) = 4.46529 5.83293 5.19432
#
# Compressibility (1/GPa) = 0.06680035
#
# Stress axis : x y z
#
# Youngs Moduli (GPa) = 27.10713 132.76681 61.70032
#
# Poissons Ratio (x) = 0.62730 -0.66544
# Poissons Ratio (y) = 0.12808 0.18356
# Poissons Ratio (z) = -0.29235 0.39498
#
# Static dielectric constant tensor:
#      x y z
#    x 2.025060 0.000000 -0.088130 
#    y 0.000000 2.059950 0.000000 
#    z -0.088130 0.000000 1.975420 
# 
# From -- ./inp_files/64151.got.cif
#   From: 2010.05.17/outbox.cif.g08.bks.cpg/sg5_33_cif.got.tgz:64151.got - 2010.06.03 18:56:24.
