data_PCOD9128787
_publ_section_title
;
Structure prediction by ZEFSAII (Michael W. Deem and Ramdas Pophale) SiO2 
 PCOD9128787
Probable space group: C 2
;
_chemical_formula_sum "Si O2"
_cell_formula_units_Z 32
_cell_length_a 10.982300
_cell_length_b 26.231583
_cell_length_c 5.643356
_cell_angle_alpha 90.000000
_cell_angle_beta 68.012764
_cell_angle_gamma 90.000000
_cell_volume 1507.509952
_symmetry_space_group_name_H-M "C 2"
_symmetry_group_IT_number 5
_symmetry_cell_setting 'monoclinic'
loop_
_space_group_symop_operation_xyz
x,y,z
-x,y,-z
1/2+x,1/2+y,z
1/2-x,1/2+y,-z
loop_
_atom_site_type_symbol
_atom_site_label
_atom_site_fract_x
_atom_site_fract_y
_atom_site_fract_z
Si Si1 0.359886 0.448750 0.469922
Si Si2 0.636558 0.355040 0.876322
Si Si3 0.154728 0.143372 0.918460
Si Si4 0.655514 0.524123 0.867050
Si Si5 0.371612 0.800050 0.448243
Si Si6 0.828173 0.381303 0.113648
Si Si7 0.428542 0.974072 0.807683
Si Si8 0.149907 0.180642 0.427957
O O1 0.500000 0.448925 0.500000
O O2 0.381863 0.409217 0.238101
O O3 0.325814 0.506240 0.418094
O O4 0.225823 0.424758 0.671584
O O5 0.742708 0.323125 0.659858
O O6 0.500000 0.327184 0.000000
O O7 0.693125 0.365208 0.090667
O O8 0.163168 0.082549 0.936290
O O9 0.213555 0.155044 0.614189
O O10 0.206327 0.170907 0.121061
O O11 0.000000 0.158137 0.000000
O O12 0.777735 0.495037 0.902526
O O13 0.500000 0.509583 0.000000
O O14 0.500000 0.814545 0.500000
O O15 0.377840 0.829682 0.195988
O O16 0.361057 0.739379 0.481308
O O17 0.915000 0.412565 0.861232
O O18 0.500000 0.983751 0.500000
O O19 0.500000 0.992914 0.000000
O O20 0.000000 0.160523 0.500000
#
# Coordination Sequence:
#
# PCOD9128787 Si02
#       8
#     4   4   4   4   4   4   4   4
#     4  11  20  36  60  91 132 172 217 275 328 389
#     4  11  22  39  59  92 126 172 222 272 326 385
#     4   9  20  37  66  95 127 159 215 283 341 387
#     4  11  23  42  68 102 128 175 233 281 334 402
#     4  10  25  39  63  93 129 172 223 272 337 403
#     4  11  24  38  62  88 132 177 229 260 322 396
#     4  12  28  45  64  95 144 189 222 273 333 401
#     4   9  19  40  61  93 128 163 208 280 345 394
#
# _framework density 21.227059000000001
#
# number of rings (size 3 to 8) (size 9 to 14) (size 15 to 20)
#    0.000    1.500    2.500    1.875    5.250    4.500 
#    0.000    0.000    0.000    2.250    0.000    0.000 
#    0.000    0.000    0.000    0.000    0.000    0.000 
#
# Total GULP energy -89081.833893 kJ/mol
# GULP energy per Si atom -5567.614618 kJ/mol
# Density = 2.117874 g / cm^3
# Si number density = 21.227059 Si / 1000 Ang^3
#
#
#
# Elastic Constant Matrix: (Units=GPa)
#
#
# Indices 1 2 3 4 5 6 
#
# 1 126.1121 32.1714 43.0486 0.0000 12.2986 0.0000
# 2 32.1714 76.4203 36.1427 0.0000 12.6109 0.0000
# 3 43.0486 36.1427 107.2632 0.0000 9.4779 0.0000
# 4 0.0000 0.0000 0.0000 20.6661 0.0000 4.9093
# 5 12.2986 12.6109 9.4779 0.0000 44.2110 0.0000
# 6 0.0000 0.0000 0.0000 4.9093 0.0000 17.5873
#
#
#
# Elastic Compliance Matrix: (Units=1/GPa)
#
#
# Indices 1 2 3 4 5 6 
#
# 1 0.009695 -0.002466 -0.002939 0.000000 -0.001363 0.000000
# 2 -0.002466 0.016705 -0.004361 0.000000 -0.003144 0.000000
# 3 -0.002939 -0.004361 0.012018 0.000000 -0.000515 0.000000
# 4 0.000000 0.000000 0.000000 0.051825 0.000000 -0.014466
# 5 -0.001363 -0.003144 -0.000515 0.000000 0.024005 0.000000
# 6 0.000000 0.000000 0.000000 -0.014466 0.000000 0.060897
#
#
# Mechanical properties :
#
#
# Convention : Reuss Voigt Hill
#
# Bulk Modulus (GPa) = 52.95530 59.16899 56.06215
# Shear Modulus (GPa) = 24.87888 29.72174 27.30031
#
# Velocity S-wave (km/s) = 3.42722 3.74596 3.59013
# Velocity P-wave (km/s) = 6.37670 6.82967 6.60707
#
# Compressibility (1/GPa) = 0.01888385
#
# Stress axis : x y z
#
# Youngs Moduli (GPa) = 103.14677 59.86139 83.21122
#
# Poissons Ratio (x) = 0.14763 0.24460
# Poissons Ratio (y) = 0.25438 0.36291
# Poissons Ratio (z) = 0.30320 0.26107
#
# Static dielectric constant tensor:
#      x y z
#    x 1.814630 0.000000 0.004710 
#    y 0.000000 1.777630 0.000000 
#    z 0.004710 0.000000 1.944720 
# 
# From -- ./inp_files/6020.got.cif
#   From: 2010.05.17/outbox.cif.g08.bks.cpg/sg5_4_cif.got.tgz:6020.got - 2010.06.03 18:56:24.
