data_PCOD9128474
_publ_section_title
;
Structure prediction by ZEFSAII (Michael W. Deem and Ramdas Pophale) SiO2 
 PCOD9128474
Probable space group: C 2
;
_chemical_formula_sum "Si O2"
_cell_formula_units_Z 20
_cell_length_a 8.060991
_cell_length_b 4.848655
_cell_length_c 20.590433
_cell_angle_alpha 90.000000
_cell_angle_beta 119.793803
_cell_angle_gamma 90.000000
_cell_volume 698.400359
_symmetry_space_group_name_H-M "C 2"
_symmetry_group_IT_number 5
_symmetry_cell_setting 'monoclinic'
loop_
_space_group_symop_operation_xyz
x,y,z
-x,y,-z
1/2+x,1/2+y,z
1/2-x,1/2+y,-z
loop_
_atom_site_type_symbol
_atom_site_label
_atom_site_fract_x
_atom_site_fract_y
_atom_site_fract_z
Si Si1 0.094372 0.393330 0.895566
Si Si2 0.325447 0.268809 0.305058
Si Si3 0.000000 0.710470 0.000000
Si Si4 0.498097 0.391701 0.791100
Si Si5 0.142179 0.419149 0.402395
Si Si6 0.000000 0.539966 0.500000
O O1 0.312484 0.396784 0.961617
O O2 0.046499 0.589725 0.826011
O O3 0.981974 0.514767 0.934212
O O4 0.046338 0.091430 0.860691
O O5 0.368573 0.427811 0.246582
O O6 0.186498 0.377971 0.334209
O O7 0.539024 0.220338 0.374673
O O8 0.219432 0.979495 0.267572
O O9 0.180012 0.743711 0.535711
O O10 0.999394 0.346163 0.436032
#
# Coordination Sequence:
#
# PCOD9128474 Si02
#       6
#     4   4   2   4   4   2
#     4  12  28  50  78 112 152 200 252 314 380 452
#     4  11  26  47  74 109 150 197 252 312 376 449
#     4  12  28  52  80 114 152 200 256 316 380 456
#     4  12  27  49  76 111 153 200 252 314 380 452
#     4  10  25  45  72 107 147 196 248 308 372 444
#     4  10  24  44  72 104 148 194 248 308 372 442
#
# _framework density 28.636869000000001
#
# number of rings (size 3 to 8) (size 9 to 14) (size 15 to 20)
#    0.000    0.800    0.000    4.800    0.000   20.800 
#    0.000    0.000    0.000    0.000    0.000    0.000 
#    0.000    0.000    0.000    0.000    0.000    0.000 
#
# Total GULP energy -55842.837324 kJ/mol
# GULP energy per Si atom -5584.283732 kJ/mol
# Density = 2.857169 g / cm^3
# Si number density = 28.636869 Si / 1000 Ang^3
#
#
#
# Elastic Constant Matrix: (Units=GPa)
#
#
# Indices 1 2 3 4 5 6 
#
# 1 134.2138 31.7405 60.3718 0.0000 -15.0707 0.0000
# 2 31.7405 58.0384 26.6779 0.0000 6.5936 0.0000
# 3 60.3718 26.6779 177.4142 0.0000 -35.5196 0.0000
# 4 0.0000 0.0000 0.0000 33.7778 0.0000 5.5472
# 5 -15.0707 6.5936 -35.5196 0.0000 74.8457 0.0000
# 6 0.0000 0.0000 0.0000 5.5472 0.0000 58.8254
#
#
#
# Elastic Compliance Matrix: (Units=1/GPa)
#
#
# Indices 1 2 3 4 5 6 
#
# 1 0.009691 -0.004328 -0.002409 0.000000 0.001190 0.000000
# 2 -0.004328 0.021192 -0.002500 0.000000 -0.003925 0.000000
# 3 -0.002409 -0.002500 0.007491 0.000000 0.003290 0.000000
# 4 0.000000 0.000000 0.000000 0.030071 0.000000 -0.002836
# 5 0.001190 -0.003925 0.003290 0.000000 0.015507 0.000000
# 6 0.000000 0.000000 0.000000 -0.002836 0.000000 0.017267
#
#
# Mechanical properties :
#
#
# Convention : Reuss Voigt Hill
#
# Bulk Modulus (GPa) = 50.24878 67.47186 58.86032
# Shear Modulus (GPa) = 39.58015 50.21487 44.89751
#
# Velocity S-wave (km/s) = 3.72175 4.19203 3.96387
# Velocity P-wave (km/s) = 6.00446 6.85880 6.44580
#
# Compressibility (1/GPa) = 0.01990098
#
# Stress axis : x y z
#
# Youngs Moduli (GPa) = 103.18340 47.18829 133.49674
#
# Poissons Ratio (x) = 0.20423 0.32159
# Poissons Ratio (y) = 0.44658 0.33369
# Poissons Ratio (z) = 0.24856 0.11795
#
# Static dielectric constant tensor:
#      x y z
#    x 2.190370 0.000000 0.090090 
#    y 0.000000 2.227490 0.000000 
#    z 0.090090 0.000000 2.326660 
# 
# From -- ./inp_files/59179.got.cif
#   From: 2010.05.17/outbox.cif.g08.bks.cpg/sg5_30_cif.got.tgz:59179.got - 2010.06.03 18:56:24.
