data_PCOD9128262
_publ_section_title
;
Structure prediction by ZEFSAII (Michael W. Deem and Ramdas Pophale) SiO2 
 PCOD9128262
Probable space group: C 2
;
_chemical_formula_sum "Si O2"
_cell_formula_units_Z 14
_cell_length_a 5.109986
_cell_length_b 9.093151
_cell_length_c 14.235135
_cell_angle_alpha 90.000000
_cell_angle_beta 69.143103
_cell_angle_gamma 90.000000
_cell_volume 618.105013
_symmetry_space_group_name_H-M "C 2"
_symmetry_group_IT_number 5
_symmetry_cell_setting 'monoclinic'
loop_
_space_group_symop_operation_xyz
x,y,z
-x,y,-z
1/2+x,1/2+y,z
1/2-x,1/2+y,-z
loop_
_atom_site_type_symbol
_atom_site_label
_atom_site_fract_x
_atom_site_fract_y
_atom_site_fract_z
Si Si1 0.478027 0.050360 0.115142
Si Si2 0.901730 0.883015 0.190915
Si Si3 0.000000 0.107976 0.500000
Si Si4 0.073927 0.390362 0.592267
O O1 0.468178 0.215040 0.156450
O O2 0.737735 0.963000 0.126916
O O3 0.500000 0.055528 0.000000
O O4 0.189748 0.966261 0.175318
O O5 0.682807 0.887804 0.304661
O O6 0.148930 0.224224 0.552014
O O7 0.179097 0.999131 0.411241
O O8 0.000000 0.455975 0.500000
#
# Coordination Sequence:
#
# PCOD9128262 Si02
#       4
#     4   4   2   4
#     4  12  26  48  71 103 137 179 233 290 340 404
#     4  12  27  44  76 101 139 182 229 278 353 404
#     4  10  24  40  66  90 144 172 218 274 324 396
#     4  10  26  41  68  98 139 173 224 271 335 406
#
# _framework density 22.649874000000001
#
# number of rings (size 3 to 8) (size 9 to 14) (size 15 to 20)
#    0.857    0.000    0.000    6.000   10.000    0.000 
#    0.000    0.000    0.000    0.000    0.000    0.000 
#    0.000    0.000    0.000    0.000    0.000    0.000 
#
# Total GULP energy -39119.989831 kJ/mol
# GULP energy per Si atom -5588.569976 kJ/mol
# Density = 2.259832 g / cm^3
# Si number density = 22.649874 Si / 1000 Ang^3
#
#
#
# Elastic Constant Matrix: (Units=GPa)
#
#
# Indices 1 2 3 4 5 6 
#
# 1 76.0926 46.7746 -19.5281 0.0000 -7.9677 0.0000
# 2 46.7746 194.4781 15.3676 0.0000 -21.4221 0.0000
# 3 -19.5281 15.3676 105.3578 0.0000 -9.3126 0.0000
# 4 0.0000 0.0000 0.0000 11.2395 0.0000 -7.7871
# 5 -7.9677 -21.4221 -9.3126 0.0000 37.9642 0.0000
# 6 0.0000 0.0000 0.0000 -7.7871 0.0000 -9.6744
#
#
#
# Elastic Compliance Matrix: (Units=1/GPa)
#
#
# Indices 1 2 3 4 5 6 
#
# 1 0.016926 -0.004142 0.003934 0.000000 0.002180 0.000000
# 2 -0.004142 0.006526 -0.001503 0.000000 0.002444 0.000000
# 3 0.003934 -0.001503 0.010669 0.000000 0.002594 0.000000
# 4 0.000000 0.000000 0.000000 0.057118 0.000000 -0.045976
# 5 0.002180 0.002444 0.002594 0.000000 0.028814 0.000000
# 6 0.000000 0.000000 0.000000 -0.045976 0.000000 -0.066359
#
#
# Mechanical properties :
#
#
# Convention : Reuss Voigt Hill
#
# Bulk Modulus (GPa) = 32.57441 51.23964 41.90702
# Shear Modulus (GPa) = 74.23958 30.12681 52.18320
#
# Velocity S-wave (km/s) = 5.73133 3.65102 4.80511
# Velocity P-wave (km/s) = 7.62958 6.35963 7.02337
#
# Compressibility (1/GPa) = 0.03069895
#
# Stress axis : x y z
#
# Youngs Moduli (GPa) = 59.08198 153.23005 93.72728
#
# Poissons Ratio (x) = 0.63461 -0.36872
# Poissons Ratio (y) = 0.24469 0.14092
# Poissons Ratio (z) = -0.23243 0.23038
#
# Static dielectric constant tensor:
#      x y z
#    x 2.448660 0.000000 0.114350 
#    y 0.000000 1.779730 0.000000 
#    z 0.114350 0.000000 1.861080 
# 
# From -- ./inp_files/32733.got.cif
#   From: 2010.05.17/outbox.cif.g08.bks.cpg/sg5_17_cif.got.tgz:32733.got - 2010.06.03 18:56:24.
