data_PCOD9128223
_publ_section_title
;
Structure prediction by ZEFSAII (Michael W. Deem and Ramdas Pophale) SiO2 
 PCOD9128223
Probable space group: C 2
;
_chemical_formula_sum "Si O2"
_cell_formula_units_Z 24
_cell_length_a 9.040139
_cell_length_b 5.206812
_cell_length_c 24.605881
_cell_angle_alpha 90.000000
_cell_angle_beta 117.854886
_cell_angle_gamma 90.000000
_cell_volume 1024.009339
_symmetry_space_group_name_H-M "C 2"
_symmetry_group_IT_number 5
_symmetry_cell_setting 'monoclinic'
loop_
_space_group_symop_operation_xyz
x,y,z
-x,y,-z
1/2+x,1/2+y,z
1/2-x,1/2+y,-z
loop_
_atom_site_type_symbol
_atom_site_label
_atom_site_fract_x
_atom_site_fract_y
_atom_site_fract_z
Si Si1 0.145234 0.490980 0.569746
Si Si2 0.126511 0.488716 0.384864
Si Si3 0.899516 0.005867 0.234658
Si Si4 0.330635 0.158586 0.726617
Si Si5 0.871065 0.512428 0.165975
Si Si6 0.197229 0.144528 0.023231
O O1 0.043566 0.491918 0.609468
O O2 0.000000 0.498596 0.500000
O O3 0.257491 0.236703 0.581867
O O4 0.265645 0.735390 0.585102
O O5 0.106026 0.520560 0.316416
O O6 0.854167 0.087199 0.287940
O O7 0.847260 0.229756 0.184804
O O8 0.823408 0.734974 0.200896
O O9 0.099197 0.946061 0.266222
O O10 0.429821 0.056904 0.796982
O O11 0.788269 0.566334 0.094672
O O12 0.268032 0.412940 0.012809
O O13 0.000000 0.170138 0.000000
#
# Coordination Sequence:
#
# PCOD9128223 Si02
#       6
#     4   4   4   4   4   4
#     4  12  26  47  71 103 142 189 231 285 341 405
#     4  12  26  43  74 100 143 178 241 283 343 413
#     4  10  24  38  67  90 137 167 224 266 360 399
#     4  10  26  40  68  99 134 176 223 284 348 401
#     4  10  26  42  69  94 138 172 227 280 351 402
#     4  12  28  46  73 101 138 181 237 285 344 415
#
# _framework density 23.437286
#
# number of rings (size 3 to 8) (size 9 to 14) (size 15 to 20)
#    1.000    0.000    0.000    5.000   11.667    0.000 
#    0.000    0.000    0.000    0.000    0.000    0.000 
#    0.000    0.000    0.000    0.000    0.000    0.000 
#
# Total GULP energy -67062.506735 kJ/mol
# GULP energy per Si atom -5588.542228 kJ/mol
# Density = 2.338394 g / cm^3
# Si number density = 23.437286 Si / 1000 Ang^3
#
#
#
# Elastic Constant Matrix: (Units=GPa)
#
#
# Indices 1 2 3 4 5 6 
#
# 1 80.3324 27.5692 -5.2915 0.0000 -26.1812 0.0000
# 2 27.5692 126.2209 -3.5802 0.0000 -7.7500 0.0000
# 3 -5.2915 -3.5802 83.2795 0.0000 8.2084 0.0000
# 4 0.0000 0.0000 0.0000 30.8777 0.0000 9.3268
# 5 -26.1812 -7.7500 8.2084 0.0000 31.7438 0.0000
# 6 0.0000 0.0000 0.0000 9.3268 0.0000 18.3387
#
#
#
# Elastic Compliance Matrix: (Units=1/GPa)
#
#
# Indices 1 2 3 4 5 6 
#
# 1 0.018151 -0.003097 -0.000391 0.000000 0.014315 0.000000
# 2 -0.003097 0.008573 0.000223 0.000000 -0.000518 0.000000
# 3 -0.000391 0.000223 0.012333 0.000000 -0.003457 0.000000
# 4 0.000000 0.000000 0.000000 0.038264 0.000000 -0.019461
# 5 0.014315 -0.000518 -0.003457 0.000000 0.044076 0.000000
# 6 0.000000 0.000000 0.000000 -0.019461 0.000000 0.064427
#
#
# Mechanical properties :
#
#
# Convention : Reuss Voigt Hill
#
# Bulk Modulus (GPa) = 30.74235 36.35866 33.55050
# Shear Modulus (GPa) = 24.60671 34.26772 29.43721
#
# Velocity S-wave (km/s) = 3.24372 3.82789 3.54785
# Velocity P-wave (km/s) = 5.21290 5.92316 5.57935
#
# Compressibility (1/GPa) = 0.03252842
#
# Stress axis : x y z
#
# Youngs Moduli (GPa) = 55.09428 116.63888 81.08165
#
# Poissons Ratio (x) = 0.36119 0.03169
# Poissons Ratio (y) = 0.17061 -0.01807
# Poissons Ratio (z) = 0.02153 -0.02600
#
# Static dielectric constant tensor:
#      x y z
#    x 1.984190 0.000000 0.007960 
#    y 0.000000 1.871140 0.000000 
#    z 0.007960 0.000000 1.905910 
# 
# From -- ./inp_files/67848.got.cif
#   From: 2010.05.17/outbox.cif.g08.bks.cpg/sg5_34_cif.got.tgz:67848.got - 2010.06.03 18:56:24.
