data_PCOD9128618
_publ_section_title
;
Structure prediction by ZEFSAII (Michael W. Deem and Ramdas Pophale) SiO2 
 PCOD9128618
Probable space group: C 2
;
_chemical_formula_sum "Si O2"
_cell_formula_units_Z 22
_cell_length_a 15.698477
_cell_length_b 11.131153
_cell_length_c 12.631181
_cell_angle_alpha 90.000000
_cell_angle_beta 154.970379
_cell_angle_gamma 90.000000
_cell_volume 933.836959
_symmetry_space_group_name_H-M "C 2"
_symmetry_group_IT_number 5
_symmetry_cell_setting 'monoclinic'
loop_
_space_group_symop_operation_xyz
x,y,z
-x,y,-z
1/2+x,1/2+y,z
1/2-x,1/2+y,-z
loop_
_atom_site_type_symbol
_atom_site_label
_atom_site_fract_x
_atom_site_fract_y
_atom_site_fract_z
Si Si1 0.374300 0.715250 0.463356
Si Si2 0.486502 0.532023 0.227559
Si Si3 0.270503 0.900000 0.907000
Si Si4 0.718059 0.643343 0.188141
Si Si5 0.621952 0.973866 0.465172
Si Si6 0.000000 0.564139 0.000000
O O1 0.500000 0.682305 0.500000
O O2 0.497741 0.664082 0.702113
O O3 0.336962 0.856328 0.418855
O O4 0.160114 0.650655 0.235895
O O5 0.694025 0.493141 0.408414
O O6 0.430564 0.445119 0.261169
O O7 0.326107 0.544315 0.952344
O O8 0.433608 0.931917 0.182590
O O9 0.358989 0.982405 0.913616
O O10 0.239197 0.769082 0.821570
O O11 0.868376 0.590016 0.446661
O O12 0.500000 0.659268 0.000000
#
# Coordination Sequence:
#
# PCOD9128618 Si02
#       6
#     4   4   4   4   4   2
#     4  12  26  46  72 104 146 193 247 309 366 446
#     4  11  25  46  71 110 141 196 252 298 373 452
#     4  12  24  47  78 105 149 192 244 309 372 441
#     4  10  24  46  73 107 151 188 244 312 363 445
#     4  11  27  47  72 107 152 190 244 308 374 432
#     4  12  26  44  74 108 142 196 242 310 382 430
#
# _framework density 23.558717000000001
#
# number of rings (size 3 to 8) (size 9 to 14) (size 15 to 20)
#    0.000    0.727    6.364    0.000    6.364    1.455 
#    0.000    5.455    0.000    0.000    0.000    0.000 
#    0.000    0.000    0.000    0.000    0.000    0.000 
#
# Total GULP energy -61461.095471 kJ/mol
# GULP energy per Si atom -5587.372316 kJ/mol
# Density = 2.350510 g / cm^3
# Si number density = 23.558717 Si / 1000 Ang^3
#
#
#
# Elastic Constant Matrix: (Units=GPa)
#
#
# Indices 1 2 3 4 5 6 
#
# 1 152.9635 56.4457 20.1261 -0.0001 10.8789 -0.0002
# 2 56.4457 136.8098 37.9543 -0.0002 -9.4628 -0.0003
# 3 20.1261 37.9543 92.1363 0.0000 -14.2384 -0.0001
# 4 -0.0001 -0.0002 0.0000 49.5888 0.0000 25.0497
# 5 10.8789 -9.4628 -14.2384 0.0000 29.8116 -0.0001
# 6 -0.0002 -0.0003 -0.0001 25.0497 -0.0001 85.9983
#
#
#
# Elastic Compliance Matrix: (Units=1/GPa)
#
#
# Indices 1 2 3 4 5 6 
#
# 1 0.008279 -0.003428 -0.001114 0.000000 -0.004641 0.000000
# 2 -0.003428 0.009704 -0.002785 0.000000 0.003001 0.000000
# 3 -0.001114 -0.002785 0.013140 0.000000 0.005798 0.000000
# 4 0.000000 0.000000 0.000000 0.023645 0.000000 -0.006887
# 5 -0.004641 0.003001 0.005798 0.000000 0.038959 0.000000
# 6 0.000000 0.000000 0.000000 -0.006887 0.000000 0.013634
#
#
# Mechanical properties :
#
#
# Convention : Reuss Voigt Hill
#
# Bulk Modulus (GPa) = 60.71568 67.88464 64.30016
# Shear Modulus (GPa) = 39.21436 50.90532 45.05984
#
# Velocity S-wave (km/s) = 4.08430 4.65347 4.37814
# Velocity P-wave (km/s) = 6.93326 7.59938 7.27395
#
# Compressibility (1/GPa) = 0.01647021
#
# Stress axis : x y z
#
# Youngs Moduli (GPa) = 120.78682 103.05177 76.10383
#
# Poissons Ratio (x) = 0.35325 0.08475
# Poissons Ratio (y) = 0.41404 0.21194
# Poissons Ratio (z) = 0.13451 0.28698
#
# Static dielectric constant tensor:
#      x y z
#    x 1.834770 0.000000 0.013160 
#    y 0.000000 1.857630 0.000000 
#    z 0.013160 0.000000 1.961230 
# 
# From -- ./inp_files/42722.got.cif
#   From: 2010.05.17/outbox.cif.g08.bks.cpg/sg5_22_cif.got.tgz:42722.got - 2010.06.03 18:56:24.
