data_PCOD9128973
_publ_section_title
;
Structure prediction by ZEFSAII (Michael W. Deem and Ramdas Pophale) SiO2 
 PCOD9128973
Probable space group: C 2
;
_chemical_formula_sum "Si O2"
_cell_formula_units_Z 24
_cell_length_a 16.424842
_cell_length_b 6.456080
_cell_length_c 12.280814
_cell_angle_alpha 90.000000
_cell_angle_beta 76.879345
_cell_angle_gamma 90.000000
_cell_volume 1268.262162
_symmetry_space_group_name_H-M "C 2"
_symmetry_group_IT_number 5
_symmetry_cell_setting 'monoclinic'
loop_
_space_group_symop_operation_xyz
x,y,z
-x,y,-z
1/2+x,1/2+y,z
1/2-x,1/2+y,-z
loop_
_atom_site_type_symbol
_atom_site_label
_atom_site_fract_x
_atom_site_fract_y
_atom_site_fract_z
Si Si1 0.730315 0.964430 0.651029
Si Si2 0.356669 0.131186 0.535438
Si Si3 0.428368 0.734074 0.897538
Si Si4 0.000000 0.852810 0.000000
Si Si5 0.385347 0.742933 0.666414
Si Si6 0.000000 0.952325 0.500000
Si Si7 0.098604 0.471739 0.882009
O O1 0.779320 0.751125 0.614447
O O2 0.672894 0.961527 0.774661
O O3 0.675091 0.017067 0.562547
O O4 0.801318 0.139025 0.645042
O O5 0.425129 0.303932 0.484791
O O6 0.393874 0.967168 0.609341
O O7 0.382545 0.744777 0.797211
O O8 0.517580 0.851115 0.859690
O O9 0.451157 0.504196 0.932113
O O10 0.382690 0.854857 0.009785
O O11 0.934574 0.701451 0.079996
O O12 0.462098 0.598619 0.604756
#
# Coordination Sequence:
#
# PCOD9128973 Si02
#       7
#     4   4   4   2   4   2   4
#     4  11  24  41  62  91 128 168 202 256 325 363
#     4  11  24  43  61  94 128 162 211 260 309 378
#     4   9  21  40  61  94 119 159 217 248 306 371
#     4   8  18  40  64  92 122 152 208 258 308 366
#     4  11  24  42  62  95 127 162 208 262 307 377
#     4  10  26  38  66  96 116 170 208 256 318 362
#     4   9  21  38  64  91 121 166 201 258 307 369
#
# _framework density 18.923532999999999
#
# number of rings (size 3 to 8) (size 9 to 14) (size 15 to 20)
#    0.000    2.333    1.667    0.500    7.000    6.667 
#    6.000    0.000    0.000    0.000    0.000    0.000 
#    0.000    0.000    0.000    0.000    0.000    0.000 
#
# Total GULP energy -66993.701061 kJ/mol
# GULP energy per Si atom -5582.808422 kJ/mol
# Density = 1.888046 g / cm^3
# Si number density = 18.923533 Si / 1000 Ang^3
#
#
#
# Elastic Constant Matrix: (Units=GPa)
#
#
# Indices 1 2 3 4 5 6 
#
# 1 49.4454 34.4755 46.6491 0.0000 -3.5286 0.0000
# 2 34.4755 127.5681 52.5402 0.0000 -4.8035 0.0000
# 3 46.6491 52.5402 124.5492 0.0000 -8.8632 0.0000
# 4 0.0000 0.0000 0.0000 9.5363 0.0000 -0.8729
# 5 -3.5286 -4.8035 -8.8632 0.0000 50.8426 0.0000
# 6 0.0000 0.0000 0.0000 -0.8729 0.0000 16.6668
#
#
#
# Elastic Compliance Matrix: (Units=1/GPa)
#
#
# Indices 1 2 3 4 5 6 
#
# 1 0.033449 -0.004695 -0.010545 0.000000 0.000040 0.000000
# 2 -0.004695 0.010148 -0.002509 0.000000 0.000196 0.000000
# 3 -0.010545 -0.002509 0.013131 0.000000 0.001320 0.000000
# 4 0.000000 0.000000 0.000000 0.105367 0.000000 0.005519
# 5 0.000040 0.000196 0.001320 0.000000 0.019920 0.000000
# 6 0.000000 0.000000 0.000000 0.005519 0.000000 0.060289
#
#
# Mechanical properties :
#
#
# Convention : Reuss Voigt Hill
#
# Bulk Modulus (GPa) = 47.10047 63.21024 55.15536
# Shear Modulus (GPa) = 17.55135 26.60233 22.07684
#
# Velocity S-wave (km/s) = 3.04877 3.75344 3.41931
# Velocity P-wave (km/s) = 6.11042 7.22910 6.69318
#
# Compressibility (1/GPa) = 0.02123121
#
# Stress axis : x y z
#
# Youngs Moduli (GPa) = 29.89597 98.53792 76.15818
#
# Poissons Ratio (x) = 0.46266 0.80307
# Poissons Ratio (y) = 0.14037 0.19104
# Poissons Ratio (z) = 0.31525 0.24718
#
# Static dielectric constant tensor:
#      x y z
#    x 1.651490 0.000000 -0.006200 
#    y 0.000000 1.661810 0.000000 
#    z -0.006200 0.000000 1.629820 
# 
# From -- ./inp_files/43723.got.cif
#   From: 2010.05.17/outbox.cif.g08.bks.cpg/sg5_22_cif.got.tgz:43723.got - 2010.06.03 18:56:24.
