data_PCOD9128634
_publ_section_title
;
Structure prediction by ZEFSAII (Michael W. Deem and Ramdas Pophale) SiO2 
 PCOD9128634
Probable space group: C 2
;
_chemical_formula_sum "Si O2"
_cell_formula_units_Z 24
_cell_length_a 21.662040
_cell_length_b 8.284671
_cell_length_c 17.118729
_cell_angle_alpha 90.000000
_cell_angle_beta 160.199845
_cell_angle_gamma 90.000000
_cell_volume 1040.670435
_symmetry_space_group_name_H-M "C 2"
_symmetry_group_IT_number 5
_symmetry_cell_setting 'monoclinic'
loop_
_space_group_symop_operation_xyz
x,y,z
-x,y,-z
1/2+x,1/2+y,z
1/2-x,1/2+y,-z
loop_
_atom_site_type_symbol
_atom_site_label
_atom_site_fract_x
_atom_site_fract_y
_atom_site_fract_z
Si Si1 0.976301 0.170310 0.557087
Si Si2 0.772543 0.538883 0.031144
Si Si3 0.134040 0.351084 0.428302
Si Si4 0.055905 0.865925 0.908081
Si Si5 0.139780 0.529559 0.096335
Si Si6 0.372172 0.696108 0.006772
O O1 0.867437 0.286696 0.485244
O O2 0.840809 0.029963 0.371327
O O3 0.000000 0.253336 0.500000
O O4 0.141984 0.096740 0.805132
O O5 0.666079 0.401782 0.957766
O O6 0.784524 0.673782 0.114219
O O7 0.971234 0.484651 0.237779
O O8 0.337601 0.379870 0.642127
O O9 0.051147 0.211085 0.274879
O O10 0.117164 0.028788 0.027474
O O11 0.102495 0.695535 0.003573
O O12 0.126714 0.361908 0.036221
O O13 0.000000 0.531440 0.000000
#
# Coordination Sequence:
#
# PCOD9128634 Si02
#       6
#     4   4   4   4   4   4
#     4  11  23  43  71 109 144 190 244 303 381 428
#     4   9  23  47  73 104 144 192 250 299 352 457
#     4  11  21  45  76 105 143 196 246 302 367 440
#     4  10  24  46  75 103 147 197 245 300 376 440
#     4  12  24  44  75 105 151 189 237 317 375 435
#     4   9  25  44  68 109 140 189 255 288 365 454
#
# _framework density 23.062058
#
# number of rings (size 3 to 8) (size 9 to 14) (size 15 to 20)
#    1.000    0.667    1.667    2.000    4.667    2.000 
#    0.000    1.667    7.333    0.000    0.000    0.000 
#    0.000    0.000    0.000    0.000    0.000    0.000 
#
# Total GULP energy -66820.646338 kJ/mol
# GULP energy per Si atom -5568.387195 kJ/mol
# Density = 2.300957 g / cm^3
# Si number density = 23.062058 Si / 1000 Ang^3
#
#
#
# Elastic Constant Matrix: (Units=GPa)
#
#
# Indices 1 2 3 4 5 6 
#
# 1 115.6753 74.1422 45.7064 -0.0001 0.0854 0.0000
# 2 74.1422 172.8773 44.5892 -0.0001 -4.8002 0.0000
# 3 45.7064 44.5892 90.5620 -0.0001 15.9420 0.0000
# 4 -0.0001 -0.0001 -0.0001 19.3013 -0.0001 9.2531
# 5 0.0854 -4.8002 15.9420 -0.0001 41.6957 0.0000
# 6 0.0000 0.0000 0.0000 9.2531 0.0000 36.5994
#
#
#
# Elastic Compliance Matrix: (Units=1/GPa)
#
#
# Indices 1 2 3 4 5 6 
#
# 1 0.013406 -0.004479 -0.004788 0.000000 0.001287 0.000000
# 2 -0.004479 0.008308 -0.002144 0.000000 0.001785 0.000000
# 3 -0.004788 -0.002144 0.015606 0.000000 -0.006204 0.000000
# 4 0.000000 0.000000 0.000000 0.058956 0.000000 -0.014905
# 5 0.001287 0.001785 -0.006204 0.000000 0.026558 0.000000
# 6 0.000000 0.000000 0.000000 -0.014905 0.000000 0.031091
#
#
# Mechanical properties :
#
#
# Convention : Reuss Voigt Hill
#
# Bulk Modulus (GPa) = 68.97008 78.66559 73.81783
# Shear Modulus (GPa) = 27.53600 33.83109 30.68354
#
# Velocity S-wave (km/s) = 3.45917 3.83424 3.65153
# Velocity P-wave (km/s) = 6.77685 7.33392 7.06088
#
# Compressibility (1/GPa) = 0.01449904
#
# Stress axis : x y z
#
# Youngs Moduli (GPa) = 74.59074 120.36525 64.07686
#
# Poissons Ratio (x) = 0.53913 0.30677
# Poissons Ratio (y) = 0.33410 0.13740
# Poissons Ratio (z) = 0.35710 0.25810
#
# Static dielectric constant tensor:
#      x y z
#    x 1.975500 0.000000 0.023480 
#    y 0.000000 1.998650 0.000000 
#    z 0.023480 0.000000 1.894320 
# 
# From -- ./inp_files/63313.got.cif
#   From: 2010.05.17/outbox.cif.g08.bks.cpg/sg5_32_cif.got.tgz:63313.got - 2010.06.03 18:56:24.
