data_PCOD9128068
_publ_section_title
;
Structure prediction by ZEFSAII (Michael W. Deem and Ramdas Pophale) SiO2 
 PCOD9128068
Probable space group: C 2
;
_chemical_formula_sum "Si O2"
_cell_formula_units_Z 18
_cell_length_a 17.601596
_cell_length_b 8.882096
_cell_length_c 4.955123
_cell_angle_alpha 90.000000
_cell_angle_beta 77.407854
_cell_angle_gamma 90.000000
_cell_volume 756.045671
_symmetry_space_group_name_H-M "C 2"
_symmetry_group_IT_number 5
_symmetry_cell_setting 'monoclinic'
loop_
_space_group_symop_operation_xyz
x,y,z
-x,y,-z
1/2+x,1/2+y,z
1/2-x,1/2+y,-z
loop_
_atom_site_type_symbol
_atom_site_label
_atom_site_fract_x
_atom_site_fract_y
_atom_site_fract_z
Si Si1 0.500000 0.184711 0.000000
Si Si2 0.219467 0.007526 0.438788
Si Si3 0.375465 0.426839 0.949297
Si Si4 0.387382 0.734076 0.726993
Si Si5 0.605165 0.932164 0.746502
O O1 0.434675 0.291708 0.927744
O O2 0.453252 0.070332 0.224237
O O3 0.169037 0.975131 0.743762
O O4 0.196289 0.168931 0.322134
O O5 0.310185 0.988860 0.410603
O O6 0.188588 0.894512 0.231119
O O7 0.420375 0.577136 0.813281
O O8 0.423214 0.803190 0.431889
O O9 0.386451 0.857777 0.963225
#
# Coordination Sequence:
#
# PCOD9128068 Si02
#       5
#     2   4   4   4   4
#     4  12  32  48  72 124 158 188 244 338 378 422
#     4  10  23  45  81 103 142 202 262 289 365 461
#     4  10  24  49  74 106 147 206 246 298 379 457
#     4  10  23  48  72 105 140 213 245 298 360 472
#     4  12  26  45  77 114 154 186 259 317 371 430
#
# _framework density 23.808084999999998
#
# number of rings (size 3 to 8) (size 9 to 14) (size 15 to 20)
#    1.333    0.000    2.222    1.333    6.222    6.222 
#    4.000    0.000    0.000    0.000    0.000    0.000 
#    0.000    0.000    0.000    0.000    0.000    0.000 
#
# Total GULP energy -50290.479720 kJ/mol
# GULP energy per Si atom -5587.831080 kJ/mol
# Density = 2.375390 g / cm^3
# Si number density = 23.808085 Si / 1000 Ang^3
#
#
#
# Elastic Constant Matrix: (Units=GPa)
#
#
# Indices 1 2 3 4 5 6 
#
# 1 106.8479 36.5176 49.2717 0.0000 -19.3402 0.0000
# 2 36.5176 121.0218 50.1961 0.0000 -24.8340 0.0000
# 3 49.2717 50.1961 148.3851 0.0000 10.7755 0.0000
# 4 0.0000 0.0000 0.0000 20.7410 0.0000 -6.2578
# 5 -19.3402 -24.8340 10.7755 0.0000 16.7178 0.0000
# 6 0.0000 0.0000 0.0000 -6.2578 0.0000 31.9925
#
#
#
# Elastic Compliance Matrix: (Units=1/GPa)
#
#
# Indices 1 2 3 4 5 6 
#
# 1 0.020349 0.008083 -0.012666 0.000000 0.043712 0.000000
# 2 0.008083 0.022027 -0.013838 0.000000 0.050991 0.000000
# 3 -0.012666 -0.013838 0.019076 0.000000 -0.047504 0.000000
# 4 0.000000 0.000000 0.000000 0.051238 0.000000 0.010022
# 5 0.043712 0.050991 -0.047504 0.000000 0.216751 0.000000
# 6 0.000000 0.000000 0.000000 0.010022 0.000000 0.033218
#
#
# Mechanical properties :
#
#
# Convention : Reuss Voigt Hill
#
# Bulk Modulus (GPa) = 40.63335 72.02505 56.32920
# Shear Modulus (GPa) = 12.26377 29.90822 21.08600
#
# Velocity S-wave (km/s) = 2.27206 3.54817 2.97924
# Velocity P-wave (km/s) = 4.89767 6.86324 5.96201
#
# Compressibility (1/GPa) = 0.02461033
#
# Stress axis : x y z
#
# Youngs Moduli (GPa) = 49.14136 45.39826 52.42229
#
# Poissons Ratio (x) = -0.36695 0.66396
# Poissons Ratio (y) = -0.39720 0.72544
# Poissons Ratio (z) = 0.62241 0.62823
#
# Static dielectric constant tensor:
#      x y z
#    x 1.969680 0.000000 -0.001070 
#    y 0.000000 1.915120 0.000000 
#    z -0.001070 0.000000 1.924960 
# 
# From -- ./inp_files/7902.got.cif
#   From: 2010.05.17/outbox.cif.g08.bks.cpg/sg5_4_cif.got.tgz:7902.got - 2010.06.03 18:56:24.
