data_PCOD9128959
_publ_section_title
;
Structure prediction by ZEFSAII (Michael W. Deem and Ramdas Pophale) SiO2 
 PCOD9128959
Probable space group: C 2
;
_chemical_formula_sum "Si O2"
_cell_formula_units_Z 22
_cell_length_a 23.394403
_cell_length_b 6.950543
_cell_length_c 14.719461
_cell_angle_alpha 90.000000
_cell_angle_beta 157.725954
_cell_angle_gamma 90.000000
_cell_volume 907.202490
_symmetry_space_group_name_H-M "C 2"
_symmetry_group_IT_number 5
_symmetry_cell_setting 'monoclinic'
loop_
_space_group_symop_operation_xyz
x,y,z
-x,y,-z
1/2+x,1/2+y,z
1/2-x,1/2+y,-z
loop_
_atom_site_type_symbol
_atom_site_label
_atom_site_fract_x
_atom_site_fract_y
_atom_site_fract_z
Si Si1 0.000000 0.225390 0.500000
Si Si2 0.141024 0.016508 0.563861
Si Si3 0.344035 0.084087 0.230019
Si Si4 0.333005 0.294657 0.723255
Si Si5 0.337844 0.151876 0.528057
Si Si6 0.136237 0.431979 0.946587
O O1 0.003556 0.101630 0.596398
O O2 0.860569 0.376401 0.302656
O O3 0.211752 0.161001 0.595318
O O4 0.124598 0.810518 0.492449
O O5 0.256447 0.010770 0.817247
O O6 0.500000 0.180184 0.500000
O O7 0.350669 0.029234 0.133629
O O8 0.199360 0.213726 0.035563
O O9 0.304153 0.518339 0.704209
O O10 0.318738 0.261216 0.594741
O O11 0.500000 0.236954 0.000000
O O12 0.469849 0.993467 0.731415
#
# Coordination Sequence:
#
# PCOD9128959 Si02
#       6
#     2   4   4   4   4   4
#     4  10  26  52  74 120 166 200 258 330 394 478
#     4  12  27  50  84 113 162 206 269 325 400 476
#     4  10  25  51  74 116 163 208 262 312 404 479
#     4  12  27  54  78 115 152 208 275 325 398 468
#     4  12  28  52  79 115 155 212 266 337 389 467
#     4  12  25  47  79 112 161 206 263 328 396 468
#
# _framework density 24.250374999999998
#
# number of rings (size 3 to 8) (size 9 to 14) (size 15 to 20)
#    0.545    0.000    3.636    3.273    6.364    2.182 
#    9.818    0.000    0.000    0.000    0.000    0.000 
#    0.000    0.000    0.000    0.000    0.000    0.000 
#
# Total GULP energy -61493.831767 kJ/mol
# GULP energy per Si atom -5590.348342 kJ/mol
# Density = 2.419518 g / cm^3
# Si number density = 24.250375 Si / 1000 Ang^3
#
#
#
# Elastic Constant Matrix: (Units=GPa)
#
#
# Indices 1 2 3 4 5 6 
#
# 1 124.0283 72.0724 23.0107 0.0000 -10.2994 0.0000
# 2 72.0724 170.4058 39.6580 0.0000 6.5128 0.0000
# 3 23.0107 39.6580 94.8103 0.0000 -13.2036 0.0000
# 4 0.0000 0.0000 0.0000 21.9414 0.0000 -11.5192
# 5 -10.2994 6.5128 -13.2036 0.0000 39.6884 0.0000
# 6 0.0000 0.0000 0.0000 -11.5192 0.0000 30.1330
#
#
#
# Elastic Compliance Matrix: (Units=1/GPa)
#
#
# Indices 1 2 3 4 5 6 
#
# 1 0.011211 -0.004836 -0.000191 0.000000 0.003639 0.000000
# 2 -0.004836 0.008753 -0.003002 0.000000 -0.003690 0.000000
# 3 -0.000191 -0.003002 0.012490 0.000000 0.004598 0.000000
# 4 0.000000 0.000000 0.000000 0.057019 0.000000 0.021797
# 5 0.003639 -0.003690 0.004598 0.000000 0.028276 0.000000
# 6 0.000000 0.000000 0.000000 0.021797 0.000000 0.041519
#
#
# Mechanical properties :
#
#
# Convention : Reuss Voigt Hill
#
# Bulk Modulus (GPa) = 60.99071 73.19187 67.09129
# Shear Modulus (GPa) = 27.65633 35.31944 31.48788
#
# Velocity S-wave (km/s) = 3.38072 3.82049 3.60731
# Velocity P-wave (km/s) = 6.35956 7.05044 6.71389
#
# Compressibility (1/GPa) = 0.01639594
#
# Stress axis : x y z
#
# Youngs Moduli (GPa) = 89.20161 114.24256 80.06646
#
# Poissons Ratio (x) = 0.55248 0.01531
# Poissons Ratio (y) = 0.43138 0.24032
# Poissons Ratio (z) = 0.01705 0.34291
#
# Static dielectric constant tensor:
#      x y z
#    x 1.912140 0.000000 0.065370 
#    y 0.000000 1.984200 0.000000 
#    z 0.065370 0.000000 2.003860 
# 
# From -- ./inp_files/57489.got.cif
#   From: 2010.05.17/outbox.cif.g08.bks.cpg/sg5_29_cif.got.tgz:57489.got - 2010.06.03 18:56:24.
