data_PCOD9128911
_publ_section_title
;
Structure prediction by ZEFSAII (Michael W. Deem and Ramdas Pophale) SiO2 
 PCOD9128911
Probable space group: C 2
;
_chemical_formula_sum "Si O2"
_cell_formula_units_Z 20
_cell_length_a 11.616631
_cell_length_b 10.068546
_cell_length_c 11.417889
_cell_angle_alpha 90.000000
_cell_angle_beta 143.714932
_cell_angle_gamma 90.000000
_cell_volume 790.332830
_symmetry_space_group_name_H-M "C 2"
_symmetry_group_IT_number 5
_symmetry_cell_setting 'monoclinic'
loop_
_space_group_symop_operation_xyz
x,y,z
-x,y,-z
1/2+x,1/2+y,z
1/2-x,1/2+y,-z
loop_
_atom_site_type_symbol
_atom_site_label
_atom_site_fract_x
_atom_site_fract_y
_atom_site_fract_z
Si Si1 0.146476 0.080630 0.806136
Si Si2 0.723104 0.959945 0.498559
Si Si3 0.291769 0.310447 0.788927
Si Si4 0.268237 0.351459 0.288217
Si Si5 0.681674 0.089337 0.803346
O O1 0.269799 0.448656 0.839406
O O2 0.927874 0.034645 0.653761
O O3 0.261280 0.959825 0.837630
O O4 0.254188 0.121561 0.012950
O O5 0.855663 0.202781 0.283872
O O6 0.550186 0.060624 0.392227
O O7 0.672661 0.892283 0.332531
O O8 0.260556 0.349823 0.629083
O O9 0.500000 0.255759 0.000000
O O10 0.500000 0.359700 0.500000
O O11 0.238652 0.204567 0.214917
#
# Coordination Sequence:
#
# PCOD9128911 Si02
#       5
#     4   4   4   4   4
#     4  11  27  49  76 112 153 199 255 309 378 454
#     4  11  27  52  78 111 154 201 249 324 371 455
#     4  12  27  50  78 112 155 203 255 310 384 455
#     4  10  25  47  75 113 149 193 255 309 374 450
#     4  12  26  50  80 112 151 200 252 314 381 450
#
# _framework density 25.305796000000001
#
# number of rings (size 3 to 8) (size 9 to 14) (size 15 to 20)
#    0.000    0.800    2.000    3.000    5.600   11.200 
#    3.600    2.000    0.000    0.000    0.000    0.000 
#    0.000    0.000    0.000    0.000    0.000    0.000 
#
# Total GULP energy -56122.523257 kJ/mol
# GULP energy per Si atom -5612.252326 kJ/mol
# Density = 2.524820 g / cm^3
# Si number density = 25.305796 Si / 1000 Ang^3
#
#
#
# Elastic Constant Matrix: (Units=GPa)
#
#
# Indices 1 2 3 4 5 6 
#
# 1 127.7504 47.5529 50.6320 0.0001 -14.2714 -0.0001
# 2 47.5529 124.8144 14.5261 0.0002 -9.9660 0.0000
# 3 50.6320 14.5261 132.3023 0.0009 -12.2703 0.0005
# 4 0.0001 0.0002 0.0009 102.0040 0.0004 47.7698
# 5 -14.2714 -9.9660 -12.2703 0.0004 43.7898 0.0002
# 6 -0.0001 0.0000 0.0005 47.7698 0.0002 98.4921
#
#
#
# Elastic Compliance Matrix: (Units=1/GPa)
#
#
# Indices 1 2 3 4 5 6 
#
# 1 0.010751 -0.003545 -0.003568 0.000000 0.001697 0.000000
# 2 -0.003545 0.009401 0.000427 0.000000 0.001104 0.000000
# 3 -0.003568 0.000427 0.009012 0.000000 0.001460 0.000000
# 4 0.000000 0.000000 0.000000 0.012685 0.000000 -0.006152
# 5 0.001697 0.001104 0.001460 0.000000 0.024050 0.000000
# 6 0.000000 0.000000 0.000000 -0.006152 0.000000 0.013137
#
#
# Mechanical properties :
#
#
# Convention : Reuss Voigt Hill
#
# Bulk Modulus (GPa) = 63.32209 67.80990 65.56600
# Shear Modulus (GPa) = 51.19161 67.00092 59.09626
#
# Velocity S-wave (km/s) = 4.50257 5.15112 4.83772
# Velocity P-wave (km/s) = 7.21858 7.88879 7.56112
#
# Compressibility (1/GPa) = 0.01579228
#
# Stress axis : x y z
#
# Youngs Moduli (GPa) = 93.01388 106.37097 110.95904
#
# Poissons Ratio (x) = 0.37712 0.39588
# Poissons Ratio (y) = 0.32976 -0.04738
# Poissons Ratio (z) = 0.33185 -0.04542
#
# Static dielectric constant tensor:
#      x y z
#    x 1.960780 0.000000 0.094580 
#    y 0.000000 1.950910 0.000000 
#    z 0.094580 0.000000 1.879700 
# 
# From -- ./inp_files/39335.got.cif
#   From: 2010.05.17/outbox.cif.g08.bks.cpg/sg5_20_cif.got.tgz:39335.got - 2010.06.03 18:56:24.
