data_PCOD9128935
_publ_section_title
;
Structure prediction by ZEFSAII (Michael W. Deem and Ramdas Pophale) SiO2 
 PCOD9128935
Probable space group: C 2
;
_chemical_formula_sum "Si O2"
_cell_formula_units_Z 16
_cell_length_a 13.794393
_cell_length_b 7.206468
_cell_length_c 9.315348
_cell_angle_alpha 90.000000
_cell_angle_beta 139.001473
_cell_angle_gamma 90.000000
_cell_volume 607.511095
_symmetry_space_group_name_H-M "C 2"
_symmetry_group_IT_number 5
_symmetry_cell_setting 'monoclinic'
loop_
_space_group_symop_operation_xyz
x,y,z
-x,y,-z
1/2+x,1/2+y,z
1/2-x,1/2+y,-z
loop_
_atom_site_type_symbol
_atom_site_label
_atom_site_fract_x
_atom_site_fract_y
_atom_site_fract_z
Si Si1 0.125167 0.779550 0.916764
Si Si2 0.872378 0.062707 0.655262
Si Si3 0.822799 0.004257 0.294305
Si Si4 0.420484 0.959245 0.564519
O O1 0.204207 0.853760 0.860123
O O2 0.014745 0.612908 0.754349
O O3 0.019465 0.945592 0.850394
O O4 0.241888 0.691166 0.155004
O O5 0.788944 0.971436 0.422223
O O6 0.746301 0.039921 0.632869
O O7 0.916673 0.264310 0.645174
O O8 0.000000 0.016865 0.500000
O O9 0.500000 0.943995 0.500000
#
# Coordination Sequence:
#
# PCOD9128935 Si02
#       4
#     4   4   4   4
#     4  11  25  47  79 117 160 214 257 328 401 457
#     4  11  25  50  77 120 162 207 264 326 390 480
#     4  10  25  48  77 118 160 202 270 325 385 474
#     4  12  25  47  85 118 164 207 262 329 394 473
#
# _framework density 26.336967999999999
#
# number of rings (size 3 to 8) (size 9 to 14) (size 15 to 20)
#    0.000    1.000    2.500    4.500   10.500    1.000 
#    0.000    0.000    5.500    0.000    0.000    0.000 
#    0.000    0.000    0.000    0.000    0.000    0.000 
#
# Total GULP energy -44829.300692 kJ/mol
# GULP energy per Si atom -5603.662587 kJ/mol
# Density = 2.627702 g / cm^3
# Si number density = 26.336968 Si / 1000 Ang^3
#
#
#
# Elastic Constant Matrix: (Units=GPa)
#
#
# Indices 1 2 3 4 5 6 
#
# 1 148.7219 46.6248 39.5188 0.0000 21.7732 0.0000
# 2 46.6248 169.6117 41.9493 0.0000 17.3576 0.0000
# 3 39.5188 41.9493 130.4871 0.0000 -4.6538 0.0000
# 4 0.0000 0.0000 0.0000 69.0773 0.0000 12.1585
# 5 21.7732 17.3576 -4.6538 0.0000 31.9965 0.0000
# 6 0.0000 0.0000 0.0000 12.1585 0.0000 39.5225
#
#
#
# Elastic Compliance Matrix: (Units=1/GPa)
#
#
# Indices 1 2 3 4 5 6 
#
# 1 0.008543 -0.001190 -0.002402 0.000000 -0.005517 0.000000
# 2 -0.001190 0.007064 -0.002029 0.000000 -0.003318 0.000000
# 3 -0.002402 -0.002029 0.009188 0.000000 0.004071 0.000000
# 4 0.000000 0.000000 0.000000 0.015305 0.000000 -0.004708
# 5 -0.005517 -0.003318 0.004071 0.000000 0.037400 0.000000
# 6 0.000000 0.000000 0.000000 -0.004708 0.000000 0.026751
#
#
# Mechanical properties :
#
#
# Convention : Reuss Voigt Hill
#
# Bulk Modulus (GPa) = 73.77451 78.33406 76.05429
# Shear Modulus (GPa) = 41.66319 49.50109 45.58214
#
# Velocity S-wave (km/s) = 3.98166 4.34006 4.16472
# Velocity P-wave (km/s) = 7.01504 7.41096 7.21572
#
# Compressibility (1/GPa) = 0.01355482
#
# Stress axis : x y z
#
# Youngs Moduli (GPa) = 117.05730 141.55806 108.83272
#
# Poissons Ratio (x) = 0.16842 0.26136
# Poissons Ratio (y) = 0.13927 0.22082
# Poissons Ratio (z) = 0.28112 0.28722
#
# Static dielectric constant tensor:
#      x y z
#    x 2.178590 0.000000 -0.039450 
#    y 0.000000 2.077200 0.000000 
#    z -0.039450 0.000000 2.038580 
# 
# From -- ./inp_files/42325.got.cif
#   From: 2010.05.17/outbox.cif.g08.bks.cpg/sg5_22_cif.got.tgz:42325.got - 2010.06.03 18:56:24.
