data_PCOD9128376
_publ_section_title
;
Structure prediction by ZEFSAII (Michael W. Deem and Ramdas Pophale) SiO2 
 PCOD9128376
Probable space group: C 2
;
_chemical_formula_sum "Si O2"
_cell_formula_units_Z 18
_cell_length_a 7.898439
_cell_length_b 18.538194
_cell_length_c 5.068466
_cell_angle_alpha 90.000000
_cell_angle_beta 83.577410
_cell_angle_gamma 90.000000
_cell_volume 737.481212
_symmetry_space_group_name_H-M "C 2"
_symmetry_group_IT_number 5
_symmetry_cell_setting 'monoclinic'
loop_
_space_group_symop_operation_xyz
x,y,z
-x,y,-z
1/2+x,1/2+y,z
1/2-x,1/2+y,-z
loop_
_atom_site_type_symbol
_atom_site_label
_atom_site_fract_x
_atom_site_fract_y
_atom_site_fract_z
Si Si1 0.191935 0.494120 0.382112
Si Si2 0.205415 0.769708 0.947963
Si Si3 0.837040 0.135975 0.161766
Si Si4 0.000000 0.257307 0.500000
Si Si5 0.177638 0.918385 0.136858
O O1 0.239925 0.578198 0.350334
O O2 0.310113 0.455028 0.579832
O O3 0.000000 0.483957 0.500000
O O4 0.208058 0.463006 0.085986
O O5 0.340410 0.791384 0.690880
O O6 0.232988 0.683380 0.971590
O O7 0.242231 0.835710 0.144998
O O8 0.000000 0.773150 0.000000
O O9 0.910056 0.202935 0.312301
O O10 0.000000 0.098008 0.000000
O O11 0.000000 0.919024 0.000000
#
# Coordination Sequence:
#
# PCOD9128376 Si02
#       5
#     4   4   4   2   4
#     4  12  28  45  74 109 151 197 250 313 377 452
#     4  10  25  46  75 109 144 197 253 310 380 455
#     4  10  25  45  71 103 145 193 247 307 378 449
#     4  10  24  42  74 100 146 188 242 318 366 444
#     4  11  27  49  73 107 151 199 247 309 380 458
#
# _framework density 24.407399000000002
#
# number of rings (size 3 to 8) (size 9 to 14) (size 15 to 20)
#    0.000    1.333    0.000    2.000   17.111    3.556 
#    0.000    0.000    0.000    0.000    0.000    0.000 
#    0.000    0.000    0.000    0.000    0.000    0.000 
#
# Total GULP energy -50146.969642 kJ/mol
# GULP energy per Si atom -5571.885516 kJ/mol
# Density = 2.435185 g / cm^3
# Si number density = 24.407399 Si / 1000 Ang^3
#
#
#
# Elastic Constant Matrix: (Units=GPa)
#
#
# Indices 1 2 3 4 5 6 
#
# 1 89.9021 20.5834 38.5555 0.0000 -30.0086 0.0000
# 2 20.5834 113.4674 24.7212 0.0000 4.3541 0.0000
# 3 38.5555 24.7212 94.7277 0.0000 -6.2895 0.0000
# 4 0.0000 0.0000 0.0000 48.4018 0.0000 5.3361
# 5 -30.0086 4.3541 -6.2895 0.0000 42.6702 0.0000
# 6 0.0000 0.0000 0.0000 5.3361 0.0000 -14.1317
#
#
#
# Elastic Compliance Matrix: (Units=1/GPa)
#
#
# Indices 1 2 3 4 5 6 
#
# 1 0.018376 -0.002495 -0.006012 0.000000 0.012291 0.000000
# 2 -0.002495 0.009758 -0.001731 0.000000 -0.003006 0.000000
# 3 -0.006012 -0.001731 0.013316 0.000000 -0.002089 0.000000
# 4 0.000000 0.000000 0.000000 0.019835 0.000000 0.007490
# 5 0.012291 -0.003006 -0.002089 0.000000 0.032079 0.000000
# 6 0.000000 0.000000 0.000000 0.007490 0.000000 -0.067935
#
#
# Mechanical properties :
#
#
# Convention : Reuss Voigt Hill
#
# Bulk Modulus (GPa) = 47.67616 51.75749 49.71682
# Shear Modulus (GPa) = 94.52654 29.67053 62.09854
#
# Velocity S-wave (km/s) = 6.22999 3.49038 5.04953
# Velocity P-wave (km/s) = 8.44548 6.12335 7.37637
#
# Compressibility (1/GPa) = 0.02097484
#
# Stress axis : x y z
#
# Youngs Moduli (GPa) = 54.42027 102.47880 75.09522
#
# Poissons Ratio (x) = 0.25571 0.45146
# Poissons Ratio (y) = 0.13579 0.12996
# Poissons Ratio (z) = 0.32716 0.17734
#
# Static dielectric constant tensor:
#      x y z
#    x 2.247800 0.000000 0.085950 
#    y 0.000000 1.906830 0.000000 
#    z 0.085950 0.000000 1.904620 
# 
# From -- ./inp_files/2312.got.cif
#   From: 2010.05.17/outbox.cif.g08.bks.cpg/sg5_2_cif.got.tgz:2312.got - 2010.06.03 18:56:24.
