data_PCOD9128913
_publ_section_title
;
Structure prediction by ZEFSAII (Michael W. Deem and Ramdas Pophale) SiO2 
 PCOD9128913
Probable space group: C 2
;
_chemical_formula_sum "Si O2"
_cell_formula_units_Z 12
_cell_length_a 4.889051
_cell_length_b 22.771430
_cell_length_c 5.330785
_cell_angle_alpha 90.000000
_cell_angle_beta 125.401861
_cell_angle_gamma 90.000000
_cell_volume 483.750823
_symmetry_space_group_name_H-M "C 2"
_symmetry_group_IT_number 5
_symmetry_cell_setting 'monoclinic'
loop_
_space_group_symop_operation_xyz
x,y,z
-x,y,-z
1/2+x,1/2+y,z
1/2-x,1/2+y,-z
loop_
_atom_site_type_symbol
_atom_site_label
_atom_site_fract_x
_atom_site_fract_y
_atom_site_fract_z
Si Si1 0.500000 0.716660 0.000000
Si Si2 0.500000 0.130012 0.000000
Si Si3 0.000000 0.799230 0.500000
Si Si4 0.500000 0.539876 0.500000
Si Si5 0.000000 0.459811 0.500000
Si Si6 0.000000 0.382633 0.000000
O O1 0.677753 0.755436 0.314811
O O2 0.221368 0.673922 0.957167
O O3 0.286017 0.084715 0.728161
O O4 0.843054 0.843926 0.210893
O O5 0.330136 0.499212 0.621536
O O6 0.971013 0.420838 0.235005
#
# Coordination Sequence:
#
# PCOD9128913 Si02
#       6
#     2   2   2   2   2   2
#     4  11  24  46  73 108 149 196 248 313 374 448
#     4  12  25  46  73 108 149 194 249 308 374 444
#     4  10  25  47  76 110 150 197 251 308 378 446
#     4  12  27  46  75 110 151 200 251 308 376 448
#     4  12  28  51  77 114 155 201 252 312 374 450
#     4  11  27  48  78 114 154 200 253 311 376 450
#
# _framework density 24.806162
#
# number of rings (size 3 to 8) (size 9 to 14) (size 15 to 20)
#    0.000    0.667    0.000    6.000    0.000   16.000 
#    0.000    0.000    0.000    0.000    0.000    0.000 
#    0.000    0.000    0.000    0.000    0.000    0.000 
#
# Total GULP energy -33512.920756 kJ/mol
# GULP energy per Si atom -5585.486793 kJ/mol
# Density = 2.474970 g / cm^3
# Si number density = 24.806162 Si / 1000 Ang^3
#
#
#
# Elastic Constant Matrix: (Units=GPa)
#
#
# Indices 1 2 3 4 5 6 
#
# 1 157.5080 82.4620 64.4458 0.0000 -12.6845 0.0000
# 2 82.4620 175.4195 98.7526 0.0000 -3.6988 0.0000
# 3 64.4458 98.7526 172.3335 0.0000 15.6912 0.0000
# 4 0.0000 0.0000 0.0000 43.3220 0.0000 32.8576
# 5 -12.6845 -3.6988 15.6912 0.0000 47.7823 0.0000
# 6 0.0000 0.0000 0.0000 32.8576 0.0000 -16.9595
#
#
#
# Elastic Compliance Matrix: (Units=1/GPa)
#
#
# Indices 1 2 3 4 5 6 
#
# 1 0.008945 -0.003137 -0.001795 0.000000 0.002721 0.000000
# 2 -0.003137 0.009769 -0.004554 0.000000 0.001419 0.000000
# 3 -0.001795 -0.004554 0.009441 0.000000 -0.003930 0.000000
# 4 0.000000 0.000000 0.000000 0.009347 0.000000 0.018110
# 5 0.002721 0.001419 -0.003930 0.000000 0.023051 0.000000
# 6 0.000000 0.000000 0.000000 0.018110 0.000000 -0.023878
#
#
# Mechanical properties :
#
#
# Convention : Reuss Voigt Hill
#
# Bulk Modulus (GPa) = 108.89802 110.73130 109.81466
# Shear Modulus (GPa) = 85.16576 32.13567 58.65072
#
# Velocity S-wave (km/s) = 5.86575 3.60317 4.86774
# Velocity P-wave (km/s) = 9.48003 7.87693 8.71541
#
# Compressibility (1/GPa) = 0.00918290
#
# Stress axis : x y z
#
# Youngs Moduli (GPa) = 111.79640 102.36707 105.91590
#
# Poissons Ratio (x) = 0.32110 0.19015
# Poissons Ratio (y) = 0.35068 0.48234
# Poissons Ratio (z) = 0.20071 0.46618
#
# Static dielectric constant tensor:
#      x y z
#    x 1.912020 0.000000 0.007800 
#    y 0.000000 1.986440 0.000000 
#    z 0.007800 0.000000 1.941820 
# 
# From -- ./inp_files/489.got.cif
#   From: 2010.05.17/outbox.cif.g08.bks.cpg/sg5_1_cif.got.tgz:489.got - 2010.06.03 18:56:24.
