data_PCOD9128817
_publ_section_title
;
Structure prediction by ZEFSAII (Michael W. Deem and Ramdas Pophale) SiO2 
 PCOD9128817
Probable space group: C 2
;
_chemical_formula_sum "Si O2"
_cell_formula_units_Z 32
_cell_length_a 20.993715
_cell_length_b 11.997213
_cell_length_c 15.025109
_cell_angle_alpha 90.000000
_cell_angle_beta 23.039484
_cell_angle_gamma 90.000000
_cell_volume 1481.049939
_symmetry_space_group_name_H-M "C 2"
_symmetry_group_IT_number 5
_symmetry_cell_setting 'monoclinic'
loop_
_space_group_symop_operation_xyz
x,y,z
-x,y,-z
1/2+x,1/2+y,z
1/2-x,1/2+y,-z
loop_
_atom_site_type_symbol
_atom_site_label
_atom_site_fract_x
_atom_site_fract_y
_atom_site_fract_z
Si Si1 0.093312 0.443180 0.286554
Si Si2 0.161705 0.294095 0.467520
Si Si3 0.490779 0.688458 0.840854
Si Si4 0.436661 0.333762 0.836901
Si Si5 0.884637 0.687148 0.733858
Si Si6 0.685715 0.478729 0.610944
Si Si7 0.988792 0.443204 0.908583
Si Si8 0.883146 0.666369 0.061504
O O1 0.071315 0.567981 0.279773
O O2 0.000000 0.440366 0.500000
O O3 0.006501 0.356535 0.334385
O O4 0.277436 0.406705 0.061838
O O5 0.281928 0.389226 0.351523
O O6 0.227869 0.234122 0.295512
O O7 0.116764 0.201172 0.597026
O O8 0.577265 0.585035 0.780430
O O9 0.483734 0.813790 0.888746
O O10 0.303351 0.670291 0.054183
O O11 0.414502 0.281885 0.768081
O O12 0.587146 0.414396 0.660362
O O13 0.451019 0.235701 0.891311
O O14 0.000000 0.705001 0.500000
O O15 0.860647 0.497085 0.339845
O O16 0.851676 0.538816 0.072639
O O17 0.000000 0.438512 0.000000
O O18 0.000000 0.668368 0.000000
#
# Coordination Sequence:
#
# PCOD9128817 Si02
#       8
#     4   4   4   4   4   4   4   4
#     4  11  23  44  67 103 137 179 234 286 343 406
#     4  11  23  42  73 102 137 177 234 290 344 403
#     4  11  23  45  66 103 138 181 229 288 340 411
#     4  12  24  42  73 100 134 187 229 279 349 403
#     4  11  27  44  67  95 145 186 228 286 339 416
#     4  11  25  43  70 102 136 183 230 286 341 411
#     4  10  25  43  68  99 140 179 228 285 345 411
#     4  11  22  43  70 106 135 173 227 292 336 408
#
# _framework density 21.606292
#
# number of rings (size 3 to 8) (size 9 to 14) (size 15 to 20)
#    0.000    1.000    5.000    1.500    7.000    0.000 
#    4.500    0.000    0.000    0.000    0.000    0.000 
#    0.000    0.000    0.000    0.000    0.000    0.000 
#
# Total GULP energy -89255.697922 kJ/mol
# GULP energy per Si atom -5578.481120 kJ/mol
# Density = 2.155711 g / cm^3
# Si number density = 21.606292 Si / 1000 Ang^3
#
#
#
# Elastic Constant Matrix: (Units=GPa)
#
#
# Indices 1 2 3 4 5 6 
#
# 1 37.7783 19.2508 21.5042 0.0000 6.6774 0.0000
# 2 19.2508 111.6554 42.6831 0.0000 9.7086 0.0000
# 3 21.5042 42.6831 67.1739 0.0000 1.1024 0.0000
# 4 0.0000 0.0000 0.0000 27.2042 0.0000 -8.5709
# 5 6.6774 9.7086 1.1024 0.0000 30.8953 0.0000
# 6 0.0000 0.0000 0.0000 -8.5709 0.0000 17.7964
#
#
#
# Elastic Compliance Matrix: (Units=1/GPa)
#
#
# Indices 1 2 3 4 5 6 
#
# 1 0.033981 -0.001552 -0.009785 0.000000 -0.006507 0.000000
# 2 -0.001552 0.012280 -0.007252 0.000000 -0.003265 0.000000
# 3 -0.009785 -0.007252 0.022569 0.000000 0.003589 0.000000
# 4 0.000000 0.000000 0.000000 0.043334 0.000000 0.020870
# 5 -0.006507 -0.003265 0.003589 0.000000 0.034672 0.000000
# 6 0.000000 0.000000 0.000000 0.020870 0.000000 0.066242
#
#
# Mechanical properties :
#
#
# Convention : Reuss Voigt Hill
#
# Bulk Modulus (GPa) = 31.59537 42.60932 37.10234
# Shear Modulus (GPa) = 19.17117 24.05716 21.61416
#
# Velocity S-wave (km/s) = 2.98198 3.34043 3.16628
# Velocity P-wave (km/s) = 5.14891 5.88571 5.52960
#
# Compressibility (1/GPa) = 0.03165021
#
# Stress axis : x y z
#
# Youngs Moduli (GPa) = 29.42787 81.43299 44.30939
#
# Poissons Ratio (x) = 0.12641 0.43358
# Poissons Ratio (y) = 0.04568 0.32135
# Poissons Ratio (z) = 0.28796 0.59058
#
# Static dielectric constant tensor:
#      x y z
#    x 1.804280 0.000000 -0.018530 
#    y 0.000000 1.833810 0.000000 
#    z -0.018530 0.000000 1.771860 
# 
# From -- ./inp_files/63388.got.cif
#   From: 2010.05.17/outbox.cif.g08.bks.cpg/sg5_32_cif.got.tgz:63388.got - 2010.06.03 18:56:24.
