data_PCOD9128599
_publ_section_title
;
Structure prediction by ZEFSAII (Michael W. Deem and Ramdas Pophale) SiO2 
 PCOD9128599
Probable space group: C 2
;
_chemical_formula_sum "Si O2"
_cell_formula_units_Z 20
_cell_length_a 11.218557
_cell_length_b 13.905834
_cell_length_c 8.224410
_cell_angle_alpha 90.000000
_cell_angle_beta 129.860754
_cell_angle_gamma 90.000000
_cell_volume 984.863897
_symmetry_space_group_name_H-M "C 2"
_symmetry_group_IT_number 5
_symmetry_cell_setting 'monoclinic'
loop_
_space_group_symop_operation_xyz
x,y,z
-x,y,-z
1/2+x,1/2+y,z
1/2-x,1/2+y,-z
loop_
_atom_site_type_symbol
_atom_site_label
_atom_site_fract_x
_atom_site_fract_y
_atom_site_fract_z
Si Si1 0.154589 0.958070 0.229871
Si Si2 0.009813 0.129675 0.314747
Si Si3 0.678033 0.084852 0.888971
Si Si4 0.500000 0.223558 0.500000
Si Si5 0.000000 0.462454 0.000000
Si Si6 0.296884 0.819064 0.605691
O O1 0.240248 0.872345 0.394356
O O2 0.096342 0.038522 0.308264
O O3 0.267858 0.009954 0.201975
O O4 0.000000 0.925322 0.000000
O O5 0.102865 0.225156 0.347814
O O6 0.000000 0.118761 0.500000
O O7 0.837090 0.134348 0.088304
O O8 0.558754 0.157512 0.700093
O O9 0.601854 0.029039 0.971491
O O10 0.644853 0.286454 0.570382
O O11 0.106102 0.394200 0.203410
#
# Coordination Sequence:
#
# PCOD9128599 Si02
#       6
#     4   4   4   2   2   4
#     4  10  24  46  70  98 138 185 227 287 345 403
#     4  11  25  46  73  98 141 185 231 285 348 404
#     4  11  25  48  70  96 142 186 230 284 351 402
#     4  12  26  44  72 100 140 180 234 288 344 408
#     4  12  28  44  72 104 138 186 234 282 344 414
#     4  12  27  44  71 107 137 181 237 284 342 412
#
# _framework density 20.307375
#
# number of rings (size 3 to 8) (size 9 to 14) (size 15 to 20)
#    0.000    0.800    2.000    3.600   14.000    1.600 
#    0.000    0.000    0.000    0.000    0.000    0.000 
#    0.000    0.000    0.000    0.000    0.000    0.000 
#
# Total GULP energy -56012.665053 kJ/mol
# GULP energy per Si atom -5601.266505 kJ/mol
# Density = 2.026115 g / cm^3
# Si number density = 20.307375 Si / 1000 Ang^3
#
#
#
# Elastic Constant Matrix: (Units=GPa)
#
#
# Indices 1 2 3 4 5 6 
#
# 1 136.0972 43.8359 40.2292 0.0000 2.3399 0.0000
# 2 43.8359 88.0162 68.8930 0.0000 18.5140 0.0000
# 3 40.2292 68.8930 109.8947 0.0000 6.0651 0.0000
# 4 0.0000 0.0000 0.0000 119.5096 0.0000 -18.0475
# 5 2.3399 18.5140 6.0651 0.0000 35.2184 0.0000
# 6 0.0000 0.0000 0.0000 -18.0475 0.0000 20.0635
#
#
#
# Elastic Compliance Matrix: (Units=1/GPa)
#
#
# Indices 1 2 3 4 5 6 
#
# 1 0.008893 -0.004275 -0.000673 0.000000 0.001772 0.000000
# 2 -0.004275 0.027947 -0.015305 0.000000 -0.011771 0.000000
# 3 -0.000673 -0.015305 0.018672 0.000000 0.004875 0.000000
# 4 0.000000 0.000000 0.000000 0.009683 0.000000 0.008710
# 5 0.001772 -0.011771 0.004875 0.000000 0.033625 0.000000
# 6 0.000000 0.000000 0.000000 0.008710 0.000000 0.057676
#
#
# Mechanical properties :
#
#
# Convention : Reuss Voigt Hill
#
# Bulk Modulus (GPa) = 66.64566 71.10270 68.87418
# Shear Modulus (GPa) = 24.75194 47.02830 35.89012
#
# Velocity S-wave (km/s) = 3.49501 4.81752 4.20854
# Velocity P-wave (km/s) = 7.01260 8.12613 7.58981
#
# Compressibility (1/GPa) = 0.01500473
#
# Stress axis : x y z
#
# Youngs Moduli (GPa) = 112.44560 35.78262 53.55661
#
# Poissons Ratio (x) = 0.15297 0.03606
# Poissons Ratio (y) = 0.48070 0.81969
# Poissons Ratio (z) = 0.07572 0.54766
#
# Static dielectric constant tensor:
#      x y z
#    x 1.687170 0.000000 -0.000850 
#    y 0.000000 1.684210 0.000000 
#    z -0.000850 0.000000 1.704610 
# 
# From -- ./inp_files/19240.got.cif
#   From: 2010.05.17/outbox.cif.g08.bks.cpg/sg5_10_cif.got.tgz:19240.got - 2010.06.03 18:56:24.
