data_PCOD9128749
_publ_section_title
;
Structure prediction by ZEFSAII (Michael W. Deem and Ramdas Pophale) SiO2 
 PCOD9128749
Probable space group: C 2
;
_chemical_formula_sum "Si O2"
_cell_formula_units_Z 16
_cell_length_a 14.505782
_cell_length_b 4.803995
_cell_length_c 8.877533
_cell_angle_alpha 90.000000
_cell_angle_beta 71.677010
_cell_angle_gamma 90.000000
_cell_volume 587.271872
_symmetry_space_group_name_H-M "C 2"
_symmetry_group_IT_number 5
_symmetry_cell_setting 'monoclinic'
loop_
_space_group_symop_operation_xyz
x,y,z
-x,y,-z
1/2+x,1/2+y,z
1/2-x,1/2+y,-z
loop_
_atom_site_type_symbol
_atom_site_label
_atom_site_fract_x
_atom_site_fract_y
_atom_site_fract_z
Si Si1 0.372391 0.609320 0.320919
Si Si2 0.665975 0.967123 0.380898
Si Si3 0.181366 0.784113 0.080844
Si Si4 0.000000 0.025829 0.000000
Si Si5 0.500000 0.570559 0.500000
O O1 0.282264 0.437928 0.304478
O O2 0.434319 0.424458 0.409158
O O3 0.339139 0.870392 0.439579
O O4 0.440843 0.699943 0.152138
O O5 0.656744 0.225890 0.269866
O O6 0.576386 0.773128 0.374621
O O7 0.238625 0.524208 0.980312
O O8 0.082009 0.852654 0.046101
#
# Coordination Sequence:
#
# PCOD9128749 Si02
#       5
#     4   4   4   2   2
#     4  10  24  49  82 126 166 230 280 358 424 524
#     4  10  24  49  82 123 176 219 288 348 437 517
#     4  12  30  54  88 129 177 228 293 364 433 519
#     4  12  28  52  92 128 178 224 302 360 446 502
#     4   8  24  44  78 122 168 220 282 346 430 506
#
# _framework density 27.244624000000002
#
# number of rings (size 3 to 8) (size 9 to 14) (size 15 to 20)
#    1.500    0.000    2.500    0.000    3.500    9.000 
#    0.000    0.000    0.000    0.000    0.000    0.000 
#    0.000    0.000    0.000    0.000    0.000    0.000 
#
# Total GULP energy -44600.454790 kJ/mol
# GULP energy per Si atom -5575.056849 kJ/mol
# Density = 2.718261 g / cm^3
# Si number density = 27.244624 Si / 1000 Ang^3
#
#
#
# Elastic Constant Matrix: (Units=GPa)
#
#
# Indices 1 2 3 4 5 6 
#
# 1 163.4268 -4.3284 43.8171 0.0000 7.5186 0.0000
# 2 -4.3284 82.1427 28.4310 0.0000 -24.0388 0.0000
# 3 43.8171 28.4310 189.5730 0.0000 -32.2452 0.0000
# 4 0.0000 0.0000 0.0000 46.3812 0.0000 6.9800
# 5 7.5186 -24.0388 -32.2452 0.0000 60.6830 0.0000
# 6 0.0000 0.0000 0.0000 6.9800 0.0000 19.3827
#
#
#
# Elastic Compliance Matrix: (Units=1/GPa)
#
#
# Indices 1 2 3 4 5 6 
#
# 1 0.006721 0.000537 -0.001912 0.000000 -0.001636 0.000000
# 2 0.000537 0.014088 -0.001428 0.000000 0.004755 0.000000
# 3 -0.001912 -0.001428 0.006459 0.000000 0.003103 0.000000
# 4 0.000000 0.000000 0.000000 0.022796 0.000000 -0.008209
# 5 -0.001636 0.004755 0.003103 0.000000 0.020215 0.000000
# 6 0.000000 0.000000 0.000000 -0.008209 0.000000 0.054548
#
#
# Mechanical properties :
#
#
# Convention : Reuss Voigt Hill
#
# Bulk Modulus (GPa) = 46.16398 63.44242 54.80320
# Shear Modulus (GPa) = 36.32279 49.77093 43.04686
#
# Velocity S-wave (km/s) = 3.65528 4.27876 3.97925
# Velocity P-wave (km/s) = 5.89879 6.90993 6.42429
#
# Compressibility (1/GPa) = 0.02166191
#
# Stress axis : x y z
#
# Youngs Moduli (GPa) = 148.78340 70.98134 154.82080
#
# Poissons Ratio (x) = -0.03814 0.29607
# Poissons Ratio (y) = -0.07994 0.22111
# Poissons Ratio (z) = 0.28453 0.10137
#
# Static dielectric constant tensor:
#      x y z
#    x 2.103140 0.000000 0.019390 
#    y 0.000000 2.227980 0.000000 
#    z 0.019390 0.000000 2.220060 
# 
# From -- ./inp_files/25775.got.cif
#   From: 2010.05.17/outbox.cif.g08.bks.cpg/sg5_13_cif.got.tgz:25775.got - 2010.06.03 18:56:24.
