data_PCOD9128063
_publ_section_title
;
Structure prediction by ZEFSAII (Michael W. Deem and Ramdas Pophale) SiO2 
 PCOD9128063
Probable space group: C 2
;
_chemical_formula_sum "Si O2"
_cell_formula_units_Z 22
_cell_length_a 13.945841
_cell_length_b 4.864285
_cell_length_c 13.083912
_cell_angle_alpha 90.000000
_cell_angle_beta 82.537226
_cell_angle_gamma 90.000000
_cell_volume 880.049210
_symmetry_space_group_name_H-M "C 2"
_symmetry_group_IT_number 5
_symmetry_cell_setting 'monoclinic'
loop_
_space_group_symop_operation_xyz
x,y,z
-x,y,-z
1/2+x,1/2+y,z
1/2-x,1/2+y,-z
loop_
_atom_site_type_symbol
_atom_site_label
_atom_site_fract_x
_atom_site_fract_y
_atom_site_fract_z
Si Si1 0.287988 0.404820 0.048215
Si Si2 0.090405 0.653397 0.681707
Si Si3 0.287441 0.931404 0.730148
Si Si4 0.308242 0.259493 0.525170
Si Si5 0.981855 0.157338 0.774448
Si Si6 0.500000 0.541701 0.000000
O O1 0.245987 0.545279 0.155664
O O2 0.259855 0.611766 0.962032
O O3 0.402803 0.372927 0.034346
O O4 0.193322 0.755489 0.710559
O O5 0.100194 0.694366 0.558702
O O6 0.066479 0.343436 0.714127
O O7 0.008838 0.845134 0.743650
O O8 0.311565 0.153728 0.639903
O O9 0.382321 0.751534 0.737812
O O10 0.221599 0.073840 0.487571
O O11 0.982196 0.202490 0.896611
#
# Coordination Sequence:
#
# PCOD9128063 Si02
#       6
#     4   4   4   4   4   2
#     4  12  29  46  74 107 144 190 240 297 356 426
#     4  11  26  48  71 107 148 186 237 303 350 421
#     4  11  26  48  76 105 147 188 243 291 360 424
#     4  10  23  45  76 105 142 191 236 294 361 418
#     4  12  28  44  76 108 142 192 242 288 363 425
#     4  12  28  48  74 108 146 190 240 296 358 426
#
# _framework density 24.998601000000001
#
# number of rings (size 3 to 8) (size 9 to 14) (size 15 to 20)
#    0.000    0.727    3.636    2.182    5.091    8.000 
#    0.000    5.455    0.000    0.000    0.000    0.000 
#    0.000    0.000    0.000    0.000    0.000    0.000 
#
# Total GULP energy -61644.900418 kJ/mol
# GULP energy per Si atom -5604.081856 kJ/mol
# Density = 2.494170 g / cm^3
# Si number density = 24.998601 Si / 1000 Ang^3
#
#
#
# Elastic Constant Matrix: (Units=GPa)
#
#
# Indices 1 2 3 4 5 6 
#
# 1 135.5307 12.1480 24.5624 0.0000 16.2311 0.0000
# 2 12.1480 68.0501 7.1698 0.0000 8.7404 0.0000
# 3 24.5624 7.1698 143.7698 0.0000 -16.0230 0.0000
# 4 0.0000 0.0000 0.0000 35.5089 0.0000 -10.2163
# 5 16.2311 8.7404 -16.0230 0.0000 31.6739 0.0000
# 6 0.0000 0.0000 0.0000 -10.2163 0.0000 30.7497
#
#
#
# Elastic Compliance Matrix: (Units=1/GPa)
#
#
# Indices 1 2 3 4 5 6 
#
# 1 0.008408 -0.000633 -0.001977 0.000000 -0.005134 0.000000
# 2 -0.000633 0.015516 -0.001173 0.000000 -0.004550 0.000000
# 3 -0.001977 -0.001173 0.007949 0.000000 0.005358 0.000000
# 4 0.000000 0.000000 0.000000 0.031138 0.000000 0.010345
# 5 -0.005134 -0.004550 0.005358 0.000000 0.038169 0.000000
# 6 0.000000 0.000000 0.000000 0.010345 0.000000 0.035958
#
#
# Mechanical properties :
#
#
# Convention : Reuss Voigt Hill
#
# Bulk Modulus (GPa) = 41.14016 48.34567 44.74292
# Shear Modulus (GPa) = 32.72093 39.81784 36.26939
#
# Velocity S-wave (km/s) = 3.62181 3.99532 3.81314
# Velocity P-wave (km/s) = 5.82947 6.37690 6.10932
#
# Compressibility (1/GPa) = 0.02430715
#
# Stress axis : x y z
#
# Youngs Moduli (GPa) = 118.92918 64.44911 125.80231
#
# Poissons Ratio (x) = 0.04081 0.24873
# Poissons Ratio (y) = 0.07531 0.14753
# Poissons Ratio (z) = 0.23514 0.07558
#
# Static dielectric constant tensor:
#      x y z
#    x 1.944880 0.000000 0.021260 
#    y 0.000000 1.879590 0.000000 
#    z 0.021260 0.000000 2.034780 
# 
# From -- ./inp_files/41077.got.cif
#   From: 2010.05.17/outbox.cif.g08.bks.cpg/sg5_21_cif.got.tgz:41077.got - 2010.06.03 18:56:24.
