data_PCOD9128400
_publ_section_title
;
Structure prediction by ZEFSAII (Michael W. Deem and Ramdas Pophale) SiO2 
 PCOD9128400
Probable space group: C 2
;
_chemical_formula_sum "Si O2"
_cell_formula_units_Z 28
_cell_length_a 14.401358
_cell_length_b 8.044931
_cell_length_c 18.547756
_cell_angle_alpha 90.000000
_cell_angle_beta 141.504664
_cell_angle_gamma 90.000000
_cell_volume 1337.587690
_symmetry_space_group_name_H-M "C 2"
_symmetry_group_IT_number 5
_symmetry_cell_setting 'monoclinic'
loop_
_space_group_symop_operation_xyz
x,y,z
-x,y,-z
1/2+x,1/2+y,z
1/2-x,1/2+y,-z
loop_
_atom_site_type_symbol
_atom_site_label
_atom_site_fract_x
_atom_site_fract_y
_atom_site_fract_z
Si Si1 0.147475 0.280440 0.824332
Si Si2 0.969908 0.753782 0.066002
Si Si3 0.628110 0.297788 0.631944
Si Si4 0.549267 0.545651 0.372074
Si Si5 0.269593 0.805274 0.429481
Si Si6 0.245209 0.947307 0.259368
Si Si7 0.100855 0.514613 0.261283
O O1 0.198003 0.351778 0.776978
O O2 0.062315 0.108573 0.757527
O O3 0.026005 0.402013 0.783137
O O4 0.292445 0.268723 0.962881
O O5 0.066784 0.913027 0.150391
O O6 0.039558 0.601798 0.152245
O O7 0.000000 0.728179 0.000000
O O8 0.500000 0.235756 0.500000
O O9 0.457731 0.418221 0.365461
O O10 0.751463 0.407623 0.665390
O O11 0.708346 0.138723 0.714890
O O12 0.602537 0.707292 0.449858
O O13 0.694641 0.455129 0.427889
O O14 0.306707 0.868671 0.371429
O O15 0.144479 0.664005 0.340909
#
# Coordination Sequence:
#
# PCOD9128400 Si02
#       7
#     4   4   4   4   4   4   4
#     4  11  24  43  70 100 131 179 217 274 327 394
#     4   9  21  45  68  95 133 175 221 274 330 384
#     4  12  25  41  65  99 131 178 218 270 330 390
#     4  12  25  40  66  96 137 171 225 266 335 392
#     4  11  24  42  63  97 131 178 211 283 320 396
#     4  10  24  43  69  95 135 169 224 271 330 390
#     4  11  23  44  67  97 135 171 228 266 332 391
#
# _framework density 20.933208
#
# number of rings (size 3 to 8) (size 9 to 14) (size 15 to 20)
#    0.000    1.143    1.429    5.143    4.000    3.429 
#    0.000    7.857    0.000    0.000    0.000    0.000 
#    0.000    0.000    0.000    0.000    0.000    0.000 
#
# Total GULP energy -78281.086436 kJ/mol
# GULP energy per Si atom -5591.506174 kJ/mol
# Density = 2.088556 g / cm^3
# Si number density = 20.933208 Si / 1000 Ang^3
#
#
#
# Elastic Constant Matrix: (Units=GPa)
#
#
# Indices 1 2 3 4 5 6 
#
# 1 69.7680 19.9362 30.9220 0.0000 10.1654 0.0000
# 2 19.9362 83.1314 44.8402 0.0000 12.1327 0.0000
# 3 30.9220 44.8402 130.6667 0.0000 16.1556 0.0000
# 4 0.0000 0.0000 0.0000 27.0603 0.0000 0.7323
# 5 10.1654 12.1327 16.1556 0.0000 22.4224 0.0000
# 6 0.0000 0.0000 0.0000 0.7323 0.0000 37.5388
#
#
#
# Elastic Compliance Matrix: (Units=1/GPa)
#
#
# Indices 1 2 3 4 5 6 
#
# 1 0.016758 -0.001859 -0.002759 0.000000 -0.004604 0.000000
# 2 -0.001859 0.015446 -0.004316 0.000000 -0.004405 0.000000
# 3 -0.002759 -0.004316 0.010257 0.000000 -0.003805 0.000000
# 4 0.000000 0.000000 0.000000 0.036974 0.000000 -0.000721
# 5 -0.004604 -0.004405 -0.003805 0.000000 0.051810 0.000000
# 6 0.000000 0.000000 0.000000 -0.000721 0.000000 0.026653
#
#
# Mechanical properties :
#
#
# Convention : Reuss Voigt Hill
#
# Bulk Modulus (GPa) = 40.66000 52.77366 46.71683
# Shear Modulus (GPa) = 27.17934 29.92883 28.55408
#
# Velocity S-wave (km/s) = 3.60722 3.78528 3.69732
# Velocity P-wave (km/s) = 6.06755 6.66106 6.37122
#
# Compressibility (1/GPa) = 0.02459420
#
# Stress axis : x y z
#
# Youngs Moduli (GPa) = 59.67359 64.74244 97.49135
#
# Poissons Ratio (x) = 0.12035 0.26894
# Poissons Ratio (y) = 0.11093 0.42076
# Poissons Ratio (z) = 0.16461 0.27942
#
# Static dielectric constant tensor:
#      x y z
#    x 1.757400 0.000000 0.010570 
#    y 0.000000 1.736830 0.000000 
#    z 0.010570 0.000000 1.779470 
# 
# From -- ./inp_files/61466.got.cif
#   From: 2010.05.17/outbox.cif.g08.bks.cpg/sg5_31_cif.got.tgz:61466.got - 2010.06.03 18:56:24.
