data_PCOD9128088
_publ_section_title
;
Structure prediction by ZEFSAII (Michael W. Deem and Ramdas Pophale) SiO2 
 PCOD9128088
Probable space group: C 2
;
_chemical_formula_sum "Si O2"
_cell_formula_units_Z 24
_cell_length_a 13.013489
_cell_length_b 11.904022
_cell_length_c 18.933230
_cell_angle_alpha 90.000000
_cell_angle_beta 23.812460
_cell_angle_gamma 90.000000
_cell_volume 1184.182240
_symmetry_space_group_name_H-M "C 2"
_symmetry_group_IT_number 5
_symmetry_cell_setting 'monoclinic'
loop_
_space_group_symop_operation_xyz
x,y,z
-x,y,-z
1/2+x,1/2+y,z
1/2-x,1/2+y,-z
loop_
_atom_site_type_symbol
_atom_site_label
_atom_site_fract_x
_atom_site_fract_y
_atom_site_fract_z
Si Si1 0.984264 0.822910 0.094197
Si Si2 0.258664 0.905492 0.201794
Si Si3 0.634665 0.225683 0.557624
Si Si4 0.208331 0.553241 0.308237
Si Si5 0.920310 0.134912 0.627078
Si Si6 0.555325 0.770695 0.779894
O O1 0.801514 0.726480 0.239342
O O2 0.267674 0.807240 0.946107
O O3 0.854761 0.942904 0.191527
O O4 0.000000 0.808314 0.000000
O O5 0.324724 0.851636 0.236469
O O6 0.038547 0.827993 0.308051
O O7 0.171008 0.031865 0.268028
O O8 0.500000 0.899842 0.000000
O O9 0.452683 0.121348 0.649903
O O10 0.781557 0.267901 0.394768
O O11 0.839859 0.190458 0.485510
O O12 0.408779 0.644554 0.212401
O O13 0.000000 0.526660 0.500000
O O14 0.000000 0.093302 0.500000
#
# Coordination Sequence:
#
# PCOD9128088 Si02
#       6
#     4   4   4   4   4   4
#     4  12  25  41  66 103 132 170 225 282 327 387
#     4  11  26  45  71 100 133 179 222 274 336 397
#     4  10  23  47  70  94 134 180 222 270 334 401
#     4   9  22  43  69  93 128 178 218 270 335 393
#     4  12  27  43  69  99 138 176 228 274 335 390
#     4  10  23  46  69  94 139 174 222 270 336 397
#
# _framework density 20.267150999999998
#
# number of rings (size 3 to 8) (size 9 to 14) (size 15 to 20)
#    0.000    1.333    1.667    3.500    7.000    5.333 
#    0.000    0.000    0.000    0.000    0.000    0.000 
#    0.000    0.000    0.000    0.000    0.000    0.000 
#
# Total GULP energy -67132.705494 kJ/mol
# GULP energy per Si atom -5594.392124 kJ/mol
# Density = 2.022102 g / cm^3
# Si number density = 20.267151 Si / 1000 Ang^3
#
#
#
# Elastic Constant Matrix: (Units=GPa)
#
#
# Indices 1 2 3 4 5 6 
#
# 1 59.2701 -0.4178 25.0461 -0.0012 -16.3326 -0.0005
# 2 -0.4178 98.9905 63.3484 0.0058 -15.0747 0.0103
# 3 25.0461 63.3484 108.8256 -0.0877 -20.2599 -0.0136
# 4 -0.0012 0.0058 -0.0877 29.7874 0.0229 -8.1768
# 5 -16.3326 -15.0747 -20.2599 0.0229 38.9524 0.0025
# 6 -0.0005 0.0103 -0.0136 -8.1768 0.0025 3.6378
#
#
#
# Elastic Compliance Matrix: (Units=1/GPa)
#
#
# Indices 1 2 3 4 5 6 
#
# 1 0.022003 0.005727 -0.006939 -0.000101 0.007833 -0.000272
# 2 0.005727 0.017670 -0.010943 -0.000166 0.003548 -0.000466
# 3 -0.006939 -0.010943 0.017523 0.000203 0.001969 0.000550
# 4 -0.000101 -0.000166 0.000203 0.087661 -0.000065 0.197042
# 5 0.007833 0.003548 0.001969 -0.000065 0.031354 -0.000169
# 6 -0.000272 -0.000466 0.000550 0.197042 -0.000169 0.717798
#
#
# Mechanical properties :
#
#
# Convention : Reuss Voigt Hill
#
# Bulk Modulus (GPa) = 30.41039 49.22663 39.81851
# Shear Modulus (GPa) = 5.38050 26.41615 15.89832
#
# Velocity S-wave (km/s) = 1.63112 3.61418 2.80382
# Velocity P-wave (km/s) = 4.31100 6.46204 5.49285
#
# Compressibility (1/GPa) = 0.03288350
#
# Stress axis : x y z
#
# Youngs Moduli (GPa) = 45.44813 56.59456 57.06742
#
# Poissons Ratio (x) = -0.32409 0.39601
# Poissons Ratio (y) = -0.26026 0.62451
# Poissons Ratio (z) = 0.31538 0.61933
#
# Static dielectric constant tensor:
#      x y z
#    x 1.708390 0.000010 0.006810 
#    y 0.000010 1.692490 0.000000 
#    z 0.006810 0.000000 1.690600 
# 
# From -- ./inp_files/44654.got.cif
#   From: 2010.05.17/outbox.cif.g08.bks.cpg/sg5_23_cif.got.tgz:44654.got - 2010.06.03 18:56:24.
