data_PCOD9128324
_publ_section_title
;
Structure prediction by ZEFSAII (Michael W. Deem and Ramdas Pophale) SiO2 
 PCOD9128324
Probable space group: C 2
;
_chemical_formula_sum "Si O2"
_cell_formula_units_Z 26
_cell_length_a 14.314049
_cell_length_b 7.145289
_cell_length_c 10.049392
_cell_angle_alpha 90.000000
_cell_angle_beta 98.355949
_cell_angle_gamma 90.000000
_cell_volume 1016.920785
_symmetry_space_group_name_H-M "C 2"
_symmetry_group_IT_number 5
_symmetry_cell_setting 'monoclinic'
loop_
_space_group_symop_operation_xyz
x,y,z
-x,y,-z
1/2+x,1/2+y,z
1/2-x,1/2+y,-z
loop_
_atom_site_type_symbol
_atom_site_label
_atom_site_fract_x
_atom_site_fract_y
_atom_site_fract_z
Si Si1 0.367933 0.363400 0.796612
Si Si2 0.213736 0.947414 0.847599
Si Si3 0.334450 0.845044 0.097485
Si Si4 0.197495 0.551331 0.409917
Si Si5 0.863743 0.158230 0.608223
Si Si6 0.051997 0.670206 0.785614
Si Si7 0.000000 0.872245 0.500000
O O1 0.270933 0.367001 0.858336
O O2 0.341582 0.241728 0.659314
O O3 0.388641 0.576142 0.757583
O O4 0.463593 0.252464 0.851421
O O5 0.154639 0.122887 0.890876
O O6 0.237576 0.980810 0.698940
O O7 0.148807 0.768593 0.850817
O O8 0.312212 0.921792 0.945879
O O9 0.080776 0.454829 0.813516
O O10 0.126567 0.378521 0.414501
O O11 0.254948 0.606637 0.552065
O O12 0.921342 0.024231 0.523774
O O13 0.033587 0.743582 0.630702
#
# Coordination Sequence:
#
# PCOD9128324 Si02
#       7
#     4   4   4   4   4   4   2
#     4  10  25  40  66 101 131 182 231 283 352 415
#     4  11  23  43  71  99 133 184 236 281 355 425
#     4  11  24  45  73  97 139 190 227 293 357 415
#     4  11  22  41  64  95 134 180 233 280 350 421
#     4  11  21  40  65  92 137 179 223 291 340 420
#     4  11  23  45  68 104 143 176 240 288 350 427
#     4  10  24  42  66 104 144 178 230 294 352 430
#
# _framework density 25.567381000000001
#
# number of rings (size 3 to 8) (size 9 to 14) (size 15 to 20)
#    0.000    1.231    4.615    0.923    0.000    3.077 
#    0.000    1.538    6.769    0.000    0.000    0.000 
#    0.000    0.000    0.000    0.000    0.000    0.000 
#
# Total GULP energy -72622.350556 kJ/mol
# GULP energy per Si atom -5586.334658 kJ/mol
# Density = 2.550919 g / cm^3
# Si number density = 25.567381 Si / 1000 Ang^3
#
#
#
# Elastic Constant Matrix: (Units=GPa)
#
#
# Indices 1 2 3 4 5 6 
#
# 1 73.9318 -0.3226 9.4488 0.0000 1.4611 0.0000
# 2 -0.3226 126.7841 24.4481 0.0000 3.5582 0.0000
# 3 9.4488 24.4481 82.8351 0.0000 14.9041 0.0000
# 4 0.0000 0.0000 0.0000 29.3921 0.0000 3.8529
# 5 1.4611 3.5582 14.9041 0.0000 21.5132 0.0000
# 6 0.0000 0.0000 0.0000 3.8529 0.0000 35.6712
#
#
#
# Elastic Compliance Matrix: (Units=1/GPa)
#
#
# Indices 1 2 3 4 5 6 
#
# 1 0.013742 0.000359 -0.001708 0.000000 0.000190 0.000000
# 2 0.000359 0.008375 -0.002581 0.000000 0.000378 0.000000
# 3 -0.001708 -0.002581 0.014772 0.000000 -0.009691 0.000000
# 4 0.000000 0.000000 0.000000 0.034511 0.000000 -0.003728
# 5 0.000190 0.000378 -0.009691 0.000000 0.053122 0.000000
# 6 0.000000 0.000000 0.000000 -0.003728 0.000000 0.028436
#
#
# Mechanical properties :
#
#
# Convention : Reuss Voigt Hill
#
# Bulk Modulus (GPa) = 34.44668 38.96662 36.70665
# Shear Modulus (GPa) = 29.32624 33.98040 31.65332
#
# Velocity S-wave (km/s) = 3.39044 3.64957 3.52239
# Velocity P-wave (km/s) = 5.36926 5.74744 5.56156
#
# Compressibility (1/GPa) = 0.02903037
#
# Stress axis : x y z
#
# Youngs Moduli (GPa) = 72.76944 119.39711 67.69363
#
# Poissons Ratio (x) = -0.04285 0.11560
# Poissons Ratio (y) = -0.02612 0.17471
# Poissons Ratio (z) = 0.12427 0.30816
#
# Static dielectric constant tensor:
#      x y z
#    x 2.068380 0.000000 -0.046960 
#    y 0.000000 1.973680 0.000000 
#    z -0.046960 0.000000 2.111270 
# 
# From -- ./inp_files/43990.got.cif
#   From: 2010.05.17/outbox.cif.g08.bks.cpg/sg5_22_cif.got.tgz:43990.got - 2010.06.03 18:56:24.
