data_PCOD9128500
_publ_section_title
;
Structure prediction by ZEFSAII (Michael W. Deem and Ramdas Pophale) SiO2 
 PCOD9128500
Probable space group: C 2
;
_chemical_formula_sum "Si O2"
_cell_formula_units_Z 30
_cell_length_a 13.996527
_cell_length_b 5.770040
_cell_length_c 16.295337
_cell_angle_alpha 90.000000
_cell_angle_beta 99.892113
_cell_angle_gamma 90.000000
_cell_volume 1296.454611
_symmetry_space_group_name_H-M "C 2"
_symmetry_group_IT_number 5
_symmetry_cell_setting 'monoclinic'
loop_
_space_group_symop_operation_xyz
x,y,z
-x,y,-z
1/2+x,1/2+y,z
1/2-x,1/2+y,-z
loop_
_atom_site_type_symbol
_atom_site_label
_atom_site_fract_x
_atom_site_fract_y
_atom_site_fract_z
Si Si1 0.297762 0.321920 0.023036
Si Si2 0.296025 0.367242 0.534950
Si Si3 0.933413 0.305760 0.783323
Si Si4 0.393525 0.190333 0.878107
Si Si5 0.056245 0.586684 0.679926
Si Si6 0.725796 0.422438 0.278180
Si Si7 0.500000 0.251028 0.500000
Si Si8 0.574595 0.425393 0.815787
O O1 0.330329 0.364333 0.120927
O O2 0.254158 0.571267 0.989938
O O3 0.380326 0.278746 0.966929
O O4 0.254632 0.119711 0.492022
O O5 0.293442 0.331419 0.632876
O O6 0.406010 0.389479 0.517646
O O7 0.901423 0.417930 0.864368
O O8 0.846683 0.142149 0.741264
O O9 0.965649 0.475763 0.714849
O O10 0.035703 0.182085 0.815890
O O11 0.307417 0.267190 0.803713
O O12 0.490862 0.287253 0.852041
O O13 0.160185 0.470434 0.710494
O O14 0.033993 0.598695 0.581630
O O15 0.070776 0.841317 0.721948
#
# Coordination Sequence:
#
# PCOD9128500 Si02
#       8
#     4   4   4   4   4   4   2   4
#     4  12  29  46  73 113 151 194 254 309 376 459
#     4  12  29  50  74 114 151 204 258 319 387 461
#     4  10  24  44  77 103 148 198 256 307 390 455
#     4  10  24  45  71 105 145 197 248 311 376 456
#     4  11  25  45  73 110 146 202 254 322 382 462
#     4  11  25  45  74 106 150 196 257 317 387 452
#     4  12  26  48  76 112 158 202 268 320 392 460
#     4  10  24  47  70 106 146 197 250 310 384 449
#
# _framework density 23.140032000000001
#
# number of rings (size 3 to 8) (size 9 to 14) (size 15 to 20)
#    0.000    1.067    1.333    3.600   14.933    2.667 
#    0.000    0.000    0.000    0.000    0.000    0.000 
#    0.000    0.000    0.000    0.000    0.000    0.000 
#
# Total GULP energy -83719.260316 kJ/mol
# GULP energy per Si atom -5581.284021 kJ/mol
# Density = 2.308736 g / cm^3
# Si number density = 23.140032 Si / 1000 Ang^3
#
#
#
# Elastic Constant Matrix: (Units=GPa)
#
#
# Indices 1 2 3 4 5 6 
#
# 1 109.8057 30.0082 2.9071 0.0000 -1.8212 0.0000
# 2 30.0082 93.0284 28.5547 0.0000 9.2780 0.0000
# 3 2.9071 28.5547 91.2863 0.0000 10.9379 0.0000
# 4 0.0000 0.0000 0.0000 -26.9846 0.0000 -62.2424
# 5 -1.8212 9.2780 10.9379 0.0000 23.0416 0.0000
# 6 0.0000 0.0000 0.0000 -62.2424 0.0000 -26.0886
#
#
#
# Elastic Compliance Matrix: (Units=1/GPa)
#
#
# Indices 1 2 3 4 5 6 
#
# 1 0.010120 -0.003640 0.000578 0.000000 0.001991 0.000000
# 2 -0.003640 0.013428 -0.003607 0.000000 -0.003982 0.000000
# 3 0.000578 -0.003607 0.012602 0.000000 -0.004484 0.000000
# 4 0.000000 0.000000 0.000000 0.008230 0.000000 -0.019634
# 5 0.001991 -0.003982 -0.004484 0.000000 0.047289 0.000000
# 6 0.000000 0.000000 0.000000 -0.019634 0.000000 0.008512
#
#
# Mechanical properties :
#
#
# Convention : Reuss Voigt Hill
#
# Bulk Modulus (GPa) = 43.84041 46.34005 45.09023
# Shear Modulus (GPa) = 41.28041 9.50371 25.39206
#
# Velocity S-wave (km/s) = 4.22825 2.02878 3.31618
# Velocity P-wave (km/s) = 6.54403 5.05543 5.84729
#
# Compressibility (1/GPa) = 0.02281000
#
# Stress axis : x y z
#
# Youngs Moduli (GPa) = 98.81869 74.47108 79.35399
#
# Poissons Ratio (x) = 0.27109 -0.04585
# Poissons Ratio (y) = 0.35972 0.28625
# Poissons Ratio (z) = -0.05710 0.26864
#
# Static dielectric constant tensor:
#      x y z
#    x 1.922990 0.000000 -0.000550 
#    y 0.000000 2.081190 0.000000 
#    z -0.000550 0.000000 1.842250 
# 
# From -- ./inp_files/61240.got.cif
#   From: 2010.05.17/outbox.cif.g08.bks.cpg/sg5_31_cif.got.tgz:61240.got - 2010.06.03 18:56:24.
