data_PCOD9128481
_publ_section_title
;
Structure prediction by ZEFSAII (Michael W. Deem and Ramdas Pophale) SiO2 
 PCOD9128481
Probable space group: C 2
;
_chemical_formula_sum "Si O2"
_cell_formula_units_Z 28
_cell_length_a 27.458902
_cell_length_b 8.656381
_cell_length_c 7.984104
_cell_angle_alpha 90.000000
_cell_angle_beta 42.506196
_cell_angle_gamma 90.000000
_cell_volume 1282.272444
_symmetry_space_group_name_H-M "C 2"
_symmetry_group_IT_number 5
_symmetry_cell_setting 'monoclinic'
loop_
_space_group_symop_operation_xyz
x,y,z
-x,y,-z
1/2+x,1/2+y,z
1/2-x,1/2+y,-z
loop_
_atom_site_type_symbol
_atom_site_label
_atom_site_fract_x
_atom_site_fract_y
_atom_site_fract_z
Si Si1 0.124856 0.697730 0.291425
Si Si2 0.147739 0.034404 0.118441
Si Si3 0.791175 0.541608 0.236996
Si Si4 0.000000 0.210227 0.000000
Si Si5 0.194398 0.527715 0.419609
Si Si6 0.000000 0.516276 0.500000
Si Si7 0.646012 0.677083 0.475267
Si Si8 0.597977 0.795028 0.045467
O O1 0.165688 0.647505 0.355057
O O2 0.045598 0.624777 0.505209
O O3 0.119935 0.878228 0.270383
O O4 0.167300 0.628504 0.020246
O O5 0.157809 0.151549 0.248113
O O6 0.098737 0.120681 0.107784
O O7 0.222448 0.999783 0.837122
O O8 0.811865 0.588515 0.374352
O O9 0.707385 0.577928 0.415534
O O10 0.820848 0.364209 0.164752
O O11 0.064887 0.128615 0.733221
O O12 0.951992 0.304981 0.990100
O O13 0.157737 0.359157 0.485149
O O14 0.942101 0.404164 0.724941
#
# Coordination Sequence:
#
# PCOD9128481 Si02
#       8
#     4   4   4   2   4   2   4   4
#     4  11  25  46  69 107 146 194 246 311 376 444
#     4  12  25  43  77 103 148 190 251 308 374 444
#     4  11  24  44  72 109 144 194 253 310 369 446
#     4  12  24  46  68 110 146 198 246 314 366 458
#     4  12  23  44  73 106 146 191 245 311 367 444
#     4  10  24  44  72  94 146 194 248 302 388 440
#     4  12  25  44  73 109 149 197 254 307 378 450
#     4  11  24  44  74 106 146 199 255 308 380 453
#
# _framework density 21.836231999999999
#
# number of rings (size 3 to 8) (size 9 to 14) (size 15 to 20)
#    0.000    0.571    4.286    4.286    2.000    1.714 
#    2.571    0.000    0.000    0.000    0.000    0.000 
#    0.000    0.000    0.000    0.000    0.000    0.000 
#
# Total GULP energy -78149.041036 kJ/mol
# GULP energy per Si atom -5582.074360 kJ/mol
# Density = 2.178653 g / cm^3
# Si number density = 21.836232 Si / 1000 Ang^3
#
#
#
# Elastic Constant Matrix: (Units=GPa)
#
#
# Indices 1 2 3 4 5 6 
#
# 1 58.9134 49.2052 29.2886 0.0000 0.9691 0.0000
# 2 49.2052 84.0494 22.9583 0.0000 -9.9776 0.0000
# 3 29.2886 22.9583 94.0021 0.0000 -2.8446 0.0000
# 4 0.0000 0.0000 0.0000 18.6073 0.0000 -8.6881
# 5 0.9691 -9.9776 -2.8446 0.0000 43.1490 0.0000
# 6 0.0000 0.0000 0.0000 -8.6881 0.0000 27.8395
#
#
#
# Elastic Compliance Matrix: (Units=1/GPa)
#
#
# Indices 1 2 3 4 5 6 
#
# 1 0.038267 -0.021252 -0.006921 0.000000 -0.006230 0.000000
# 2 -0.021252 0.024884 0.000734 0.000000 0.006280 0.000000
# 3 -0.006921 0.000734 0.012650 0.000000 0.001159 0.000000
# 4 0.000000 0.000000 0.000000 0.062909 0.000000 0.019633
# 5 -0.006230 0.006280 0.001159 0.000000 0.024844 0.000000
# 6 0.000000 0.000000 0.000000 0.019633 0.000000 0.042047
#
#
# Mechanical properties :
#
#
# Convention : Reuss Voigt Hill
#
# Bulk Modulus (GPa) = 47.79264 48.87436 48.33350
# Shear Modulus (GPa) = 18.69477 26.95335 22.82406
#
# Velocity S-wave (km/s) = 2.92915 3.51713 3.23652
# Velocity P-wave (km/s) = 5.77705 6.23894 6.01243
#
# Compressibility (1/GPa) = 0.02092372
#
# Stress axis : x y z
#
# Youngs Moduli (GPa) = 26.13209 40.18610 79.04938
#
# Poissons Ratio (x) = 0.85403 0.54711
# Poissons Ratio (y) = 0.55535 -0.05802
# Poissons Ratio (z) = 0.18086 -0.02950
#
# Static dielectric constant tensor:
#      x y z
#    x 1.812700 0.000000 0.007880 
#    y 0.000000 1.813210 0.000000 
#    z 0.007880 0.000000 1.908230 
# 
# From -- ./inp_files/32500.got.cif
#   From: 2010.05.17/outbox.cif.g08.bks.cpg/sg5_17_cif.got.tgz:32500.got - 2010.06.03 18:56:24.
