data_PCOD9128114
_publ_section_title
;
Structure prediction by ZEFSAII (Michael W. Deem and Ramdas Pophale) SiO2 
 PCOD9128114
Probable space group: C 2
;
_chemical_formula_sum "Si O2"
_cell_formula_units_Z 26
_cell_length_a 17.163864
_cell_length_b 11.147210
_cell_length_c 11.016886
_cell_angle_alpha 90.000000
_cell_angle_beta 149.299927
_cell_angle_gamma 90.000000
_cell_volume 1076.151192
_symmetry_space_group_name_H-M "C 2"
_symmetry_group_IT_number 5
_symmetry_cell_setting 'monoclinic'
loop_
_space_group_symop_operation_xyz
x,y,z
-x,y,-z
1/2+x,1/2+y,z
1/2-x,1/2+y,-z
loop_
_atom_site_type_symbol
_atom_site_label
_atom_site_fract_x
_atom_site_fract_y
_atom_site_fract_z
Si Si1 0.818359 0.137890 0.641554
Si Si2 0.570757 0.400621 0.726346
Si Si3 0.588961 0.926398 0.864298
Si Si4 0.000000 0.353082 0.000000
Si Si5 0.705464 0.775258 0.626222
Si Si6 0.977127 0.656730 0.614198
Si Si7 0.000000 0.124666 0.500000
Si Si8 0.000000 0.937805 0.000000
O O1 0.763021 0.173529 0.434189
O O2 0.684951 0.107974 0.556774
O O3 0.884600 0.261849 0.781800
O O4 0.940273 0.029959 0.815449
O O5 0.500000 0.371989 0.500000
O O6 0.493441 0.290643 0.693203
O O7 0.535445 0.542423 0.667558
O O8 0.749831 0.374287 0.962026
O O9 0.443124 0.854216 0.615785
O O10 0.591686 0.062341 0.824594
O O11 0.577472 0.924071 0.994886
O O12 0.643988 0.705974 0.660713
O O13 0.854581 0.857111 0.840080
O O14 0.000000 0.645008 0.500000
#
# Coordination Sequence:
#
# PCOD9128114 Si02
#       8
#     4   4   4   2   4   4   2   2
#     4  10  23  46  74 107 151 205 254 311 392 466
#     4   9  23  44  67 100 143 195 242 306 373 449
#     4  11  23  42  72 106 143 195 251 322 374 464
#     4   9  20  40  69  98 148 187 251 312 386 454
#     4  11  26  48  76 113 151 201 253 323 392 454
#     4  11  23  44  71 107 144 197 255 307 386 461
#     4  10  26  50  66 108 154 192 254 316 376 456
#     4  11  24  52  77 112 156 205 253 328 386 472
#
# _framework density 24.160174999999999
#
# number of rings (size 3 to 8) (size 9 to 14) (size 15 to 20)
#    0.462    1.231    1.538    1.846    3.231    3.692 
#    5.538    0.000    0.000    0.000    0.000    0.000 
#    0.000    0.000    0.000    0.000    0.000    0.000 
#
# Total GULP energy -72484.768481 kJ/mol
# GULP energy per Si atom -5575.751422 kJ/mol
# Density = 2.410519 g / cm^3
# Si number density = 24.160175 Si / 1000 Ang^3
#
#
#
# Elastic Constant Matrix: (Units=GPa)
#
#
# Indices 1 2 3 4 5 6 
#
# 1 93.9799 51.5931 31.9512 0.0000 3.9833 0.0000
# 2 51.5931 132.9393 48.4847 0.0000 -1.7545 0.0000
# 3 31.9512 48.4847 104.9920 0.0000 28.1194 0.0000
# 4 0.0000 0.0000 0.0000-1721.7515 0.0000 -30.5517
# 5 3.9833 -1.7545 28.1194 0.0000 35.4140 0.0000
# 6 0.0000 0.0000 0.0000 -30.5517 0.0000 8.0004
#
#
#
# Elastic Compliance Matrix: (Units=1/GPa)
#
#
# Indices 1 2 3 4 5 6 
#
# 1 0.013893 -0.004654 -0.002030 0.000000 -0.000181 0.000000
# 2 -0.004654 0.011291 -0.005192 0.000000 0.005205 0.000000
# 3 -0.002030 -0.005192 0.015937 0.000000 -0.012683 0.000000
# 4 0.000000 0.000000 0.000000 -0.000544 0.000000 -0.002077
# 5 -0.000181 0.005205 -0.012683 0.000000 0.038586 0.000000
# 6 0.000000 0.000000 0.000000 -0.002077 0.000000 0.117062
#
#
# Mechanical properties :
#
#
# Convention : Reuss Voigt Hill
#
# Bulk Modulus (GPa) = 57.57481 66.21880 61.89680
# Shear Modulus (GPa) = 22.14682 -322.34193 -150.09756
#
# Velocity S-wave (km/s) = 3.03093 -11.56323 -7.89056
# Velocity P-wave (km/s) = 6.01090 12.28047 7.57229
#
# Compressibility (1/GPa) = 0.01736871
#
# Stress axis : x y z
#
# Youngs Moduli (GPa) = 71.97655 88.56975 62.74818
#
# Poissons Ratio (x) = 0.41219 0.12741
# Poissons Ratio (y) = 0.33497 0.32577
# Poissons Ratio (z) = 0.14614 0.45983
#
# Static dielectric constant tensor:
#      x y z
#    x 18.145670 0.000000 5.831200 
#    y 0.000000 2.072430 0.000000 
#    z 5.831200 0.000000 4.025480 
# 
# From -- ./inp_files/44757.got.cif
#   From: 2010.05.17/outbox.cif.g08.bks.cpg/sg5_23_cif.got.tgz:44757.got - 2010.06.03 18:56:24.
