data_PCOD9128313
_publ_section_title
;
Structure prediction by ZEFSAII (Michael W. Deem and Ramdas Pophale) SiO2 
 PCOD9128313
Probable space group: C 2
;
_chemical_formula_sum "Si O2"
_cell_formula_units_Z 22
_cell_length_a 12.881560
_cell_length_b 11.018874
_cell_length_c 11.216812
_cell_angle_alpha 90.000000
_cell_angle_beta 39.318513
_cell_angle_gamma 90.000000
_cell_volume 1008.814814
_symmetry_space_group_name_H-M "C 2"
_symmetry_group_IT_number 5
_symmetry_cell_setting 'monoclinic'
loop_
_space_group_symop_operation_xyz
x,y,z
-x,y,-z
1/2+x,1/2+y,z
1/2-x,1/2+y,-z
loop_
_atom_site_type_symbol
_atom_site_label
_atom_site_fract_x
_atom_site_fract_y
_atom_site_fract_z
Si Si1 0.381712 0.080710 0.900698
Si Si2 0.685341 0.245832 0.709655
Si Si3 0.112326 0.364910 0.668931
Si Si4 0.930772 0.152789 0.936445
Si Si5 0.186373 0.002606 0.312837
Si Si6 0.500000 0.423442 0.000000
O O1 0.268293 0.024933 0.109038
O O2 0.514980 0.176568 0.831033
O O3 0.261432 0.146171 0.915043
O O4 0.486055 0.972101 0.749564
O O5 0.748776 0.330302 0.547900
O O6 0.804024 0.136189 0.636378
O O7 0.654138 0.337008 0.846237
O O8 0.196306 0.413878 0.715577
O O9 0.012929 0.240022 0.769720
O O10 0.985832 0.012469 0.899413
O O11 0.000000 0.201939 0.000000
O O12 0.000000 0.960388 0.500000
#
# Coordination Sequence:
#
# PCOD9128313 Si02
#       6
#     4   4   4   4   4   2
#     4  11  24  44  71  94 134 183 219 274 334 396
#     4  11  23  44  67  99 134 173 223 274 331 406
#     4  11  25  42  67 102 136 168 227 277 331 399
#     4  10  25  41  66  94 134 173 221 273 341 377
#     4  11  24  43  70 101 129 182 226 269 330 401
#     4  10  24  42  64  92 134 170 216 276 328 396
#
# _framework density 21.807767999999999
#
# number of rings (size 3 to 8) (size 9 to 14) (size 15 to 20)
#    0.545    0.727    1.818    3.818   10.182    2.909 
#    0.000    1.818    0.000    0.000    0.000    0.000 
#    0.000    0.000    0.000    0.000    0.000    0.000 
#
# Total GULP energy -61319.279940 kJ/mol
# GULP energy per Si atom -5574.479995 kJ/mol
# Density = 2.175813 g / cm^3
# Si number density = 21.807768 Si / 1000 Ang^3
#
#
#
# Elastic Constant Matrix: (Units=GPa)
#
#
# Indices 1 2 3 4 5 6 
#
# 1 61.9486 12.9524 14.9957 0.0000 -23.8803 0.0000
# 2 12.9524 117.2488 53.6302 0.0000 -0.6979 0.0000
# 3 14.9957 53.6302 89.7060 0.0000 -12.8123 0.0000
# 4 0.0000 0.0000 0.0000 32.8034 0.0000 3.0030
# 5 -23.8803 -0.6979 -12.8123 0.0000 32.7617 0.0000
# 6 0.0000 0.0000 0.0000 3.0030 0.0000 -1.4865
#
#
#
# Elastic Compliance Matrix: (Units=1/GPa)
#
#
# Indices 1 2 3 4 5 6 
#
# 1 0.023137 -0.002457 0.000003 0.000000 0.016813 0.000000
# 2 -0.002457 0.012220 -0.007534 0.000000 -0.004477 0.000000
# 3 0.000003 -0.007534 0.016553 0.000000 0.006315 0.000000
# 4 0.000000 0.000000 0.000000 0.025727 0.000000 0.051973
# 5 0.016813 -0.004477 0.006315 0.000000 0.045153 0.000000
# 6 0.000000 0.000000 0.000000 0.051973 0.000000 -0.567723
#
#
# Mechanical properties :
#
#
# Convention : Reuss Voigt Hill
#
# Bulk Modulus (GPa) = 31.31586 48.00667 39.66126
# Shear Modulus (GPa) = -12.06822 25.30407 6.61792
#
# Velocity S-wave (km/s) = -2.35498 3.41005 1.74392
# Velocity P-wave (km/s) = 2.64510 6.12910 4.72030
#
# Compressibility (1/GPa) = 0.03193270
#
# Stress axis : x y z
#
# Youngs Moduli (GPa) = 43.22109 81.83386 60.41067
#
# Poissons Ratio (x) = 0.20107 -0.00016
# Poissons Ratio (y) = 0.10620 0.45515
# Poissons Ratio (z) = -0.00011 0.61656
#
# Static dielectric constant tensor:
#      x y z
#    x 1.844160 0.000000 0.006090 
#    y 0.000000 1.773640 0.000000 
#    z 0.006090 0.000000 1.867830 
# 
# From -- ./inp_files/42650.got.cif
#   From: 2010.05.17/outbox.cif.g08.bks.cpg/sg5_22_cif.got.tgz:42650.got - 2010.06.03 18:56:24.
