data_PCOD9128555
_publ_section_title
;
Structure prediction by ZEFSAII (Michael W. Deem and Ramdas Pophale) SiO2 
 PCOD9128555
Probable space group: C 2
;
_chemical_formula_sum "Si O2"
_cell_formula_units_Z 28
_cell_length_a 29.493338
_cell_length_b 7.759858
_cell_length_c 5.042662
_cell_angle_alpha 90.000000
_cell_angle_beta 76.323801
_cell_angle_gamma 90.000000
_cell_volume 1121.363106
_symmetry_space_group_name_H-M "C 2"
_symmetry_group_IT_number 5
_symmetry_cell_setting 'monoclinic'
loop_
_space_group_symop_operation_xyz
x,y,z
-x,y,-z
1/2+x,1/2+y,z
1/2-x,1/2+y,-z
loop_
_atom_site_type_symbol
_atom_site_label
_atom_site_fract_x
_atom_site_fract_y
_atom_site_fract_z
Si Si1 0.142850 0.726140 0.468917
Si Si2 0.920559 0.626464 0.103632
Si Si3 0.716805 0.504729 0.267106
Si Si4 0.587320 0.461321 0.147126
Si Si5 0.969117 0.297592 0.789937
Si Si6 0.170405 0.131969 0.804185
Si Si7 0.673825 0.013894 0.942854
O O1 0.085030 0.643950 0.580845
O O2 0.120920 0.888387 0.326058
O O3 0.162532 0.575325 0.249719
O O4 0.194556 0.832372 0.427415
O O5 0.938966 0.797870 0.943246
O O6 0.939232 0.456303 0.949795
O O7 0.860220 0.640802 0.191748
O O8 0.694822 0.648468 0.488694
O O9 0.703102 0.542727 0.980944
O O10 0.772440 0.516248 0.202077
O O11 0.558692 0.628491 0.264529
O O12 0.622870 0.523784 0.867064
O O13 0.000000 0.356871 0.500000
O O14 0.000000 0.241980 0.000000
O O15 0.157507 0.321371 0.919236
#
# Coordination Sequence:
#
# PCOD9128555 Si02
#       7
#     4   4   4   4   4   4   4
#     4  10  24  45  74 105 152 204 250 298 368 440
#     4  11  25  48  78 107 150 201 241 306 380 446
#     4  11  25  41  66 106 152 198 259 298 357 416
#     4  10  24  49  75 106 147 196 240 304 380 446
#     4  12  31  51  81 116 145 183 251 314 384 461
#     4  11  24  43  68 103 143 201 247 306 357 434
#     4  11  25  39  70 104 153 198 254 302 358 425
#
# _framework density 24.969608999999998
#
# number of rings (size 3 to 8) (size 9 to 14) (size 15 to 20)
#    0.000    1.143    2.857    0.857   12.000    1.143 
#    0.000    0.000    0.000    0.000    0.000    0.000 
#    0.000    0.000    0.000    0.000    0.000    0.000 
#
# Total GULP energy -78014.095313 kJ/mol
# GULP energy per Si atom -5572.435379 kJ/mol
# Density = 2.491278 g / cm^3
# Si number density = 24.969609 Si / 1000 Ang^3
#
#
#
# Elastic Constant Matrix: (Units=GPa)
#
#
# Indices 1 2 3 4 5 6 
#
# 1 45.0526 26.9786 20.7363 0.0000 -6.3546 0.0000
# 2 26.9786 164.4671 37.5911 0.0000 -18.9194 0.0000
# 3 20.7363 37.5911 136.0459 0.0000 -17.8579 0.0000
# 4 0.0000 0.0000 0.0000 41.6725 0.0000 1.2346
# 5 -6.3546 -18.9194 -17.8579 0.0000 31.4864 0.0000
# 6 0.0000 0.0000 0.0000 1.2346 0.0000 23.7618
#
#
#
# Elastic Compliance Matrix: (Units=1/GPa)
#
#
# Indices 1 2 3 4 5 6 
#
# 1 0.025735 -0.003406 -0.002775 0.000000 0.001573 0.000000
# 2 -0.003406 0.007237 -0.001080 0.000000 0.003048 0.000000
# 3 -0.002775 -0.001080 0.008550 0.000000 0.003640 0.000000
# 4 0.000000 0.000000 0.000000 0.024034 0.000000 -0.001249
# 5 0.001573 0.003048 0.003640 0.000000 0.035973 0.000000
# 6 0.000000 0.000000 0.000000 -0.001249 0.000000 0.042149
#
#
# Mechanical properties :
#
#
# Convention : Reuss Voigt Hill
#
# Bulk Modulus (GPa) = 37.03897 57.35305 47.19601
# Shear Modulus (GPa) = 29.90433 36.73477 33.31955
#
# Velocity S-wave (km/s) = 3.46443 3.83976 3.65691
# Velocity P-wave (km/s) = 5.55598 6.53279 6.06408
#
# Compressibility (1/GPa) = 0.02699859
#
# Stress axis : x y z
#
# Youngs Moduli (GPa) = 38.85736 138.18754 116.96341
#
# Poissons Ratio (x) = 0.47071 0.32456
# Poissons Ratio (y) = 0.13236 0.12635
# Poissons Ratio (z) = 0.10782 0.14928
#
# Static dielectric constant tensor:
#      x y z
#    x 2.185420 0.000000 -0.014020 
#    y 0.000000 2.051450 0.000000 
#    z -0.014020 0.000000 1.932270 
# 
# From -- ./inp_files/11191.got.cif
#   From: 2010.05.17/outbox.cif.g08.bks.cpg/sg5_6_cif.got.tgz:11191.got - 2010.06.03 18:56:24.
