data_PCOD9128182
_publ_section_title
;
Structure prediction by ZEFSAII (Michael W. Deem and Ramdas Pophale) SiO2 
 PCOD9128182
Probable space group: C 2
;
_chemical_formula_sum "Si O2"
_cell_formula_units_Z 32
_cell_length_a 14.997976
_cell_length_b 23.234432
_cell_length_c 8.706342
_cell_angle_alpha 90.000000
_cell_angle_beta 31.285641
_cell_angle_gamma 90.000000
_cell_volume 1575.516320
_symmetry_space_group_name_H-M "C 2"
_symmetry_group_IT_number 5
_symmetry_cell_setting 'monoclinic'
loop_
_space_group_symop_operation_xyz
x,y,z
-x,y,-z
1/2+x,1/2+y,z
1/2-x,1/2+y,-z
loop_
_atom_site_type_symbol
_atom_site_label
_atom_site_fract_x
_atom_site_fract_y
_atom_site_fract_z
Si Si1 0.312167 0.947290 0.330049
Si Si2 0.977054 0.752428 0.715652
Si Si3 0.682880 0.693127 0.669016
Si Si4 0.631419 0.574015 0.924176
Si Si5 0.371433 0.551824 0.565193
Si Si6 0.518765 0.376889 0.156690
Si Si7 0.688404 0.673954 0.294640
Si Si8 0.822615 0.463917 0.679416
O O1 0.327934 0.955640 0.488998
O O2 0.162780 0.901519 0.518773
O O3 0.248615 0.006142 0.341664
O O4 0.500000 0.929951 0.000000
O O5 0.938633 0.817046 0.826587
O O6 0.000000 0.748951 0.500000
O O7 0.157321 0.731665 0.520196
O O8 0.827878 0.711332 0.999667
O O9 0.693004 0.630781 0.743394
O O10 0.688186 0.687999 0.476850
O O11 0.500000 0.716295 0.000000
O O12 0.776095 0.531010 0.767196
O O13 0.500000 0.541623 0.000000
O O14 0.503744 0.583386 0.253483
O O15 0.500000 0.524025 0.500000
O O16 0.269388 0.605807 0.784518
O O17 0.500000 0.368800 0.000000
O O18 0.665794 0.424527 0.968378
O O19 0.500000 0.683882 0.500000
O O20 0.000000 0.449362 0.500000
#
# Coordination Sequence:
#
# PCOD9128182 Si02
#       8
#     4   4   4   4   4   4   4   4
#     4  11  24  41  66 102 131 170 221 271 333 397
#     4  12  28  44  69  99 131 179 229 275 330 402
#     4  11  22  42  69  96 136 176 218 275 332 392
#     4  11  19  42  66  97 139 178 211 269 334 393
#     4  11  23  39  67  98 141 179 212 272 335 394
#     4  10  23  49  69  88 133 176 222 281 334 385
#     4  11  23  43  67  98 135 176 223 272 330 396
#     4  11  23  40  70  99 130 176 219 270 332 400
#
# _framework density 20.310803
#
# number of rings (size 3 to 8) (size 9 to 14) (size 15 to 20)
#    0.000    1.000    5.000    2.250    3.500    5.000 
#    0.000    2.500    0.000    0.000    0.000    0.000 
#    0.000    0.000    0.000    0.000    0.000    0.000 
#
# Total GULP energy -89380.174515 kJ/mol
# GULP energy per Si atom -5586.260907 kJ/mol
# Density = 2.026458 g / cm^3
# Si number density = 20.310803 Si / 1000 Ang^3
#
#
#
# Elastic Constant Matrix: (Units=GPa)
#
#
# Indices 1 2 3 4 5 6 
#
# 1 113.7202 25.6226 28.6974 0.0001 -8.5773 0.0002
# 2 25.6226 79.3923 47.2662 0.0000 1.4946 0.0000
# 3 28.6974 47.2662 119.2194 0.0003 -5.9709 0.0004
# 4 0.0001 0.0000 0.0003 19.9124 -0.0003 -4.5598
# 5 -8.5773 1.4946 -5.9709 -0.0003 31.2176 -0.0003
# 6 0.0002 0.0000 0.0004 -4.5598 -0.0003 14.5342
#
#
#
# Elastic Compliance Matrix: (Units=1/GPa)
#
#
# Indices 1 2 3 4 5 6 
#
# 1 0.009866 -0.002482 -0.001261 0.000000 0.002588 0.000000
# 2 -0.002482 0.017244 -0.006376 0.000000 -0.002727 0.000000
# 3 -0.001261 -0.006376 0.011326 0.000000 0.002125 0.000000
# 4 0.000000 0.000000 0.000000 0.054107 0.000001 0.016975
# 5 0.002588 -0.002727 0.002125 0.000001 0.033281 0.000001
# 6 0.000000 0.000000 0.000000 0.016975 0.000001 0.074129
#
#
# Mechanical properties :
#
#
# Convention : Reuss Voigt Hill
#
# Bulk Modulus (GPa) = 54.95165 57.27825 56.11495
# Shear Modulus (GPa) = 22.09876 27.18255 24.64066
#
# Velocity S-wave (km/s) = 3.30211 3.66229 3.48685
# Velocity P-wave (km/s) = 6.45389 6.79303 6.62563
#
# Compressibility (1/GPa) = 0.01819782
#
# Stress axis : x y z
#
# Youngs Moduli (GPa) = 101.35559 57.99188 88.29527
#
# Poissons Ratio (x) = 0.14394 0.11136
# Poissons Ratio (y) = 0.25157 0.56294
# Poissons Ratio (z) = 0.12783 0.36974
#
# Static dielectric constant tensor:
#      x y z
#    x 1.742830 0.000000 0.035130 
#    y 0.000000 1.719440 0.000000 
#    z 0.035130 0.000000 1.742790 
# 
# From -- ./inp_files/25571.got.cif
#   From: 2010.05.17/outbox.cif.g08.bks.cpg/sg5_13_cif.got.tgz:25571.got - 2010.06.03 18:56:24.
