data_PCOD9128806
_publ_section_title
;
Structure prediction by ZEFSAII (Michael W. Deem and Ramdas Pophale) SiO2 
 PCOD9128806
Probable space group: C 2
;
_chemical_formula_sum "Si O2"
_cell_formula_units_Z 28
_cell_length_a 12.742937
_cell_length_b 9.163009
_cell_length_c 15.181167
_cell_angle_alpha 90.000000
_cell_angle_beta 54.993522
_cell_angle_gamma 90.000000
_cell_volume 1451.920845
_symmetry_space_group_name_H-M "C 2"
_symmetry_group_IT_number 5
_symmetry_cell_setting 'monoclinic'
loop_
_space_group_symop_operation_xyz
x,y,z
-x,y,-z
1/2+x,1/2+y,z
1/2-x,1/2+y,-z
loop_
_atom_site_type_symbol
_atom_site_label
_atom_site_fract_x
_atom_site_fract_y
_atom_site_fract_z
Si Si1 0.289430 0.866810 0.129789
Si Si2 0.881278 0.375349 0.624597
Si Si3 0.915021 0.118990 0.750850
Si Si4 0.808686 0.743823 0.408856
Si Si5 0.415543 0.109307 0.755211
Si Si6 0.605043 0.485237 0.526531
Si Si7 0.463743 0.855186 0.872177
O O1 0.194237 0.729327 0.180957
O O2 0.392804 0.869828 0.158900
O O3 0.204117 0.012744 0.174892
O O4 0.369137 0.854884 0.001106
O O5 0.885868 0.241092 0.690764
O O6 0.753610 0.357088 0.629496
O O7 0.892535 0.520997 0.675979
O O8 0.000000 0.364972 0.500000
O O9 0.952079 0.208367 0.820058
O O10 0.027889 0.024389 0.652691
O O11 0.709307 0.610468 0.460968
O O12 0.946435 0.685350 0.315395
O O13 0.825477 0.831054 0.492048
O O14 0.423974 0.989899 0.828807
O O15 0.500000 0.479664 0.500000
#
# Coordination Sequence:
#
# PCOD9128806 Si02
#       7
#     4   4   4   4   4   4   4
#     4  11  23  45  64  96 123 161 224 260 319 376
#     4  11  22  43  59  91 133 167 205 254 308 373
#     4  11  21  43  67  90 129 167 207 262 315 372
#     4  12  24  40  63  90 131 169 205 252 309 370
#     4  11  25  40  64  97 124 164 213 257 315 378
#     4  12  26  41  63  96 131 169 212 254 307 383
#     4  10  25  42  69  90 126 168 204 275 323 366
#
# _framework density 19.284797000000001
#
# number of rings (size 3 to 8) (size 9 to 14) (size 15 to 20)
#    0.000    0.857    4.286    2.571    4.000    1.714 
#    0.000    0.000    0.000    6.857    0.000    0.000 
#    0.000    0.000    0.000    0.000    0.000    0.000 
#
# Total GULP energy -78279.220316 kJ/mol
# GULP energy per Si atom -5591.372880 kJ/mol
# Density = 1.924090 g / cm^3
# Si number density = 19.284797 Si / 1000 Ang^3
#
#
#
# Elastic Constant Matrix: (Units=GPa)
#
#
# Indices 1 2 3 4 5 6 
#
# 1 133.5981 74.1624 54.5187 0.0000 -8.9749 0.0000
# 2 74.1624 100.3498 39.6248 0.0000 6.2176 0.0000
# 3 54.5187 39.6248 81.7745 0.0000 5.1020 0.0000
# 4 0.0000 0.0000 0.0000 19.1522 0.0000 -6.4160
# 5 -8.9749 6.2176 5.1020 0.0000 25.7859 0.0000
# 6 0.0000 0.0000 0.0000 -6.4160 0.0000 20.2927
#
#
#
# Elastic Compliance Matrix: (Units=1/GPa)
#
#
# Indices 1 2 3 4 5 6 
#
# 1 0.016459 -0.010122 -0.006661 0.000000 0.009487 0.000000
# 2 -0.010122 0.018632 -0.001802 0.000000 -0.007659 0.000000
# 3 -0.006661 -0.001802 0.017881 0.000000 -0.005422 0.000000
# 4 0.000000 0.000000 0.000000 0.058399 0.000000 0.018464
# 5 0.009487 -0.007659 -0.005422 0.000000 0.045002 0.000000
# 6 0.000000 0.000000 0.000000 0.018464 0.000000 0.055117
#
#
# Mechanical properties :
#
#
# Convention : Reuss Voigt Hill
#
# Bulk Modulus (GPa) = 63.28053 72.48157 67.88105
# Shear Modulus (GPa) = 19.69070 22.87392 21.28231
#
# Velocity S-wave (km/s) = 3.19885 3.44773 3.32562
# Velocity P-wave (km/s) = 6.82118 7.31543 7.07262
#
# Compressibility (1/GPa) = 0.01580265
#
# Stress axis : x y z
#
# Youngs Moduli (GPa) = 60.75580 53.67179 55.92567
#
# Poissons Ratio (x) = 0.54326 0.37250
# Poissons Ratio (y) = 0.61496 0.10079
# Poissons Ratio (z) = 0.40467 0.09673
#
# Static dielectric constant tensor:
#      x y z
#    x 1.667020 0.000000 0.015510 
#    y 0.000000 1.686530 0.000000 
#    z 0.015510 0.000000 1.653290 
# 
# From -- ./inp_files/52362.got.cif
#   From: 2010.05.17/outbox.cif.g08.bks.cpg/sg5_27_cif.got.tgz:52362.got - 2010.06.03 18:56:24.
