data_PCOD9128591
_publ_section_title
;
Structure prediction by ZEFSAII (Michael W. Deem and Ramdas Pophale) SiO2 
 PCOD9128591
Probable space group: C 2
;
_chemical_formula_sum "Si O2"
_cell_formula_units_Z 22
_cell_length_a 14.155218
_cell_length_b 11.259004
_cell_length_c 10.870999
_cell_angle_alpha 90.000000
_cell_angle_beta 36.468276
_cell_angle_gamma 90.000000
_cell_volume 1029.789436
_symmetry_space_group_name_H-M "C 2"
_symmetry_group_IT_number 5
_symmetry_cell_setting 'monoclinic'
loop_
_space_group_symop_operation_xyz
x,y,z
-x,y,-z
1/2+x,1/2+y,z
1/2-x,1/2+y,-z
loop_
_atom_site_type_symbol
_atom_site_label
_atom_site_fract_x
_atom_site_fract_y
_atom_site_fract_z
Si Si1 0.174977 0.938470 0.632988
Si Si2 0.331971 0.413444 0.882373
Si Si3 0.656818 0.180720 0.567657
Si Si4 0.500000 0.254878 0.500000
Si Si5 0.686654 0.829360 0.278634
Si Si6 0.878015 0.606254 0.031789
O O1 0.230516 0.811421 0.515635
O O2 0.222163 0.919769 0.725912
O O3 0.989695 0.948030 0.793564
O O4 0.251589 0.059086 0.501987
O O5 0.395217 0.334232 0.702635
O O6 0.216947 0.354975 0.103543
O O7 0.235939 0.520536 0.922641
O O8 0.610685 0.178778 0.472659
O O9 0.493907 0.175015 0.816365
O O10 0.500000 0.829430 0.500000
O O11 0.770030 0.702370 0.214881
O O12 0.000000 0.546470 0.000000
#
# Coordination Sequence:
#
# PCOD9128591 Si02
#       6
#     4   4   4   2   4   4
#     4  11  25  47  76 108 147 194 242 308 366 445
#     4  11  26  46  71 107 149 192 244 305 375 433
#     4  11  25  46  74 105 154 190 242 303 370 439
#     4  10  24  46  70 102 152 182 238 312 366 426
#     4  12  25  46  74 104 145 199 251 300 365 436
#     4  12  25  45  72 105 147 198 250 305 361 445
#
# _framework density 21.363591
#
# number of rings (size 3 to 8) (size 9 to 14) (size 15 to 20)
#    0.000    0.727    5.455    1.636   12.727    0.000 
#    0.000    0.000    0.000    0.000    0.000    0.000 
#    0.000    0.000    0.000    0.000    0.000    0.000 
#
# Total GULP energy -61437.245227 kJ/mol
# GULP energy per Si atom -5585.204112 kJ/mol
# Density = 2.131497 g / cm^3
# Si number density = 21.363591 Si / 1000 Ang^3
#
#
#
# Elastic Constant Matrix: (Units=GPa)
#
#
# Indices 1 2 3 4 5 6 
#
# 1 113.5904 40.7523 59.6866 0.0000 -4.4730 0.0000
# 2 40.7523 135.7056 50.4471 0.0000 -14.6370 0.0000
# 3 59.6866 50.4471 138.0113 0.0000 -5.7124 0.0000
# 4 0.0000 0.0000 0.0000 24.1813 0.0000 -0.7320
# 5 -4.4730 -14.6370 -5.7124 0.0000 35.1946 0.0000
# 6 0.0000 0.0000 0.0000 -0.7320 0.0000 45.0820
#
#
#
# Elastic Compliance Matrix: (Units=1/GPa)
#
#
# Indices 1 2 3 4 5 6 
#
# 1 0.011804 -0.001907 -0.004408 0.000000 -0.000008 0.000000
# 2 -0.001907 0.009176 -0.002398 0.000000 0.003185 0.000000
# 3 -0.004408 -0.002398 0.010032 0.000000 0.000071 0.000000
# 4 0.000000 0.000000 0.000000 0.041375 0.000000 0.000672
# 5 -0.000008 0.003185 0.000071 0.000000 0.029748 0.000000
# 6 0.000000 0.000000 0.000000 0.000672 0.000000 0.022193
#
#
# Mechanical properties :
#
#
# Convention : Reuss Voigt Hill
#
# Bulk Modulus (GPa) = 73.60450 76.56436 75.08443
# Shear Modulus (GPa) = 34.18070 36.65299 35.41684
#
# Velocity S-wave (km/s) = 4.00428 4.14657 4.07604
# Velocity P-wave (km/s) = 7.47710 7.67084 7.57459
#
# Compressibility (1/GPa) = 0.01358613
#
# Stress axis : x y z
#
# Youngs Moduli (GPa) = 84.71980 108.97570 99.68539
#
# Poissons Ratio (x) = 0.20780 0.43943
# Poissons Ratio (y) = 0.16155 0.23902
# Poissons Ratio (z) = 0.37346 0.26129
#
# Static dielectric constant tensor:
#      x y z
#    x 1.827690 0.000000 0.026830 
#    y 0.000000 1.807100 0.000000 
#    z 0.026830 0.000000 1.764010 
# 
# From -- ./inp_files/42657.got.cif
#   From: 2010.05.17/outbox.cif.g08.bks.cpg/sg5_22_cif.got.tgz:42657.got - 2010.06.03 18:56:24.
