data_PCOD9128036
_publ_section_title
;
Structure prediction by ZEFSAII (Michael W. Deem and Ramdas Pophale) SiO2 
 PCOD9128036
Probable space group: C 2
;
_chemical_formula_sum "Si O2"
_cell_formula_units_Z 20
_cell_length_a 16.004601
_cell_length_b 11.145023
_cell_length_c 9.276108
_cell_angle_alpha 90.000000
_cell_angle_beta 31.610071
_cell_angle_gamma 90.000000
_cell_volume 867.231975
_symmetry_space_group_name_H-M "C 2"
_symmetry_group_IT_number 5
_symmetry_cell_setting 'monoclinic'
loop_
_space_group_symop_operation_xyz
x,y,z
-x,y,-z
1/2+x,1/2+y,z
1/2-x,1/2+y,-z
loop_
_atom_site_type_symbol
_atom_site_label
_atom_site_fract_x
_atom_site_fract_y
_atom_site_fract_z
Si Si1 0.841084 0.430740 0.023174
Si Si2 0.793631 0.782375 0.543449
Si Si3 0.921056 0.943291 0.832928
Si Si4 0.319920 0.887209 0.576492
Si Si5 0.785119 0.120048 0.590297
O O1 0.998754 0.427868 0.696657
O O2 0.816151 0.310723 0.157354
O O3 0.686607 0.443792 0.150396
O O4 0.838586 0.540641 0.138389
O O5 0.741494 0.879523 0.497700
O O6 0.769049 0.660179 0.491252
O O7 0.973923 0.820659 0.314025
O O8 0.801675 0.953731 0.142360
O O9 0.049675 0.048719 0.649644
O O10 0.311389 0.746744 0.632214
#
# Coordination Sequence:
#
# PCOD9128036 Si02
#       5
#     4   4   4   4   4
#     4  11  22  44  73 104 134 178 230 286 337 399
#     4   9  21  45  66  97 138 183 220 274 337 408
#     4  11  22  44  73 104 134 178 230 286 337 399
#     4  10  23  45  71 101 141 179 227 278 344 408
#     4   9  23  44  70  92 145 180 225 264 352 400
#
# _framework density 23.061878
#
# number of rings (size 3 to 8) (size 9 to 14) (size 15 to 20)
#    1.200    0.800    0.000    4.200    0.000    3.200 
#   28.800    2.000    0.000    9.600    0.000   22.400 
#    0.000    0.000    0.000    0.000    0.000    0.000 
#
# Total GULP energy -55866.365486 kJ/mol
# GULP energy per Si atom -5586.636549 kJ/mol
# Density = 2.300939 g / cm^3
# Si number density = 23.061878 Si / 1000 Ang^3
#
#
#
# Elastic Constant Matrix: (Units=GPa)
#
#
# Indices 1 2 3 4 5 6 
#
# 1 95.1365 9.0038 3.6733 0.0000 -8.9989 0.0000
# 2 9.0038 62.2971 14.5648 0.0000 -9.0406 0.0000
# 3 3.6733 14.5648 125.7617 0.0000 -18.1383 0.0000
# 4 0.0000 0.0000 0.0000 18.5913 0.0000 1.6394
# 5 -8.9989 -9.0406 -18.1383 0.0000 31.5010 0.0000
# 6 0.0000 0.0000 0.0000 1.6394 0.0000 23.4773
#
#
#
# Elastic Compliance Matrix: (Units=1/GPa)
#
#
# Indices 1 2 3 4 5 6 
#
# 1 0.010891 -0.001209 0.000241 0.000000 0.002903 0.000000
# 2 -0.001209 0.017100 -0.001404 0.000000 0.003754 0.000000
# 3 0.000241 -0.001404 0.008789 0.000000 0.004726 0.000000
# 4 0.000000 0.000000 0.000000 0.054122 0.000000 -0.003779
# 5 0.002903 0.003754 0.004726 0.000000 0.036373 0.000000
# 6 0.000000 0.000000 0.000000 -0.003779 0.000000 0.042858
#
#
# Mechanical properties :
#
#
# Convention : Reuss Voigt Hill
#
# Bulk Modulus (GPa) = 31.21565 37.51991 34.36778
# Shear Modulus (GPa) = 26.94615 31.77750 29.36182
#
# Velocity S-wave (km/s) = 3.42194 3.71607 3.57203
# Velocity P-wave (km/s) = 5.40165 5.89209 5.65219
#
# Compressibility (1/GPa) = 0.03203521
#
# Stress axis : x y z
#
# Youngs Moduli (GPa) = 91.81966 58.48029 113.78167
#
# Poissons Ratio (x) = 0.07071 -0.02737
# Poissons Ratio (y) = 0.11101 0.15971
# Poissons Ratio (z) = -0.02209 0.08209
#
# Static dielectric constant tensor:
#      x y z
#    x 1.865700 0.000000 0.012340 
#    y 0.000000 1.942650 0.000000 
#    z 0.012340 0.000000 1.832010 
# 
# From -- ./inp_files/27378.got.cif
#   From: 2010.05.17/outbox.cif.g08.bks.cpg/sg5_14_cif.got.tgz:27378.got - 2010.06.03 18:56:24.
