data_PCOD9128328
_publ_section_title
;
Structure prediction by ZEFSAII (Michael W. Deem and Ramdas Pophale) SiO2 
 PCOD9128328
Probable space group: C 2
;
_chemical_formula_sum "Si O2"
_cell_formula_units_Z 20
_cell_length_a 10.094027
_cell_length_b 21.559511
_cell_length_c 5.162736
_cell_angle_alpha 90.000000
_cell_angle_beta 119.510645
_cell_angle_gamma 90.000000
_cell_volume 977.764806
_symmetry_space_group_name_H-M "C 2"
_symmetry_group_IT_number 5
_symmetry_cell_setting 'monoclinic'
loop_
_space_group_symop_operation_xyz
x,y,z
-x,y,-z
1/2+x,1/2+y,z
1/2-x,1/2+y,-z
loop_
_atom_site_type_symbol
_atom_site_label
_atom_site_fract_x
_atom_site_fract_y
_atom_site_fract_z
Si Si1 0.174360 0.093220 0.600941
Si Si2 0.607695 0.336678 0.355972
Si Si3 0.609543 0.199084 0.357882
Si Si4 0.327130 0.466144 0.730316
Si Si5 0.603195 0.030997 0.845502
O O1 0.260594 0.147304 0.532188
O O2 0.274501 0.082518 0.955071
O O3 0.000000 0.106505 0.500000
O O4 0.182665 0.026914 0.460581
O O5 0.500000 0.341965 0.500000
O O6 0.680784 0.268500 0.432243
O O7 0.702204 0.400161 0.432298
O O8 0.500000 0.335847 0.000000
O O9 0.500000 0.193534 0.500000
O O10 0.500000 0.193354 0.000000
O O11 0.206644 0.474606 0.844921
O O12 0.500000 0.466394 0.000000
O O13 0.500000 0.048084 0.500000
O O14 0.500000 0.019985 0.000000
#
# Coordination Sequence:
#
# PCOD9128328 Si02
#       5
#     4   4   4   4   4
#     4  12  25  40  66 100 135 168 214 272 332 381
#     4   9  20  40  65  93 126 170 220 261 311 386
#     4  10  24  42  66  93 128 175 218 261 315 388
#     4  11  23  40  69  98 132 168 220 271 325 380
#     4  12  26  41  61  97 136 170 211 266 326 388
#
# _framework density 20.454818
#
# number of rings (size 3 to 8) (size 9 to 14) (size 15 to 20)
#    0.000    1.200    4.000    1.200    8.400    0.000 
#    0.000    1.000    0.000    0.000    5.200    0.000 
#    0.000    0.000    0.000    0.000    0.000    0.000 
#
# Total GULP energy -55848.750226 kJ/mol
# GULP energy per Si atom -5584.875023 kJ/mol
# Density = 2.040826 g / cm^3
# Si number density = 20.454818 Si / 1000 Ang^3
#
#
#
# Elastic Constant Matrix: (Units=GPa)
#
#
# Indices 1 2 3 4 5 6 
#
# 1 153.1321 78.6178 62.9048 0.0000 -3.6549 0.0000
# 2 78.6178 209.4491 29.7775 0.0000 -4.9190 0.0000
# 3 62.9048 29.7775 111.2888 0.0000 -16.3132 0.0000
# 4 0.0000 0.0000 0.0000 21.2893 0.0000 -7.9713
# 5 -3.6549 -4.9190 -16.3132 0.0000 37.0796 0.0000
# 6 0.0000 0.0000 0.0000 -7.9713 0.0000 35.0868
#
#
#
# Elastic Compliance Matrix: (Units=1/GPa)
#
#
# Indices 1 2 3 4 5 6 
#
# 1 0.010238 -0.003144 -0.005194 0.000000 -0.001693 0.000000
# 2 -0.003144 0.005929 0.000279 0.000000 0.000599 0.000000
# 3 -0.005194 0.000279 0.012589 0.000000 0.005064 0.000000
# 4 0.000000 0.000000 0.000000 0.051339 0.000000 0.011664
# 5 -0.001693 0.000599 0.005064 0.000000 0.029109 0.000000
# 6 0.000000 0.000000 0.000000 0.011664 0.000000 0.031151
#
#
# Mechanical properties :
#
#
# Convention : Reuss Voigt Hill
#
# Bulk Modulus (GPa) = 79.13048 90.71891 84.92470
# Shear Modulus (GPa) = 31.11673 38.86246 34.98959
#
# Velocity S-wave (km/s) = 3.90454 4.36353 4.14040
# Velocity P-wave (km/s) = 7.68744 8.35670 8.02904
#
# Compressibility (1/GPa) = 0.01263736
#
# Stress axis : x y z
#
# Youngs Moduli (GPa) = 97.67989 168.66101 79.43501
#
# Poissons Ratio (x) = 0.53029 0.41255
# Poissons Ratio (y) = 0.30712 -0.02213
# Poissons Ratio (z) = 0.50730 -0.04698
#
# Static dielectric constant tensor:
#      x y z
#    x 1.720890 0.000000 -0.019280 
#    y 0.000000 1.802620 0.000000 
#    z -0.019280 0.000000 1.789120 
# 
# From -- ./inp_files/2862.got.cif
#   From: 2010.05.17/outbox.cif.g08.bks.cpg/sg5_2_cif.got.tgz:2862.got - 2010.06.03 18:56:24.
