data_PCOD9128417
_publ_section_title
;
Structure prediction by ZEFSAII (Michael W. Deem and Ramdas Pophale) SiO2 
 PCOD9128417
Probable space group: C 2
;
_chemical_formula_sum "Si O2"
_cell_formula_units_Z 28
_cell_length_a 13.446899
_cell_length_b 8.758216
_cell_length_c 18.782656
_cell_angle_alpha 90.000000
_cell_angle_beta 149.870833
_cell_angle_gamma 90.000000
_cell_volume 1110.340542
_symmetry_space_group_name_H-M "C 2"
_symmetry_group_IT_number 5
_symmetry_cell_setting 'monoclinic'
loop_
_space_group_symop_operation_xyz
x,y,z
-x,y,-z
1/2+x,1/2+y,z
1/2-x,1/2+y,-z
loop_
_atom_site_type_symbol
_atom_site_label
_atom_site_fract_x
_atom_site_fract_y
_atom_site_fract_z
Si Si1 0.693545 0.895260 0.552983
Si Si2 0.278977 0.131958 0.867295
Si Si3 0.282219 0.401510 0.757999
Si Si4 0.095299 0.985575 0.627233
Si Si5 0.266163 0.245991 0.453817
Si Si6 0.487681 0.926647 0.178296
Si Si7 0.857700 0.124525 0.051600
O O1 0.803641 0.832572 0.691665
O O2 0.455342 0.922643 0.396509
O O3 0.752939 0.778533 0.528541
O O4 0.753901 0.072413 0.581649
O O5 0.311014 0.293985 0.844322
O O6 0.108580 0.058310 0.712678
O O7 0.209065 0.117980 0.905693
O O8 0.500000 0.062012 0.000000
O O9 0.441361 0.540086 0.851178
O O10 0.322820 0.979047 0.747326
O O11 0.000000 0.070720 0.500000
O O12 0.970472 0.829101 0.555964
O O13 0.089578 0.341226 0.307677
O O14 0.381361 0.804826 0.060871
O O15 0.326670 0.048279 0.102154
#
# Coordination Sequence:
#
# PCOD9128417 Si02
#       7
#     4   4   4   4   4   4   4
#     4  11  25  46  75 111 151 195 265 324 387 459
#     4  12  25  48  72 113 151 197 260 313 382 476
#     4  11  26  43  77 105 149 205 248 319 387 456
#     4  10  24  43  74 104 148 193 253 320 382 450
#     4  11  24  47  75 109 151 198 258 324 388 459
#     4  11  24  45  71 106 149 206 250 316 391 465
#     4  12  24  47  76 104 158 202 249 316 391 461
#
# _framework density 25.217487999999999
#
# number of rings (size 3 to 8) (size 9 to 14) (size 15 to 20)
#    0.000    0.857    2.857    3.429    8.000    1.143 
#    2.571    0.000    6.286    0.000    0.000    0.000 
#    0.000    0.000    0.000    0.000    0.000    0.000 
#
# Total GULP energy -78134.858366 kJ/mol
# GULP energy per Si atom -5581.061312 kJ/mol
# Density = 2.516009 g / cm^3
# Si number density = 25.217488 Si / 1000 Ang^3
#
#
#
# Elastic Constant Matrix: (Units=GPa)
#
#
# Indices 1 2 3 4 5 6 
#
# 1 69.2518 5.1625 4.6438 0.0003 -0.0378 0.0001
# 2 5.1625 74.9523 24.5761 0.0004 0.6929 0.0001
# 3 4.6438 24.5761 106.0675 0.0005 15.8221 0.0002
# 4 0.0003 0.0004 0.0005 51.6127 0.0002 6.3339
# 5 -0.0378 0.6929 15.8221 0.0002 54.7730 0.0000
# 6 0.0001 0.0001 0.0002 6.3339 0.0000 28.3676
#
#
#
# Elastic Compliance Matrix: (Units=1/GPa)
#
#
# Indices 1 2 3 4 5 6 
#
# 1 0.014535 -0.000851 -0.000462 0.000000 0.000154 0.000000
# 2 -0.000851 0.014524 -0.003449 0.000000 0.000812 0.000000
# 3 -0.000462 -0.003449 0.010702 0.000000 -0.003048 0.000000
# 4 0.000000 0.000000 0.000000 0.019921 0.000000 -0.004448
# 5 0.000154 0.000812 -0.003048 0.000000 0.019127 0.000000
# 6 0.000000 0.000000 0.000000 -0.004448 0.000000 0.036245
#
#
# Mechanical properties :
#
#
# Convention : Reuss Voigt Hill
#
# Bulk Modulus (GPa) = 33.07322 35.44851 34.26087
# Shear Modulus (GPa) = 37.13147 41.34328 39.23738
#
# Velocity S-wave (km/s) = 3.84141 4.05343 3.94884
# Velocity P-wave (km/s) = 5.72878 5.99956 5.86573
#
# Compressibility (1/GPa) = 0.03023595
#
# Stress axis : x y z
#
# Youngs Moduli (GPa) = 68.80142 68.85229 93.44008
#
# Poissons Ratio (x) = 0.05859 0.04319
# Poissons Ratio (y) = 0.05855 0.32228
# Poissons Ratio (z) = 0.03180 0.23748
#
# Static dielectric constant tensor:
#      x y z
#    x 2.139570 0.000000 0.019840 
#    y 0.000000 2.061290 0.000000 
#    z 0.019840 0.000000 1.990660 
# 
# From -- ./inp_files/65998.got.cif
#   From: 2010.05.17/outbox.cif.g08.bks.cpg/sg5_33_cif.got.tgz:65998.got - 2010.06.03 18:56:24.
