data_PCOD9128737
_publ_section_title
;
Structure prediction by ZEFSAII (Michael W. Deem and Ramdas Pophale) SiO2 
 PCOD9128737
Probable space group: C 2
;
_chemical_formula_sum "Si O2"
_cell_formula_units_Z 28
_cell_length_a 9.990291
_cell_length_b 14.214453
_cell_length_c 16.098409
_cell_angle_alpha 90.000000
_cell_angle_beta 144.361137
_cell_angle_gamma 90.000000
_cell_volume 1332.039641
_symmetry_space_group_name_H-M "C 2"
_symmetry_group_IT_number 5
_symmetry_cell_setting 'monoclinic'
loop_
_space_group_symop_operation_xyz
x,y,z
-x,y,-z
1/2+x,1/2+y,z
1/2-x,1/2+y,-z
loop_
_atom_site_type_symbol
_atom_site_label
_atom_site_fract_x
_atom_site_fract_y
_atom_site_fract_z
Si Si1 0.057482 0.191720 0.343905
Si Si2 0.000000 0.588918 0.500000
Si Si3 0.753512 0.030284 0.783813
Si Si4 0.268656 0.837988 0.932548
Si Si5 0.251613 0.340405 0.884028
Si Si6 0.013535 0.641926 0.808221
Si Si7 0.200877 0.053975 0.901984
Si Si8 0.000000 0.156539 0.500000
O O1 0.296500 0.154889 0.429626
O O2 0.065139 0.204476 0.446188
O O3 0.966135 0.287023 0.260477
O O4 0.873822 0.116996 0.213797
O O5 0.080628 0.527917 0.618898
O O6 0.662933 0.099730 0.808352
O O7 0.991030 0.060085 0.861826
O O8 0.782294 0.932131 0.843972
O O9 0.075916 0.754471 0.834715
O O10 0.215293 0.945678 0.878366
O O11 0.500000 0.807800 0.000000
O O12 0.303832 0.855060 0.048131
O O13 0.500000 0.289833 0.000000
O O14 0.749263 0.614571 0.653541
O O15 0.095411 0.596542 0.937630
#
# Coordination Sequence:
#
# PCOD9128737 Si02
#       8
#     4   2   4   4   4   4   4   2
#     4  11  26  45  71 101 142 183 227 289 344 410
#     4  10  24  49  67  98 134 198 230 267 351 426
#     4  11  22  45  75  98 137 185 236 276 347 423
#     4  12  26  41  71 113 136 173 235 295 345 397
#     4  12  23  43  71 106 131 181 238 285 337 412
#     4  12  24  47  70 102 143 185 227 285 348 414
#     4  11  24  44  76 100 137 182 236 286 339 412
#     4  12  28  43  71 104 148 180 226 289 361 398
#
# _framework density 21.020398
#
# number of rings (size 3 to 8) (size 9 to 14) (size 15 to 20)
#    0.000    0.571    5.714    2.143    4.000    0.571 
#    2.571    0.714    0.000    0.000    0.000    0.000 
#    0.000    0.000    0.000    0.000    0.000    0.000 
#
# Total GULP energy -78066.567822 kJ/mol
# GULP energy per Si atom -5576.183416 kJ/mol
# Density = 2.097255 g / cm^3
# Si number density = 21.020398 Si / 1000 Ang^3
#
#
#
# Elastic Constant Matrix: (Units=GPa)
#
#
# Indices 1 2 3 4 5 6 
#
# 1 96.1728 -4.4313 24.9188 -0.0006 4.6928 0.0003
# 2 -4.4313 58.6102 27.2472 -0.0004 -2.0185 0.0004
# 3 24.9188 27.2472 129.7087 -0.0032 -1.8726 0.0017
# 4 -0.0006 -0.0004 -0.0032 12.6364 -0.0005 22.5728
# 5 4.6928 -2.0185 -1.8726 -0.0005 49.2141 0.0003
# 6 0.0003 0.0004 0.0017 22.5728 0.0003 -8.1402
#
#
#
# Elastic Compliance Matrix: (Units=1/GPa)
#
#
# Indices 1 2 3 4 5 6 
#
# 1 0.011216 0.002017 -0.002594 0.000000 -0.001085 0.000000
# 2 0.002017 0.019290 -0.004433 0.000000 0.000430 0.000000
# 3 -0.002594 -0.004433 0.009145 0.000000 0.000413 0.000001
# 4 0.000000 0.000000 0.000000 0.013292 0.000000 0.036860
# 5 -0.001085 0.000430 0.000413 0.000000 0.020456 0.000000
# 6 0.000000 0.000000 0.000001 0.036860 0.000000 -0.020634
#
#
# Mechanical properties :
#
#
# Convention : Reuss Voigt Hill
#
# Bulk Modulus (GPa) = 33.74998 42.21790 37.98394
# Shear Modulus (GPa) = 68.81002 26.52587 47.66795
#
# Velocity S-wave (km/s) = 5.72765 3.55619 4.76720
# Velocity P-wave (km/s) = 7.73511 6.08193 6.95779
#
# Compressibility (1/GPa) = 0.02962965
#
# Stress axis : x y z
#
# Youngs Moduli (GPa) = 89.15869 51.83980 109.34704
#
# Poissons Ratio (x) = -0.10454 0.28365
# Poissons Ratio (y) = -0.17979 0.48478
# Poissons Ratio (z) = 0.23128 0.22983
#
# Static dielectric constant tensor:
#      x y z
#    x 1.738680 0.000000 0.065190 
#    y 0.000000 1.779800 0.000000 
#    z 0.065190 0.000000 1.772270 
# 
# From -- ./inp_files/51133.got.cif
#   From: 2010.05.17/outbox.cif.g08.bks.cpg/sg5_26_cif.got.tgz:51133.got - 2010.06.03 18:56:24.
