data_PCOD9128098
_publ_section_title
;
Structure prediction by ZEFSAII (Michael W. Deem and Ramdas Pophale) SiO2 
 PCOD9128098
Probable space group: C 2
;
_chemical_formula_sum "Si O2"
_cell_formula_units_Z 20
_cell_length_a 13.132307
_cell_length_b 13.190917
_cell_length_c 8.700681
_cell_angle_alpha 90.000000
_cell_angle_beta 33.022456
_cell_angle_gamma 90.000000
_cell_volume 821.372236
_symmetry_space_group_name_H-M "C 2"
_symmetry_group_IT_number 5
_symmetry_cell_setting 'monoclinic'
loop_
_space_group_symop_operation_xyz
x,y,z
-x,y,-z
1/2+x,1/2+y,z
1/2-x,1/2+y,-z
loop_
_atom_site_type_symbol
_atom_site_label
_atom_site_fract_x
_atom_site_fract_y
_atom_site_fract_z
Si Si1 0.610840 0.368550 0.059283
Si Si2 0.216407 0.449179 0.528771
Si Si3 0.310608 0.946589 0.071482
Si Si4 0.284111 0.080806 0.733678
Si Si5 0.317631 0.665236 0.837229
O O1 0.726999 0.464718 0.848199
O O2 0.704677 0.261208 0.920200
O O3 0.009267 0.407962 0.752010
O O4 0.643176 0.389454 0.199595
O O5 0.204927 0.448672 0.727250
O O6 0.241846 0.560950 0.417228
O O7 0.399287 0.380838 0.271338
O O8 0.299781 0.064184 0.042920
O O9 0.164932 0.155527 0.996195
O O10 0.500000 0.102625 0.500000
O O11 0.500000 0.656683 0.500000
#
# Coordination Sequence:
#
# PCOD9128098 Si02
#       5
#     4   4   4   4   4
#     4  11  23  43  73 102 145 190 245 297 366 429
#     4  11  22  44  73 101 137 197 240 297 365 434
#     4  10  23  46  71 102 153 186 242 304 369 429
#     4  11  22  46  72  99 147 193 242 302 361 430
#     4  11  24  44  75 107 150 197 238 306 367 432
#
# _framework density 24.349497
#
# number of rings (size 3 to 8) (size 9 to 14) (size 15 to 20)
#    0.000    1.200    4.000    4.200    0.000    1.600 
#    7.200    4.000    8.800    0.000    0.000    0.000 
#    0.000    0.000    0.000    0.000    0.000    0.000 
#
# Total GULP energy -55731.972911 kJ/mol
# GULP energy per Si atom -5573.197291 kJ/mol
# Density = 2.429408 g / cm^3
# Si number density = 24.349497 Si / 1000 Ang^3
#
#
#
# Elastic Constant Matrix: (Units=GPa)
#
#
# Indices 1 2 3 4 5 6 
#
# 1 102.8687 12.0158 45.0186 -0.0009 -18.5266 0.0008
# 2 12.0158 82.2787 25.1289 -0.0003 -28.2532 0.0004
# 3 45.0186 25.1289 177.7115 -0.0006 -18.3498 0.0007
# 4 -0.0009 -0.0003 -0.0006 5.9402 0.0006 -7.4218
# 5 -18.5266 -28.2532 -18.3498 0.0006 35.8829 -0.0006
# 6 0.0008 0.0004 0.0007 -7.4218 -0.0006 19.7821
#
#
#
# Elastic Compliance Matrix: (Units=1/GPa)
#
#
# Indices 1 2 3 4 5 6 
#
# 1 0.011709 0.000952 -0.002533 0.000002 0.005500 0.000000
# 2 0.000952 0.016925 -0.001275 -0.000001 0.013166 0.000000
# 3 -0.002533 -0.001275 0.006557 0.000000 0.001041 0.000000
# 4 0.000002 -0.000001 0.000000 0.316893 -0.000003 0.118892
# 5 0.005500 0.013166 0.001041 -0.000003 0.041607 0.000000
# 6 0.000000 0.000000 0.000000 0.118892 0.000000 0.095157
#
#
# Mechanical properties :
#
#
# Convention : Reuss Voigt Hill
#
# Bulk Modulus (GPa) = 33.92224 58.57617 46.24920
# Shear Modulus (GPa) = 9.91306 31.03406 20.47356
#
# Velocity S-wave (km/s) = 2.01990 3.57392 2.90284
# Velocity P-wave (km/s) = 4.40473 6.41399 5.50186
#
# Compressibility (1/GPa) = 0.02947919
#
# Stress axis : x y z
#
# Youngs Moduli (GPa) = 85.40507 59.08363 152.51934
#
# Poissons Ratio (x) = -0.05626 0.38632
# Poissons Ratio (y) = -0.08132 0.19446
# Poissons Ratio (z) = 0.21632 0.07533
#
# Static dielectric constant tensor:
#      x y z
#    x 2.114710 0.000000 0.176880 
#    y 0.000000 1.850400 0.000000 
#    z 0.176880 0.000000 2.182990 
# 
# From -- ./inp_files/23010.got.cif
#   From: 2010.05.17/outbox.cif.g08.bks.cpg/sg5_12_cif.got.tgz:23010.got - 2010.06.03 18:56:24.
