data_PCOD9128323
_publ_section_title
;
Structure prediction by ZEFSAII (Michael W. Deem and Ramdas Pophale) SiO2 
 PCOD9128323
Probable space group: C 2
;
_chemical_formula_sum "Si O2"
_cell_formula_units_Z 16
_cell_length_a 13.295769
_cell_length_b 5.022115
_cell_length_c 10.329252
_cell_angle_alpha 90.000000
_cell_angle_beta 73.353999
_cell_angle_gamma 90.000000
_cell_volume 660.810001
_symmetry_space_group_name_H-M "C 2"
_symmetry_group_IT_number 5
_symmetry_cell_setting 'monoclinic'
loop_
_space_group_symop_operation_xyz
x,y,z
-x,y,-z
1/2+x,1/2+y,z
1/2-x,1/2+y,-z
loop_
_atom_site_type_symbol
_atom_site_label
_atom_site_fract_x
_atom_site_fract_y
_atom_site_fract_z
Si Si1 0.195358 0.986440 0.758803
Si Si2 0.914553 0.661088 0.784590
Si Si3 0.623981 0.953935 0.648209
Si Si4 0.500000 0.229919 0.500000
Si Si5 0.000000 0.950198 0.000000
O O1 0.178075 0.685940 0.714529
O O2 0.096775 0.074358 0.885194
O O3 0.300622 0.048969 0.797754
O O4 0.183831 0.181180 0.640002
O O5 0.003518 0.435480 0.741795
O O6 0.954878 0.852270 0.649426
O O7 0.934925 0.788326 0.915136
O O8 0.597901 0.053312 0.513812
#
# Coordination Sequence:
#
# PCOD9128323 Si02
#       5
#     4   4   4   2   2
#     4  11  23  42  69  96 133 178 212 275 332 389
#     4   9  22  44  67  99 133 178 215 281 328 390
#     4   9  23  42  64 102 129 166 227 267 323 400
#     4   8  20  48  66 100 132 174 222 282 322 398
#     4  10  24  42  66 104 136 170 230 270 328 410
#
# _framework density 24.212706000000001
#
# number of rings (size 3 to 8) (size 9 to 14) (size 15 to 20)
#    1.500    1.000    0.000    0.000    0.000   17.000 
#    0.000    0.000    0.000    0.000    0.000    0.000 
#    0.000    0.000    0.000    0.000    0.000    0.000 
#
# Total GULP energy -44537.029977 kJ/mol
# GULP energy per Si atom -5567.128747 kJ/mol
# Density = 2.415760 g / cm^3
# Si number density = 24.212706 Si / 1000 Ang^3
#
#
#
# Elastic Constant Matrix: (Units=GPa)
#
#
# Indices 1 2 3 4 5 6 
#
# 1 213.3150 41.0529 35.2879 0.0000 22.2688 0.0000
# 2 41.0529 64.9563 7.9121 0.0000 5.3131 0.0000
# 3 35.2879 7.9121 117.0794 0.0000 19.5947 0.0000
# 4 0.0000 0.0000 0.0000 17.5280 0.0000 2.2037
# 5 22.2688 5.3131 19.5947 0.0000 40.3430 0.0000
# 6 0.0000 0.0000 0.0000 2.2037 0.0000 10.9021
#
#
#
# Elastic Compliance Matrix: (Units=1/GPa)
#
#
# Indices 1 2 3 4 5 6 
#
# 1 0.005742 -0.003311 -0.001142 0.000000 -0.002178 0.000000
# 2 -0.003311 0.017537 -0.000116 0.000000 -0.000425 0.000000
# 3 -0.001142 -0.000116 0.009563 0.000000 -0.003999 0.000000
# 4 0.000000 0.000000 0.000000 0.058539 0.000000 -0.011833
# 5 -0.002178 -0.000425 -0.003999 0.000000 0.027988 0.000000
# 6 0.000000 0.000000 0.000000 -0.011833 0.000000 0.094118
#
#
# Mechanical properties :
#
#
# Convention : Reuss Voigt Hill
#
# Bulk Modulus (GPa) = 42.19053 62.65073 52.42063
# Shear Modulus (GPa) = 21.68959 34.49446 28.09203
#
# Velocity S-wave (km/s) = 2.99623 3.77854 3.40989
# Velocity P-wave (km/s) = 5.42518 6.70580 6.09920
#
# Compressibility (1/GPa) = 0.02370200
#
# Stress axis : x y z
#
# Youngs Moduli (GPa) = 174.16932 57.02330 104.57466
#
# Poissons Ratio (x) = 0.18883 0.11944
# Poissons Ratio (y) = 0.57674 0.01211
# Poissons Ratio (z) = 0.19893 0.00661
#
# Static dielectric constant tensor:
#      x y z
#    x 1.935140 0.000000 -0.063620 
#    y 0.000000 1.921030 0.000000 
#    z -0.063620 0.000000 2.086930 
# 
# From -- ./inp_files/17759.got.cif
#   From: 2010.05.17/outbox.cif.g08.bks.cpg/sg5_9_cif.got.tgz:17759.got - 2010.06.03 18:56:24.
