data_PCOD9128716
_publ_section_title
;
Structure prediction by ZEFSAII (Michael W. Deem and Ramdas Pophale) SiO2 
 PCOD9128716
Probable space group: C 2
;
_chemical_formula_sum "Si O2"
_cell_formula_units_Z 20
_cell_length_a 20.160150
_cell_length_b 5.402282
_cell_length_c 8.433509
_cell_angle_alpha 90.000000
_cell_angle_beta 115.656900
_cell_angle_gamma 90.000000
_cell_volume 827.938946
_symmetry_space_group_name_H-M "C 2"
_symmetry_group_IT_number 5
_symmetry_cell_setting 'monoclinic'
loop_
_space_group_symop_operation_xyz
x,y,z
-x,y,-z
1/2+x,1/2+y,z
1/2-x,1/2+y,-z
loop_
_atom_site_type_symbol
_atom_site_label
_atom_site_fract_x
_atom_site_fract_y
_atom_site_fract_z
Si Si1 0.641517 0.428080 0.649771
Si Si2 0.697926 0.879695 0.168525
Si Si3 0.000000 0.587758 0.500000
Si Si4 0.847234 0.862714 0.711092
Si Si5 0.000000 0.936644 0.000000
Si Si6 0.929785 0.292857 0.189458
O O1 0.719125 0.360900 0.810603
O O2 0.573610 0.242841 0.598316
O O3 0.655227 0.424491 0.476491
O O4 0.611709 0.673037 0.703278
O O5 0.678974 0.613921 0.227703
O O6 0.696655 0.116493 0.284760
O O7 0.633993 0.930386 0.973950
O O8 0.001194 0.431340 0.662109
O O9 0.931118 0.802225 0.850148
O O10 0.035661 0.097969 0.896479
#
# Coordination Sequence:
#
# PCOD9128716 Si02
#       6
#     4   4   2   4   2   4
#     4  12  28  48  76 114 155 201 263 319 386 464
#     4  11  29  48  80 112 161 199 261 311 398 453
#     4  12  28  44  78 110 150 208 254 328 378 460
#     4  11  26  48  78 113 153 209 249 322 383 465
#     4  10  24  48  74 110 154 198 266 316 384 462
#     4  11  28  47  76 114 152 209 255 328 382 467
#
# _framework density 24.156374
#
# number of rings (size 3 to 8) (size 9 to 14) (size 15 to 20)
#    0.000    0.800    0.000    4.200   22.400    0.800 
#    0.000    0.000    0.000    0.000    0.000    0.000 
#    0.000    0.000    0.000    0.000    0.000    0.000 
#
# Total GULP energy -55944.715607 kJ/mol
# GULP energy per Si atom -5594.471561 kJ/mol
# Density = 2.410139 g / cm^3
# Si number density = 24.156374 Si / 1000 Ang^3
#
#
#
# Elastic Constant Matrix: (Units=GPa)
#
#
# Indices 1 2 3 4 5 6 
#
# 1 90.2636 36.8803 35.1086 0.0000 19.4696 0.0000
# 2 36.8803 91.9501 30.5879 0.0000 -17.9631 0.0000
# 3 35.1086 30.5879 120.2531 0.0000 8.2603 0.0000
# 4 0.0000 0.0000 0.0000 31.4943 0.0000 -1.8078
# 5 19.4696 -17.9631 8.2603 0.0000 39.7783 0.0000
# 6 0.0000 0.0000 0.0000 -1.8078 0.0000 -18.0883
#
#
#
# Elastic Compliance Matrix: (Units=1/GPa)
#
#
# Indices 1 2 3 4 5 6 
#
# 1 0.018386 -0.009125 -0.002177 0.000000 -0.012668 0.000000
# 2 -0.009125 0.018060 -0.002837 0.000000 0.013211 0.000000
# 3 -0.002177 -0.002837 0.009828 0.000000 -0.002257 0.000000
# 4 0.000000 0.000000 0.000000 0.031571 0.000000 -0.003155
# 5 -0.012668 0.013211 -0.002257 0.000000 0.037774 0.000000
# 6 0.000000 0.000000 0.000000 -0.003155 0.000000 -0.054969
#
#
# Mechanical properties :
#
#
# Convention : Reuss Voigt Hill
#
# Bulk Modulus (GPa) = 55.56714 56.40227 55.98471
# Shear Modulus (GPa) = 52.67208 23.96286 38.31747
#
# Velocity S-wave (km/s) = 4.67461 3.15300 3.98707
# Velocity P-wave (km/s) = 7.22419 6.05432 6.66497
#
# Compressibility (1/GPa) = 0.01799625
#
# Stress axis : x y z
#
# Youngs Moduli (GPa) = 54.38887 55.37042 101.75043
#
# Poissons Ratio (x) = 0.50526 0.22148
# Poissons Ratio (y) = 0.49631 0.28868
# Poissons Ratio (z) = 0.11839 0.15710
#
# Static dielectric constant tensor:
#      x y z
#    x 2.120520 0.000000 -0.064380 
#    y 0.000000 1.977360 0.000000 
#    z -0.064380 0.000000 1.938210 
# 
# From -- ./inp_files/28134.got.cif
#   From: 2010.05.17/outbox.cif.g08.bks.cpg/sg5_15_cif.got.tgz:28134.got - 2010.06.03 18:56:24.
