data_PCOD9128727
_publ_section_title
;
Structure prediction by ZEFSAII (Michael W. Deem and Ramdas Pophale) SiO2 
 PCOD9128727
Probable space group: C 2
;
_chemical_formula_sum "Si O2"
_cell_formula_units_Z 14
_cell_length_a 8.383201
_cell_length_b 12.145514
_cell_length_c 5.526112
_cell_angle_alpha 90.000000
_cell_angle_beta 103.383226
_cell_angle_gamma 90.000000
_cell_volume 547.379495
_symmetry_space_group_name_H-M "C 2"
_symmetry_group_IT_number 5
_symmetry_cell_setting 'monoclinic'
loop_
_space_group_symop_operation_xyz
x,y,z
-x,y,-z
1/2+x,1/2+y,z
1/2-x,1/2+y,-z
loop_
_atom_site_type_symbol
_atom_site_label
_atom_site_fract_x
_atom_site_fract_y
_atom_site_fract_z
Si Si1 0.500000 0.502110 0.500000
Si Si2 0.326145 0.838816 0.876191
Si Si3 0.638956 0.304059 0.304016
Si Si4 0.867982 0.559740 0.651225
O O1 0.520864 0.409930 0.294570
O O2 0.670122 0.568373 0.527941
O O3 0.253400 0.808029 0.586537
O O4 0.351832 0.970136 0.855611
O O5 0.500000 0.784502 0.000000
O O6 0.228307 0.814650 0.083505
O O7 0.566203 0.181639 0.277437
O O8 0.000000 0.514118 0.500000
#
# Coordination Sequence:
#
# PCOD9128727 Si02
#       4
#     2   4   4   4
#     4  10  24  48  76 112 156 194 258 320 372 460
#     4  11  25  46  75 110 156 195 262 310 380 459
#     4  11  25  47  73 114 154 200 250 325 375 456
#     4  11  25  49  81 111 154 206 256 312 390 454
#
# _framework density 25.576402999999999
#
# number of rings (size 3 to 8) (size 9 to 14) (size 15 to 20)
#    0.000    1.143    1.429    4.286    4.000   11.429 
#    0.000    0.000    0.000    0.000    0.000    0.000 
#    0.000    0.000    0.000    0.000    0.000    0.000 
#
# Total GULP energy -39004.839231 kJ/mol
# GULP energy per Si atom -5572.119890 kJ/mol
# Density = 2.551819 g / cm^3
# Si number density = 25.576403 Si / 1000 Ang^3
#
#
#
# Elastic Constant Matrix: (Units=GPa)
#
#
# Indices 1 2 3 4 5 6 
#
# 1 166.1508 1.9752 69.2905 0.0000 -21.9408 0.0000
# 2 1.9752 110.7173 16.7339 0.0000 -19.4585 0.0000
# 3 69.2905 16.7339 195.2847 0.0000 -3.7972 0.0000
# 4 0.0000 0.0000 0.0000 24.2923 0.0000 -23.8516
# 5 -21.9408 -19.4585 -3.7972 0.0000 67.6919 0.0000
# 6 0.0000 0.0000 0.0000 -23.8516 0.0000 -3.5673
#
#
#
# Elastic Compliance Matrix: (Units=1/GPa)
#
#
# Indices 1 2 3 4 5 6 
#
# 1 0.007442 0.000701 -0.002653 0.000000 0.002465 0.000000
# 2 0.000701 0.009694 -0.001022 0.000000 0.002956 0.000000
# 3 -0.002653 -0.001022 0.006134 0.000000 -0.000810 0.000000
# 4 0.000000 0.000000 0.000000 0.005442 0.000000 -0.036384
# 5 0.002465 0.002956 -0.000810 0.000000 0.016376 0.000000
# 6 0.000000 0.000000 0.000000 -0.036384 0.000000 -0.037056
#
#
# Mechanical properties :
#
#
# Convention : Reuss Voigt Hill
#
# Bulk Modulus (GPa) = 57.72775 72.01690 64.87233
# Shear Modulus (GPa) = 253.13285 43.29359 148.21322
#
# Velocity S-wave (km/s) = 9.95922 4.11873 7.62070
# Velocity P-wave (km/s) = 12.44459 7.13002 10.14162
#
# Compressibility (1/GPa) = 0.01732269
#
# Stress axis : x y z
#
# Youngs Moduli (GPa) = 134.37081 103.16125 163.03073
#
# Poissons Ratio (x) = -0.07236 0.43248
# Poissons Ratio (y) = -0.09425 0.16662
# Poissons Ratio (z) = 0.35645 0.10543
#
# Static dielectric constant tensor:
#      x y z
#    x 2.317650 0.000000 0.173460 
#    y 0.000000 1.971380 0.000000 
#    z 0.173460 0.000000 2.073350 
# 
# From -- ./inp_files/1651.got.cif
#   From: 2010.05.17/outbox.cif.g08.bks.cpg/sg5_1_cif.got.tgz:1651.got - 2010.06.03 18:56:24.
