data_PCOD9128967
_publ_section_title
;
Structure prediction by ZEFSAII (Michael W. Deem and Ramdas Pophale) SiO2 
 PCOD9128967
Probable space group: C 2
;
_chemical_formula_sum "Si O2"
_cell_formula_units_Z 12
_cell_length_a 9.875456
_cell_length_b 8.468922
_cell_length_c 14.718593
_cell_angle_alpha 90.000000
_cell_angle_beta 21.124909
_cell_angle_gamma 90.000000
_cell_volume 443.648713
_symmetry_space_group_name_H-M "C 2"
_symmetry_group_IT_number 5
_symmetry_cell_setting 'monoclinic'
loop_
_space_group_symop_operation_xyz
x,y,z
-x,y,-z
1/2+x,1/2+y,z
1/2-x,1/2+y,-z
loop_
_atom_site_type_symbol
_atom_site_label
_atom_site_fract_x
_atom_site_fract_y
_atom_site_fract_z
Si Si1 0.626314 0.840590 0.167432
Si Si2 0.198606 0.118448 0.768217
Si Si3 0.171856 0.141714 0.489210
O O1 0.560998 0.747405 0.115797
O O2 0.609577 0.708711 0.257863
O O3 0.272087 0.956548 0.411625
O O4 0.968877 0.959690 0.932527
O O5 0.500000 0.081829 0.500000
O O6 0.427552 0.181394 0.712123
O O7 0.000000 0.194012 0.500000
#
# Coordination Sequence:
#
# PCOD9128967 Si02
#       3
#     4   4   4
#     4  11  26  50  82 113 158 209 264 326 392 470
#     4  10  25  53  81 115 156 208 268 326 390 471
#     4  11  25  49  79 118 159 203 258 328 398 467
#
# _framework density 27.048428999999999
#
# number of rings (size 3 to 8) (size 9 to 14) (size 15 to 20)
#    0.000    1.333    0.000    4.000    0.000   14.667 
#    0.000   26.667    0.000    0.000    0.000    0.000 
#    0.000    0.000    0.000    0.000    0.000    0.000 
#
# Total GULP energy -33482.000543 kJ/mol
# GULP energy per Si atom -5580.333424 kJ/mol
# Density = 2.698687 g / cm^3
# Si number density = 27.048429 Si / 1000 Ang^3
#
#
#
# Elastic Constant Matrix: (Units=GPa)
#
#
# Indices 1 2 3 4 5 6 
#
# 1 313.4284 71.0953 94.2828 -0.0151 -0.2987 0.0071
# 2 71.0953 101.9607 76.5371 -0.0172 10.2719 0.0291
# 3 94.2828 76.5371 172.8509 -0.0836 1.7899 0.0044
# 4 -0.0151 -0.0172 -0.0836 65.1448 0.0312 -1.3493
# 5 -0.2987 10.2719 1.7899 0.0312 57.3902 -0.0011
# 6 0.0071 0.0291 0.0044 -1.3493 -0.0011 49.0240
#
#
#
# Elastic Compliance Matrix: (Units=1/GPa)
#
#
# Indices 1 2 3 4 5 6 
#
# 1 0.004019 -0.001786 -0.001405 -0.000002 0.000384 0.000001
# 2 -0.001786 0.015830 -0.006008 -0.000003 -0.002655 -0.000009
# 3 -0.001405 -0.006008 0.009204 0.000010 0.000781 0.000003
# 4 -0.000002 -0.000003 0.000010 0.015359 -0.000008 0.000423
# 5 0.000384 -0.002655 0.000781 -0.000008 0.017877 0.000002
# 6 0.000001 -0.000009 0.000003 0.000423 0.000002 0.020410
#
#
# Mechanical properties :
#
#
# Convention : Reuss Voigt Hill
#
# Bulk Modulus (GPa) = 93.85394 119.11893 106.48643
# Shear Modulus (GPa) = 47.77857 57.40013 52.58935
#
# Velocity S-wave (km/s) = 4.20743 4.61165 4.41417
# Velocity P-wave (km/s) = 7.64049 8.51417 8.08913
#
# Compressibility (1/GPa) = 0.01065485
#
# Stress axis : x y z
#
# Youngs Moduli (GPa) = 248.83551 63.16939 108.64937
#
# Poissons Ratio (x) = 0.11283 0.15267
# Poissons Ratio (y) = 0.44445 0.65275
# Poissons Ratio (z) = 0.34965 0.37951
#
# Static dielectric constant tensor:
#      x y z
#    x 2.214060 -0.000010 -0.070550 
#    y -0.000010 2.061710 0.000020 
#    z -0.070550 0.000020 2.281350 
# 
# From -- ./inp_files/60108.got.cif
#   From: 2010.05.17/outbox.cif.g08.bks.cpg/sg5_31_cif.got.tgz:60108.got - 2010.06.03 18:56:24.
