data_PCOD9128510
_publ_section_title
;
Structure prediction by ZEFSAII (Michael W. Deem and Ramdas Pophale) SiO2 
 PCOD9128510
Probable space group: C 2
;
_chemical_formula_sum "Si O2"
_cell_formula_units_Z 32
_cell_length_a 7.331034
_cell_length_b 11.925310
_cell_length_c 24.566605
_cell_angle_alpha 90.000000
_cell_angle_beta 36.628661
_cell_angle_gamma 90.000000
_cell_volume 1281.393496
_symmetry_space_group_name_H-M "C 2"
_symmetry_group_IT_number 5
_symmetry_cell_setting 'monoclinic'
loop_
_space_group_symop_operation_xyz
x,y,z
-x,y,-z
1/2+x,1/2+y,z
1/2-x,1/2+y,-z
loop_
_atom_site_type_symbol
_atom_site_label
_atom_site_fract_x
_atom_site_fract_y
_atom_site_fract_z
Si Si1 0.411517 0.438520 0.819968
Si Si2 0.490044 0.872430 0.187048
Si Si3 0.374114 0.110205 0.655947
Si Si4 0.218728 0.148702 0.098704
Si Si5 0.316351 0.739464 0.734218
Si Si6 0.289095 0.595996 0.102529
Si Si7 0.565614 0.889468 0.573511
Si Si8 0.455749 0.344988 0.382376
O O1 0.241125 0.382347 0.809478
O O2 0.662716 0.531264 0.743341
O O3 0.180791 0.526622 0.903255
O O4 0.597669 0.344309 0.807815
O O5 0.608068 0.745850 0.165358
O O6 0.285404 0.895642 0.289587
O O7 0.746313 0.962545 0.113972
O O8 0.544725 0.217135 0.639225
O O9 0.128512 0.173367 0.675743
O O10 0.617056 0.017922 0.578470
O O11 0.962388 0.130761 0.115251
O O12 0.500000 0.201971 0.000000
O O13 0.436812 0.804165 0.650024
O O14 0.054983 0.644209 0.807104
O O15 0.500000 0.629803 0.000000
O O16 0.849874 0.846487 0.469941
O O17 0.289649 0.905640 0.596272
#
# Coordination Sequence:
#
# PCOD9128510 Si02
#       8
#     4   4   4   4   4   4   4   4
#     4  11  23  44  67  98 134 175 232 284 339 411
#     4  12  23  48  68  98 137 184 231 286 343 418
#     4  11  23  43  68  96 139 179 227 284 348 404
#     4  12  27  44  70  99 140 181 227 288 348 408
#     4  11  23  45  70  96 141 178 226 286 344 405
#     4  12  26  45  70 102 137 185 234 283 350 415
#     4  10  24  45  64 104 138 179 230 291 336 417
#     4  11  22  41  73  95 135 182 229 276 352 400
#
# _framework density 24.972812000000001
#
# number of rings (size 3 to 8) (size 9 to 14) (size 15 to 20)
#    0.000    0.750    6.250    1.125    1.750    4.000 
#    2.250    5.000    0.000    0.000    0.000    0.000 
#    0.000    0.000    0.000    0.000    0.000    0.000 
#
# Total GULP energy -89224.271344 kJ/mol
# GULP energy per Si atom -5576.516959 kJ/mol
# Density = 2.491597 g / cm^3
# Si number density = 24.972812 Si / 1000 Ang^3
#
#
#
# Elastic Constant Matrix: (Units=GPa)
#
#
# Indices 1 2 3 4 5 6 
#
# 1 56.2316 14.5751 7.9709 -0.0017 -3.2746 -0.0015
# 2 14.5751 134.0038 18.2845 0.0006 8.2873 0.0005
# 3 7.9709 18.2845 123.1515 -0.0081 10.9926 0.0128
# 4 -0.0017 0.0006 -0.0081 34.8962 0.0061 2.6139
# 5 -3.2746 8.2873 10.9926 0.0061 33.5283 0.0017
# 6 -0.0015 0.0005 0.0128 2.6139 0.0017 32.7053
#
#
#
# Elastic Compliance Matrix: (Units=1/GPa)
#
#
# Indices 1 2 3 4 5 6 
#
# 1 0.018631 -0.002037 -0.001144 0.000000 0.002698 0.000001
# 2 -0.002037 0.007919 -0.000877 0.000000 -0.001869 0.000000
# 3 -0.001144 -0.000877 0.008566 0.000003 -0.002703 -0.000003
# 4 0.000000 0.000000 0.000003 0.028829 -0.000006 -0.002304
# 5 0.002698 -0.001869 -0.002703 -0.000006 0.031437 0.000000
# 6 0.000001 0.000000 -0.000003 -0.002304 0.000000 0.030760
#
#
# Mechanical properties :
#
#
# Convention : Reuss Voigt Hill
#
# Bulk Modulus (GPa) = 37.03866 43.89421 40.46643
# Shear Modulus (GPa) = 34.90179 38.39640 36.64909
#
# Velocity S-wave (km/s) = 3.74249 3.92539 3.83503
# Velocity P-wave (km/s) = 5.79127 6.17736 5.98743
#
# Compressibility (1/GPa) = 0.02699882
#
# Stress axis : x y z
#
# Youngs Moduli (GPa) = 53.67415 126.27372 116.74505
#
# Poissons Ratio (x) = 0.25724 0.13359
# Poissons Ratio (y) = 0.10934 0.10240
# Poissons Ratio (z) = 0.06142 0.11076
#
# Static dielectric constant tensor:
#      x y z
#    x 2.087140 0.000000 0.065970 
#    y 0.000000 1.978220 0.000030 
#    z 0.065970 0.000030 2.190610 
# 
# From -- ./inp_files/71574.got.cif
#   From: 2010.05.17/outbox.cif.g08.bks.cpg/sg5_36_cif.got.tgz:71574.got - 2010.06.03 18:56:24.
