data_PCOD9128390
_publ_section_title
;
Structure prediction by ZEFSAII (Michael W. Deem and Ramdas Pophale) SiO2 
 PCOD9128390
Probable space group: C 2
;
_chemical_formula_sum "Si O2"
_cell_formula_units_Z 20
_cell_length_a 8.001971
_cell_length_b 10.235024
_cell_length_c 11.319977
_cell_angle_alpha 90.000000
_cell_angle_beta 67.675334
_cell_angle_gamma 90.000000
_cell_volume 857.619885
_symmetry_space_group_name_H-M "C 2"
_symmetry_group_IT_number 5
_symmetry_cell_setting 'monoclinic'
loop_
_space_group_symop_operation_xyz
x,y,z
-x,y,-z
1/2+x,1/2+y,z
1/2-x,1/2+y,-z
loop_
_atom_site_type_symbol
_atom_site_label
_atom_site_fract_x
_atom_site_fract_y
_atom_site_fract_z
Si Si1 0.099237 0.917510 0.090484
Si Si2 0.861581 0.543430 0.624047
Si Si3 0.572814 0.909660 0.158265
Si Si4 0.985336 0.146510 0.708564
Si Si5 0.596566 0.172155 0.740149
O O1 0.999904 0.787280 0.162401
O O2 0.085785 0.030383 0.189319
O O3 0.299056 0.887005 0.987387
O O4 0.000000 0.967511 0.000000
O O5 0.818759 0.457163 0.751435
O O6 0.679032 0.593900 0.613635
O O7 0.000000 0.470619 0.500000
O O8 0.988445 0.657369 0.645859
O O9 0.478968 0.775972 0.222649
O O10 0.447816 0.036098 0.180502
O O11 0.813228 0.179876 0.672596
#
# Coordination Sequence:
#
# PCOD9128390 Si02
#       5
#     4   4   4   4   4
#     4  12  21  43  69 102 148 167 215 293 336 403
#     4  10  25  49  65  98 140 179 231 281 328 402
#     4  10  24  43  67 104 131 181 223 273 344 400
#     4  12  23  44  70  98 136 180 223 282 344 390
#     4  10  25  43  66 105 132 181 227 270 342 404
#
# _framework density 23.320353999999998
#
# number of rings (size 3 to 8) (size 9 to 14) (size 15 to 20)
#    1.200    0.000    4.000    1.200    2.800    0.800 
#    7.200    0.000    0.000    0.000    0.000    0.000 
#    0.000    0.000    0.000    0.000    0.000    0.000 
#
# Total GULP energy -55755.381921 kJ/mol
# GULP energy per Si atom -5575.538192 kJ/mol
# Density = 2.326728 g / cm^3
# Si number density = 23.320354 Si / 1000 Ang^3
#
#
#
# Elastic Constant Matrix: (Units=GPa)
#
#
# Indices 1 2 3 4 5 6 
#
# 1 127.0929 23.9687 29.8478 0.0000 -11.5312 0.0000
# 2 23.9687 120.8691 15.5650 0.0000 -15.4514 0.0000
# 3 29.8478 15.5650 83.0313 0.0000 -17.2218 0.0000
# 4 0.0000 0.0000 0.0000 19.1991 0.0000 -0.8773
# 5 -11.5312 -15.4514 -17.2218 0.0000 31.1728 0.0000
# 6 0.0000 0.0000 0.0000 -0.8773 0.0000 17.6937
#
#
#
# Elastic Compliance Matrix: (Units=1/GPa)
#
#
# Indices 1 2 3 4 5 6 
#
# 1 0.008845 -0.001258 -0.002704 0.000000 0.001154 0.000000
# 2 -0.001258 0.009065 -0.000465 0.000000 0.003771 0.000000
# 3 -0.002704 -0.000465 0.014510 0.000000 0.006786 0.000000
# 4 0.000000 0.000000 0.000000 0.052204 0.000000 0.002588
# 5 0.001154 0.003771 0.006786 0.000000 0.038124 0.000000
# 6 0.000000 0.000000 0.000000 0.002588 0.000000 0.056646
#
#
# Mechanical properties :
#
#
# Convention : Reuss Voigt Hill
#
# Bulk Modulus (GPa) = 42.43476 52.19515 47.31496
# Shear Modulus (GPa) = 25.49662 31.05393 28.27527
#
# Velocity S-wave (km/s) = 3.31013 3.65310 3.48583
# Velocity P-wave (km/s) = 5.73107 6.34223 6.04438
#
# Compressibility (1/GPa) = 0.02356558
#
# Stress axis : x y z
#
# Youngs Moduli (GPa) = 113.05279 110.31624 68.91615
#
# Poissons Ratio (x) = 0.13881 0.18638
# Poissons Ratio (y) = 0.14225 0.03204
# Poissons Ratio (z) = 0.30574 0.05128
#
# Static dielectric constant tensor:
#      x y z
#    x 1.977870 0.000000 0.016710 
#    y 0.000000 1.825920 0.000000 
#    z 0.016710 0.000000 1.896960 
# 
# From -- ./inp_files/34950.got.cif
#   From: 2010.05.17/outbox.cif.g08.bks.cpg/sg5_18_cif.got.tgz:34950.got - 2010.06.03 18:56:24.
