data_PCOD9128670
_publ_section_title
;
Structure prediction by ZEFSAII (Michael W. Deem and Ramdas Pophale) SiO2 
 PCOD9128670
Probable space group: C 2
;
_chemical_formula_sum "Si O2"
_cell_formula_units_Z 26
_cell_length_a 24.016789
_cell_length_b 7.931246
_cell_length_c 11.788197
_cell_angle_alpha 90.000000
_cell_angle_beta 150.685595
_cell_angle_gamma 90.000000
_cell_volume 1099.377018
_symmetry_space_group_name_H-M "C 2"
_symmetry_group_IT_number 5
_symmetry_cell_setting 'monoclinic'
loop_
_space_group_symop_operation_xyz
x,y,z
-x,y,-z
1/2+x,1/2+y,z
1/2-x,1/2+y,-z
loop_
_atom_site_type_symbol
_atom_site_label
_atom_site_fract_x
_atom_site_fract_y
_atom_site_fract_z
Si Si1 0.665950 0.103950 0.977052
Si Si2 0.718016 0.488374 0.042663
Si Si3 0.456928 0.862254 0.546643
Si Si4 0.621875 0.407650 0.211227
Si Si5 0.000000 0.435909 0.000000
Si Si6 0.552178 0.674123 0.896129
Si Si7 0.735349 0.088872 0.358173
O O1 0.751345 0.038822 0.031343
O O2 0.548447 0.002012 0.750742
O O3 0.652526 0.307679 0.937430
O O4 0.712628 0.062405 0.185139
O O5 0.836522 0.449468 0.315551
O O6 0.655781 0.645886 0.991109
O O7 0.500000 0.803694 0.500000
O O8 0.453852 0.705566 0.627643
O O9 0.724663 0.287230 0.361477
O O10 0.658016 0.502481 0.390621
O O11 0.500000 0.314990 0.000000
O O12 0.591728 0.534106 0.056660
O O13 0.877146 0.524582 0.773382
O O14 0.023032 0.323588 0.930185
#
# Coordination Sequence:
#
# PCOD9128670 Si02
#       7
#     4   4   4   4   2   4   4
#     4  11  24  48  75 109 148 197 254 317 375 458
#     4  11  25  47  76 107 152 195 259 310 388 450
#     4  10  24  47  73 107 149 198 247 315 381 448
#     4  12  28  48  73 109 146 197 257 309 387 456
#     4  12  26  46  76 108 158 198 258 310 390 446
#     4  12  25  45  74 108 145 200 250 309 374 459
#     4  12  27  51  75 109 153 204 255 320 380 460
#
# _framework density 23.649757999999999
#
# number of rings (size 3 to 8) (size 9 to 14) (size 15 to 20)
#    0.000    0.615    4.615    2.769    4.308    0.000 
#    2.769   10.000    0.000    0.000    0.000    0.000 
#    0.000    0.000    0.000    0.000    0.000    0.000 
#
# Total GULP energy -72518.680870 kJ/mol
# GULP energy per Si atom -5578.360067 kJ/mol
# Density = 2.359593 g / cm^3
# Si number density = 23.649758 Si / 1000 Ang^3
#
#
#
# Elastic Constant Matrix: (Units=GPa)
#
#
# Indices 1 2 3 4 5 6 
#
# 1 137.1759 46.8721 47.9247 0.0000 -24.1434 0.0000
# 2 46.8721 57.6794 41.7455 0.0000 -16.5108 0.0000
# 3 47.9247 41.7455 123.5743 0.0000 -22.4881 0.0000
# 4 0.0000 0.0000 0.0000 3.6970 0.0000 1.9726
# 5 -24.1434 -16.5108 -22.4881 0.0000 41.2047 0.0000
# 6 0.0000 0.0000 0.0000 1.9726 0.0000 39.6759
#
#
#
# Elastic Compliance Matrix: (Units=1/GPa)
#
#
# Indices 1 2 3 4 5 6 
#
# 1 0.010569 -0.006881 -0.001276 0.000000 0.002739 0.000000
# 2 -0.006881 0.028614 -0.006267 0.000000 0.004013 0.000000
# 3 -0.001276 -0.006267 0.011226 0.000000 0.002868 0.000000
# 4 0.000000 0.000000 0.000000 0.277864 0.000000 -0.013815
# 5 0.002739 0.004013 0.002868 0.000000 0.029047 0.000000
# 6 0.000000 0.000000 0.000000 -0.013815 0.000000 0.025891
#
#
# Mechanical properties :
#
#
# Convention : Reuss Voigt Hill
#
# Bulk Modulus (GPa) = 46.38119 65.72381 56.05250
# Shear Modulus (GPa) = 11.92614 29.04132 20.48373
#
# Velocity S-wave (km/s) = 2.24806 3.50805 2.94620
# Velocity P-wave (km/s) = 5.13738 6.65277 5.94357
#
# Compressibility (1/GPa) = 0.02156046
#
# Stress axis : x y z
#
# Youngs Moduli (GPa) = 94.61608 34.94810 89.07753
#
# Poissons Ratio (x) = 0.24049 0.11365
# Poissons Ratio (y) = 0.65108 0.55827
# Poissons Ratio (z) = 0.12071 0.21903
#
# Static dielectric constant tensor:
#      x y z
#    x 2.042430 0.000000 0.076900 
#    y 0.000000 1.998450 0.000000 
#    z 0.076900 0.000000 1.874890 
# 
# From -- ./inp_files/47375.got.cif
#   From: 2010.05.17/outbox.cif.g08.bks.cpg/sg5_24_cif.got.tgz:47375.got - 2010.06.03 18:56:24.
