data_PCOD9128504
_publ_section_title
;
Structure prediction by ZEFSAII (Michael W. Deem and Ramdas Pophale) SiO2 
 PCOD9128504
Probable space group: C 2
;
_chemical_formula_sum "Si O2"
_cell_formula_units_Z 20
_cell_length_a 17.536023
_cell_length_b 5.919294
_cell_length_c 17.495176
_cell_angle_alpha 90.000000
_cell_angle_beta 155.693777
_cell_angle_gamma 90.000000
_cell_volume 747.495841
_symmetry_space_group_name_H-M "C 2"
_symmetry_group_IT_number 5
_symmetry_cell_setting 'monoclinic'
loop_
_space_group_symop_operation_xyz
x,y,z
-x,y,-z
1/2+x,1/2+y,z
1/2-x,1/2+y,-z
loop_
_atom_site_type_symbol
_atom_site_label
_atom_site_fract_x
_atom_site_fract_y
_atom_site_fract_z
Si Si1 0.500000 0.488500 0.000000
Si Si2 0.097666 0.354660 0.391842
Si Si3 0.817502 0.116643 0.688539
Si Si4 0.345502 0.130630 0.075629
Si Si5 0.773099 0.136742 0.190955
Si Si6 0.000000 0.801826 0.500000
O O1 0.528823 0.618327 0.105531
O O2 0.682944 0.335941 0.157975
O O3 0.135326 0.269043 0.340967
O O4 0.276469 0.381145 0.608045
O O5 0.996091 0.590503 0.279106
O O6 0.953449 0.205713 0.306918
O O7 0.623357 0.168276 0.552305
O O8 0.275877 0.393540 0.020266
O O9 0.377186 0.099494 0.013605
O O10 0.845997 0.945538 0.313503
#
# Coordination Sequence:
#
# PCOD9128504 Si02
#       6
#     2   4   4   4   4   2
#     4  12  30  46  76 120 164 204 266 350 424 476
#     4  11  26  47  78 108 158 211 280 317 407 493
#     4  12  28  47  78 113 160 212 275 335 412 490
#     4  10  24  44  78 112 151 203 271 332 388 474
#     4  11  26  46  77 108 162 205 271 330 415 483
#     4  12  26  48  74 106 162 212 264 336 428 486
#
# _framework density 26.756001000000001
#
# number of rings (size 3 to 8) (size 9 to 14) (size 15 to 20)
#    0.000    0.800    0.000    4.800   19.600    0.000 
#    0.000    0.000    0.000    0.000    0.000    0.000 
#    0.000    0.000    0.000    0.000    0.000    0.000 
#
# Total GULP energy -55882.041821 kJ/mol
# GULP energy per Si atom -5588.204182 kJ/mol
# Density = 2.669510 g / cm^3
# Si number density = 26.756001 Si / 1000 Ang^3
#
#
#
# Elastic Constant Matrix: (Units=GPa)
#
#
# Indices 1 2 3 4 5 6 
#
# 1 158.3184 49.0850 32.6912 0.0000 -21.4430 0.0000
# 2 49.0850 94.6647 27.7449 0.0000 -8.1237 0.0000
# 3 32.6912 27.7449 126.0185 0.0000 -44.2685 0.0000
# 4 0.0000 0.0000 0.0000 55.6245 0.0000 -2.4496
# 5 -21.4430 -8.1237 -44.2685 0.0000 61.4790 0.0000
# 6 0.0000 0.0000 0.0000 -2.4496 0.0000 59.6885
#
#
#
# Elastic Compliance Matrix: (Units=1/GPa)
#
#
# Indices 1 2 3 4 5 6 
#
# 1 0.007842 -0.003743 -0.000566 0.000000 0.001833 0.000000
# 2 -0.003743 0.013086 -0.002358 0.000000 -0.001274 0.000000
# 3 -0.000566 -0.002358 0.011274 0.000000 0.007609 0.000000
# 4 0.000000 0.000000 0.000000 0.018010 0.000000 0.000739
# 5 0.001833 -0.001274 0.007609 0.000000 0.022216 0.000000
# 6 0.000000 0.000000 0.000000 0.000739 0.000000 0.016784
#
#
# Mechanical properties :
#
#
# Convention : Reuss Voigt Hill
#
# Bulk Modulus (GPa) = 52.99890 66.44932 59.72411
# Shear Modulus (GPa) = 45.94082 53.32377 49.63229
#
# Velocity S-wave (km/s) = 4.14820 4.46911 4.31164
# Velocity P-wave (km/s) = 6.54176 7.17773 6.86711
#
# Compressibility (1/GPa) = 0.01886832
#
# Stress axis : x y z
#
# Youngs Moduli (GPa) = 127.51800 76.41752 88.69705
#
# Poissons Ratio (x) = 0.28602 0.05025
# Poissons Ratio (y) = 0.47729 0.20912
# Poissons Ratio (z) = 0.07224 0.18017
#
# Static dielectric constant tensor:
#      x y z
#    x 2.030340 0.000000 0.049590 
#    y 0.000000 2.186530 0.000000 
#    z 0.049590 0.000000 2.336540 
# 
# From -- ./inp_files/25966.got.cif
#   From: 2010.05.17/outbox.cif.g08.bks.cpg/sg5_13_cif.got.tgz:25966.got - 2010.06.03 18:56:24.
