data_PCOD9128139
_publ_section_title
;
Structure prediction by ZEFSAII (Michael W. Deem and Ramdas Pophale) SiO2 
 PCOD9128139
Probable space group: C 2
;
_chemical_formula_sum "Si O2"
_cell_formula_units_Z 22
_cell_length_a 20.015543
_cell_length_b 4.953767
_cell_length_c 8.683901
_cell_angle_alpha 90.000000
_cell_angle_beta 76.954450
_cell_angle_gamma 90.000000
_cell_volume 838.806706
_symmetry_space_group_name_H-M "C 2"
_symmetry_group_IT_number 5
_symmetry_cell_setting 'monoclinic'
loop_
_space_group_symop_operation_xyz
x,y,z
-x,y,-z
1/2+x,1/2+y,z
1/2-x,1/2+y,-z
loop_
_atom_site_type_symbol
_atom_site_label
_atom_site_fract_x
_atom_site_fract_y
_atom_site_fract_z
Si Si1 0.796537 0.933480 0.961019
Si Si2 0.000000 0.774875 0.500000
Si Si3 0.296274 0.971633 0.459489
Si Si4 0.386146 0.828312 0.120882
Si Si5 0.876252 0.080413 0.637686
Si Si6 0.027867 0.401410 0.195860
O O1 0.825559 0.915840 0.773325
O O2 0.766689 0.644874 0.020453
O O3 0.846074 0.079618 0.060300
O O4 0.071448 0.925769 0.498171
O O5 0.011857 0.608082 0.338909
O O6 0.270566 0.274000 0.504444
O O7 0.337406 0.949542 0.278148
O O8 0.341530 0.830875 0.569157
O O9 0.458380 0.769646 0.168084
O O10 0.419893 0.006479 0.963964
O O11 0.928718 0.181138 0.739287
#
# Coordination Sequence:
#
# PCOD9128139 Si02
#       6
#     4   2   4   4   4   4
#     4  11  25  47  75 107 148 193 240 296 364 433
#     4  12  24  44  76 102 142 198 236 308 366 426
#     4  12  27  46  75 110 149 193 240 296 362 437
#     4  10  23  47  72 107 147 183 250 294 364 425
#     4  11  26  45  72 105 147 189 247 296 370 429
#     4  10  24  47  74 103 144 188 243 309 362 425
#
# _framework density 26.227734999999999
#
# number of rings (size 3 to 8) (size 9 to 14) (size 15 to 20)
#    0.000    1.091    0.000    4.909   10.182    0.000 
#    6.545    1.818    0.000    0.000    0.000    0.000 
#    0.000    0.000    0.000    0.000    0.000    0.000 
#
# Total GULP energy -61587.148144 kJ/mol
# GULP energy per Si atom -5598.831649 kJ/mol
# Density = 2.616804 g / cm^3
# Si number density = 26.227735 Si / 1000 Ang^3
#
#
#
# Elastic Constant Matrix: (Units=GPa)
#
#
# Indices 1 2 3 4 5 6 
#
# 1 131.3297 -14.7027 36.0325 0.0000 2.6147 0.0000
# 2 -14.7027 38.9330 19.2151 0.0000 -9.3731 0.0000
# 3 36.0325 19.2151 185.1237 0.0000 -30.6397 0.0000
# 4 0.0000 0.0000 0.0000 -77.5660 0.0000 35.6962
# 5 2.6147 -9.3731 -30.6397 0.0000 58.9092 0.0000
# 6 0.0000 0.0000 0.0000 35.6962 0.0000 20.0658
#
#
#
# Elastic Compliance Matrix: (Units=1/GPa)
#
#
# Indices 1 2 3 4 5 6 
#
# 1 0.008731 0.004207 -0.002286 0.000000 -0.000907 0.000000
# 2 0.004207 0.029631 -0.003441 0.000000 0.002738 0.000000
# 3 -0.002286 -0.003441 0.006708 0.000000 0.003043 0.000000
# 4 0.000000 0.000000 0.000000 -0.007089 0.000000 0.012611
# 5 -0.000907 0.002738 0.003043 0.000000 0.019034 0.000000
# 6 0.000000 0.000000 0.000000 0.012611 0.000000 0.027402
#
#
# Mechanical properties :
#
#
# Convention : Reuss Voigt Hill
#
# Bulk Modulus (GPa) = 23.79320 48.49733 36.14526
# Shear Modulus (GPa) = 49.27683 21.27123 35.27403
#
# Velocity S-wave (km/s) = 4.33922 2.85093 3.67128
# Velocity P-wave (km/s) = 5.84779 5.41923 5.63758
#
# Compressibility (1/GPa) = 0.04202882
#
# Stress axis : x y z
#
# Youngs Moduli (GPa) = 114.53810 33.74788 149.08568
#
# Poissons Ratio (x) = -0.14198 0.34083
# Poissons Ratio (y) = -0.48186 0.51305
# Poissons Ratio (z) = 0.26185 0.11614
#
# Static dielectric constant tensor:
#      x y z
#    x 2.301490 0.000000 -0.104590 
#    y 0.000000 2.072580 0.000000 
#    z -0.104590 0.000000 2.133680 
# 
# From -- ./inp_files/28294.got.cif
#   From: 2010.05.17/outbox.cif.g08.bks.cpg/sg5_15_cif.got.tgz:28294.got - 2010.06.03 18:56:24.
