data_PCOD9128039
_publ_section_title
;
Structure prediction by ZEFSAII (Michael W. Deem and Ramdas Pophale) SiO2 
 PCOD9128039
Probable space group: C 2
;
_chemical_formula_sum "Si O2"
_cell_formula_units_Z 20
_cell_length_a 12.965873
_cell_length_b 6.797615
_cell_length_c 17.814600
_cell_angle_alpha 90.000000
_cell_angle_beta 147.679189
_cell_angle_gamma 90.000000
_cell_volume 839.482317
_symmetry_space_group_name_H-M "C 2"
_symmetry_group_IT_number 5
_symmetry_cell_setting 'monoclinic'
loop_
_space_group_symop_operation_xyz
x,y,z
-x,y,-z
1/2+x,1/2+y,z
1/2-x,1/2+y,-z
loop_
_atom_site_type_symbol
_atom_site_label
_atom_site_fract_x
_atom_site_fract_y
_atom_site_fract_z
Si Si1 0.801691 0.625000 0.844214
Si Si2 0.499144 0.893581 0.583922
Si Si3 0.364268 0.108192 0.643986
Si Si4 0.961665 0.323899 0.825671
Si Si5 0.389124 0.442900 0.128979
O O1 0.692286 0.778957 0.725342
O O2 0.862236 0.431191 0.834590
O O3 0.666799 0.561884 0.829957
O O4 0.000000 0.708279 0.000000
O O5 0.500000 0.972280 0.500000
O O6 0.334301 0.724611 0.485454
O O7 0.449501 0.055297 0.615521
O O8 0.503328 0.249040 0.777759
O O9 0.356711 0.908062 0.687513
O O10 0.976692 0.089633 0.835538
O O11 0.187657 0.389627 0.965612
#
# Coordination Sequence:
#
# PCOD9128039 Si02
#       5
#     4   4   4   4   4
#     4  10  23  45  71 109 145 186 245 302 358 444
#     4  12  26  48  72 110 150 198 244 304 369 435
#     4  12  26  46  73 106 146 196 248 297 369 444
#     4  11  22  43  77 104 146 189 239 307 364 435
#     4  11  23  45  72 110 144 190 247 301 368 433
#
# _framework density 23.824207999999999
#
# number of rings (size 3 to 8) (size 9 to 14) (size 15 to 20)
#    0.000    0.800    6.000    1.200    0.000    1.600 
#    0.000    1.000    0.000    0.000    0.000    0.000 
#    0.000    0.000    0.000    0.000    0.000    0.000 
#
# Total GULP energy -56052.785670 kJ/mol
# GULP energy per Si atom -5605.278567 kJ/mol
# Density = 2.376998 g / cm^3
# Si number density = 23.824208 Si / 1000 Ang^3
#
#
#
# Elastic Constant Matrix: (Units=GPa)
#
#
# Indices 1 2 3 4 5 6 
#
# 1 98.7859 39.8191 27.2110 0.0000 -12.4242 0.0000
# 2 39.8191 99.2352 45.2213 0.0000 0.8510 0.0000
# 3 27.2110 45.2213 109.4999 0.0000 -3.0830 0.0000
# 4 0.0000 0.0000 0.0000 31.6891 0.0000 -1.5962
# 5 -12.4242 0.8510 -3.0830 0.0000 33.0277 0.0000
# 6 0.0000 0.0000 0.0000 -1.5962 0.0000 48.7396
#
#
#
# Elastic Compliance Matrix: (Units=1/GPa)
#
#
# Indices 1 2 3 4 5 6 
#
# 1 0.012954 -0.004725 -0.001130 0.000000 0.004889 0.000000
# 2 -0.004725 0.014158 -0.004745 0.000000 -0.002585 0.000000
# 3 -0.001130 -0.004745 0.011394 0.000000 0.000761 0.000000
# 4 0.000000 0.000000 0.000000 0.031609 0.000000 0.001035
# 5 0.004889 -0.002585 0.000761 0.000000 0.032254 0.000000
# 6 0.000000 0.000000 0.000000 0.001035 0.000000 0.020551
#
#
# Mechanical properties :
#
#
# Convention : Reuss Voigt Hill
#
# Bulk Modulus (GPa) = 57.78675 59.11375 58.45025
# Shear Modulus (GPa) = 33.35810 35.70926 34.53368
#
# Velocity S-wave (km/s) = 3.74595 3.87572 3.81139
# Velocity P-wave (km/s) = 6.55879 6.70034 6.62994
#
# Compressibility (1/GPa) = 0.01730501
#
# Stress axis : x y z
#
# Youngs Moduli (GPa) = 77.19904 70.63367 87.76181
#
# Poissons Ratio (x) = 0.33372 0.09918
# Poissons Ratio (y) = 0.36474 0.41647
# Poissons Ratio (z) = 0.08725 0.33519
#
# Static dielectric constant tensor:
#      x y z
#    x 1.888750 0.000000 0.007930 
#    y 0.000000 1.921940 0.000000 
#    z 0.007930 0.000000 1.873110 
# 
# From -- ./inp_files/65752.got.cif
#   From: 2010.05.17/outbox.cif.g08.bks.cpg/sg5_33_cif.got.tgz:65752.got - 2010.06.03 18:56:24.
