data_PCOD9128361
_publ_section_title
;
Structure prediction by ZEFSAII (Michael W. Deem and Ramdas Pophale) SiO2 
 PCOD9128361
Probable space group: C 2
;
_chemical_formula_sum "Si O2"
_cell_formula_units_Z 16
_cell_length_a 7.271169
_cell_length_b 6.973676
_cell_length_c 20.090471
_cell_angle_alpha 90.000000
_cell_angle_beta 36.957243
_cell_angle_gamma 90.000000
_cell_volume 612.475511
_symmetry_space_group_name_H-M "C 2"
_symmetry_group_IT_number 5
_symmetry_cell_setting 'monoclinic'
loop_
_space_group_symop_operation_xyz
x,y,z
-x,y,-z
1/2+x,1/2+y,z
1/2-x,1/2+y,-z
loop_
_atom_site_type_symbol
_atom_site_label
_atom_site_fract_x
_atom_site_fract_y
_atom_site_fract_z
Si Si1 0.500000 0.994810 0.000000
Si Si2 0.761662 0.134768 0.119956
Si Si3 0.000000 0.127016 0.500000
Si Si4 0.035966 0.236565 0.185576
Si Si5 0.577526 0.997544 0.405979
O O1 0.227341 0.837005 0.090433
O O2 0.375871 0.143404 0.090859
O O3 0.917636 0.195843 0.144479
O O4 0.524806 0.964535 0.201088
O O5 0.000000 0.034336 0.000000
O O6 0.732436 0.006606 0.545769
O O7 0.150014 0.276787 0.403200
O O8 0.829581 0.119684 0.296229
O O9 0.500000 0.085048 0.500000
#
# Coordination Sequence:
#
# PCOD9128361 Si02
#       5
#     2   4   2   4   4
#     4  10  24  42  70 106 152 188 246 300 370 452
#     4  10  25  41  70 102 152 190 246 297 367 446
#     4  10  26  48  74 106 152 196 250 318 368 444
#     4  12  24  45  73 110 148 204 241 311 377 450
#     4  10  28  48  78 111 151 196 256 313 375 454
#
# _framework density 26.123494999999998
#
# number of rings (size 3 to 8) (size 9 to 14) (size 15 to 20)
#    1.500    0.000    1.250    1.500    8.750    0.000 
#    0.000    0.000    0.000    0.000    0.000    0.000 
#    0.000    0.000    0.000    0.000    0.000    0.000 
#
# Total GULP energy -44599.103002 kJ/mol
# GULP energy per Si atom -5574.887875 kJ/mol
# Density = 2.606404 g / cm^3
# Si number density = 26.123495 Si / 1000 Ang^3
#
#
#
# Elastic Constant Matrix: (Units=GPa)
#
#
# Indices 1 2 3 4 5 6 
#
# 1 138.2022 58.4726 32.9639 0.0006 12.6171 0.0011
# 2 58.4726 160.3433 25.7569 -0.0012 4.5177 0.0018
# 3 32.9639 25.7569 118.4223 0.0019 20.5246 0.0051
# 4 0.0006 -0.0012 0.0019 -147.2384 0.0030 -63.9684
# 5 12.6171 4.5177 20.5246 0.0030 25.6856 -0.0005
# 6 0.0011 0.0018 0.0051 -63.9684 -0.0005 8.5782
#
#
#
# Elastic Compliance Matrix: (Units=1/GPa)
#
#
# Indices 1 2 3 4 5 6 
#
# 1 0.009101 -0.003016 -0.001386 0.000000 -0.002832 0.000000
# 2 -0.003016 0.007462 -0.000943 0.000000 0.000923 0.000000
# 3 -0.001386 -0.000943 0.010318 0.000001 -0.007397 -0.000001
# 4 0.000000 0.000000 0.000001 -0.001602 -0.000001 -0.011946
# 5 -0.002832 0.000923 -0.007397 -0.000001 0.046072 0.000003
# 6 0.000000 0.000000 -0.000001 -0.011946 0.000003 0.027495
#
#
# Mechanical properties :
#
#
# Convention : Reuss Voigt Hill
#
# Bulk Modulus (GPa) = 61.77231 72.37275 67.07253
# Shear Modulus (GPa) = 43.50258 -2.60997 20.44631
#
# Velocity S-wave (km/s) = 4.08519 -1.00063 2.80067
# Velocity P-wave (km/s) = 6.77860 5.14094 6.01575
#
# Compressibility (1/GPa) = 0.01618848
#
# Stress axis : x y z
#
# Youngs Moduli (GPa) = 109.87444 134.00936 96.92197
#
# Poissons Ratio (x) = 0.40423 0.13438
# Poissons Ratio (y) = 0.33143 0.09143
# Poissons Ratio (z) = 0.15234 0.12642
#
# Static dielectric constant tensor:
#      x y z
#    x 2.245970 0.000000 -0.097500 
#    y 0.000000 2.030760 0.000000 
#    z -0.097500 0.000000 2.091010 
# 
# From -- ./inp_files/67862.got.cif
#   From: 2010.05.17/outbox.cif.g08.bks.cpg/sg5_34_cif.got.tgz:67862.got - 2010.06.03 18:56:24.
