data_PCOD9128597
_publ_section_title
;
Structure prediction by ZEFSAII (Michael W. Deem and Ramdas Pophale) SiO2 
 PCOD9128597
Probable space group: C 2
;
_chemical_formula_sum "Si O2"
_cell_formula_units_Z 22
_cell_length_a 12.005124
_cell_length_b 15.781406
_cell_length_c 5.060901
_cell_angle_alpha 90.000000
_cell_angle_beta 81.100860
_cell_angle_gamma 90.000000
_cell_volume 947.284668
_symmetry_space_group_name_H-M "C 2"
_symmetry_group_IT_number 5
_symmetry_cell_setting 'monoclinic'
loop_
_space_group_symop_operation_xyz
x,y,z
-x,y,-z
1/2+x,1/2+y,z
1/2-x,1/2+y,-z
loop_
_atom_site_type_symbol
_atom_site_label
_atom_site_fract_x
_atom_site_fract_y
_atom_site_fract_z
Si Si1 0.424577 0.013700 0.795112
Si Si2 0.107032 0.316108 0.131548
Si Si3 0.206881 0.078272 0.633138
Si Si4 0.271918 0.767205 0.406783
Si Si5 0.372486 0.423981 0.644799
Si Si6 0.500000 0.512055 0.000000
O O1 0.500000 0.011662 0.500000
O O2 0.307781 0.061192 0.797216
O O3 0.393200 0.917678 0.888442
O O4 0.500000 0.051462 0.000000
O O5 0.129684 0.299026 0.430687
O O6 0.202951 0.274064 0.915730
O O7 0.000000 0.286721 0.000000
O O8 0.237287 0.169932 0.509210
O O9 0.206431 0.999306 0.432017
O O10 0.078721 0.074623 0.794665
O O11 0.172077 0.835999 0.453691
O O12 0.500000 0.436768 0.500000
O O13 0.400251 0.448054 0.936983
#
# Coordination Sequence:
#
# PCOD9128597 Si02
#       6
#     4   4   4   4   4   2
#     4  11  24  44  72 100 138 187 228 290 357 423
#     4  11  24  42  68 100 138 170 227 280 359 411
#     4  11  26  44  71 104 142 183 244 289 357 420
#     4  12  26  43  71 104 137 184 230 293 342 426
#     4  10  24  46  70  97 142 188 237 286 357 423
#     4  10  24  46  72 100 140 196 232 298 350 424
#
# _framework density 23.224277000000001
#
# number of rings (size 3 to 8) (size 9 to 14) (size 15 to 20)
#    0.000    1.091    1.818    3.818    8.909    3.636 
#    1.636    0.000    0.000    0.000    0.000    0.000 
#    0.000    0.000    0.000    0.000    0.000    0.000 
#
# Total GULP energy -61282.295399 kJ/mol
# GULP energy per Si atom -5571.117764 kJ/mol
# Density = 2.317142 g / cm^3
# Si number density = 23.224277 Si / 1000 Ang^3
#
#
#
# Elastic Constant Matrix: (Units=GPa)
#
#
# Indices 1 2 3 4 5 6 
#
# 1 100.8476 56.0278 28.7140 0.0000 39.7902 0.0000
# 2 56.0278 112.6014 8.1735 0.0000 24.1344 0.0000
# 3 28.7140 8.1735 86.0097 0.0000 22.6380 0.0000
# 4 0.0000 0.0000 0.0000 17.3829 0.0000 0.7475
# 5 39.7902 24.1344 22.6380 0.0000 48.9078 0.0000
# 6 0.0000 0.0000 0.0000 0.7475 0.0000 7.9065
#
#
#
# Elastic Compliance Matrix: (Units=1/GPa)
#
#
# Indices 1 2 3 4 5 6 
#
# 1 0.018655 -0.006826 -0.002814 0.000000 -0.010506 0.000000
# 2 -0.006826 0.012441 0.001424 0.000000 -0.001245 0.000000
# 3 -0.002814 0.001424 0.013680 0.000000 -0.004745 0.000000
# 4 0.000000 0.000000 0.000000 0.057763 0.000000 -0.005461
# 5 -0.010506 -0.001245 -0.004745 0.000000 0.031805 0.000000
# 6 0.000000 0.000000 0.000000 -0.005461 0.000000 0.126995
#
#
# Mechanical properties :
#
#
# Convention : Reuss Voigt Hill
#
# Bulk Modulus (GPa) = 35.28103 53.92104 44.60104
# Shear Modulus (GPa) = 17.40842 28.60899 23.00870
#
# Velocity S-wave (km/s) = 2.74081 3.51359 3.15098
# Velocity P-wave (km/s) = 5.02399 6.30304 5.69951
#
# Compressibility (1/GPa) = 0.02834384
#
# Stress axis : x y z
#
# Youngs Moduli (GPa) = 53.60546 80.38058 73.10118
#
# Poissons Ratio (x) = 0.54869 0.20570
# Poissons Ratio (y) = 0.36592 -0.10411
# Poissons Ratio (z) = 0.15084 -0.11448
#
# Static dielectric constant tensor:
#      x y z
#    x 1.925000 0.000000 -0.022620 
#    y 0.000000 1.869090 0.000000 
#    z -0.022620 0.000000 2.352380 
# 
# From -- ./inp_files/4809.got.cif
#   From: 2010.05.17/outbox.cif.g08.bks.cpg/sg5_3_cif.got.tgz:4809.got - 2010.06.03 18:56:24.
