data_PCOD9128018
_publ_section_title
;
Structure prediction by ZEFSAII (Michael W. Deem and Ramdas Pophale) SiO2 
 PCOD9128018
Probable space group: C 2
;
_chemical_formula_sum "Si O2"
_cell_formula_units_Z 20
_cell_length_a 9.438021
_cell_length_b 6.903480
_cell_length_c 20.287431
_cell_angle_alpha 90.000000
_cell_angle_beta 145.066516
_cell_angle_gamma 90.000000
_cell_volume 756.913811
_symmetry_space_group_name_H-M "C 2"
_symmetry_group_IT_number 5
_symmetry_cell_setting 'monoclinic'
loop_
_space_group_symop_operation_xyz
x,y,z
-x,y,-z
1/2+x,1/2+y,z
1/2-x,1/2+y,-z
loop_
_atom_site_type_symbol
_atom_site_label
_atom_site_fract_x
_atom_site_fract_y
_atom_site_fract_z
Si Si1 0.361277 0.590760 0.123177
Si Si2 0.413024 0.060352 0.319668
Si Si3 0.000000 0.314292 0.000000
Si Si4 0.000000 0.540762 0.500000
Si Si5 0.455587 0.024280 0.192403
Si Si6 0.448697 0.513209 0.307998
O O1 0.623424 0.543404 0.192166
O O2 0.355747 0.820388 0.127133
O O3 0.377122 0.515198 0.204257
O O4 0.137544 0.474326 0.005471
O O5 0.473439 0.292300 0.345481
O O6 0.449278 0.965000 0.405367
O O7 0.537512 0.992541 0.299939
O O8 0.230113 0.173151 0.101056
O O9 0.719521 0.612451 0.410704
O O10 0.708238 0.092663 0.253585
#
# Coordination Sequence:
#
# PCOD9128018 Si02
#       6
#     4   4   2   2   4   4
#     4  10  24  45  66 100 151 179 241 296 335 426
#     4  10  23  46  67 106 142 184 237 298 349 426
#     4  12  24  46  72 104 144 206 224 288 366 406
#     4  10  24  42  78 104 144 188 232 294 374 412
#     4  11  25  43  72 106 146 186 243 286 350 423
#     4  10  23  45  68 105 143 183 237 298 346 429
#
# _framework density 26.423088
#
# number of rings (size 3 to 8) (size 9 to 14) (size 15 to 20)
#    0.000    1.600    2.000    0.600    2.800    8.800 
#    0.000    0.000    0.000    1.200    0.000    0.000 
#    0.000    0.000    0.000    0.000    0.000    0.000 
#
# Total GULP energy -55697.144444 kJ/mol
# GULP energy per Si atom -5569.714444 kJ/mol
# Density = 2.636295 g / cm^3
# Si number density = 26.423088 Si / 1000 Ang^3
#
#
#
# Elastic Constant Matrix: (Units=GPa)
#
#
# Indices 1 2 3 4 5 6 
#
# 1 209.0836 24.8773 66.6204 0.0001 15.9131 0.0000
# 2 24.8773 151.3450 51.8298 0.0000 14.0722 0.0000
# 3 66.6204 51.8298 131.4304 0.0008 44.5329 0.0000
# 4 0.0001 0.0000 0.0008 17.9060 0.0001 2.5230
# 5 15.9131 14.0722 44.5329 0.0001 60.4626 -0.0001
# 6 0.0000 0.0000 0.0000 2.5230 -0.0001 -8.7959
#
#
#
# Elastic Compliance Matrix: (Units=1/GPa)
#
#
# Indices 1 2 3 4 5 6 
#
# 1 0.005737 0.000084 -0.003229 0.000000 0.000849 0.000000
# 2 0.000084 0.007656 -0.003265 0.000000 0.000601 0.000000
# 3 -0.003229 -0.003265 0.013309 -0.000001 -0.008193 0.000000
# 4 0.000000 0.000000 -0.000001 0.053678 0.000000 0.015397
# 5 0.000849 0.000601 -0.008193 0.000000 0.022210 0.000000
# 6 0.000000 0.000000 0.000000 0.015397 0.000000 -0.109273
#
#
# Mechanical properties :
#
#
# Convention : Reuss Voigt Hill
#
# Bulk Modulus (GPa) = 72.03808 86.50155 79.26981
# Shear Modulus (GPa) = 464.50442 37.14997 250.82719
#
# Velocity S-wave (km/s) = 13.27315 3.75369 9.75363
# Velocity P-wave (km/s) = 16.19335 7.18297 12.52636
#
# Compressibility (1/GPa) = 0.01388155
#
# Stress axis : x y z
#
# Youngs Moduli (GPa) = 174.30916 130.61666 75.13893
#
# Poissons Ratio (x) = -0.01094 0.24259
# Poissons Ratio (y) = -0.01460 0.24535
# Poissons Ratio (z) = 0.56276 0.42650
#
# Static dielectric constant tensor:
#      x y z
#    x 2.049680 0.000000 -0.020560 
#    y 0.000000 2.142240 0.000000 
#    z -0.020560 0.000000 2.166930 
# 
# From -- ./inp_files/64263.got.cif
#   From: 2010.05.17/outbox.cif.g08.bks.cpg/sg5_33_cif.got.tgz:64263.got - 2010.06.03 18:56:24.
