data_PCOD9128718
_publ_section_title
;
Structure prediction by ZEFSAII (Michael W. Deem and Ramdas Pophale) SiO2 
 PCOD9128718
Probable space group: C 2
;
_chemical_formula_sum "Si O2"
_cell_formula_units_Z 16
_cell_length_a 8.091414
_cell_length_b 4.823871
_cell_length_c 14.639976
_cell_angle_alpha 90.000000
_cell_angle_beta 80.468827
_cell_angle_gamma 90.000000
_cell_volume 563.538457
_symmetry_space_group_name_H-M "C 2"
_symmetry_group_IT_number 5
_symmetry_cell_setting 'monoclinic'
loop_
_space_group_symop_operation_xyz
x,y,z
-x,y,-z
1/2+x,1/2+y,z
1/2-x,1/2+y,-z
loop_
_atom_site_type_symbol
_atom_site_label
_atom_site_fract_x
_atom_site_fract_y
_atom_site_fract_z
Si Si1 0.300005 0.307090 0.377842
Si Si2 0.359182 0.476213 0.743646
Si Si3 0.000000 0.667706 0.000000
Si Si4 0.000000 0.169311 0.500000
Si Si5 0.733584 0.977372 0.128626
O O1 0.450616 0.393307 0.295600
O O2 0.373847 0.462767 0.460001
O O3 0.101086 0.363214 0.419320
O O4 0.253862 0.002537 0.338128
O O5 0.351995 0.775063 0.790866
O O6 0.270682 0.271963 0.822540
O O7 0.868539 0.486438 0.956406
O O8 0.088457 0.858139 0.916563
#
# Coordination Sequence:
#
# PCOD9128718 Si02
#       5
#     4   4   2   2   4
#     4  10  25  48  78 113 156 202 256 315 382 454
#     4  11  27  49  80 114 155 204 257 316 382 455
#     4  12  30  52  80 114 156 204 256 318 384 456
#     4  10  24  48  74 112 156 204 256 314 382 456
#     4  12  29  52  79 115 155 204 257 317 383 456
#
# _framework density 28.392029000000001
#
# number of rings (size 3 to 8) (size 9 to 14) (size 15 to 20)
#    0.000    1.000    0.000    3.000    0.000   28.000 
#    0.000    0.000    0.000    0.000    0.000    0.000 
#    0.000    0.000    0.000    0.000    0.000    0.000 
#
# Total GULP energy -44720.449436 kJ/mol
# GULP energy per Si atom -5590.056180 kJ/mol
# Density = 2.832741 g / cm^3
# Si number density = 28.392029 Si / 1000 Ang^3
#
#
#
# Elastic Constant Matrix: (Units=GPa)
#
#
# Indices 1 2 3 4 5 6 
#
# 1 162.9151 33.5376 50.0956 0.0000 -15.1449 0.0000
# 2 33.5376 77.1681 25.7027 0.0000 17.0236 0.0000
# 3 50.0956 25.7027 160.5234 0.0000 -24.6564 0.0000
# 4 0.0000 0.0000 0.0000 48.3638 0.0000 4.9737
# 5 -15.1449 17.0236 -24.6564 0.0000 64.1414 0.0000
# 6 0.0000 0.0000 0.0000 4.9737 0.0000 55.3867
#
#
#
# Elastic Compliance Matrix: (Units=1/GPa)
#
#
# Indices 1 2 3 4 5 6 
#
# 1 0.007443 -0.003181 -0.001503 0.000000 0.002024 0.000000
# 2 -0.003181 0.016565 -0.002604 0.000000 -0.006149 0.000000
# 3 -0.001503 -0.002604 0.007617 0.000000 0.003264 0.000000
# 4 0.000000 0.000000 0.000000 0.020869 0.000000 -0.001874
# 5 0.002024 -0.006149 0.003264 0.000000 0.018955 0.000000
# 6 0.000000 0.000000 0.000000 -0.001874 0.000000 0.018223
#
#
# Mechanical properties :
#
#
# Convention : Reuss Voigt Hill
#
# Bulk Modulus (GPa) = 58.65159 68.80871 63.73015
# Shear Modulus (GPa) = 45.48300 52.99641 49.23971
#
# Velocity S-wave (km/s) = 4.00680 4.32510 4.16899
# Velocity P-wave (km/s) = 6.48911 7.01639 6.75790
#
# Compressibility (1/GPa) = 0.01704984
#
# Stress axis : x y z
#
# Youngs Moduli (GPa) = 134.35087 60.36862 131.28662
#
# Poissons Ratio (x) = 0.19203 0.19728
# Poissons Ratio (y) = 0.42735 0.34188
# Poissons Ratio (z) = 0.20188 0.15720
#
# Static dielectric constant tensor:
#      x y z
#    x 2.141210 0.000000 0.091710 
#    y 0.000000 2.172070 0.000000 
#    z 0.091710 0.000000 2.342330 
# 
# From -- ./inp_files/49696.got.cif
#   From: 2010.05.17/outbox.cif.g08.bks.cpg/sg5_25_cif.got.tgz:49696.got - 2010.06.03 18:56:24.
