data_PCOD9128137
_publ_section_title
;
Structure prediction by ZEFSAII (Michael W. Deem and Ramdas Pophale) SiO2 
 PCOD9128137
Probable space group: C 2
;
_chemical_formula_sum "Si O2"
_cell_formula_units_Z 16
_cell_length_a 4.774915
_cell_length_b 13.406482
_cell_length_c 10.274570
_cell_angle_alpha 90.000000
_cell_angle_beta 97.500478
_cell_angle_gamma 90.000000
_cell_volume 652.097025
_symmetry_space_group_name_H-M "C 2"
_symmetry_group_IT_number 5
_symmetry_cell_setting 'monoclinic'
loop_
_space_group_symop_operation_xyz
x,y,z
-x,y,-z
1/2+x,1/2+y,z
1/2-x,1/2+y,-z
loop_
_atom_site_type_symbol
_atom_site_label
_atom_site_fract_x
_atom_site_fract_y
_atom_site_fract_z
Si Si1 0.229792 0.620990 0.629250
Si Si2 0.749056 0.571145 0.085325
Si Si3 0.538852 0.830625 0.647319
Si Si4 0.449281 0.436831 0.260585
O O1 0.119612 0.614994 0.772730
O O2 0.414312 0.720894 0.636982
O O3 0.000000 0.621225 0.500000
O O4 0.866128 0.839168 0.698113
O O5 0.555711 0.480856 0.131074
O O6 0.500000 0.635825 0.000000
O O7 0.000000 0.552310 0.000000
O O8 0.500000 0.872245 0.500000
O O9 0.939185 0.025232 0.638627
O O10 0.367709 0.903426 0.733653
#
# Coordination Sequence:
#
# PCOD9128137 Si02
#       4
#     4   4   4   4
#     4  10  25  44  73 103 144 176 235 287 352 404
#     4  10  23  47  71  97 140 187 231 282 347 418
#     4  12  24  42  66 108 140 176 230 288 347 419
#     4  10  25  43  70  94 146 178 228 281 350 397
#
# _framework density 24.536228000000001
#
# number of rings (size 3 to 8) (size 9 to 14) (size 15 to 20)
#    1.500    0.000    0.000    4.500    0.000   10.000 
#    0.000    7.500    0.000    0.000    0.000    0.000 
#    0.000    0.000    0.000    0.000    0.000    0.000 
#
# Total GULP energy -44655.407574 kJ/mol
# GULP energy per Si atom -5581.925947 kJ/mol
# Density = 2.448038 g / cm^3
# Si number density = 24.536228 Si / 1000 Ang^3
#
#
#
# Elastic Constant Matrix: (Units=GPa)
#
#
# Indices 1 2 3 4 5 6 
#
# 1 112.3988 25.3407 32.4165 0.0000 -3.3124 0.0000
# 2 25.3407 116.7170 10.0744 0.0000 2.6689 0.0000
# 3 32.4165 10.0744 178.8565 0.0000 -13.9148 0.0000
# 4 0.0000 0.0000 0.0000 7.1130 0.0000 -16.2153
# 5 -3.3124 2.6689 -13.9148 0.0000 56.0434 0.0000
# 6 0.0000 0.0000 0.0000 -16.2153 0.0000 -17.7334
#
#
#
# Elastic Compliance Matrix: (Units=1/GPa)
#
#
# Indices 1 2 3 4 5 6 
#
# 1 0.009831 -0.001998 -0.001648 0.000000 0.000267 0.000000
# 2 -0.001998 0.009032 -0.000193 0.000000 -0.000596 0.000000
# 3 -0.001648 -0.000193 0.006010 0.000000 0.001404 0.000000
# 4 0.000000 0.000000 0.000000 0.045578 0.000000 -0.041677
# 5 0.000267 -0.000596 0.001404 0.000000 0.018236 0.000000
# 6 0.000000 0.000000 0.000000 -0.041677 0.000000 -0.018282
#
#
# Mechanical properties :
#
#
# Convention : Reuss Voigt Hill
#
# Bulk Modulus (GPa) = 58.16207 60.40393 59.28300
# Shear Modulus (GPa) = 59.65497 31.76065 45.70781
#
# Velocity S-wave (km/s) = 4.93617 3.60173 4.32078
# Velocity P-wave (km/s) = 7.49958 6.47830 7.00757
#
# Compressibility (1/GPa) = 0.01719333
#
# Stress axis : x y z
#
# Youngs Moduli (GPa) = 101.72252 110.71931 166.39120
#
# Poissons Ratio (x) = 0.22124 0.27428
# Poissons Ratio (y) = 0.20326 0.03211
# Poissons Ratio (z) = 0.16768 0.02136
#
# Static dielectric constant tensor:
#      x y z
#    x 1.946690 0.000000 0.026120 
#    y 0.000000 1.967620 0.000000 
#    z 0.026120 0.000000 2.091870 
# 
# From -- ./inp_files/11779.got.cif
#   From: 2010.05.17/outbox.cif.g08.bks.cpg/sg5_6_cif.got.tgz:11779.got - 2010.06.03 18:56:24.
