data_PCOD9128029
_publ_section_title
;
Structure prediction by ZEFSAII (Michael W. Deem and Ramdas Pophale) SiO2 
 PCOD9128029
Probable space group: C 2
;
_chemical_formula_sum "Si O2"
_cell_formula_units_Z 20
_cell_length_a 16.694137
_cell_length_b 6.904729
_cell_length_c 7.414896
_cell_angle_alpha 90.000000
_cell_angle_beta 71.914800
_cell_angle_gamma 90.000000
_cell_volume 812.478046
_symmetry_space_group_name_H-M "C 2"
_symmetry_group_IT_number 5
_symmetry_cell_setting 'monoclinic'
loop_
_space_group_symop_operation_xyz
x,y,z
-x,y,-z
1/2+x,1/2+y,z
1/2-x,1/2+y,-z
loop_
_atom_site_type_symbol
_atom_site_label
_atom_site_fract_x
_atom_site_fract_y
_atom_site_fract_z
Si Si1 0.759618 0.226550 0.745492
Si Si2 0.655925 0.561707 0.652621
Si Si3 0.876498 0.455408 0.122261
Si Si4 0.480898 0.284828 0.223653
Si Si5 0.432610 0.950447 0.702261
O O1 0.697108 0.403273 0.753010
O O2 0.781346 0.099133 0.554693
O O3 0.847559 0.333429 0.721222
O O4 0.705597 0.071490 0.899228
O O5 0.645560 0.760307 0.763505
O O6 0.566932 0.466123 0.658716
O O7 0.916189 0.603577 0.241288
O O8 0.937395 0.405935 0.912829
O O9 0.556869 0.187220 0.284057
O O10 0.500000 0.335117 0.000000
O O11 0.500000 0.897063 0.500000
#
# Coordination Sequence:
#
# PCOD9128029 Si02
#       5
#     4   4   4   4   4
#     4  11  24  42  71 104 138 187 236 291 348 424
#     4  11  22  43  73  95 138 193 235 281 356 424
#     4  10  23  45  69  97 143 185 235 283 355 426
#     4   9  22  45  67  99 136 183 231 290 352 417
#     4  11  25  43  69 105 147 178 237 298 348 412
#
# _framework density 24.616050000000001
#
# number of rings (size 3 to 8) (size 9 to 14) (size 15 to 20)
#    0.000    1.600    2.000    1.200    5.600    4.000 
#    0.000    9.000    0.000    0.000    0.000    0.000 
#    0.000    0.000    0.000    0.000    0.000    0.000 
#
# Total GULP energy -55741.695546 kJ/mol
# GULP energy per Si atom -5574.169555 kJ/mol
# Density = 2.456002 g / cm^3
# Si number density = 24.616050 Si / 1000 Ang^3
#
#
#
# Elastic Constant Matrix: (Units=GPa)
#
#
# Indices 1 2 3 4 5 6 
#
# 1 91.8491 47.4848 25.5757 0.0000 -16.6233 0.0000
# 2 47.4848 131.3983 43.0296 0.0000 -16.8079 0.0000
# 3 25.5757 43.0296 120.7782 0.0000 -24.6814 0.0000
# 4 0.0000 0.0000 0.0000 -7.6924 0.0000 2.5030
# 5 -16.6233 -16.8079 -24.6814 0.0000 29.7950 0.0000
# 6 0.0000 0.0000 0.0000 2.5030 0.0000 30.2392
#
#
#
# Elastic Compliance Matrix: (Units=1/GPa)
#
#
# Indices 1 2 3 4 5 6 
#
# 1 0.014167 -0.004330 -0.000411 0.000000 0.005121 0.000000
# 2 -0.004330 0.010136 -0.002431 0.000000 0.001288 0.000000
# 3 -0.000411 -0.002431 0.010720 0.000000 0.007280 0.000000
# 4 0.000000 0.000000 0.000000 -0.126589 0.000000 0.010478
# 5 0.005121 0.001288 0.007280 0.000000 0.043177 0.000000
# 6 0.000000 0.000000 0.000000 0.010478 0.000000 0.032202
#
#
# Mechanical properties :
#
#
# Convention : Reuss Voigt Hill
#
# Bulk Modulus (GPa) = 48.35590 64.02286 56.18938
# Shear Modulus (GPa) = 989.74292 25.66405 507.70349
#
# Velocity S-wave (km/s) = 20.07349 3.23239 14.37695
# Velocity P-wave (km/s) = 23.59972 6.32426 17.27633
#
# Compressibility (1/GPa) = 0.02068000
#
# Stress axis : x y z
#
# Youngs Moduli (GPa) = 70.58491 98.65649 93.28015
#
# Poissons Ratio (x) = 0.42720 0.03832
# Poissons Ratio (y) = 0.30565 0.22676
# Poissons Ratio (z) = 0.02899 0.23983
#
# Static dielectric constant tensor:
#      x y z
#    x 2.297500 0.000000 -0.032950 
#    y 0.000000 1.938130 0.000000 
#    z -0.032950 0.000000 1.971700 
# 
# From -- ./inp_files/28258.got.cif
#   From: 2010.05.17/outbox.cif.g08.bks.cpg/sg5_15_cif.got.tgz:28258.got - 2010.06.03 18:56:24.
