data_PCOD9128799
_publ_section_title
;
Structure prediction by ZEFSAII (Michael W. Deem and Ramdas Pophale) SiO2 
 PCOD9128799
Probable space group: C 2
;
_chemical_formula_sum "Si O2"
_cell_formula_units_Z 16
_cell_length_a 9.290717
_cell_length_b 5.118979
_cell_length_c 14.564348
_cell_angle_alpha 90.000000
_cell_angle_beta 104.110538
_cell_angle_gamma 90.000000
_cell_volume 671.765945
_symmetry_space_group_name_H-M "C 2"
_symmetry_group_IT_number 5
_symmetry_cell_setting 'monoclinic'
loop_
_space_group_symop_operation_xyz
x,y,z
-x,y,-z
1/2+x,1/2+y,z
1/2-x,1/2+y,-z
loop_
_atom_site_type_symbol
_atom_site_label
_atom_site_fract_x
_atom_site_fract_y
_atom_site_fract_z
Si Si1 0.970968 0.817010 0.245309
Si Si2 0.847748 0.011792 0.033890
Si Si3 0.369309 0.481340 0.413151
Si Si4 0.429647 0.819322 0.658601
O O1 0.894908 0.910219 0.141498
O O2 0.036083 0.528759 0.257091
O O3 0.862469 0.826515 0.315787
O O4 0.088449 0.035242 0.297461
O O5 0.742594 0.783329 0.976341
O O6 0.000000 0.043037 0.000000
O O7 0.500000 0.389346 0.500000
O O8 0.430078 0.759915 0.386317
O O9 0.204465 0.435288 0.422363
#
# Coordination Sequence:
#
# PCOD9128799 Si02
#       4
#     4   4   4   4
#     4  10  26  44  72  98 144 178 234 287 351 414
#     4  12  28  46  76 107 144 186 240 292 358 422
#     4  10  26  43  71 100 141 182 235 283 351 415
#     4  10  25  41  69  96 140 179 233 280 351 405
#
# _framework density 23.817820999999999
#
# number of rings (size 3 to 8) (size 9 to 14) (size 15 to 20)
#    1.500    0.000    0.000    2.250   14.000    1.000 
#    0.000    0.000    0.000    0.000    0.000    0.000 
#    0.000    0.000    0.000    0.000    0.000    0.000 
#
# Total GULP energy -44596.142644 kJ/mol
# GULP energy per Si atom -5574.517831 kJ/mol
# Density = 2.376361 g / cm^3
# Si number density = 23.817821 Si / 1000 Ang^3
#
#
#
# Elastic Constant Matrix: (Units=GPa)
#
#
# Indices 1 2 3 4 5 6 
#
# 1 101.5893 45.4664 15.8287 0.0000 32.1492 0.0000
# 2 45.4664 98.5251 -20.7144 0.0000 19.1510 0.0000
# 3 15.8287 -20.7144 77.9079 0.0000 0.3670 0.0000
# 4 0.0000 0.0000 0.0000 -990.2416 0.0000 -204.1594
# 5 32.1492 19.1510 0.3670 0.0000 34.9466 0.0000
# 6 0.0000 0.0000 0.0000 -204.1594 0.0000 -16.9067
#
#
#
# Elastic Compliance Matrix: (Units=1/GPa)
#
#
# Indices 1 2 3 4 5 6 
#
# 1 0.017698 -0.006873 -0.005365 0.000000 -0.012459 0.000000
# 2 -0.006873 0.014803 0.005341 0.000000 -0.001845 0.000000
# 3 -0.005365 0.005341 0.015337 0.000000 0.001847 0.000000
# 4 0.000000 0.000000 0.000000 0.000678 0.000000 -0.008186
# 5 -0.012459 -0.001845 0.001847 0.000000 0.041068 0.000000
# 6 0.000000 0.000000 0.000000 -0.008186 0.000000 0.039706
#
#
# Mechanical properties :
#
#
# Convention : Reuss Voigt Hill
#
# Bulk Modulus (GPa) = 29.37333 39.90929 34.64131
# Shear Modulus (GPa) = 32.37655 -178.61089 -73.11717
#
# Velocity S-wave (km/s) = 3.69092 -8.66910 -5.54663
# Velocity P-wave (km/s) = 5.52478 9.13301 5.14241
#
# Compressibility (1/GPa) = 0.03404449
#
# Stress axis : x y z
#
# Youngs Moduli (GPa) = 56.50251 67.55301 65.20164
#
# Poissons Ratio (x) = 0.46433 0.34978
# Poissons Ratio (y) = 0.38837 -0.34825
# Poissons Ratio (z) = 0.30312 -0.36081
#
# Static dielectric constant tensor:
#      x y z
#    x 9.183000 0.000000 -1.896100 
#    y 0.000000 1.890860 0.000000 
#    z -1.896100 0.000000 2.402790 
# 
# From -- ./inp_files/49740.got.cif
#   From: 2010.05.17/outbox.cif.g08.bks.cpg/sg5_25_cif.got.tgz:49740.got - 2010.06.03 18:56:24.
