data_PCOD9128590
_publ_section_title
;
Structure prediction by ZEFSAII (Michael W. Deem and Ramdas Pophale) SiO2 
 PCOD9128590
Probable space group: C 2
;
_chemical_formula_sum "Si O2"
_cell_formula_units_Z 28
_cell_length_a 17.837567
_cell_length_b 7.023483
_cell_length_c 10.396737
_cell_angle_alpha 90.000000
_cell_angle_beta 109.238664
_cell_angle_gamma 90.000000
_cell_volume 1229.782064
_symmetry_space_group_name_H-M "C 2"
_symmetry_group_IT_number 5
_symmetry_cell_setting 'monoclinic'
loop_
_space_group_symop_operation_xyz
x,y,z
-x,y,-z
1/2+x,1/2+y,z
1/2-x,1/2+y,-z
loop_
_atom_site_type_symbol
_atom_site_label
_atom_site_fract_x
_atom_site_fract_y
_atom_site_fract_z
Si Si1 0.847195 0.273170 0.168661
Si Si2 0.829528 0.087613 0.629496
Si Si3 0.172420 0.618090 0.043371
Si Si4 0.847601 0.439808 0.455292
Si Si5 0.912809 0.819958 0.474570
Si Si6 0.435869 0.341184 0.851659
Si Si7 0.587142 0.389587 0.804780
O O1 0.764211 0.155858 0.123431
O O2 0.858774 0.350754 0.319707
O O3 0.914214 0.116082 0.180307
O O4 0.842861 0.432999 0.054117
O O5 0.845078 0.289164 0.570329
O O6 0.736992 0.048636 0.597403
O O7 0.860212 0.938156 0.541153
O O8 0.878799 0.017741 0.782709
O O9 0.117647 0.658778 0.138403
O O10 0.143063 0.795271 0.941216
O O11 0.913049 0.600380 0.512939
O O12 0.877122 0.834306 0.311675
O O13 0.000000 0.904960 0.500000
O O14 0.498240 0.308138 0.771344
O O15 0.500000 0.383212 0.000000
#
# Coordination Sequence:
#
# PCOD9128590 Si02
#       7
#     4   4   4   4   4   4   4
#     4  12  23  40  75 107 138 189 249 297 357 435
#     4  12  24  45  71 107 148 189 243 306 367 435
#     4  11  23  42  69 103 142 187 240 297 356 436
#     4  12  26  42  73 111 143 192 249 299 367 437
#     4  12  25  43  71 104 143 188 236 309 367 432
#     4  10  24  46  69  98 150 194 232 298 368 435
#     4  11  23  43  68 102 141 188 241 299 364 428
#
# _framework density 22.768262
#
# number of rings (size 3 to 8) (size 9 to 14) (size 15 to 20)
#    0.000    0.571    8.571    0.000    0.000    1.714 
#    0.000   13.571    0.000    0.000    0.000    0.000 
#    0.000    0.000    0.000    0.000    0.000    0.000 
#
# Total GULP energy -78186.519763 kJ/mol
# GULP energy per Si atom -5584.751412 kJ/mol
# Density = 2.271644 g / cm^3
# Si number density = 22.768262 Si / 1000 Ang^3
#
#
#
# Elastic Constant Matrix: (Units=GPa)
#
#
# Indices 1 2 3 4 5 6 
#
# 1 99.5135 26.0186 19.4746 0.0000 -8.7289 0.0000
# 2 26.0186 116.3546 26.6259 0.0000 -13.8500 0.0000
# 3 19.4746 26.6259 66.2151 0.0000 -3.1758 0.0000
# 4 0.0000 0.0000 0.0000 44.3135 0.0000 -7.1685
# 5 -8.7289 -13.8500 -3.1758 0.0000 31.9409 0.0000
# 6 0.0000 0.0000 0.0000 -7.1685 0.0000 27.6173
#
#
#
# Elastic Compliance Matrix: (Units=1/GPa)
#
#
# Indices 1 2 3 4 5 6 
#
# 1 0.011160 -0.001674 -0.002509 0.000000 0.002074 0.000000
# 2 -0.001674 0.010184 -0.003429 0.000000 0.003617 0.000000
# 3 -0.002509 -0.003429 0.017197 0.000000 -0.000463 0.000000
# 4 0.000000 0.000000 0.000000 0.023556 0.000000 0.006114
# 5 0.002074 0.003617 -0.000463 0.000000 0.033397 0.000000
# 6 0.000000 0.000000 0.000000 0.006114 0.000000 0.037796
#
#
# Mechanical properties :
#
#
# Convention : Reuss Voigt Hill
#
# Bulk Modulus (GPa) = 42.89099 47.36906 45.13002
# Shear Modulus (GPa) = 31.99231 34.77195 33.38213
#
# Velocity S-wave (km/s) = 3.75257 3.91219 3.83321
# Velocity P-wave (km/s) = 6.13634 6.42317 6.28139
#
# Compressibility (1/GPa) = 0.02331492
#
# Stress axis : x y z
#
# Youngs Moduli (GPa) = 89.60821 98.19195 58.14942
#
# Poissons Ratio (x) = 0.16441 0.14592
# Poissons Ratio (y) = 0.15003 0.19941
# Poissons Ratio (z) = 0.22487 0.33672
#
# Static dielectric constant tensor:
#      x y z
#    x 1.897870 0.000000 -0.064790 
#    y 0.000000 1.828720 0.000000 
#    z -0.064790 0.000000 2.020100 
# 
# From -- ./inp_files/45499.got.cif
#   From: 2010.05.17/outbox.cif.g08.bks.cpg/sg5_23_cif.got.tgz:45499.got - 2010.06.03 18:56:24.
