data_PCOD9128767
_publ_section_title
;
Structure prediction by ZEFSAII (Michael W. Deem and Ramdas Pophale) SiO2 
 PCOD9128767
Probable space group: C 2
;
_chemical_formula_sum "Si O2"
_cell_formula_units_Z 20
_cell_length_a 15.474404
_cell_length_b 8.542545
_cell_length_c 9.189376
_cell_angle_alpha 90.000000
_cell_angle_beta 35.977185
_cell_angle_gamma 90.000000
_cell_volume 713.621276
_symmetry_space_group_name_H-M "C 2"
_symmetry_group_IT_number 5
_symmetry_cell_setting 'monoclinic'
loop_
_space_group_symop_operation_xyz
x,y,z
-x,y,-z
1/2+x,1/2+y,z
1/2-x,1/2+y,-z
loop_
_atom_site_type_symbol
_atom_site_label
_atom_site_fract_x
_atom_site_fract_y
_atom_site_fract_z
Si Si1 0.428891 0.891950 0.871262
Si Si2 0.500000 0.475053 0.500000
Si Si3 0.500000 0.281198 0.000000
Si Si4 0.756437 0.536132 0.355494
Si Si5 0.181463 0.688001 0.153632
Si Si6 0.256988 0.969970 0.663654
O O1 0.599676 0.882118 0.597191
O O2 0.377348 0.058494 0.875176
O O3 0.355498 0.905041 0.133520
O O4 0.345909 0.749893 0.906146
O O5 0.623783 0.562848 0.424070
O O6 0.588379 0.346757 0.283256
O O7 0.377329 0.378145 0.078070
O O8 0.380878 0.162579 0.232216
O O9 0.680763 0.509160 0.613639
O O10 0.184636 0.600899 0.306614
#
# Coordination Sequence:
#
# PCOD9128767 Si02
#       6
#     4   2   2   4   4   4
#     4  11  25  49  82 119 164 214 268 334 410 477
#     4  10  24  50  82 114 164 210 264 336 398 478
#     4  12  30  46  82 118 162 208 276 310 420 468
#     4  11  27  49  82 114 160 214 266 329 400 477
#     4  11  26  49  83 120 164 215 268 331 413 478
#     4  12  27  50  77 116 161 214 270 337 383 494
#
# _framework density 28.026069
#
# number of rings (size 3 to 8) (size 9 to 14) (size 15 to 20)
#    0.000    0.800    4.000    0.000   11.200    6.400 
#    0.000    0.000    0.000    0.000    0.000    0.000 
#    0.000    0.000    0.000    0.000    0.000    0.000 
#
# Total GULP energy -55833.491169 kJ/mol
# GULP energy per Si atom -5583.349117 kJ/mol
# Density = 2.796228 g / cm^3
# Si number density = 28.026069 Si / 1000 Ang^3
#
#
#
# Elastic Constant Matrix: (Units=GPa)
#
#
# Indices 1 2 3 4 5 6 
#
# 1 150.0424 30.2238 52.5996 0.0000 11.4138 0.0000
# 2 30.2238 74.6772 24.1140 0.0000 5.8225 0.0000
# 3 52.5996 24.1140 161.3012 0.0000 -26.9507 0.0000
# 4 0.0000 0.0000 0.0000 44.3672 0.0000 -12.7198
# 5 11.4138 5.8225 -26.9507 0.0000 52.7040 0.0000
# 6 0.0000 0.0000 0.0000 -12.7198 0.0000 19.8135
#
#
#
# Elastic Compliance Matrix: (Units=1/GPa)
#
#
# Indices 1 2 3 4 5 6 
#
# 1 0.008361 -0.002207 -0.002906 0.000000 -0.003053 0.000000
# 2 -0.002207 0.015063 -0.001892 0.000000 -0.002154 0.000000
# 3 -0.002906 -0.001892 0.008278 0.000000 0.005071 0.000000
# 4 0.000000 0.000000 0.000000 0.027623 0.000000 0.017733
# 5 -0.003053 -0.002154 0.005071 0.000000 0.022466 0.000000
# 6 0.000000 0.000000 0.000000 0.017733 0.000000 0.061855
#
#
# Mechanical properties :
#
#
# Convention : Reuss Voigt Hill
#
# Bulk Modulus (GPa) = 56.52919 66.65506 61.59213
# Shear Modulus (GPa) = 30.57102 41.98252 36.27677
#
# Velocity S-wave (km/s) = 3.30632 3.87457 3.60167
# Velocity P-wave (km/s) = 5.89828 6.62203 6.27061
#
# Compressibility (1/GPa) = 0.01768997
#
# Stress axis : x y z
#
# Youngs Moduli (GPa) = 119.60965 66.38737 120.80898
#
# Poissons Ratio (x) = 0.14653 0.35113
# Poissons Ratio (y) = 0.26400 0.22857
# Poissons Ratio (z) = 0.34764 0.12560
#
# Static dielectric constant tensor:
#      x y z
#    x 2.190610 0.000000 0.024330 
#    y 0.000000 2.324240 0.000000 
#    z 0.024330 0.000000 2.189460 
# 
# From -- ./inp_files/44295.got.cif
#   From: 2010.05.17/outbox.cif.g08.bks.cpg/sg5_23_cif.got.tgz:44295.got - 2010.06.03 18:56:24.
