data_PCOD9128698
_publ_section_title
;
Structure prediction by ZEFSAII (Michael W. Deem and Ramdas Pophale) SiO2 
 PCOD9128698
Probable space group: C 2
;
_chemical_formula_sum "Si O2"
_cell_formula_units_Z 28
_cell_length_a 26.150559
_cell_length_b 6.912957
_cell_length_c 7.790003
_cell_angle_alpha 90.000000
_cell_angle_beta 127.100318
_cell_angle_gamma 90.000000
_cell_volume 1123.199829
_symmetry_space_group_name_H-M "C 2"
_symmetry_group_IT_number 5
_symmetry_cell_setting 'monoclinic'
loop_
_space_group_symop_operation_xyz
x,y,z
-x,y,-z
1/2+x,1/2+y,z
1/2-x,1/2+y,-z
loop_
_atom_site_type_symbol
_atom_site_label
_atom_site_fract_x
_atom_site_fract_y
_atom_site_fract_z
Si Si1 0.500000 0.945271 0.000000
Si Si2 0.923853 0.113837 0.023973
Si Si3 0.193329 0.508938 0.200644
Si Si4 0.094682 0.747976 0.205578
Si Si5 0.200571 0.334874 0.593346
Si Si6 0.296244 0.612698 0.938566
Si Si7 0.872189 0.997863 0.425857
Si Si8 0.500000 0.529515 0.500000
O O1 0.449578 0.801560 0.983840
O O2 0.546561 0.093828 0.194080
O O3 0.848361 0.075491 0.894238
O O4 0.955665 0.136630 0.273815
O O5 0.942030 0.922541 0.960032
O O6 0.130841 0.635121 0.123773
O O7 0.203451 0.399996 0.402419
O O8 0.247259 0.666703 0.275836
O O9 0.197867 0.347155 0.059986
O O10 0.139414 0.849453 0.440514
O O11 0.228190 0.517914 0.755088
O O12 0.135901 0.218463 0.515465
O O13 0.326409 0.509648 0.166858
O O14 0.943504 0.941212 0.504083
#
# Coordination Sequence:
#
# PCOD9128698 Si02
#       8
#     2   4   4   4   4   4   4   2
#     4  12  24  40  78 104 146 200 264 300 392 468
#     4  11  23  47  71 104 148 192 255 318 379 458
#     4  12  24  45  73 107 147 194 263 311 383 455
#     4  12  25  46  75 111 143 206 261 319 376 477
#     4  12  25  44  74 106 143 202 248 318 380 466
#     4  11  25  47  69 107 154 194 244 323 389 449
#     4  11  27  46  75 107 156 198 256 318 389 458
#     4  10  24  48  70 102 154 196 240 326 382 446
#
# _framework density 24.928777
#
# number of rings (size 3 to 8) (size 9 to 14) (size 15 to 20)
#    0.000    0.571    4.286    3.857    4.000    0.000 
#    0.000    4.286    3.143    0.000    0.000    0.000 
#    0.000    0.000    0.000    0.000    0.000    0.000 
#
# Total GULP energy -78053.211884 kJ/mol
# GULP energy per Si atom -5575.229420 kJ/mol
# Density = 2.487204 g / cm^3
# Si number density = 24.928777 Si / 1000 Ang^3
#
#
#
# Elastic Constant Matrix: (Units=GPa)
#
#
# Indices 1 2 3 4 5 6 
#
# 1 108.2658 40.3471 3.2401 0.0000 -2.8985 0.0000
# 2 40.3471 166.6288 48.5392 0.0000 3.3730 0.0000
# 3 3.2401 48.5392 97.8961 0.0000 -5.6676 0.0000
# 4 0.0000 0.0000 0.0000 7.6896 0.0000 28.8352
# 5 -2.8985 3.3730 -5.6676 0.0000 21.7592 0.0000
# 6 0.0000 0.0000 0.0000 28.8352 0.0000 29.5259
#
#
#
# Elastic Compliance Matrix: (Units=1/GPa)
#
#
# Indices 1 2 3 4 5 6 
#
# 1 0.010339 -0.002903 0.001221 0.000000 0.002145 0.000000
# 2 -0.002903 0.007918 -0.003984 0.000000 -0.002652 0.000000
# 3 0.001221 -0.003984 0.012381 0.000000 0.004005 0.000000
# 4 0.000000 0.000000 0.000000 -0.048850 0.000000 0.047707
# 5 0.002145 -0.002652 0.004005 0.000000 0.047698 0.000000
# 6 0.000000 0.000000 0.000000 0.047707 0.000000 -0.012722
#
#
# Mechanical properties :
#
#
# Convention : Reuss Voigt Hill
#
# Bulk Modulus (GPa) = 51.78939 61.89374 56.84156
# Shear Modulus (GPa) = 144.79781 30.50590 87.65186
#
# Velocity S-wave (km/s) = 7.62959 3.50197 5.93610
# Velocity P-wave (km/s) = 9.92141 6.42136 8.35668
#
# Compressibility (1/GPa) = 0.01930898
#
# Stress axis : x y z
#
# Youngs Moduli (GPa) = 96.71984 126.28987 80.76571
#
# Poissons Ratio (x) = 0.36658 -0.09863
# Poissons Ratio (y) = 0.28075 0.32173
# Poissons Ratio (z) = -0.11812 0.50308
#
# Static dielectric constant tensor:
#      x y z
#    x 2.118260 0.000000 0.056550 
#    y 0.000000 2.010410 0.000000 
#    z 0.056550 0.000000 2.010740 
# 
# From -- ./inp_files/32351.got.cif
#   From: 2010.05.17/outbox.cif.g08.bks.cpg/sg5_17_cif.got.tgz:32351.got - 2010.06.03 18:56:24.
