data_PCOD9128202
_publ_section_title
;
Structure prediction by ZEFSAII (Michael W. Deem and Ramdas Pophale) SiO2 
 PCOD9128202
Probable space group: C 2
;
_chemical_formula_sum "Si O2"
_cell_formula_units_Z 16
_cell_length_a 10.328275
_cell_length_b 9.631256
_cell_length_c 10.085730
_cell_angle_alpha 90.000000
_cell_angle_beta 140.952540
_cell_angle_gamma 90.000000
_cell_volume 632.024229
_symmetry_space_group_name_H-M "C 2"
_symmetry_group_IT_number 5
_symmetry_cell_setting 'monoclinic'
loop_
_space_group_symop_operation_xyz
x,y,z
-x,y,-z
1/2+x,1/2+y,z
1/2-x,1/2+y,-z
loop_
_atom_site_type_symbol
_atom_site_label
_atom_site_fract_x
_atom_site_fract_y
_atom_site_fract_z
Si Si1 0.559496 0.859400 0.221096
Si Si2 0.803346 0.850390 0.682692
Si Si3 0.000000 0.569778 0.500000
Si Si4 0.000000 0.614081 0.000000
Si Si5 0.163144 0.787134 0.801609
O O1 0.640501 0.839256 0.432299
O O2 0.750159 0.843525 0.270070
O O3 0.463302 0.006356 0.092764
O O4 0.375082 0.753261 0.044494
O O5 0.021996 0.876877 0.786657
O O6 0.707023 0.981734 0.678128
O O7 0.832379 0.720151 0.804271
O O8 0.990262 0.664844 0.362706
#
# Coordination Sequence:
#
# PCOD9128202 Si02
#       5
#     4   4   2   2   4
#     4  10  24  52  79 104 151 205 245 321 387 433
#     4  12  25  49  72 113 153 192 257 310 375 460
#     4  12  26  46  74 116 146 200 252 300 392 452
#     4  10  26  48  68 116 142 190 264 298 372 460
#     4  10  23  51  74 111 150 200 252 312 388 442
#
# _framework density 25.315483
#
# number of rings (size 3 to 8) (size 9 to 14) (size 15 to 20)
#    0.000    1.500    2.500    1.500    3.500    2.000 
#   36.000    0.000    0.000    0.000    0.000    0.000 
#    0.000    0.000    0.000    0.000    0.000    0.000 
#
# Total GULP energy -44598.515131 kJ/mol
# GULP energy per Si atom -5574.814391 kJ/mol
# Density = 2.525786 g / cm^3
# Si number density = 25.315483 Si / 1000 Ang^3
#
#
#
# Elastic Constant Matrix: (Units=GPa)
#
#
# Indices 1 2 3 4 5 6 
#
# 1 102.0983 21.8355 23.8241 0.0000 20.2837 0.0000
# 2 21.8355 92.9851 55.7669 0.0000 3.3271 0.0000
# 3 23.8241 55.7669 156.2504 0.0000 -24.6038 0.0000
# 4 0.0000 0.0000 0.0000 62.1465 0.0000 17.9307
# 5 20.2837 3.3271 -24.6038 0.0000 57.1805 0.0000
# 6 0.0000 0.0000 0.0000 17.9307 0.0000 -1.1597
#
#
#
# Elastic Compliance Matrix: (Units=1/GPa)
#
#
# Indices 1 2 3 4 5 6 
#
# 1 0.011528 -0.001290 -0.002069 0.000000 -0.004905 0.000000
# 2 -0.001290 0.014363 -0.005352 0.000000 -0.002681 0.000000
# 3 -0.002069 -0.005352 0.009429 0.000000 0.005103 0.000000
# 4 0.000000 0.000000 0.000000 0.002947 0.000000 0.045558
# 5 -0.004905 -0.002681 0.005103 0.000000 0.021580 0.000000
# 6 0.000000 0.000000 0.000000 0.045558 0.000000 -0.157900
#
#
# Mechanical properties :
#
#
# Convention : Reuss Voigt Hill
#
# Bulk Modulus (GPa) = 55.87585 61.57630 58.72608
# Shear Modulus (GPa) = -66.96584 40.29393 -13.33596
#
# Velocity S-wave (km/s) = -5.14878 3.99390 -2.29768
# Velocity P-wave (km/s) = 3.63688 6.75609 4.02603
#
# Compressibility (1/GPa) = 0.01789682
#
# Stress axis : x y z
#
# Youngs Moduli (GPa) = 86.74727 69.62373 106.05567
#
# Poissons Ratio (x) = 0.08984 0.21947
# Poissons Ratio (y) = 0.11194 0.56757
# Poissons Ratio (z) = 0.17952 0.37260
#
# Static dielectric constant tensor:
#      x y z
#    x 2.033250 0.000000 -0.017610 
#    y 0.000000 2.137460 0.000000 
#    z -0.017610 0.000000 1.978560 
# 
# From -- ./inp_files/38213.got.cif
#   From: 2010.05.17/outbox.cif.g08.bks.cpg/sg5_20_cif.got.tgz:38213.got - 2010.06.03 18:56:24.
