data_PCOD9128145
_publ_section_title
;
Structure prediction by ZEFSAII (Michael W. Deem and Ramdas Pophale) SiO2 
 PCOD9128145
Probable space group: C 2
;
_chemical_formula_sum "Si O2"
_cell_formula_units_Z 18
_cell_length_a 11.379302
_cell_length_b 14.581272
_cell_length_c 5.160114
_cell_angle_alpha 90.000000
_cell_angle_beta 63.034154
_cell_angle_gamma 90.000000
_cell_volume 763.102762
_symmetry_space_group_name_H-M "C 2"
_symmetry_group_IT_number 5
_symmetry_cell_setting 'monoclinic'
loop_
_space_group_symop_operation_xyz
x,y,z
-x,y,-z
1/2+x,1/2+y,z
1/2-x,1/2+y,-z
loop_
_atom_site_type_symbol
_atom_site_label
_atom_site_fract_x
_atom_site_fract_y
_atom_site_fract_z
Si Si1 0.908060 0.911020 0.841354
Si Si2 0.242798 0.769915 0.702313
Si Si3 0.742797 0.075874 0.812098
Si Si4 0.908060 0.434770 0.342526
Si Si5 0.500000 0.172895 0.000000
O O1 0.692864 0.018428 0.611231
O O2 0.000000 0.901470 0.500000
O O3 0.824032 0.003745 0.892418
O O4 0.000000 0.919243 0.000000
O O5 0.313515 0.672895 0.686487
O O6 0.324032 0.842045 0.459524
O O7 0.101755 0.733630 0.733776
O O8 0.192863 0.827361 0.003048
O O9 0.601754 0.112160 0.062717
O O10 0.500000 0.926545 0.000000
O O11 0.000000 0.444322 0.500000
#
# Coordination Sequence:
#
# PCOD9128145 Si02
#       5
#     4   4   4   4   2
#     4  12  25  48  76 106 148 192 240 300 362 423
#     4  10  23  47  74 106 145 192 241 295 357 433
#     4  10  23  47  74 106 145 192 241 295 357 433
#     4  12  25  48  76 106 148 192 240 300 362 423
#     4   8  20  48  72 108 136 200 234 302 342 460
#
# _framework density 23.587910999999998
#
# number of rings (size 3 to 8) (size 9 to 14) (size 15 to 20)
#    1.333    0.000    2.222    2.667    0.000    0.889 
#    0.000   47.778    0.000    0.000    0.000    0.000 
#    0.000    0.000    0.000    0.000    0.000    0.000 
#
# Total GULP energy -50215.559773 kJ/mol
# GULP energy per Si atom -5579.506641 kJ/mol
# Density = 2.353422 g / cm^3
# Si number density = 23.587911 Si / 1000 Ang^3
#
#
#
# Elastic Constant Matrix: (Units=GPa)
#
#
# Indices 1 2 3 4 5 6 
#
# 1 93.9696 63.6121 48.4770 0.0000 23.8734 0.0000
# 2 63.6121 249.2458 61.6958 0.0000 -0.9334 0.0000
# 3 48.4770 61.6958 147.0806 0.0000 1.9906 0.0000
# 4 0.0000 0.0000 0.0000 30.8496 0.0000 -6.9613
# 5 23.8734 -0.9334 1.9906 0.0000 36.5997 0.0000
# 6 0.0000 0.0000 0.0000 -6.9613 0.0000 45.1424
#
#
#
# Elastic Compliance Matrix: (Units=1/GPa)
#
#
# Indices 1 2 3 4 5 6 
#
# 1 0.018374 -0.003654 -0.004363 0.000000 -0.011841 0.000000
# 2 -0.003654 0.005205 -0.001014 0.000000 0.002571 0.000000
# 3 -0.004363 -0.001014 0.008631 0.000000 0.002351 0.000000
# 4 0.000000 0.000000 0.000000 0.033584 0.000000 0.005179
# 5 -0.011841 0.002571 0.002351 0.000000 0.034984 0.000000
# 6 0.000000 0.000000 0.000000 0.005179 0.000000 0.022951
#
#
# Mechanical properties :
#
#
# Convention : Reuss Voigt Hill
#
# Bulk Modulus (GPa) = 70.67990 93.09620 81.88805
# Shear Modulus (GPa) = 34.12808 43.61908 38.87358
#
# Velocity S-wave (km/s) = 3.80787 4.30491 4.06400
# Velocity P-wave (km/s) = 7.02586 8.01643 7.53743
#
# Compressibility (1/GPa) = 0.01414829
#
# Stress axis : x y z
#
# Youngs Moduli (GPa) = 54.42377 192.11418 115.86710
#
# Poissons Ratio (x) = 0.70195 0.50555
# Poissons Ratio (y) = 0.19885 0.11749
# Poissons Ratio (z) = 0.23746 0.19480
#
# Static dielectric constant tensor:
#      x y z
#    x 1.939000 0.000000 -0.031750 
#    y 0.000000 2.008590 0.000000 
#    z -0.031750 0.000000 1.873810 
# 
# From -- ./inp_files/2117.got.cif
#   From: 2010.05.17/outbox.cif.g08.bks.cpg/sg5_2_cif.got.tgz:2117.got - 2010.06.03 18:56:24.
