data_PCOD9128304
_publ_section_title
;
Structure prediction by ZEFSAII (Michael W. Deem and Ramdas Pophale) SiO2 
 PCOD9128304
Probable space group: C 2
;
_chemical_formula_sum "Si O2"
_cell_formula_units_Z 28
_cell_length_a 13.333573
_cell_length_b 8.942028
_cell_length_c 13.059853
_cell_angle_alpha 90.000000
_cell_angle_beta 40.534172
_cell_angle_gamma 90.000000
_cell_volume 1011.971689
_symmetry_space_group_name_H-M "C 2"
_symmetry_group_IT_number 5
_symmetry_cell_setting 'monoclinic'
loop_
_space_group_symop_operation_xyz
x,y,z
-x,y,-z
1/2+x,1/2+y,z
1/2-x,1/2+y,-z
loop_
_atom_site_type_symbol
_atom_site_label
_atom_site_fract_x
_atom_site_fract_y
_atom_site_fract_z
Si Si1 0.715706 0.373800 0.741206
Si Si2 0.677470 0.385627 0.315459
Si Si3 0.500000 0.592944 0.000000
Si Si4 0.462411 0.665526 0.807584
Si Si5 0.944560 0.594489 0.203987
Si Si6 0.755465 0.399663 0.036470
Si Si7 0.292738 0.143074 0.534820
Si Si8 0.500000 0.651629 0.500000
O O1 0.579239 0.256640 0.825320
O O2 0.754841 0.485863 0.617455
O O3 0.863538 0.267049 0.631540
O O4 0.651282 0.486533 0.876507
O O5 0.812085 0.487443 0.260722
O O6 0.649554 0.260232 0.424339
O O7 0.550561 0.514833 0.383110
O O8 0.724216 0.319266 0.169723
O O9 0.488362 0.689370 0.111473
O O10 0.325253 0.784057 0.900217
O O11 0.622797 0.694105 0.624100
O O12 0.393471 0.500213 0.867569
O O13 0.908238 0.617816 0.352280
O O14 0.106586 0.519138 0.057125
#
# Coordination Sequence:
#
# PCOD9128304 Si02
#       8
#     4   4   2   4   4   4   4   2
#     4  10  24  41  72 101 141 188 242 300 366 445
#     4  11  25  47  76 106 152 200 248 315 379 448
#     4  10  24  50  74 102 150 198 242 300 390 442
#     4  11  27  46  76 108 148 194 251 309 371 454
#     4  11  25  42  73 107 146 197 241 308 376 443
#     4  12  27  44  75 111 149 193 256 315 372 445
#     4  11  24  48  74 100 152 199 243 295 390 448
#     4  10  26  42  68 108 136 186 248 304 356 440
#
# _framework density 27.668756999999999
#
# number of rings (size 3 to 8) (size 9 to 14) (size 15 to 20)
#    0.000    1.143    1.429    3.000   12.000    2.857 
#    0.000    0.000    0.000    0.000    0.000    0.000 
#    0.000    0.000    0.000    0.000    0.000    0.000 
#
# Total GULP energy -78264.871688 kJ/mol
# GULP energy per Si atom -5590.347978 kJ/mol
# Density = 2.760578 g / cm^3
# Si number density = 27.668757 Si / 1000 Ang^3
#
#
#
# Elastic Constant Matrix: (Units=GPa)
#
#
# Indices 1 2 3 4 5 6 
#
# 1 56.6814 24.3821 32.4341 0.0000 -5.6696 0.0000
# 2 24.3821 147.6076 21.8491 0.0000 -12.5156 0.0000
# 3 32.4341 21.8491 128.2681 0.0000 10.8899 0.0000
# 4 0.0000 0.0000 0.0000 67.6446 0.0000 -14.3200
# 5 -5.6696 -12.5156 10.8899 0.0000 45.1485 0.0000
# 6 0.0000 0.0000 0.0000 -14.3200 0.0000 42.9971
#
#
#
# Elastic Compliance Matrix: (Units=1/GPa)
#
#
# Indices 1 2 3 4 5 6 
#
# 1 0.022218 -0.002573 -0.005468 0.000000 0.003396 0.000000
# 2 -0.002573 0.007481 -0.000789 0.000000 0.001941 0.000000
# 3 -0.005468 -0.000789 0.009586 0.000000 -0.003217 0.000000
# 4 0.000000 0.000000 0.000000 0.015904 0.000000 0.005297
# 5 0.003396 0.001941 -0.003217 0.000000 0.023890 0.000000
# 6 0.000000 0.000000 0.000000 0.005297 0.000000 0.025021
#
#
# Mechanical properties :
#
#
# Convention : Reuss Voigt Hill
#
# Bulk Modulus (GPa) = 46.23972 54.43197 50.33584
# Shear Modulus (GPa) = 38.76929 48.08416 43.42673
#
# Velocity S-wave (km/s) = 3.74731 4.17328 3.96602
# Velocity P-wave (km/s) = 5.95578 6.55264 6.26132
#
# Compressibility (1/GPa) = 0.02162643
#
# Stress axis : x y z
#
# Youngs Moduli (GPa) = 45.00910 133.67252 104.31525
#
# Poissons Ratio (x) = 0.34389 0.57040
# Poissons Ratio (y) = 0.11579 0.08226
# Poissons Ratio (z) = 0.24611 0.10541
#
# Static dielectric constant tensor:
#      x y z
#    x 2.326740 0.000000 0.076530 
#    y 0.000000 2.071250 0.000000 
#    z 0.076530 0.000000 2.453390 
# 
# From -- ./inp_files/54309.got.cif
#   From: 2010.05.17/outbox.cif.g08.bks.cpg/sg5_28_cif.got.tgz:54309.got - 2010.06.03 18:56:24.
