data_PCOD9128521
_publ_section_title
;
Structure prediction by ZEFSAII (Michael W. Deem and Ramdas Pophale) SiO2 
 PCOD9128521
Probable space group: C 2
;
_chemical_formula_sum "Si O2"
_cell_formula_units_Z 28
_cell_length_a 13.363607
_cell_length_b 9.086006
_cell_length_c 11.866331
_cell_angle_alpha 90.000000
_cell_angle_beta 63.269710
_cell_angle_gamma 90.000000
_cell_volume 1286.855143
_symmetry_space_group_name_H-M "C 2"
_symmetry_group_IT_number 5
_symmetry_cell_setting 'monoclinic'
loop_
_space_group_symop_operation_xyz
x,y,z
-x,y,-z
1/2+x,1/2+y,z
1/2-x,1/2+y,-z
loop_
_atom_site_type_symbol
_atom_site_label
_atom_site_fract_x
_atom_site_fract_y
_atom_site_fract_z
Si Si1 0.597901 0.606720 0.251157
Si Si2 0.496664 0.037646 0.624231
Si Si3 0.865648 0.244661 0.408709
Si Si4 0.907892 0.962803 0.957519
Si Si5 0.268707 0.892956 0.767635
Si Si6 0.424397 0.312176 0.301645
Si Si7 0.828657 0.953095 0.564374
O O1 0.467180 0.652318 0.300163
O O2 0.644005 0.576347 0.103729
O O3 0.658224 0.748393 0.266748
O O4 0.628224 0.487320 0.331802
O O5 0.500000 0.108887 0.500000
O O6 0.556585 0.139128 0.686560
O O7 0.565839 0.884133 0.574258
O O8 0.364832 0.016600 0.717999
O O9 0.772735 0.333873 0.384765
O O10 0.811273 0.117691 0.516063
O O11 0.975952 0.861163 0.833542
O O12 0.000000 0.020872 0.000000
O O13 0.811480 0.897589 0.083673
O O14 0.187030 0.875664 0.702358
O O15 0.413261 0.379777 0.431970
#
# Coordination Sequence:
#
# PCOD9128521 Si02
#       7
#     4   4   4   4   4   4   4
#     4  11  23  44  69  97 136 181 234 284 345 412
#     4  11  23  39  70 104 137 174 227 284 344 413
#     4  11  23  41  64 106 143 176 217 284 353 408
#     4  10  24  46  65  90 134 183 227 285 338 405
#     4  10  24  45  68  94 137 184 226 284 345 406
#     4  11  24  43  67 103 138 177 227 283 344 414
#     4  12  23  41  71 102 144 181 219 286 355 408
#
# _framework density 21.758469999999999
#
# number of rings (size 3 to 8) (size 9 to 14) (size 15 to 20)
#    0.000    1.143    1.429    5.571    4.000    0.000 
#    2.571    0.000    0.000    0.000    0.000    0.000 
#    0.000    0.000    0.000    0.000    0.000    0.000 
#
# Total GULP energy -77962.154881 kJ/mol
# GULP energy per Si atom -5568.725349 kJ/mol
# Density = 2.170895 g / cm^3
# Si number density = 21.758470 Si / 1000 Ang^3
#
#
#
# Elastic Constant Matrix: (Units=GPa)
#
#
# Indices 1 2 3 4 5 6 
#
# 1 120.7345 37.0110 48.7585 0.0000 -7.6036 0.0000
# 2 37.0110 81.7496 22.0299 0.0000 9.3496 0.0000
# 3 48.7585 22.0299 115.9567 0.0000 8.7399 0.0000
# 4 0.0000 0.0000 0.0000 22.8677 0.0000 5.6737
# 5 -7.6036 9.3496 8.7399 0.0000 41.6366 0.0000
# 6 0.0000 0.0000 0.0000 5.6737 0.0000 33.0070
#
#
#
# Elastic Compliance Matrix: (Units=1/GPa)
#
#
# Indices 1 2 3 4 5 6 
#
# 1 0.011708 -0.004593 -0.004358 0.000000 0.004084 0.000000
# 2 -0.004593 0.014939 -0.000600 0.000000 -0.004067 0.000000
# 3 -0.004358 -0.000600 0.010791 0.000000 -0.002926 0.000000
# 4 0.000000 0.000000 0.000000 0.045678 0.000000 -0.007852
# 5 0.004084 -0.004067 -0.002926 0.000000 0.026291 0.000000
# 6 0.000000 0.000000 0.000000 -0.007852 0.000000 0.031646
#
#
# Mechanical properties :
#
#
# Convention : Reuss Voigt Hill
#
# Bulk Modulus (GPa) = 54.54178 59.33775 56.93976
# Shear Modulus (GPa) = 30.07192 33.54502 31.80847
#
# Velocity S-wave (km/s) = 3.72167 3.93071 3.82761
# Velocity P-wave (km/s) = 6.60220 6.92322 6.76461
#
# Compressibility (1/GPa) = 0.01833457
#
# Stress axis : x y z
#
# Youngs Moduli (GPa) = 85.41155 66.93916 92.66900
#
# Poissons Ratio (x) = 0.30747 0.40388
# Poissons Ratio (y) = 0.39232 0.05562
# Poissons Ratio (z) = 0.37225 0.04017
#
# Static dielectric constant tensor:
#      x y z
#    x 1.876900 0.000000 -0.013990 
#    y 0.000000 1.901310 0.000000 
#    z -0.013990 0.000000 1.766230 
# 
# From -- ./inp_files/41886.got.cif
#   From: 2010.05.17/outbox.cif.g08.bks.cpg/sg5_21_cif.got.tgz:41886.got - 2010.06.03 18:56:24.
