data_PCOD9128651
_publ_section_title
;
Structure prediction by ZEFSAII (Michael W. Deem and Ramdas Pophale) SiO2 
 PCOD9128651
Probable space group: C 2
;
_chemical_formula_sum "Si O2"
_cell_formula_units_Z 22
_cell_length_a 12.564519
_cell_length_b 7.717125
_cell_length_c 18.010431
_cell_angle_alpha 90.000000
_cell_angle_beta 151.276516
_cell_angle_gamma 90.000000
_cell_volume 839.254909
_symmetry_space_group_name_H-M "C 2"
_symmetry_group_IT_number 5
_symmetry_cell_setting 'monoclinic'
loop_
_space_group_symop_operation_xyz
x,y,z
-x,y,-z
1/2+x,1/2+y,z
1/2-x,1/2+y,-z
loop_
_atom_site_type_symbol
_atom_site_label
_atom_site_fract_x
_atom_site_fract_y
_atom_site_fract_z
Si Si1 0.291644 0.345120 0.066523
Si Si2 0.500000 0.503754 0.500000
Si Si3 0.257645 0.049383 0.159229
Si Si4 0.649521 0.239703 0.467510
Si Si5 0.117906 0.191239 0.817164
Si Si6 0.237986 0.329101 0.634552
O O1 0.246552 0.512057 0.090664
O O2 0.125957 0.294162 0.900571
O O3 0.329713 0.163993 0.131796
O O4 0.583448 0.394322 0.481892
O O5 0.308868 0.638146 0.360020
O O6 0.429150 0.125907 0.323338
O O7 0.286357 0.843086 0.175723
O O8 0.000000 0.092070 0.000000
O O9 0.722227 0.299080 0.429342
O O10 0.868079 0.156847 0.637870
O O11 0.960051 0.898079 0.809059
O O12 0.000000 0.419329 0.500000
#
# Coordination Sequence:
#
# PCOD9128651 Si02
#       6
#     4   2   4   4   4   4
#     4  11  25  48  78 113 161 216 268 345 410 486
#     4  10  24  46  84 110 166 212 268 348 400 488
#     4  11  28  50  76 121 165 205 280 334 414 501
#     4  11  25  47  82 119 160 217 275 338 415 487
#     4  12  27  48  80 111 165 211 271 344 403 495
#     4   9  24  47  79 112 163 217 276 330 409 492
#
# _framework density 26.213728
#
# number of rings (size 3 to 8) (size 9 to 14) (size 15 to 20)
#    0.545    0.727    1.818    2.182   12.727    2.182 
#    1.636    0.000    0.000    0.000    0.000    0.000 
#    0.000    0.000    0.000    0.000    0.000    0.000 
#
# Total GULP energy -61462.664609 kJ/mol
# GULP energy per Si atom -5587.514964 kJ/mol
# Density = 2.615406 g / cm^3
# Si number density = 26.213728 Si / 1000 Ang^3
#
#
#
# Elastic Constant Matrix: (Units=GPa)
#
#
# Indices 1 2 3 4 5 6 
#
# 1 71.4812 11.8353 32.6667 0.0008 1.6864 -0.0002
# 2 11.8353 124.8826 22.7254 0.0013 -13.0600 -0.0002
# 3 32.6667 22.7254 190.6239 0.0034 -5.1386 0.0003
# 4 0.0008 0.0013 0.0034 39.6131 0.0001 -3.0272
# 5 1.6864 -13.0600 -5.1386 0.0001 43.2659 -0.0002
# 6 -0.0002 -0.0002 0.0003 -3.0272 -0.0002 24.3329
#
#
#
# Elastic Compliance Matrix: (Units=1/GPa)
#
#
# Indices 1 2 3 4 5 6 
#
# 1 0.015362 -0.001125 -0.002532 0.000000 -0.001239 0.000000
# 2 -0.001125 0.008515 -0.000754 0.000000 0.002525 0.000000
# 3 -0.002532 -0.000754 0.005785 0.000000 0.000558 0.000000
# 4 0.000000 0.000000 0.000000 0.025486 0.000000 0.003171
# 5 -0.001239 0.002525 0.000558 0.000000 0.023990 0.000000
# 6 0.000000 0.000000 0.000000 0.003171 0.000000 0.041491
#
#
# Mechanical properties :
#
#
# Convention : Reuss Voigt Hill
#
# Bulk Modulus (GPa) = 47.98366 57.93805 52.96086
# Shear Modulus (GPa) = 36.65736 42.75976 39.70856
#
# Velocity S-wave (km/s) = 3.74358 4.04319 3.89627
# Velocity P-wave (km/s) = 6.08526 6.62923 6.36306
#
# Compressibility (1/GPa) = 0.02084043
#
# Stress axis : x y z
#
# Youngs Moduli (GPa) = 65.09481 117.43416 172.86711
#
# Poissons Ratio (x) = 0.13208 0.43768
# Poissons Ratio (y) = 0.07321 0.13041
# Poissons Ratio (z) = 0.16481 0.08859
#
# Static dielectric constant tensor:
#      x y z
#    x 2.136710 0.000000 0.007480 
#    y 0.000000 2.085980 0.000000 
#    z 0.007480 0.000000 2.111170 
# 
# From -- ./inp_files/68574.got.cif
#   From: 2010.05.17/outbox.cif.g08.bks.cpg/sg5_35_cif.got.tgz:68574.got - 2010.06.03 18:56:24.
