data_PCOD9128530
_publ_section_title
;
Structure prediction by ZEFSAII (Michael W. Deem and Ramdas Pophale) SiO2 
 PCOD9128530
Probable space group: C 2
;
_chemical_formula_sum "Si O2"
_cell_formula_units_Z 28
_cell_length_a 28.021617
_cell_length_b 8.266669
_cell_length_c 5.249459
_cell_angle_alpha 90.000000
_cell_angle_beta 91.415506
_cell_angle_gamma 90.000000
_cell_volume 1215.642124
_symmetry_space_group_name_H-M "C 2"
_symmetry_group_IT_number 5
_symmetry_cell_setting 'monoclinic'
loop_
_space_group_symop_operation_xyz
x,y,z
-x,y,-z
1/2+x,1/2+y,z
1/2-x,1/2+y,-z
loop_
_atom_site_type_symbol
_atom_site_label
_atom_site_fract_x
_atom_site_fract_y
_atom_site_fract_z
Si Si1 0.312134 0.248580 0.609010
Si Si2 0.731422 0.388746 0.909101
Si Si3 0.678522 0.890859 0.380134
Si Si4 0.000000 0.722213 0.500000
Si Si5 0.661965 0.636626 0.770756
Si Si6 0.500000 0.996915 0.000000
Si Si7 0.910296 0.275156 0.867988
Si Si8 0.593963 0.434373 0.413358
O O1 0.288661 0.348032 0.375956
O O2 0.365400 0.312089 0.685727
O O3 0.312220 0.066453 0.505229
O O4 0.282836 0.271595 0.864723
O O5 0.787583 0.395927 0.864890
O O6 0.699934 0.549306 0.958793
O O7 0.688723 0.732440 0.549599
O O8 0.621868 0.875322 0.333248
O O9 0.005359 0.610043 0.751483
O O10 0.953447 0.836083 0.526573
O O11 0.623220 0.509720 0.654097
O O12 0.627148 0.757654 0.909667
O O13 0.455779 0.876424 0.950170
O O14 0.917972 0.092606 0.761043
#
# Coordination Sequence:
#
# PCOD9128530 Si02
#       8
#     4   4   4   2   4   2   4   4
#     4  11  25  44  68 105 141 191 241 306 358 432
#     4  11  25  44  69 102 148 190 247 295 365 435
#     4  11  26  41  72 102 146 191 246 304 363 425
#     4  12  30  50  80 114 144 188 248 310 374 436
#     4  10  24  45  69 106 145 196 243 300 364 442
#     4  12  32  48  78 112 154 184 248 308 378 428
#     4  11  26  47  74 104 149 195 244 299 373 438
#     4  10  25  46  74 102 147 188 247 296 373 440
#
# _framework density 23.033093999999998
#
# number of rings (size 3 to 8) (size 9 to 14) (size 15 to 20)
#    0.000    1.143    1.429    1.714   16.000    1.143 
#    0.000    0.000    0.000    0.000    0.000    0.000 
#    0.000    0.000    0.000    0.000    0.000    0.000 
#
# Total GULP energy -78198.756109 kJ/mol
# GULP energy per Si atom -5585.625436 kJ/mol
# Density = 2.298067 g / cm^3
# Si number density = 23.033094 Si / 1000 Ang^3
#
#
#
# Elastic Constant Matrix: (Units=GPa)
#
#
# Indices 1 2 3 4 5 6 
#
# 1 188.3021 65.2111 44.5311 0.0000 -7.4142 0.0000
# 2 65.2111 99.3524 30.4744 0.0000 4.7662 0.0000
# 3 44.5311 30.4744 88.6661 0.0000 -3.7325 0.0000
# 4 0.0000 0.0000 0.0000 32.8895 0.0000 -9.0532
# 5 -7.4142 4.7662 -3.7325 0.0000 27.9967 0.0000
# 6 0.0000 0.0000 0.0000 -9.0532 0.0000 44.9684
#
#
#
# Elastic Compliance Matrix: (Units=1/GPa)
#
#
# Indices 1 2 3 4 5 6 
#
# 1 0.007407 -0.004323 -0.002133 0.000000 0.002413 0.000000
# 2 -0.004323 0.013944 -0.002785 0.000000 -0.003890 0.000000
# 3 -0.002133 -0.002785 0.013378 0.000000 0.001693 0.000000
# 4 0.000000 0.000000 0.000000 0.032189 0.000000 0.006480
# 5 0.002413 -0.003890 0.001693 0.000000 0.037246 0.000000
# 6 0.000000 0.000000 0.000000 0.006480 0.000000 0.023542
#
#
# Mechanical properties :
#
#
# Convention : Reuss Voigt Hill
#
# Bulk Modulus (GPa) = 61.55003 72.97266 67.26134
# Shear Modulus (GPa) = 32.98093 36.91119 34.94606
#
# Velocity S-wave (km/s) = 3.78814 4.00750 3.89936
# Velocity P-wave (km/s) = 6.77597 7.29136 7.03838
#
# Compressibility (1/GPa) = 0.01624695
#
# Stress axis : x y z
#
# Youngs Moduli (GPa) = 135.00312 71.71674 74.75114
#
# Poissons Ratio (x) = 0.31007 0.15941
# Poissons Ratio (y) = 0.58368 0.20817
# Poissons Ratio (z) = 0.28791 0.19972
#
# Static dielectric constant tensor:
#      x y z
#    x 1.844940 0.000000 0.016280 
#    y 0.000000 1.940430 0.000000 
#    z 0.016280 0.000000 1.906440 
# 
# From -- ./inp_files/11091.got.cif
#   From: 2010.05.17/outbox.cif.g08.bks.cpg/sg5_6_cif.got.tgz:11091.got - 2010.06.03 18:56:24.
