data_PCOD9128414
_publ_section_title
;
Structure prediction by ZEFSAII (Michael W. Deem and Ramdas Pophale) SiO2 
 PCOD9128414
Probable space group: C 2
;
_chemical_formula_sum "Si O2"
_cell_formula_units_Z 32
_cell_length_a 14.448253
_cell_length_b 11.307327
_cell_length_c 17.170349
_cell_angle_alpha 90.000000
_cell_angle_beta 145.563158
_cell_angle_gamma 90.000000
_cell_volume 1586.299036
_symmetry_space_group_name_H-M "C 2"
_symmetry_group_IT_number 5
_symmetry_cell_setting 'monoclinic'
loop_
_space_group_symop_operation_xyz
x,y,z
-x,y,-z
1/2+x,1/2+y,z
1/2-x,1/2+y,-z
loop_
_atom_site_type_symbol
_atom_site_label
_atom_site_fract_x
_atom_site_fract_y
_atom_site_fract_z
Si Si1 0.569526 0.947140 0.130239
Si Si2 0.553865 0.458560 0.157016
Si Si3 0.418987 0.712390 0.101657
Si Si4 0.453069 0.462724 0.377204
Si Si5 0.003985 0.222199 0.340141
Si Si6 0.642060 0.319387 0.375962
Si Si7 0.067320 0.607684 0.829032
Si Si8 0.747121 0.913888 0.848919
O O1 0.477010 0.826874 0.093745
O O2 0.761346 0.929393 0.246558
O O3 0.527655 0.044679 0.166235
O O4 0.500000 0.988425 0.000000
O O5 0.488043 0.590296 0.118236
O O6 0.607673 0.400875 0.275797
O O7 0.691906 0.470913 0.188070
O O8 0.402941 0.387673 0.012388
O O9 0.495518 0.719241 0.240650
O O10 0.224018 0.686387 0.964688
O O11 0.500000 0.457748 0.500000
O O12 0.484388 0.594308 0.365167
O O13 0.559987 0.379495 0.394693
O O14 0.844118 0.298963 0.245082
O O15 0.167102 0.290224 0.479928
O O16 0.552991 0.195021 0.299055
O O17 0.132670 0.501810 0.819035
#
# Coordination Sequence:
#
# PCOD9128414 Si02
#       8
#     4   4   4   4   4   4   4   4
#     4  12  26  43  74 108 141 185 234 291 354 419
#     4  10  24  45  69 106 134 181 233 291 345 417
#     4  11  23  45  72  99 143 180 234 287 355 411
#     4  12  28  48  68 104 143 186 239 288 356 424
#     4  12  25  45  71  96 142 189 229 293 348 418
#     4  12  27  46  72  97 143 186 235 291 351 420
#     4  11  25  45  71 104 139 182 234 290 351 421
#     4  10  24  43  73 101 139 176 233 289 346 413
#
# _framework density 20.172740999999998
#
# number of rings (size 3 to 8) (size 9 to 14) (size 15 to 20)
#    0.000    0.750    2.500    3.750   14.000    0.000 
#    0.000    0.000    0.000    0.000    0.000    0.000 
#    0.000    0.000    0.000    0.000    0.000    0.000 
#
# Total GULP energy -89381.258900 kJ/mol
# GULP energy per Si atom -5586.328681 kJ/mol
# Density = 2.012683 g / cm^3
# Si number density = 20.172741 Si / 1000 Ang^3
#
#
#
# Elastic Constant Matrix: (Units=GPa)
#
#
# Indices 1 2 3 4 5 6 
#
# 1 151.3947 69.3854 17.8261 0.0003 -27.5449 0.0005
# 2 69.3854 122.8870 26.3181 0.0005 -11.6265 0.0008
# 3 17.8261 26.3181 75.7184 0.0010 -10.0006 0.0014
# 4 0.0003 0.0005 0.0010 21.6884 0.0004 -26.5620
# 5 -27.5449 -11.6265 -10.0006 0.0004 31.2613 0.0005
# 6 0.0005 0.0008 0.0014 -26.5620 0.0005 -102.5257
#
#
#
# Elastic Compliance Matrix: (Units=1/GPa)
#
#
# Indices 1 2 3 4 5 6 
#
# 1 0.010251 -0.005178 0.000339 0.000000 0.007215 0.000000
# 2 -0.005178 0.011583 -0.002966 0.000000 -0.001204 0.000000
# 3 0.000339 -0.002966 0.014671 0.000000 0.003890 0.000000
# 4 0.000000 0.000000 0.000000 0.035002 0.000000 -0.009068
# 5 0.007215 -0.001204 0.003890 0.000000 0.039143 0.000000
# 6 0.000000 0.000000 0.000000 -0.009068 0.000000 -0.007404
#
#
# Mechanical properties :
#
#
# Convention : Reuss Voigt Hill
#
# Bulk Modulus (GPa) = 47.85555 64.11771 55.98663
# Shear Modulus (GPa) = 39.73935 5.84950 22.79442
#
# Velocity S-wave (km/s) = 4.44323 1.70470 3.36514
# Velocity P-wave (km/s) = 7.07795 5.97729 6.55078
#
# Compressibility (1/GPa) = 0.02089622
#
# Stress axis : x y z
#
# Youngs Moduli (GPa) = 97.54905 86.33646 68.15946
#
# Poissons Ratio (x) = 0.44707 -0.02313
# Poissons Ratio (y) = 0.50513 0.20214
# Poissons Ratio (z) = -0.03311 0.25605
#
# Static dielectric constant tensor:
#      x y z
#    x 1.833390 0.000000 0.261300 
#    y 0.000000 1.649460 0.000000 
#    z 0.261300 0.000000 2.148770 
# 
# From -- ./inp_files/61728.got.cif
#   From: 2010.05.17/outbox.cif.g08.bks.cpg/sg5_31_cif.got.tgz:61728.got - 2010.06.03 18:56:24.
