data_PCOD9128594
_publ_section_title
;
Structure prediction by ZEFSAII (Michael W. Deem and Ramdas Pophale) SiO2 
 PCOD9128594
Probable space group: C 2
;
_chemical_formula_sum "Si O2"
_cell_formula_units_Z 20
_cell_length_a 5.264649
_cell_length_b 30.863535
_cell_length_c 5.737942
_cell_angle_alpha 90.000000
_cell_angle_beta 80.630175
_cell_angle_gamma 90.000000
_cell_volume 919.894246
_symmetry_space_group_name_H-M "C 2"
_symmetry_group_IT_number 5
_symmetry_cell_setting 'monoclinic'
loop_
_space_group_symop_operation_xyz
x,y,z
-x,y,-z
1/2+x,1/2+y,z
1/2-x,1/2+y,-z
loop_
_atom_site_type_symbol
_atom_site_label
_atom_site_fract_x
_atom_site_fract_y
_atom_site_fract_z
Si Si1 0.266899 0.497720 0.857034
Si Si2 0.500000 0.816679 0.000000
Si Si3 0.500000 0.259225 0.000000
Si Si4 0.855926 0.092876 0.772355
Si Si5 0.000000 0.367444 0.500000
Si Si6 0.782172 0.683576 0.346502
Si Si7 0.000000 0.924396 0.500000
O O1 0.215027 0.546303 0.765675
O O2 0.361716 0.458503 0.688173
O O3 0.500000 0.503307 0.000000
O O4 0.000000 0.483076 0.000000
O O5 0.503401 0.842107 0.749725
O O6 0.761518 0.788341 0.952746
O O7 0.375603 0.226722 0.205929
O O8 0.728155 0.140071 0.805442
O O9 0.000000 0.095620 0.500000
O O10 0.000000 0.090311 0.000000
O O11 0.734958 0.394985 0.554486
O O12 0.500000 0.690734 0.500000
O O13 0.000000 0.673312 0.500000
#
# Coordination Sequence:
#
# PCOD9128594 Si02
#       7
#     4   2   2   4   2   4   2
#     4  11  25  44  73 107 153 202 248 303 359 440
#     4  12  30  54  80 113 144 195 242 324 388 456
#     4  12  28  48  82 107 152 191 256 300 386 444
#     4  10  24  46  70 108 156 204 255 299 360 424
#     4  12  30  52  84 107 152 187 248 320 390 452
#     4  11  27  45  74 109 151 202 250 305 360 442
#     4  12  26  50  78 113 146 197 250 304 380 448
#
# _framework density 21.741631000000002
#
# number of rings (size 3 to 8) (size 9 to 14) (size 15 to 20)
#    0.000    0.800    1.000    3.600   16.800    3.200 
#    1.800    0.000    0.000    0.000    0.000    0.000 
#    0.000    0.000    0.000    0.000    0.000    0.000 
#
# Total GULP energy -55757.101596 kJ/mol
# GULP energy per Si atom -5575.710160 kJ/mol
# Density = 2.169215 g / cm^3
# Si number density = 21.741631 Si / 1000 Ang^3
#
#
#
# Elastic Constant Matrix: (Units=GPa)
#
#
# Indices 1 2 3 4 5 6 
#
# 1 189.8156 95.0831 73.2604 0.0000 -22.0541 0.0000
# 2 95.0831 187.2730 84.9760 0.0000 2.0592 0.0000
# 3 73.2604 84.9760 141.7748 0.0000 -11.8446 0.0000
# 4 0.0000 0.0000 0.0000 4.5467 0.0000 13.0387
# 5 -22.0541 2.0592 -11.8446 0.0000 47.6634 0.0000
# 6 0.0000 0.0000 0.0000 13.0387 0.0000 15.8347
#
#
#
# Elastic Compliance Matrix: (Units=1/GPa)
#
#
# Indices 1 2 3 4 5 6 
#
# 1 0.008025 -0.003239 -0.001924 0.000000 0.003375 0.000000
# 2 -0.003239 0.008740 -0.003800 0.000000 -0.002821 0.000000
# 3 -0.001924 -0.003800 0.010482 0.000000 0.001879 0.000000
# 4 0.000000 0.000000 0.000000 -0.161556 0.000000 0.133030
# 5 0.003375 -0.002821 0.001879 0.000000 0.023131 0.000000
# 6 0.000000 0.000000 0.000000 0.133030 0.000000 -0.046388
#
#
# Mechanical properties :
#
#
# Convention : Reuss Voigt Hill
#
# Bulk Modulus (GPa) = 107.27926 113.94471 110.61198
# Shear Modulus (GPa) = -36.62116 31.31189 -2.65463
#
# Velocity S-wave (km/s) = -4.10857 3.79909 -1.10618
# Velocity P-wave (km/s) = 5.19064 8.47151 7.02528
#
# Compressibility (1/GPa) = 0.00932147
#
# Stress axis : x y z
#
# Youngs Moduli (GPa) = 124.60556 114.42062 95.39894
#
# Poissons Ratio (x) = 0.37059 0.18352
# Poissons Ratio (y) = 0.40358 0.36255
# Poissons Ratio (z) = 0.23971 0.43484
#
# Static dielectric constant tensor:
#      x y z
#    x 1.797970 0.000000 0.058880 
#    y 0.000000 1.842350 0.000000 
#    z 0.058880 0.000000 1.942920 
# 
# From -- ./inp_files/1272.got.cif
#   From: 2010.05.17/outbox.cif.g08.bks.cpg/sg5_1_cif.got.tgz:1272.got - 2010.06.03 18:56:24.
