data_PCOD9128566
_publ_section_title
;
Structure prediction by ZEFSAII (Michael W. Deem and Ramdas Pophale) SiO2 
 PCOD9128566
Probable space group: C 2
;
_chemical_formula_sum "Si O2"
_cell_formula_units_Z 26
_cell_length_a 14.744270
_cell_length_b 12.465618
_cell_length_c 7.722655
_cell_angle_alpha 90.000000
_cell_angle_beta 58.889265
_cell_angle_gamma 90.000000
_cell_volume 1215.245095
_symmetry_space_group_name_H-M "C 2"
_symmetry_group_IT_number 5
_symmetry_cell_setting 'monoclinic'
loop_
_space_group_symop_operation_xyz
x,y,z
-x,y,-z
1/2+x,1/2+y,z
1/2-x,1/2+y,-z
loop_
_atom_site_type_symbol
_atom_site_label
_atom_site_fract_x
_atom_site_fract_y
_atom_site_fract_z
Si Si1 0.724172 0.376220 0.759602
Si Si2 0.418691 0.805234 0.944622
Si Si3 0.432760 0.979368 0.395911
Si Si4 0.500000 0.489781 0.000000
Si Si5 0.116603 0.654604 0.844178
Si Si6 0.577420 0.606215 0.269821
Si Si7 0.229462 0.469740 0.904482
O O1 0.823905 0.418875 0.553042
O O2 0.701303 0.250020 0.753296
O O3 0.608258 0.427611 0.845142
O O4 0.752823 0.420052 0.923707
O O5 0.488873 0.895435 0.777923
O O6 0.376250 0.715660 0.856649
O O7 0.500000 0.755380 0.000000
O O8 0.325704 0.869434 0.134058
O O9 0.500000 0.012798 0.500000
O O10 0.398460 0.079657 0.309955
O O11 0.525670 0.551669 0.153009
O O12 0.151179 0.570850 0.960241
O O13 0.000000 0.699222 0.000000
O O14 0.500000 0.637108 0.500000
O O15 0.660783 0.520716 0.262767
#
# Coordination Sequence:
#
# PCOD9128566 Si02
#       7
#     4   4   4   2   4   4   4
#     4  11  25  44  70  98 144 178 233 291 355 412
#     4  12  22  43  67 103 135 179 236 291 348 418
#     4  12  24  43  69 104 139 178 238 294 341 426
#     4  10  24  46  66 104 146 182 232 294 352 422
#     4  12  23  46  72  97 135 189 229 281 361 416
#     4  11  26  43  72  99 140 188 239 283 361 415
#     4  11  23  44  66 100 132 182 224 292 344 421
#
# _framework density 21.394860000000001
#
# number of rings (size 3 to 8) (size 9 to 14) (size 15 to 20)
#    0.000    0.615    6.154    1.385    4.308    0.000 
#    0.000    2.308    0.000    0.000    0.000    0.000 
#    0.000    0.000    0.000    0.000    0.000    0.000 
#
# Total GULP energy -72497.928226 kJ/mol
# GULP energy per Si atom -5576.763710 kJ/mol
# Density = 2.134616 g / cm^3
# Si number density = 21.394860 Si / 1000 Ang^3
#
#
#
# Elastic Constant Matrix: (Units=GPa)
#
#
# Indices 1 2 3 4 5 6 
#
# 1 133.1644 61.5908 27.8219 0.0000 -9.2790 0.0000
# 2 61.5908 128.5662 42.1338 0.0000 -5.3819 0.0000
# 3 27.8219 42.1338 52.9267 0.0000 -1.3023 0.0000
# 4 0.0000 0.0000 0.0000 20.7434 0.0000 -10.1581
# 5 -9.2790 -5.3819 -1.3023 0.0000 26.7191 0.0000
# 6 0.0000 0.0000 0.0000 -10.1581 0.0000 34.7054
#
#
#
# Elastic Compliance Matrix: (Units=1/GPa)
#
#
# Indices 1 2 3 4 5 6 
#
# 1 0.009958 -0.004016 -0.001974 0.000000 0.002553 0.000000
# 2 -0.004016 0.012223 -0.007602 0.000000 0.000697 0.000000
# 3 -0.001974 -0.007602 0.025960 0.000000 -0.000952 0.000000
# 4 0.000000 0.000000 0.000000 0.056274 0.000000 0.016471
# 5 0.002553 0.000697 -0.000952 0.000000 0.038407 0.000000
# 6 0.000000 0.000000 0.000000 0.016471 0.000000 0.033635
#
#
# Mechanical properties :
#
#
# Convention : Reuss Voigt Hill
#
# Bulk Modulus (GPa) = 47.72016 64.19449 55.95732
# Shear Modulus (GPa) = 23.73879 28.64096 26.18988
#
# Velocity S-wave (km/s) = 3.33461 3.66277 3.50254
# Velocity P-wave (km/s) = 6.09747 6.92515 6.52444
#
# Compressibility (1/GPa) = 0.02095551
#
# Stress axis : x y z
#
# Youngs Moduli (GPa) = 100.42675 81.81569 38.52087
#
# Poissons Ratio (x) = 0.32860 0.07605
# Poissons Ratio (y) = 0.40335 0.29282
# Poissons Ratio (z) = 0.19826 0.62194
#
# Static dielectric constant tensor:
#      x y z
#    x 1.865780 0.000000 -0.004400 
#    y 0.000000 1.786230 0.000000 
#    z -0.004400 0.000000 1.736500 
# 
# From -- ./inp_files/23528.got.cif
#   From: 2010.05.17/outbox.cif.g08.bks.cpg/sg5_12_cif.got.tgz:23528.got - 2010.06.03 18:56:24.
