data_PCOD9128825
_publ_section_title
;
Structure prediction by ZEFSAII (Michael W. Deem and Ramdas Pophale) SiO2 
 PCOD9128825
Probable space group: C 2
;
_chemical_formula_sum "Si O2"
_cell_formula_units_Z 30
_cell_length_a 21.685746
_cell_length_b 4.938263
_cell_length_c 10.874927
_cell_angle_alpha 90.000000
_cell_angle_beta 64.922047
_cell_angle_gamma 90.000000
_cell_volume 1054.810941
_symmetry_space_group_name_H-M "C 2"
_symmetry_group_IT_number 5
_symmetry_cell_setting 'monoclinic'
loop_
_space_group_symop_operation_xyz
x,y,z
-x,y,-z
1/2+x,1/2+y,z
1/2-x,1/2+y,-z
loop_
_atom_site_type_symbol
_atom_site_label
_atom_site_fract_x
_atom_site_fract_y
_atom_site_fract_z
Si Si1 0.573482 0.920300 0.792751
Si Si2 0.868144 0.300274 0.732294
Si Si3 0.765355 0.078967 0.560823
Si Si4 0.500000 0.567301 0.500000
Si Si5 0.265602 0.268895 0.797803
Si Si6 0.415274 0.044471 0.933978
Si Si7 0.312949 0.523079 0.966607
Si Si8 0.906596 0.901721 0.375482
O O1 0.736607 0.939076 0.705538
O O2 0.494979 0.017594 0.839649
O O3 0.576871 0.611182 0.747418
O O4 0.612766 0.114258 0.664383
O O5 0.939810 0.244592 0.611351
O O6 0.828418 0.555742 0.716633
O O7 0.875643 0.328428 0.878154
O O8 0.818694 0.042903 0.795452
O O9 0.749890 0.885202 0.458196
O O10 0.846761 0.040817 0.503737
O O11 0.468894 0.389238 0.417469
O O12 0.254498 0.278785 0.970248
O O13 0.090821 0.476176 0.918634
O O14 0.201923 0.054033 0.872413
O O15 0.381686 0.322353 0.922182
#
# Coordination Sequence:
#
# PCOD9128825 Si02
#       8
#     4   4   4   2   4   4   4   4
#     4  11  26  48  76 114 154 203 258 329 392 485
#     4  11  24  45  74 113 151 203 259 329 400 464
#     4  12  31  52  79 113 165 217 268 328 400 489
#     4  12  26  48  84 112 164 202 276 326 404 484
#     4  11  26  46  76 110 157 202 275 321 398 468
#     4  10  25  43  75 111 155 197 262 320 401 469
#     4  11  23  46  74 113 149 206 259 334 390 467
#     4  12  28  51  79 115 156 214 267 325 408 467
#
# _framework density 28.441116999999998
#
# number of rings (size 3 to 8) (size 9 to 14) (size 15 to 20)
#    0.000    0.800    2.667    2.400    9.333    3.733 
#    0.000    0.000    0.000    0.000    0.000    0.000 
#    0.000    0.000    0.000    0.000    0.000    0.000 
#
# Total GULP energy -83993.183617 kJ/mol
# GULP energy per Si atom -5599.545574 kJ/mol
# Density = 2.837638 g / cm^3
# Si number density = 28.441117 Si / 1000 Ang^3
#
#
#
# Elastic Constant Matrix: (Units=GPa)
#
#
# Indices 1 2 3 4 5 6 
#
# 1 144.1133 48.2719 26.6872 0.0000 26.3235 0.0000
# 2 48.2719 186.4950 33.4739 0.0000 10.9961 0.0000
# 3 26.6872 33.4739 164.0120 0.0000 -14.9674 0.0000
# 4 0.0000 0.0000 0.0000 50.7211 0.0000 -1.4382
# 5 26.3235 10.9961 -14.9674 0.0000 58.4186 0.0000
# 6 0.0000 0.0000 0.0000 -1.4382 0.0000 45.5356
#
#
#
# Elastic Compliance Matrix: (Units=1/GPa)
#
#
# Indices 1 2 3 4 5 6 
#
# 1 0.008473 -0.001719 -0.001379 0.000000 -0.003848 0.000000
# 2 -0.001719 0.006024 -0.001006 0.000000 -0.000617 0.000000
# 3 -0.001379 -0.001006 0.006759 0.000000 0.002542 0.000000
# 4 0.000000 0.000000 0.000000 0.019733 0.000000 0.000623
# 5 -0.003848 -0.000617 0.002542 0.000000 0.019619 0.000000
# 6 0.000000 0.000000 0.000000 0.000623 0.000000 0.021981
#
#
# Mechanical properties :
#
#
# Convention : Reuss Voigt Hill
#
# Bulk Modulus (GPa) = 76.64023 79.05400 77.84711
# Shear Modulus (GPa) = 52.55098 56.68087 54.61593
#
# Velocity S-wave (km/s) = 4.30316 4.46906 4.38689
# Velocity P-wave (km/s) = 7.18993 7.38146 7.28633
#
# Compressibility (1/GPa) = 0.01304798
#
# Stress axis : x y z
#
# Youngs Moduli (GPa) = 118.02387 166.00490 147.95393
#
# Poissons Ratio (x) = 0.28531 0.20403
# Poissons Ratio (y) = 0.20285 0.14886
# Poissons Ratio (z) = 0.16276 0.16702
#
# Static dielectric constant tensor:
#      x y z
#    x 2.270910 0.000000 -0.073540 
#    y 0.000000 2.234190 0.000000 
#    z -0.073540 0.000000 2.325830 
# 
# From -- ./inp_files/63491.got.cif
#   From: 2010.05.17/outbox.cif.g08.bks.cpg/sg5_32_cif.got.tgz:63491.got - 2010.06.03 18:56:24.
