data_PCOD9128058
_publ_section_title
;
Structure prediction by ZEFSAII (Michael W. Deem and Ramdas Pophale) SiO2 
 PCOD9128058
Probable space group: C 2
;
_chemical_formula_sum "Si O2"
_cell_formula_units_Z 26
_cell_length_a 14.054809
_cell_length_b 5.507462
_cell_length_c 13.962465
_cell_angle_alpha 90.000000
_cell_angle_beta 91.660294
_cell_angle_gamma 90.000000
_cell_volume 1080.329389
_symmetry_space_group_name_H-M "C 2"
_symmetry_group_IT_number 5
_symmetry_cell_setting 'monoclinic'
loop_
_space_group_symop_operation_xyz
x,y,z
-x,y,-z
1/2+x,1/2+y,z
1/2-x,1/2+y,-z
loop_
_atom_site_type_symbol
_atom_site_label
_atom_site_fract_x
_atom_site_fract_y
_atom_site_fract_z
Si Si1 0.947825 0.544970 0.100778
Si Si2 0.939310 0.382063 0.622419
Si Si3 0.751872 0.999331 0.842241
Si Si4 0.622901 0.642073 0.564922
Si Si5 0.026238 0.047027 0.113063
Si Si6 0.260690 0.989982 0.733402
Si Si7 0.500000 0.262934 0.500000
O O1 0.834100 0.528395 0.085078
O O2 0.979922 0.294256 0.152002
O O3 0.982094 0.795350 0.150725
O O4 0.000000 0.545422 0.000000
O O5 0.877997 0.335472 0.521800
O O6 0.867926 0.427772 0.704736
O O7 0.023841 0.184837 0.621552
O O8 0.998140 0.619110 0.598626
O O9 0.752979 0.719585 0.805195
O O10 0.859886 0.049068 0.876603
O O11 0.726479 0.223697 0.768716
O O12 0.706532 0.596167 0.639375
O O13 0.599146 0.402810 0.504884
O O14 0.000000 0.046815 0.000000
#
# Coordination Sequence:
#
# PCOD9128058 Si02
#       7
#     4   4   4   4   4   4   2
#     4  10  23  45  75 100 132 182 224 282 343 423
#     4   9  22  41  65  95 128 187 242 279 330 410
#     4  12  28  45  63 112 142 172 238 284 362 423
#     4   9  22  41  65  95 128 187 242 279 330 410
#     4  10  23  45  75 100 132 182 224 282 343 423
#     4  12  28  41  69 100 148 182 216 308 354 397
#     4   8  18  40  64  90 122 172 252 276 314 412
#
# _framework density 24.066732999999999
#
# number of rings (size 3 to 8) (size 9 to 14) (size 15 to 20)
#    0.000    2.154    0.000    1.846   10.769    8.615 
#    0.000    0.000    0.000    0.000    0.000    0.000 
#    0.000    0.000    0.000    0.000    0.000    0.000 
#
# Total GULP energy -72437.917936 kJ/mol
# GULP energy per Si atom -5572.147534 kJ/mol
# Density = 2.401196 g / cm^3
# Si number density = 24.066733 Si / 1000 Ang^3
#
#
#
# Elastic Constant Matrix: (Units=GPa)
#
#
# Indices 1 2 3 4 5 6 
#
# 1 127.6858 14.6389 9.0750 0.0000 -0.7962 0.0000
# 2 14.6389 149.3743 2.2326 0.0000 -1.7002 0.0000
# 3 9.0750 2.2326 37.6230 0.0000 1.0418 0.0000
# 4 0.0000 0.0000 0.0000 9.1878 0.0000 31.0935
# 5 -0.7962 -1.7002 1.0418 0.0000 51.4202 0.0000
# 6 0.0000 0.0000 0.0000 31.0935 0.0000 -354.7801
#
#
#
# Elastic Compliance Matrix: (Units=1/GPa)
#
#
# Indices 1 2 3 4 5 6 
#
# 1 0.008055 -0.000759 -0.001902 0.000000 0.000138 0.000000
# 2 -0.000759 0.006775 -0.000225 0.000000 0.000217 0.000000
# 3 -0.001902 -0.000225 0.027068 0.000000 -0.000585 0.000000
# 4 0.000000 0.000000 0.000000 0.083943 0.000000 0.007357
# 5 0.000138 0.000217 -0.000585 0.000000 0.019469 0.000000
# 6 0.000000 0.000000 0.000000 0.007357 0.000000 -0.002174
#
#
# Mechanical properties :
#
#
# Convention : Reuss Voigt Hill
#
# Bulk Modulus (GPa) = 27.68123 40.73067 34.20595
# Shear Modulus (GPa) = 31.06578 -39.58531 -4.25976
#
# Velocity S-wave (km/s) = 3.59669 -4.06003 -1.33185
# Velocity P-wave (km/s) = 5.36424 2.24002 3.44655
#
# Compressibility (1/GPa) = 0.03612556
#
# Stress axis : x y z
#
# Youngs Moduli (GPa) = 124.14949 147.60490 36.94438
#
# Poissons Ratio (x) = 0.11209 0.07026
# Poissons Ratio (y) = 0.09428 0.00831
# Poissons Ratio (z) = 0.23609 0.03319
#
# Static dielectric constant tensor:
#      x y z
#    x 1.912270 0.000000 0.218230 
#    y 0.000000 2.071290 0.000000 
#    z 0.218230 0.000000 5.764680 
# 
# From -- ./inp_files/53851.got.cif
#   From: 2010.05.17/outbox.cif.g08.bks.cpg/sg5_27_cif.got.tgz:53851.got - 2010.06.03 18:56:24.
