data_PCOD9128251
_publ_section_title
;
Structure prediction by ZEFSAII (Michael W. Deem and Ramdas Pophale) SiO2 
 PCOD9128251
Probable space group: C 2
;
_chemical_formula_sum "Si O2"
_cell_formula_units_Z 32
_cell_length_a 10.480837
_cell_length_b 9.675575
_cell_length_c 17.807421
_cell_angle_alpha 90.000000
_cell_angle_beta 61.665196
_cell_angle_gamma 90.000000
_cell_volume 1589.460782
_symmetry_space_group_name_H-M "C 2"
_symmetry_group_IT_number 5
_symmetry_cell_setting 'monoclinic'
loop_
_space_group_symop_operation_xyz
x,y,z
-x,y,-z
1/2+x,1/2+y,z
1/2-x,1/2+y,-z
loop_
_atom_site_type_symbol
_atom_site_label
_atom_site_fract_x
_atom_site_fract_y
_atom_site_fract_z
Si Si1 0.852907 0.016730 0.947792
Si Si2 0.165648 0.598589 0.453257
Si Si3 0.560571 0.293383 0.832754
Si Si4 0.299776 0.095608 0.854795
Si Si5 0.471909 0.773720 0.097511
Si Si6 0.885341 0.548264 0.095403
Si Si7 0.678696 0.934943 0.300242
Si Si8 0.409969 0.802293 0.452895
O O1 0.902933 0.171401 0.911949
O O2 0.986775 0.911968 0.904559
O O3 0.773795 0.029027 0.049944
O O4 0.742038 0.974577 0.914213
O O5 0.190206 0.554801 0.359775
O O6 0.287030 0.700541 0.454006
O O7 0.157149 0.450439 0.500338
O O8 0.000000 0.656101 0.500000
O O9 0.430299 0.196684 0.840832
O O10 0.658922 0.185684 0.850806
O O11 0.665690 0.358855 0.742237
O O12 0.175514 0.190748 0.852106
O O13 0.340506 0.989472 0.778705
O O14 0.456797 0.930637 0.127642
O O15 0.500000 0.785240 0.000000
O O16 0.000000 0.593078 0.000000
O O17 0.539682 0.842182 0.359768
O O18 0.500000 0.744901 0.500000
#
# Coordination Sequence:
#
# PCOD9128251 Si02
#       8
#     4   4   4   4   4   4   4   4
#     4  11  23  40  61  78 115 173 233 272 315 357
#     4   9  21  45  75 101 129 161 202 249 306 392
#     4  12  25  39  61  87 124 171 220 272 317 364
#     4  11  22  39  59  84 127 169 215 269 315 364
#     4   9  20  39  55  77 111 155 215 275 314 350
#     4  11  23  37  56  85 110 157 232 282 309 360
#     4  10  24  40  60  99 137 163 199 255 324 379
#     4   9  21  45  74 102 130 160 204 248 305 391
#
# _framework density 20.132615000000001
#
# number of rings (size 3 to 8) (size 9 to 14) (size 15 to 20)
#    0.000    2.000    3.750    0.000    1.750    6.500 
#    2.250    0.000    0.000    0.000    0.000    0.000 
#    0.000    0.000    0.000    0.000    0.000    0.000 
#
# Total GULP energy -89198.935720 kJ/mol
# GULP energy per Si atom -5574.933483 kJ/mol
# Density = 2.008679 g / cm^3
# Si number density = 20.132615 Si / 1000 Ang^3
#
#
#
# Elastic Constant Matrix: (Units=GPa)
#
#
# Indices 1 2 3 4 5 6 
#
# 1 117.6764 50.2510 45.4308 0.0000 -11.9599 0.0000
# 2 50.2510 97.5988 49.6281 0.0000 -4.9712 0.0000
# 3 45.4308 49.6281 114.5698 0.0000 -11.5695 0.0000
# 4 0.0000 0.0000 0.0000 14.0874 0.0000 -5.2003
# 5 -11.9599 -4.9712 -11.5695 0.0000 19.8771 0.0000
# 6 0.0000 0.0000 0.0000 -5.2003 0.0000 44.2313
#
#
#
# Elastic Compliance Matrix: (Units=1/GPa)
#
#
# Indices 1 2 3 4 5 6 
#
# 1 0.011840 -0.004759 -0.002161 0.000000 0.004676 0.000000
# 2 -0.004759 0.015053 -0.004826 0.000000 -0.001908 0.000000
# 3 -0.002161 -0.004826 0.012136 0.000000 0.004556 0.000000
# 4 0.000000 0.000000 0.000000 0.074206 0.000000 0.008724
# 5 0.004676 -0.001908 0.004556 0.000000 0.055297 0.000000
# 6 0.000000 0.000000 0.000000 0.008724 0.000000 0.023634
#
#
# Mechanical properties :
#
#
# Convention : Reuss Voigt Hill
#
# Bulk Modulus (GPa) = 64.36564 68.94054 66.65309
# Shear Modulus (GPa) = 22.64109 27.94148 25.29128
#
# Velocity S-wave (km/s) = 3.35714 3.72946 3.54818
# Velocity P-wave (km/s) = 6.86057 7.27067 7.06860
#
# Compressibility (1/GPa) = 0.01553624
#
# Stress axis : x y z
#
# Youngs Moduli (GPa) = 84.46226 66.43161 82.39957
#
# Poissons Ratio (x) = 0.31613 0.17809
# Poissons Ratio (y) = 0.40193 0.39767
# Poissons Ratio (z) = 0.18255 0.32061
#
# Static dielectric constant tensor:
#      x y z
#    x 1.774090 0.000000 -0.018720 
#    y 0.000000 1.752640 0.000000 
#    z -0.018720 0.000000 1.705280 
# 
# From -- ./inp_files/65127.got.cif
#   From: 2010.05.17/outbox.cif.g08.bks.cpg/sg5_33_cif.got.tgz:65127.got - 2010.06.03 18:56:24.
