data_PCOD9128442
_publ_section_title
;
Structure prediction by ZEFSAII (Michael W. Deem and Ramdas Pophale) SiO2 
 PCOD9128442
Probable space group: C 2
;
_chemical_formula_sum "Si O2"
_cell_formula_units_Z 24
_cell_length_a 17.181044
_cell_length_b 4.783473
_cell_length_c 22.652841
_cell_angle_alpha 90.000000
_cell_angle_beta 148.489210
_cell_angle_gamma 90.000000
_cell_volume 973.047612
_symmetry_space_group_name_H-M "C 2"
_symmetry_group_IT_number 5
_symmetry_cell_setting 'monoclinic'
loop_
_space_group_symop_operation_xyz
x,y,z
-x,y,-z
1/2+x,1/2+y,z
1/2-x,1/2+y,-z
loop_
_atom_site_type_symbol
_atom_site_label
_atom_site_fract_x
_atom_site_fract_y
_atom_site_fract_z
Si Si1 0.015862 0.197990 0.160999
Si Si2 0.300122 0.294098 0.274379
Si Si3 0.857632 0.200024 0.941486
Si Si4 0.215152 0.883460 0.442278
Si Si5 0.491434 0.823044 0.429203
Si Si6 0.444576 0.190468 0.194976
O O1 0.181058 0.154893 0.242218
O O2 0.021986 0.428348 0.215019
O O3 0.935775 0.926336 0.137208
O O4 0.929822 0.320299 0.047947
O O5 0.212180 0.378066 0.157624
O O6 0.388199 0.551587 0.358627
O O7 0.417721 0.049142 0.338428
O O8 0.707366 0.078073 0.873597
O O9 0.000000 0.051971 0.000000
O O10 0.250200 0.705170 0.523299
O O11 0.339799 0.767530 0.478957
O O12 0.051963 0.831547 0.312371
O O13 0.500000 0.944680 0.500000
#
# Coordination Sequence:
#
# PCOD9128442 Si02
#       6
#     4   4   4   4   4   4
#     4  11  24  43  68  96 127 168 212 261 318 376
#     4  11  24  43  65  96 131 168 211 261 314 376
#     4  10  24  44  68  95 128 167 212 264 322 378
#     4  12  25  42  65  95 130 171 212 259 316 375
#     4  12  24  42  66  95 130 171 213 259 312 375
#     4  12  24  44  66  95 129 167 213 264 314 378
#
# _framework density 24.664774000000001
#
# number of rings (size 3 to 8) (size 9 to 14) (size 15 to 20)
#    0.000    0.667    0.000    8.500    0.000    2.667 
#    0.000    9.167    0.000    0.000    0.000    0.000 
#    0.000    0.000    0.000    0.000    0.000    0.000 
#
# Total GULP energy -66989.443312 kJ/mol
# GULP energy per Si atom -5582.453609 kJ/mol
# Density = 2.460864 g / cm^3
# Si number density = 24.664774 Si / 1000 Ang^3
#
#
#
# Elastic Constant Matrix: (Units=GPa)
#
#
# Indices 1 2 3 4 5 6 
#
# 1 126.7792 6.2269 31.2920 0.0013 18.8616 -0.0025
# 2 6.2269 73.6288 5.9362 0.0060 -7.5718 -0.0021
# 3 31.2920 5.9362 106.6878 0.0026 6.1586 0.0037
# 4 0.0013 0.0060 0.0026 12.8460 -0.0004 -2.6251
# 5 18.8616 -7.5718 6.1586 -0.0004 44.0287 0.0000
# 6 -0.0025 -0.0021 0.0037 -2.6251 0.0000 13.8431
#
#
#
# Elastic Compliance Matrix: (Units=1/GPa)
#
#
# Indices 1 2 3 4 5 6 
#
# 1 0.009079 -0.000957 -0.002395 0.000000 -0.003719 0.000002
# 2 -0.000957 0.014016 -0.000667 -0.000006 0.002914 0.000001
# 3 -0.002395 -0.000667 0.010142 -0.000002 -0.000507 -0.000004
# 4 0.000000 -0.000006 -0.000002 0.080984 0.000000 0.015357
# 5 -0.003719 0.002914 -0.000507 0.000000 0.024878 0.000000
# 6 0.000002 0.000001 -0.000004 0.015357 0.000000 0.075150
#
#
# Mechanical properties :
#
#
# Convention : Reuss Voigt Hill
#
# Bulk Modulus (GPa) = 39.68539 43.77844 41.73191
# Shear Modulus (GPa) = 21.67435 31.71961 26.69698
#
# Velocity S-wave (km/s) = 2.96760 3.59001 3.29354
# Velocity P-wave (km/s) = 5.27892 5.91373 5.60532
#
# Compressibility (1/GPa) = 0.02519819
#
# Stress axis : x y z
#
# Youngs Moduli (GPa) = 110.14190 71.34679 98.59955
#
# Poissons Ratio (x) = 0.06829 0.23615
# Poissons Ratio (y) = 0.10543 0.06580
# Poissons Ratio (z) = 0.26379 0.04761
#
# Static dielectric constant tensor:
#      x y z
#    x 1.992430 0.000000 0.026310 
#    y 0.000000 1.891470 0.000000 
#    z 0.026310 0.000000 1.954660 
# 
# From -- ./inp_files/69014.got.cif
#   From: 2010.05.17/outbox.cif.g08.bks.cpg/sg5_35_cif.got.tgz:69014.got - 2010.06.03 18:56:24.
