data_PCOD9128941
_publ_section_title
;
Structure prediction by ZEFSAII (Michael W. Deem and Ramdas Pophale) SiO2 
 PCOD9128941
Probable space group: C 2
;
_chemical_formula_sum "Si O2"
_cell_formula_units_Z 32
_cell_length_a 11.495620
_cell_length_b 8.919278
_cell_length_c 27.737052
_cell_angle_alpha 90.000000
_cell_angle_beta 149.255123
_cell_angle_gamma 90.000000
_cell_volume 1453.874916
_symmetry_space_group_name_H-M "C 2"
_symmetry_group_IT_number 5
_symmetry_cell_setting 'monoclinic'
loop_
_space_group_symop_operation_xyz
x,y,z
-x,y,-z
1/2+x,1/2+y,z
1/2-x,1/2+y,-z
loop_
_atom_site_type_symbol
_atom_site_label
_atom_site_fract_x
_atom_site_fract_y
_atom_site_fract_z
Si Si1 0.023387 0.018330 0.952062
Si Si2 0.901841 0.087938 0.666705
Si Si3 0.320404 0.755396 0.547164
Si Si4 0.557734 0.073422 0.629537
Si Si5 0.668919 0.574389 0.606888
Si Si6 0.930116 0.283863 0.102324
Si Si7 0.082282 0.776040 0.720114
Si Si8 0.945011 0.348137 0.221621
O O1 0.107770 0.133750 0.941642
O O2 0.771981 0.955389 0.850684
O O3 0.000000 0.073196 0.000000
O O4 0.212137 0.888556 0.017497
O O5 0.771062 0.187485 0.581467
O O6 0.737943 0.044827 0.652259
O O7 0.081910 0.202951 0.753933
O O8 0.991372 0.939695 0.672814
O O9 0.513950 0.652163 0.592039
O O10 0.097609 0.718108 0.437653
O O11 0.404565 0.925401 0.579684
O O12 0.661786 0.133885 0.715780
O O13 0.500000 0.548849 0.500000
O O14 0.860855 0.699762 0.664520
O O15 0.820901 0.433685 0.679265
O O16 0.957135 0.295447 0.170342
O O17 0.181174 0.325722 0.170677
#
# Coordination Sequence:
#
# PCOD9128941 Si02
#       8
#     4   4   4   4   4   4   4   4
#     4  10  25  49  76 114 146 188 242 315 380 460
#     4  12  27  43  70 106 140 198 253 305 371 441
#     4  12  27  42  70 100 147 200 261 305 367 431
#     4  12  26  47  65 102 144 198 253 316 360 438
#     4  12  25  46  76 106 156 210 254 309 371 446
#     4  11  24  50  80 108 153 187 249 308 391 453
#     4  12  24  48  72 101 152 196 244 310 372 445
#     4  11  25  48  75 110 154 196 247 316 376 450
#
# _framework density 22.010147
#
# number of rings (size 3 to 8) (size 9 to 14) (size 15 to 20)
#    0.000    0.500    5.000    2.625    3.500    0.000 
#    2.250    0.000    0.000    0.000    0.000    0.000 
#    0.000    0.000    0.000    0.000    0.000    0.000 
#
# Total GULP energy -89199.290775 kJ/mol
# GULP energy per Si atom -5574.955673 kJ/mol
# Density = 2.196005 g / cm^3
# Si number density = 22.010147 Si / 1000 Ang^3
#
#
#
# Elastic Constant Matrix: (Units=GPa)
#
#
# Indices 1 2 3 4 5 6 
#
# 1 79.9780 36.9250 34.3562 0.0000 -7.7961 0.0000
# 2 36.9250 125.4155 43.7630 0.0000 -22.7601 0.0000
# 3 34.3562 43.7630 102.7549 0.0000 5.3853 0.0000
# 4 0.0000 0.0000 0.0000 29.6689 0.0000 2.6571
# 5 -7.7961 -22.7601 5.3853 0.0000 27.3962 0.0000
# 6 0.0000 0.0000 0.0000 2.6571 0.0000 39.2702
#
#
#
# Elastic Compliance Matrix: (Units=1/GPa)
#
#
# Indices 1 2 3 4 5 6 
#
# 1 0.015888 -0.002551 -0.004397 0.000000 0.003267 0.000000
# 2 -0.002551 0.012367 -0.004966 0.000000 0.010525 0.000000
# 3 -0.004397 -0.004966 0.013740 0.000000 -0.008078 0.000000
# 4 0.000000 0.000000 0.000000 0.033911 0.000000 -0.002294
# 5 0.003267 0.010525 -0.008078 0.000000 0.047763 0.000000
# 6 0.000000 0.000000 0.000000 -0.002294 0.000000 0.025620
#
#
# Mechanical properties :
#
#
# Convention : Reuss Voigt Hill
#
# Bulk Modulus (GPa) = 55.04036 59.80409 57.42222
# Shear Modulus (GPa) = 27.90592 32.14066 30.02329
#
# Velocity S-wave (km/s) = 3.56457 3.82549 3.69733
# Velocity P-wave (km/s) = 6.48095 6.83686 6.66128
#
# Compressibility (1/GPa) = 0.01816849
#
# Stress axis : x y z
#
# Youngs Moduli (GPa) = 62.93909 80.85804 72.77777
#
# Poissons Ratio (x) = 0.20624 0.32002
# Poissons Ratio (y) = 0.16054 0.36141
# Poissons Ratio (z) = 0.27675 0.40154
#
# Static dielectric constant tensor:
#      x y z
#    x 1.906450 0.000000 -0.062600 
#    y 0.000000 1.826230 0.000000 
#    z -0.062600 0.000000 1.895440 
# 
# From -- ./inp_files/71767.got.cif
#   From: 2010.05.17/outbox.cif.g08.bks.cpg/sg5_36_cif.got.tgz:71767.got - 2010.06.03 18:56:24.
