data_PCOD9128567
_publ_section_title
;
Structure prediction by ZEFSAII (Michael W. Deem and Ramdas Pophale) SiO2 
 PCOD9128567
Probable space group: C 2
;
_chemical_formula_sum "Si O2"
_cell_formula_units_Z 20
_cell_length_a 17.221240
_cell_length_b 8.013283
_cell_length_c 6.282910
_cell_angle_alpha 90.000000
_cell_angle_beta 75.843052
_cell_angle_gamma 90.000000
_cell_volume 840.700903
_symmetry_space_group_name_H-M "C 2"
_symmetry_group_IT_number 5
_symmetry_cell_setting 'monoclinic'
loop_
_space_group_symop_operation_xyz
x,y,z
-x,y,-z
1/2+x,1/2+y,z
1/2-x,1/2+y,-z
loop_
_atom_site_type_symbol
_atom_site_label
_atom_site_fract_x
_atom_site_fract_y
_atom_site_fract_z
Si Si1 0.102637 0.861710 0.306199
Si Si2 0.252115 0.669779 0.118825
Si Si3 0.872964 0.158670 0.388953
Si Si4 0.000000 0.562553 0.500000
Si Si5 0.368608 0.878724 0.772633
Si Si6 0.500000 0.515876 0.000000
O O1 0.193015 0.826688 0.177910
O O2 0.071621 0.700677 0.462306
O O3 0.101928 0.019162 0.459182
O O4 0.048883 0.900511 0.134654
O O5 0.291322 0.623918 0.318422
O O6 0.188075 0.527026 0.108066
O O7 0.326507 0.721941 0.919189
O O8 0.863495 0.329222 0.525925
O O9 0.941811 0.136417 0.169668
O O10 0.961122 0.443978 0.710332
#
# Coordination Sequence:
#
# PCOD9128567 Si02
#       6
#     4   4   4   2   4   2
#     4  11  24  49  73 107 149 196 249 304 369 445
#     4  11  25  46  72 107 146 196 247 302 372 439
#     4  12  24  42  74 104 142 197 246 307 364 439
#     4  10  24  46  66 104 150 186 244 306 356 438
#     4  11  25  44  70 103 147 186 247 304 364 442
#     4  12  24  42  78 102 144 206 244 300 376 436
#
# _framework density 23.789673000000001
#
# number of rings (size 3 to 8) (size 9 to 14) (size 15 to 20)
#    0.000    0.800    2.000    4.800    5.600    0.000 
#    7.200    0.000    0.000    0.000    0.000    0.000 
#    0.000    0.000    0.000    0.000    0.000    0.000 
#
# Total GULP energy -55706.401839 kJ/mol
# GULP energy per Si atom -5570.640184 kJ/mol
# Density = 2.373553 g / cm^3
# Si number density = 23.789673 Si / 1000 Ang^3
#
#
#
# Elastic Constant Matrix: (Units=GPa)
#
#
# Indices 1 2 3 4 5 6 
#
# 1 129.1258 39.6598 75.9976 0.0000 -19.8998 0.0000
# 2 39.6598 83.7785 42.2434 0.0000 -29.7442 0.0000
# 3 75.9976 42.2434 112.1569 0.0000 -33.6415 0.0000
# 4 0.0000 0.0000 0.0000 35.6141 0.0000 -23.1430
# 5 -19.8998 -29.7442 -33.6415 0.0000 54.1668 0.0000
# 6 0.0000 0.0000 0.0000 -23.1430 0.0000 53.3265
#
#
#
# Elastic Compliance Matrix: (Units=1/GPa)
#
#
# Indices 1 2 3 4 5 6 
#
# 1 0.013329 -0.002645 -0.008605 0.000000 -0.001900 0.000000
# 2 -0.002645 0.016850 -0.002544 0.000000 0.006701 0.000000
# 3 -0.008605 -0.002544 0.017620 0.000000 0.006385 0.000000
# 4 0.000000 0.000000 0.000000 0.039108 0.000000 0.016972
# 5 -0.001900 0.006701 0.006385 0.000000 0.025409 0.000000
# 6 0.000000 0.000000 0.000000 0.016972 0.000000 0.026118
#
#
# Mechanical properties :
#
#
# Convention : Reuss Voigt Hill
#
# Bulk Modulus (GPa) = 49.48023 71.20698 60.34361
# Shear Modulus (GPa) = 28.94187 39.76549 34.35368
#
# Velocity S-wave (km/s) = 3.49172 4.09289 3.80420
# Velocity P-wave (km/s) = 6.09101 7.23412 6.68704
#
# Compressibility (1/GPa) = 0.02021009
#
# Stress axis : x y z
#
# Youngs Moduli (GPa) = 75.02661 59.34558 56.75245
#
# Poissons Ratio (x) = 0.15699 0.48836
# Poissons Ratio (y) = 0.19847 0.14439
# Poissons Ratio (z) = 0.64561 0.15099
#
# Static dielectric constant tensor:
#      x y z
#    x 1.793610 0.000000 0.138540 
#    y 0.000000 2.007700 0.000000 
#    z 0.138540 0.000000 1.707170 
# 
# From -- ./inp_files/8016.got.cif
#   From: 2010.05.17/outbox.cif.g08.bks.cpg/sg5_5_cif.got.tgz:8016.got - 2010.06.03 18:56:24.
