data_PCOD9128615
_publ_section_title
;
Structure prediction by ZEFSAII (Michael W. Deem and Ramdas Pophale) SiO2 
 PCOD9128615
Probable space group: C 2
;
_chemical_formula_sum "Si O2"
_cell_formula_units_Z 22
_cell_length_a 12.153765
_cell_length_b 7.041137
_cell_length_c 10.926909
_cell_angle_alpha 90.000000
_cell_angle_beta 80.900862
_cell_angle_gamma 90.000000
_cell_volume 923.317778
_symmetry_space_group_name_H-M "C 2"
_symmetry_group_IT_number 5
_symmetry_cell_setting 'monoclinic'
loop_
_space_group_symop_operation_xyz
x,y,z
-x,y,-z
1/2+x,1/2+y,z
1/2-x,1/2+y,-z
loop_
_atom_site_type_symbol
_atom_site_label
_atom_site_fract_x
_atom_site_fract_y
_atom_site_fract_z
Si Si1 0.384003 0.561360 0.970242
Si Si2 0.796286 0.397257 0.819013
Si Si3 0.000000 0.694181 0.000000
Si Si4 0.177243 0.781009 0.591732
Si Si5 0.456732 0.982063 0.239559
Si Si6 0.596784 0.682033 0.577216
O O1 0.288767 0.519777 0.086028
O O2 0.500000 0.650591 0.000000
O O3 0.332811 0.702396 0.880626
O O4 0.426842 0.345969 0.934204
O O5 0.738822 0.346246 0.703737
O O6 0.911231 0.503398 0.774613
O O7 0.068223 0.565196 0.891770
O O8 0.105877 0.601057 0.645322
O O9 0.277089 0.738496 0.481177
O O10 0.099185 0.955163 0.570601
O O11 0.428708 0.766986 0.284227
O O12 0.500000 0.749636 0.500000
#
# Coordination Sequence:
#
# PCOD9128615 Si02
#       6
#     4   4   2   4   4   4
#     4  10  25  46  69 110 154 198 249 297 375 454
#     4  12  26  44  76 109 151 200 248 314 376 447
#     4  10  24  46  72 112 156 192 244 310 370 456
#     4  12  27  51  74 113 147 198 260 317 372 449
#     4  12  27  48  76 114 152 197 253 309 383 445
#     4  12  28  50  78 109 148 201 260 314 375 446
#
# _framework density 23.827114999999999
#
# number of rings (size 3 to 8) (size 9 to 14) (size 15 to 20)
#    0.545    0.000    5.455    1.091    6.364    2.182 
#    3.273    0.000    0.000    0.000    0.000    0.000 
#    0.000    0.000    0.000    0.000    0.000    0.000 
#
# Total GULP energy -61487.215251 kJ/mol
# GULP energy per Si atom -5589.746841 kJ/mol
# Density = 2.377288 g / cm^3
# Si number density = 23.827115 Si / 1000 Ang^3
#
#
#
# Elastic Constant Matrix: (Units=GPa)
#
#
# Indices 1 2 3 4 5 6 
#
# 1 125.9246 37.3579 40.8499 0.0000 -16.2577 0.0000
# 2 37.3579 67.7775 25.0142 0.0000 -1.2907 0.0000
# 3 40.8499 25.0142 84.7287 0.0000 -10.2937 0.0000
# 4 0.0000 0.0000 0.0000 12.7929 0.0000 2.3829
# 5 -16.2577 -1.2907 -10.2937 0.0000 50.7441 0.0000
# 6 0.0000 0.0000 0.0000 2.3829 0.0000 34.2753
#
#
#
# Elastic Compliance Matrix: (Units=1/GPa)
#
#
# Indices 1 2 3 4 5 6 
#
# 1 0.010787 -0.004594 -0.003525 0.000000 0.002624 0.000000
# 2 -0.004594 0.018532 -0.003463 0.000000 -0.001703 0.000000
# 3 -0.003525 -0.003463 0.014740 0.000000 0.001772 0.000000
# 4 0.000000 0.000000 0.000000 0.079194 0.000000 -0.005506
# 5 0.002624 -0.001703 0.001772 0.000000 0.020864 0.000000
# 6 0.000000 0.000000 0.000000 -0.005506 0.000000 0.029558
#
#
# Mechanical properties :
#
#
# Convention : Reuss Voigt Hill
#
# Bulk Modulus (GPa) = 47.86289 53.87498 50.86893
# Shear Modulus (GPa) = 24.53334 31.24305 27.88819
#
# Velocity S-wave (km/s) = 3.21228 3.62503 3.42488
# Velocity P-wave (km/s) = 5.82147 6.33885 6.08566
#
# Compressibility (1/GPa) = 0.02089302
#
# Stress axis : x y z
#
# Youngs Moduli (GPa) = 92.70715 53.96027 67.84375
#
# Poissons Ratio (x) = 0.24791 0.23917
# Poissons Ratio (y) = 0.42593 0.23494
# Poissons Ratio (z) = 0.32683 0.18687
#
# Static dielectric constant tensor:
#      x y z
#    x 1.934490 0.000000 -0.019860 
#    y 0.000000 1.980750 0.000000 
#    z -0.019860 0.000000 1.889320 
# 
# From -- ./inp_files/38366.got.cif
#   From: 2010.05.17/outbox.cif.g08.bks.cpg/sg5_20_cif.got.tgz:38366.got - 2010.06.03 18:56:24.
