data_PCOD9128179
_publ_section_title
;
Structure prediction by ZEFSAII (Michael W. Deem and Ramdas Pophale) SiO2 
 PCOD9128179
Probable space group: C 2
;
_chemical_formula_sum "Si O2"
_cell_formula_units_Z 16
_cell_length_a 11.062367
_cell_length_b 8.661532
_cell_length_c 7.549214
_cell_angle_alpha 90.000000
_cell_angle_beta 118.296529
_cell_angle_gamma 90.000000
_cell_volume 636.908241
_symmetry_space_group_name_H-M "C 2"
_symmetry_group_IT_number 5
_symmetry_cell_setting 'monoclinic'
loop_
_space_group_symop_operation_xyz
x,y,z
-x,y,-z
1/2+x,1/2+y,z
1/2-x,1/2+y,-z
loop_
_atom_site_type_symbol
_atom_site_label
_atom_site_fract_x
_atom_site_fract_y
_atom_site_fract_z
Si Si1 0.601602 0.490410 0.422328
Si Si2 0.677847 0.161252 0.624316
Si Si3 0.904918 0.483054 0.104328
Si Si4 0.373842 0.635869 0.077974
O O1 0.500000 0.564391 0.500000
O O2 0.629058 0.318336 0.504359
O O3 0.750139 0.557646 0.476187
O O4 0.498949 0.516758 0.186105
O O5 0.577783 0.085096 0.704228
O O6 0.811008 0.189690 0.844942
O O7 0.907425 0.306264 0.173551
O O8 0.754836 0.540638 0.935210
O O9 0.000000 0.504808 0.000000
#
# Coordination Sequence:
#
# PCOD9128179 Si02
#       4
#     4   4   4   4
#     4  12  26  50  76 121 166 201 276 336 397 495
#     4  10  27  49  79 120 156 219 267 330 418 473
#     4  10  23  48  82 114 159 217 270 329 412 484
#     4  10  24  50  83 113 161 217 266 333 413 480
#
# _framework density 25.121359000000002
#
# number of rings (size 3 to 8) (size 9 to 14) (size 15 to 20)
#    1.500    0.000    0.000    3.750    3.500    2.000 
#    9.000    0.000    0.000    0.000    0.000    0.000 
#    0.000    0.000    0.000    0.000    0.000    0.000 
#
# Total GULP energy -44551.603133 kJ/mol
# GULP energy per Si atom -5568.950392 kJ/mol
# Density = 2.506418 g / cm^3
# Si number density = 25.121359 Si / 1000 Ang^3
#
#
#
# Elastic Constant Matrix: (Units=GPa)
#
#
# Indices 1 2 3 4 5 6 
#
# 1 227.3763 102.0546 39.8633 0.0000 -10.3526 0.0000
# 2 102.0546 197.8208 92.2480 0.0000 -12.1692 0.0000
# 3 39.8633 92.2480 107.0300 0.0000 -9.4230 0.0000
# 4 0.0000 0.0000 0.0000 40.7404 0.0000 10.2728
# 5 -10.3526 -12.1692 -9.4230 0.0000 33.7023 0.0000
# 6 0.0000 0.0000 0.0000 10.2728 0.0000 38.5226
#
#
#
# Elastic Compliance Matrix: (Units=1/GPa)
#
#
# Indices 1 2 3 4 5 6 
#
# 1 0.005775 -0.003277 0.000744 0.000000 0.000799 0.000000
# 2 -0.003277 0.010347 -0.007646 0.000000 0.000592 0.000000
# 3 0.000744 -0.007646 0.015822 0.000000 0.001892 0.000000
# 4 0.000000 0.000000 0.000000 0.026315 0.000000 -0.007017
# 5 0.000799 0.000592 0.001892 0.000000 0.030660 0.000000
# 6 0.000000 0.000000 0.000000 -0.007017 0.000000 0.027830
#
#
# Mechanical properties :
#
#
# Convention : Reuss Voigt Hill
#
# Bulk Modulus (GPa) = 86.30347 111.17321 98.73834
# Shear Modulus (GPa) = 35.46873 42.46379 38.96626
#
# Velocity S-wave (km/s) = 3.76160 4.11584 3.94270
# Velocity P-wave (km/s) = 7.30037 8.18153 7.75347
#
# Compressibility (1/GPa) = 0.01158702
#
# Stress axis : x y z
#
# Youngs Moduli (GPa) = 173.16814 96.64284 63.20137
#
# Poissons Ratio (x) = 0.31669 -0.04701
# Poissons Ratio (y) = 0.56745 0.48322
# Poissons Ratio (z) = -0.12881 0.73890
#
# Static dielectric constant tensor:
#      x y z
#    x 2.128350 0.000000 0.014140 
#    y 0.000000 1.921660 0.000000 
#    z 0.014140 0.000000 2.329270 
# 
# From -- ./inp_files/18393.got.cif
#   From: 2010.05.17/outbox.cif.g08.bks.cpg/sg5_10_cif.got.tgz:18393.got - 2010.06.03 18:56:24.
