data_PCOD9128970
_publ_section_title
;
Structure prediction by ZEFSAII (Michael W. Deem and Ramdas Pophale) SiO2 
 PCOD9128970
Probable space group: C 2
;
_chemical_formula_sum "Si O2"
_cell_formula_units_Z 20
_cell_length_a 20.233416
_cell_length_b 4.679513
_cell_length_c 9.109452
_cell_angle_alpha 90.000000
_cell_angle_beta 127.831606
_cell_angle_gamma 90.000000
_cell_volume 681.221718
_symmetry_space_group_name_H-M "C 2"
_symmetry_group_IT_number 5
_symmetry_cell_setting 'monoclinic'
loop_
_space_group_symop_operation_xyz
x,y,z
-x,y,-z
1/2+x,1/2+y,z
1/2-x,1/2+y,-z
loop_
_atom_site_type_symbol
_atom_site_label
_atom_site_fract_x
_atom_site_fract_y
_atom_site_fract_z
Si Si1 0.290922 0.510870 0.633689
Si Si2 0.917514 0.369084 0.459179
Si Si3 0.628887 0.278253 0.879742
Si Si4 0.265177 0.465918 0.214053
Si Si5 0.535732 0.266636 0.200173
O O1 0.152269 0.129851 0.613903
O O2 0.241972 0.693505 0.443234
O O3 0.256061 0.670624 0.730406
O O4 0.389982 0.479990 0.746966
O O5 0.893623 0.583341 0.292538
O O6 0.000000 0.229894 0.500000
O O7 0.933294 0.545127 0.631295
O O8 0.701174 0.468482 0.909108
O O9 0.545099 0.411064 0.832518
O O10 0.674502 0.109637 0.071985
O O11 0.500000 0.133764 0.000000
#
# Coordination Sequence:
#
# PCOD9128970 Si02
#       5
#     4   4   4   4   4
#     4  12  33  58  91 133 190 246 307 383 467 550
#     4  10  25  54  90 137 187 240 309 382 463 545
#     4  11  26  52  90 136 182 237 311 380 460 549
#     4  12  27  51  97 136 182 248 310 383 461 561
#     4  11  29  57  91 135 188 247 305 386 459 550
#
# _framework density 29.359013999999998
#
# number of rings (size 3 to 8) (size 9 to 14) (size 15 to 20)
#    0.000    0.800    2.000    1.200   11.200    4.000 
#   10.800    0.000    0.000    0.000    0.000    0.000 
#    0.000    0.000    0.000    0.000    0.000    0.000 
#
# Total GULP energy -56008.877256 kJ/mol
# GULP energy per Si atom -5600.887726 kJ/mol
# Density = 2.929219 g / cm^3
# Si number density = 29.359014 Si / 1000 Ang^3
#
#
#
# Elastic Constant Matrix: (Units=GPa)
#
#
# Indices 1 2 3 4 5 6 
#
# 1 293.5228 38.3254 71.5714 0.0000 31.3974 0.0000
# 2 38.3254 66.4547 43.9452 0.0000 7.4144 -0.0001
# 3 71.5714 43.9452 218.9529 0.0000 -30.9082 0.0000
# 4 0.0000 0.0000 0.0000 61.7807 0.0000 -4.9663
# 5 31.3974 7.4144 -30.9082 0.0000 63.5487 0.0000
# 6 0.0000 -0.0001 0.0000 -4.9663 0.0000 53.3953
#
#
#
# Elastic Compliance Matrix: (Units=1/GPa)
#
#
# Indices 1 2 3 4 5 6 
#
# 1 0.004216 -0.001115 -0.001535 0.000000 -0.002699 0.000000
# 2 -0.001115 0.018643 -0.003873 0.000000 -0.003508 0.000000
# 3 -0.001535 -0.003873 0.006461 0.000000 0.004353 0.000000
# 4 0.000000 0.000000 0.000000 0.016308 0.000000 0.001517
# 5 -0.002699 -0.003508 0.004353 0.000000 0.019596 0.000000
# 6 0.000000 0.000000 0.000000 0.001517 0.000000 0.018869
#
#
# Mechanical properties :
#
#
# Convention : Reuss Voigt Hill
#
# Bulk Modulus (GPa) = 61.44749 98.51271 79.98010
# Shear Modulus (GPa) = 48.75072 64.08419 56.41745
#
# Velocity S-wave (km/s) = 4.07935 4.67709 4.38841
# Velocity P-wave (km/s) = 6.56987 7.92428 7.27865
#
# Compressibility (1/GPa) = 0.01627406
#
# Stress axis : x y z
#
# Youngs Moduli (GPa) = 237.21654 53.63960 154.78093
#
# Poissons Ratio (x) = 0.05979 0.23764
# Poissons Ratio (y) = 0.26443 0.59940
# Poissons Ratio (z) = 0.36420 0.20772
#
# Static dielectric constant tensor:
#      x y z
#    x 2.397100 0.000000 -0.100000 
#    y 0.000000 2.401650 0.000000 
#    z -0.100000 0.000000 2.334840 
# 
# From -- ./inp_files/26828.got.cif
#   From: 2010.05.17/outbox.cif.g08.bks.cpg/sg5_14_cif.got.tgz:26828.got - 2010.06.03 18:56:24.
