data_PCOD9128174
_publ_section_title
;
Structure prediction by ZEFSAII (Michael W. Deem and Ramdas Pophale) SiO2 
 PCOD9128174
Probable space group: C 2
;
_chemical_formula_sum "Si O2"
_cell_formula_units_Z 18
_cell_length_a 5.330499
_cell_length_b 25.344997
_cell_length_c 5.330276
_cell_angle_alpha 90.000000
_cell_angle_beta 88.849692
_cell_angle_gamma 90.000000
_cell_volume 719.983056
_symmetry_space_group_name_H-M "C 2"
_symmetry_group_IT_number 5
_symmetry_cell_setting 'monoclinic'
loop_
_space_group_symop_operation_xyz
x,y,z
-x,y,-z
1/2+x,1/2+y,z
1/2-x,1/2+y,-z
loop_
_atom_site_type_symbol
_atom_site_label
_atom_site_fract_x
_atom_site_fract_y
_atom_site_fract_z
Si Si1 0.338216 0.645320 0.250095
Si Si2 0.750291 0.528766 0.665409
Si Si3 0.159051 0.415025 0.234364
Si Si4 0.240941 0.760587 0.162890
Si Si5 0.500000 0.339310 0.500000
O O1 0.500000 0.643364 0.500000
O O2 0.224667 0.587040 0.218087
O O3 0.193178 0.700540 0.260777
O O4 0.500000 0.651757 0.000000
O O5 0.500000 0.527452 0.500000
O O6 0.752903 0.475185 0.824679
O O7 0.000000 0.524799 0.500000
O O8 0.391400 0.377713 0.290358
O O9 0.000000 0.414982 0.500000
O O10 0.000000 0.396541 0.000000
O O11 0.218337 0.801393 0.391162
O O12 0.500000 0.764097 0.000000
O O13 0.000000 0.773042 0.000000
#
# Coordination Sequence:
#
# PCOD9128174 Si02
#       5
#     4   4   4   4   2
#     4  10  25  48  79 115 158 200 259 326 399 476
#     4  10  23  48  79 114 159 203 259 330 399 478
#     4  11  28  50  78 116 159 211 271 331 403 478
#     4  11  30  50  79 116 157 212 270 330 401 478
#     4  12  30  50  82 112 170 212 278 332 402 484
#
# _framework density 25.000592000000001
#
# number of rings (size 3 to 8) (size 9 to 14) (size 15 to 20)
#    0.000    1.333    1.111    0.000   14.000   11.556 
#    0.000    0.000    0.000    0.000    0.000    0.000 
#    0.000    0.000    0.000    0.000    0.000    0.000 
#
# Total GULP energy -50365.197420 kJ/mol
# GULP energy per Si atom -5596.133047 kJ/mol
# Density = 2.494369 g / cm^3
# Si number density = 25.000592 Si / 1000 Ang^3
#
#
#
# Elastic Constant Matrix: (Units=GPa)
#
#
# Indices 1 2 3 4 5 6 
#
# 1 134.0815 34.7048 43.0221 0.0000 1.1845 0.0000
# 2 34.7048 235.1230 35.1054 0.0000 0.7235 0.0000
# 3 43.0221 35.1054 122.9907 0.0000 8.2631 0.0000
# 4 0.0000 0.0000 0.0000 10.5767 0.0000 -4.8164
# 5 1.1845 0.7235 8.2631 0.0000 52.2897 0.0000
# 6 0.0000 0.0000 0.0000 -4.8164 0.0000 32.8391
#
#
#
# Elastic Compliance Matrix: (Units=1/GPa)
#
#
# Indices 1 2 3 4 5 6 
#
# 1 0.008565 -0.000851 -0.002770 0.000000 0.000256 0.000000
# 2 -0.000851 0.004528 -0.001002 0.000000 0.000115 0.000000
# 3 -0.002770 -0.001002 0.009481 0.000000 -0.001422 0.000000
# 4 0.000000 0.000000 0.000000 0.101314 0.000000 0.014859
# 5 0.000256 0.000115 -0.001422 0.000000 0.019341 0.000000
# 6 0.000000 0.000000 0.000000 0.014859 0.000000 0.032631
#
#
# Mechanical properties :
#
#
# Convention : Reuss Voigt Hill
#
# Bulk Modulus (GPa) = 75.03818 79.76221 77.40020
# Shear Modulus (GPa) = 26.37816 44.43196 35.40506
#
# Velocity S-wave (km/s) = 3.25176 4.22030 3.76728
# Velocity P-wave (km/s) = 6.64667 7.46467 7.06752
#
# Compressibility (1/GPa) = 0.01332655
#
# Stress axis : x y z
#
# Youngs Moduli (GPa) = 116.75236 220.84470 105.47033
#
# Poissons Ratio (x) = 0.18803 0.29218
# Poissons Ratio (y) = 0.09940 0.10572
# Poissons Ratio (z) = 0.32343 0.22137
#
# Static dielectric constant tensor:
#      x y z
#    x 1.984250 0.000000 -0.029940 
#    y 0.000000 2.092870 0.000000 
#    z -0.029940 0.000000 2.030600 
# 
# From -- ./inp_files/893.got.cif
#   From: 2010.05.17/outbox.cif.g08.bks.cpg/sg5_1_cif.got.tgz:893.got - 2010.06.03 18:56:24.
