data_PCOD9128402
_publ_section_title
;
Structure prediction by ZEFSAII (Michael W. Deem and Ramdas Pophale) SiO2 
 PCOD9128402
Probable space group: C 2
;
_chemical_formula_sum "Si O2"
_cell_formula_units_Z 32
_cell_length_a 11.693951
_cell_length_b 15.414073
_cell_length_c 17.449227
_cell_angle_alpha 90.000000
_cell_angle_beta 29.714332
_cell_angle_gamma 90.000000
_cell_volume 1559.023661
_symmetry_space_group_name_H-M "C 2"
_symmetry_group_IT_number 5
_symmetry_cell_setting 'monoclinic'
loop_
_space_group_symop_operation_xyz
x,y,z
-x,y,-z
1/2+x,1/2+y,z
1/2-x,1/2+y,-z
loop_
_atom_site_type_symbol
_atom_site_label
_atom_site_fract_x
_atom_site_fract_y
_atom_site_fract_z
Si Si1 0.973323 0.104540 0.780972
Si Si2 0.252505 0.643236 0.165991
Si Si3 0.526590 0.158592 0.133911
Si Si4 0.301591 0.011208 0.179086
Si Si5 0.800094 0.271690 0.391757
Si Si6 0.864205 0.301690 0.660383
Si Si7 0.769566 0.817035 0.729517
Si Si8 0.310776 0.002411 0.677360
O O1 0.176016 0.172752 0.649252
O O2 0.066653 0.032988 0.784723
O O3 0.909933 0.059973 0.737973
O O4 0.752053 0.152738 0.947355
O O5 0.109660 0.664273 0.172949
O O6 0.310671 0.732795 0.176725
O O7 0.131978 0.572110 0.290063
O O8 0.500000 0.603972 0.000000
O O9 0.354453 0.237047 0.213218
O O10 0.388779 0.068636 0.199249
O O11 0.257842 0.910793 0.218039
O O12 0.500000 0.017193 0.000000
O O13 0.541634 0.298118 0.562389
O O14 0.853217 0.321874 0.281888
O O15 0.967847 0.281988 0.365934
O O16 0.796306 0.402333 0.709298
O O17 0.000000 0.291698 0.500000
O O18 0.500000 0.006676 0.500000
#
# Coordination Sequence:
#
# PCOD9128402 Si02
#       8
#     4   4   4   4   4   4   4   4
#     4  11  22  46  69  95 136 179 223 276 346 401
#     4  12  23  43  67 103 137 173 227 280 334 403
#     4  11  24  46  69  99 136 173 227 283 337 399
#     4  10  24  43  69  98 133 177 224 277 342 404
#     4  11  23  45  65  95 137 175 231 268 340 405
#     4  11  26  46  68  99 132 181 223 281 342 405
#     4  11  24  42  67 100 135 180 221 281 336 404
#     4  11  25  44  70  99 136 181 224 275 343 405
#
# _framework density 20.525666999999999
#
# number of rings (size 3 to 8) (size 9 to 14) (size 15 to 20)
#    0.000    1.000    3.750    1.875    7.000    0.000 
#    6.750    0.000    0.000    0.000    0.000    0.000 
#    0.000    0.000    0.000    0.000    0.000    0.000 
#
# Total GULP energy -89364.162465 kJ/mol
# GULP energy per Si atom -5585.260154 kJ/mol
# Density = 2.047895 g / cm^3
# Si number density = 20.525667 Si / 1000 Ang^3
#
#
#
# Elastic Constant Matrix: (Units=GPa)
#
#
# Indices 1 2 3 4 5 6 
#
# 1 146.4985 22.6596 22.1226 -0.0189 1.1347 0.0048
# 2 22.6596 121.7067 34.9807 -0.0422 3.9564 0.0089
# 3 22.1226 34.9807 51.6572 -0.1044 -0.5418 0.0097
# 4 -0.0189 -0.0422 -0.1044 26.2367 0.0271 -1.8195
# 5 1.1347 3.9564 -0.5418 0.0271 26.0026 0.0017
# 6 0.0048 0.0089 0.0097 -1.8195 0.0017 29.6365
#
#
#
# Elastic Compliance Matrix: (Units=1/GPa)
#
#
# Indices 1 2 3 4 5 6 
#
# 1 0.007332 -0.000562 -0.002763 -0.000006 -0.000292 0.000000
# 2 -0.000562 0.010321 -0.006766 -0.000009 -0.001687 -0.000001
# 3 -0.002763 -0.006766 0.025141 0.000085 0.001674 -0.000001
# 4 -0.000006 -0.000009 0.000085 0.038278 -0.000037 0.002350
# 5 -0.000292 -0.001687 0.001674 -0.000037 0.038762 -0.000004
# 6 0.000000 -0.000001 -0.000001 0.002350 -0.000004 0.033886
#
#
# Mechanical properties :
#
#
# Convention : Reuss Voigt Hill
#
# Bulk Modulus (GPa) = 44.22230 53.26535 48.74382
# Shear Modulus (GPa) = 27.55750 32.38180 29.96965
#
# Velocity S-wave (km/s) = 3.66811 3.97624 3.82528
# Velocity P-wave (km/s) = 6.28742 6.86204 6.58101
#
# Compressibility (1/GPa) = 0.02261303
#
# Stress axis : x y z
#
# Youngs Moduli (GPa) = 136.38177 96.89445 39.77554
#
# Poissons Ratio (x) = 0.05441 0.10990
# Poissons Ratio (y) = 0.07658 0.26912
# Poissons Ratio (z) = 0.37682 0.65558
#
# Static dielectric constant tensor:
#      x y z
#    x 1.757700 0.000000 0.012290 
#    y 0.000000 1.699600 0.000000 
#    z 0.012290 0.000000 1.825510 
# 
# From -- ./inp_files/60681.got.cif
#   From: 2010.05.17/outbox.cif.g08.bks.cpg/sg5_31_cif.got.tgz:60681.got - 2010.06.03 18:56:24.
