data_PCOD9128875
_publ_section_title
;
Structure prediction by ZEFSAII (Michael W. Deem and Ramdas Pophale) SiO2 
 PCOD9128875
Probable space group: C 2
;
_chemical_formula_sum "Si O2"
_cell_formula_units_Z 22
_cell_length_a 12.957421
_cell_length_b 16.009770
_cell_length_c 4.935223
_cell_angle_alpha 90.000000
_cell_angle_beta 75.385449
_cell_angle_gamma 90.000000
_cell_volume 990.664398
_symmetry_space_group_name_H-M "C 2"
_symmetry_group_IT_number 5
_symmetry_cell_setting 'monoclinic'
loop_
_space_group_symop_operation_xyz
x,y,z
-x,y,-z
1/2+x,1/2+y,z
1/2-x,1/2+y,-z
loop_
_atom_site_type_symbol
_atom_site_label
_atom_site_fract_x
_atom_site_fract_y
_atom_site_fract_z
Si Si1 0.000000 0.331110 0.000000
Si Si2 0.292294 0.610642 0.581777
Si Si3 0.175157 0.921149 0.475328
Si Si4 0.500000 0.711871 0.500000
Si Si5 0.213442 0.366349 0.102027
Si Si6 0.500000 0.290067 0.500000
Si Si7 0.310605 0.190725 0.882770
O O1 0.970095 0.270289 0.267591
O O2 0.098158 0.382669 0.054033
O O3 0.331106 0.518941 0.468056
O O4 0.398481 0.654711 0.622347
O O5 0.241929 0.657254 0.357632
O O6 0.203795 0.619928 0.878422
O O7 0.272018 0.888955 0.596905
O O8 0.080196 0.855318 0.596400
O O9 0.200777 0.913683 0.140323
O O10 0.243147 0.269899 0.035699
O O11 0.426117 0.230212 0.734173
#
# Coordination Sequence:
#
# PCOD9128875 Si02
#       7
#     2   4   4   2   4   2   4
#     4  12  22  38  68  96 124 168 228 282 314 420
#     4  12  23  42  66 106 139 172 224 304 348 412
#     4  11  25  42  67  97 143 176 228 285 357 401
#     4  12  21  38  68 101 126 166 214 286 359 394
#     4  11  22  42  64  97 129 184 225 281 336 419
#     4  10  25  46  70 103 136 200 230 288 341 446
#     4  11  23  42  68  98 138 181 237 277 345 416
#
# _framework density 22.207321
#
# number of rings (size 3 to 8) (size 9 to 14) (size 15 to 20)
#    0.000    0.727    3.636    4.909    0.000    6.545 
#    0.000    9.091    0.000    0.000    0.000    0.000 
#    0.000    0.000    0.000    0.000    0.000    0.000 
#
# Total GULP energy -61441.405944 kJ/mol
# GULP energy per Si atom -5585.582359 kJ/mol
# Density = 2.215678 g / cm^3
# Si number density = 22.207321 Si / 1000 Ang^3
#
#
#
# Elastic Constant Matrix: (Units=GPa)
#
#
# Indices 1 2 3 4 5 6 
#
# 1 100.5991 35.9946 28.8143 0.0000 -1.3641 0.0000
# 2 35.9946 70.5367 26.0672 0.0000 -3.4995 0.0000
# 3 28.8143 26.0672 81.2830 0.0000 6.4577 0.0000
# 4 0.0000 0.0000 0.0000 23.5682 0.0000 7.0360
# 5 -1.3641 -3.4995 6.4577 0.0000 37.2750 0.0000
# 6 0.0000 0.0000 0.0000 7.0360 0.0000 23.6063
#
#
#
# Elastic Compliance Matrix: (Units=1/GPa)
#
#
# Indices 1 2 3 4 5 6 
#
# 1 0.012686 -0.005419 -0.002794 0.000000 0.000440 0.000000
# 2 -0.005419 0.018619 -0.004231 0.000000 0.002283 0.000000
# 3 -0.002794 -0.004231 0.014895 0.000000 -0.003080 0.000000
# 4 0.000000 0.000000 0.000000 0.046574 0.000000 -0.013882
# 5 0.000440 0.002283 -0.003080 0.000000 0.027592 0.000000
# 6 0.000000 0.000000 0.000000 -0.013882 0.000000 0.046499
#
#
# Mechanical properties :
#
#
# Convention : Reuss Voigt Hill
#
# Bulk Modulus (GPa) = 46.92481 48.24124 47.58302
# Shear Modulus (GPa) = 25.14362 27.65943 26.40153
#
# Velocity S-wave (km/s) = 3.36850 3.53301 3.45173
# Velocity P-wave (km/s) = 6.02539 6.19783 6.11222
#
# Compressibility (1/GPa) = 0.02131069
#
# Stress axis : x y z
#
# Youngs Moduli (GPa) = 78.82917 53.70747 67.13716
#
# Poissons Ratio (x) = 0.29105 0.18758
# Poissons Ratio (y) = 0.42718 0.28409
# Poissons Ratio (z) = 0.22025 0.22726
#
# Static dielectric constant tensor:
#      x y z
#    x 1.841020 0.000000 -0.040400 
#    y 0.000000 1.846100 0.000000 
#    z -0.040400 0.000000 1.815470 
# 
# From -- ./inp_files/4795.got.cif
#   From: 2010.05.17/outbox.cif.g08.bks.cpg/sg5_3_cif.got.tgz:4795.got - 2010.06.03 18:56:24.
