data_PCOD9128311
_publ_section_title
;
Structure prediction by ZEFSAII (Michael W. Deem and Ramdas Pophale) SiO2 
 PCOD9128311
Probable space group: C 2
;
_chemical_formula_sum "Si O2"
_cell_formula_units_Z 30
_cell_length_a 17.714712
_cell_length_b 13.698893
_cell_length_c 11.256035
_cell_angle_alpha 90.000000
_cell_angle_beta 31.561307
_cell_angle_gamma 90.000000
_cell_volume 1429.708557
_symmetry_space_group_name_H-M "C 2"
_symmetry_group_IT_number 5
_symmetry_cell_setting 'monoclinic'
loop_
_space_group_symop_operation_xyz
x,y,z
-x,y,-z
1/2+x,1/2+y,z
1/2-x,1/2+y,-z
loop_
_atom_site_type_symbol
_atom_site_label
_atom_site_fract_x
_atom_site_fract_y
_atom_site_fract_z
Si Si1 0.826557 0.792940 0.097437
Si Si2 0.402147 0.789699 0.398335
Si Si3 0.059430 0.768866 0.299092
Si Si4 0.500000 0.124613 0.000000
Si Si5 0.516141 0.491133 0.106319
Si Si6 0.764783 0.693480 0.597579
Si Si7 0.171554 0.173420 0.975088
Si Si8 0.810625 0.496248 0.428032
O O1 0.677488 0.786079 0.368261
O O2 0.834775 0.809064 0.944665
O O3 0.915910 0.697662 0.022640
O O4 0.902438 0.892481 0.035755
O O5 0.311220 0.726714 0.422042
O O6 0.392129 0.899716 0.361420
O O7 0.559025 0.742337 0.193490
O O8 0.161556 0.681328 0.210054
O O9 0.000000 0.819259 0.500000
O O10 0.916289 0.745760 0.417296
O O11 0.609965 0.053514 0.784039
O O12 0.357543 0.471952 0.372297
O O13 0.500000 0.542836 0.000000
O O14 0.608575 0.564553 0.061902
O O15 0.672168 0.713236 0.838833
O O16 0.801456 0.578817 0.541893
#
# Coordination Sequence:
#
# PCOD9128311 Si02
#       8
#     4   4   4   2   4   4   4   4
#     4  12  21  42  68  93 132 175 228 268 336 405
#     4  12  23  39  68 101 127 167 224 292 333 381
#     4  10  24  42  64  88 134 185 215 262 338 407
#     4  12  22  38  62 102 134 164 212 296 330 380
#     4  12  20  38  71 100 122 169 229 276 327 390
#     4  11  20  41  65  90 132 171 220 266 331 394
#     4  11  23  41  62  98 134 171 217 275 327 400
#     4  12  23  36  64 103 130 161 214 278 348 379
#
# _framework density 20.983297
#
# number of rings (size 3 to 8) (size 9 to 14) (size 15 to 20)
#    0.000    0.533    7.333    1.200    1.867    0.533 
#    2.400    0.000    2.933    0.000    0.000    0.000 
#    0.000    0.000    0.000    0.000    0.000    0.000 
#
# Total GULP energy -83606.186631 kJ/mol
# GULP energy per Si atom -5573.745775 kJ/mol
# Density = 2.093554 g / cm^3
# Si number density = 20.983297 Si / 1000 Ang^3
#
#
#
# Elastic Constant Matrix: (Units=GPa)
#
#
# Indices 1 2 3 4 5 6 
#
# 1 42.3088 -10.0195 19.4444 0.0000 4.1247 0.0000
# 2 -10.0195 74.9496 22.6124 0.0000 3.1121 0.0000
# 3 19.4444 22.6124 165.4931 0.0000 23.5457 0.0000
# 4 0.0000 0.0000 0.0000 28.8628 0.0000 7.7581
# 5 4.1247 3.1121 23.5457 0.0000 42.8805 0.0000
# 6 0.0000 0.0000 0.0000 7.7581 0.0000 8.8520
#
#
#
# Elastic Compliance Matrix: (Units=1/GPa)
#
#
# Indices 1 2 3 4 5 6 
#
# 1 0.026495 0.004673 -0.003624 0.000000 -0.000898 0.000000
# 2 0.004673 0.014740 -0.002546 0.000000 -0.000121 0.000000
# 3 -0.003624 -0.002546 0.007311 0.000000 -0.003481 0.000000
# 4 0.000000 0.000000 0.000000 0.045324 0.000000 -0.039724
# 5 -0.000898 -0.000121 -0.003481 0.000000 0.025327 0.000000
# 6 0.000000 0.000000 0.000000 -0.039724 0.000000 0.147784
#
#
# Mechanical properties :
#
#
# Convention : Reuss Voigt Hill
#
# Bulk Modulus (GPa) = 21.95253 38.53625 30.24439
# Shear Modulus (GPa) = 17.53398 32.83333 25.18365
#
# Velocity S-wave (km/s) = 2.89384 3.95997 3.46811
# Velocity P-wave (km/s) = 4.65299 6.27005 5.52104
#
# Compressibility (1/GPa) = 0.04555283
#
# Stress axis : x y z
#
# Youngs Moduli (GPa) = 37.74266 67.84249 136.77128
#
# Poissons Ratio (x) = -0.31700 0.49562
# Poissons Ratio (y) = -0.17635 0.34819
# Poissons Ratio (z) = 0.13677 0.17271
#
# Static dielectric constant tensor:
#      x y z
#    x 1.848940 0.000000 0.008580 
#    y 0.000000 1.758830 0.000000 
#    z 0.008580 0.000000 1.827570 
# 
# From -- ./inp_files/44885.got.cif
#   From: 2010.05.17/outbox.cif.g08.bks.cpg/sg5_23_cif.got.tgz:44885.got - 2010.06.03 18:56:24.
