data_PCOD9128010
_publ_section_title
;
Structure prediction by ZEFSAII (Michael W. Deem and Ramdas Pophale) SiO2 
 PCOD9128010
Probable space group: C 2
;
_chemical_formula_sum "Si O2"
_cell_formula_units_Z 26
_cell_length_a 9.016405
_cell_length_b 19.614800
_cell_length_c 8.738868
_cell_angle_alpha 90.000000
_cell_angle_beta 51.740674
_cell_angle_gamma 90.000000
_cell_volume 1213.561245
_symmetry_space_group_name_H-M "C 2"
_symmetry_group_IT_number 5
_symmetry_cell_setting 'monoclinic'
loop_
_space_group_symop_operation_xyz
x,y,z
-x,y,-z
1/2+x,1/2+y,z
1/2-x,1/2+y,-z
loop_
_atom_site_type_symbol
_atom_site_label
_atom_site_fract_x
_atom_site_fract_y
_atom_site_fract_z
Si Si1 0.196896 0.035950 0.805967
Si Si2 0.349402 0.615844 0.470241
Si Si3 0.578980 0.769554 0.615543
Si Si4 0.000000 0.904151 0.000000
Si Si5 0.546811 0.117750 0.134493
Si Si6 0.505618 0.332895 0.662420
Si Si7 0.181635 0.240376 0.979123
O O1 0.195023 0.060815 0.632401
O O2 0.362231 0.068209 0.799058
O O3 0.175161 0.955899 0.854214
O O4 0.000000 0.063608 0.000000
O O5 0.500000 0.590741 0.500000
O O6 0.424197 0.687475 0.358010
O O7 0.155540 0.638559 0.672849
O O8 0.500000 0.783751 0.500000
O O9 0.789526 0.797904 0.477817
O O10 0.419760 0.792280 0.838279
O O11 0.984092 0.866317 0.846041
O O12 0.690425 0.181222 0.027071
O O13 0.500000 0.085902 0.000000
O O14 0.500000 0.372021 0.500000
O O15 0.332554 0.278966 0.775196
O O16 0.000000 0.215696 0.000000
#
# Coordination Sequence:
#
# PCOD9128010 Si02
#       7
#     4   4   4   2   4   4   4
#     4  10  23  45  66  95 139 191 237 300 351 424
#     4  11  22  39  68 109 146 182 238 298 378 442
#     4  11  22  39  67 108 148 183 228 306 376 433
#     4  10  28  50  72 100 148 202 250 296 352 436
#     4  12  23  39  68 110 145 188 235 301 380 437
#     4  12  25  48  73 105 142 197 248 294 364 437
#     4  12  24  40  67 109 148 178 235 304 376 438
#
# _framework density 21.424548000000001
#
# number of rings (size 3 to 8) (size 9 to 14) (size 15 to 20)
#    0.462    0.308    3.077    6.462    1.077    0.615 
#    0.000    5.385    0.000    0.000    0.000    0.000 
#    0.000    0.000    0.000    0.000    0.000    0.000 
#
# Total GULP energy -72423.823335 kJ/mol
# GULP energy per Si atom -5571.063333 kJ/mol
# Density = 2.137578 g / cm^3
# Si number density = 21.424548 Si / 1000 Ang^3
#
#
#
# Elastic Constant Matrix: (Units=GPa)
#
#
# Indices 1 2 3 4 5 6 
#
# 1 168.3928 37.9977 77.4451 0.0000 14.2127 0.0000
# 2 37.9977 47.5287 22.2291 0.0000 9.8212 0.0000
# 3 77.4451 22.2291 142.8403 0.0000 -1.1946 0.0000
# 4 0.0000 0.0000 0.0000 26.7540 0.0000 1.7352
# 5 14.2127 9.8212 -1.1946 0.0000 59.4844 0.0000
# 6 0.0000 0.0000 0.0000 1.7352 0.0000 5.3863
#
#
#
# Elastic Compliance Matrix: (Units=1/GPa)
#
#
# Indices 1 2 3 4 5 6 
#
# 1 0.009114 -0.005041 -0.004169 0.000000 -0.001429 0.000000
# 2 -0.005041 0.026381 -0.001399 0.000000 -0.003179 0.000000
# 3 -0.004169 -0.001399 0.009491 0.000000 0.001418 0.000000
# 4 0.000000 0.000000 0.000000 0.038175 0.000000 -0.012298
# 5 -0.001429 -0.003179 0.001418 0.000000 0.017706 0.000000
# 6 0.000000 0.000000 0.000000 -0.012298 0.000000 0.189618
#
#
# Mechanical properties :
#
#
# Convention : Reuss Voigt Hill
#
# Bulk Modulus (GPa) = 42.07314 70.45617 56.26465
# Shear Modulus (GPa) = 15.64329 33.06428 24.35379
#
# Velocity S-wave (km/s) = 2.70507 3.93273 3.37519
# Velocity P-wave (km/s) = 5.42559 7.31977 6.44267
#
# Compressibility (1/GPa) = 0.02376813
#
# Stress axis : x y z
#
# Youngs Moduli (GPa) = 109.72228 37.90544 105.36732
#
# Poissons Ratio (x) = 0.19109 0.43925
# Poissons Ratio (y) = 0.55314 0.14739
# Poissons Ratio (z) = 0.45741 0.05302
#
# Static dielectric constant tensor:
#      x y z
#    x 1.810530 0.000000 0.053280 
#    y 0.000000 1.791520 0.000000 
#    z 0.053280 0.000000 1.878470 
# 
# From -- ./inp_files/16765.got.cif
#   From: 2010.05.17/outbox.cif.g08.bks.cpg/sg5_9_cif.got.tgz:16765.got - 2010.06.03 18:56:24.
