data_PCOD9128685
_publ_section_title
;
Structure prediction by ZEFSAII (Michael W. Deem and Ramdas Pophale) SiO2 
 PCOD9128685
Probable space group: C 2
;
_chemical_formula_sum "Si O2"
_cell_formula_units_Z 28
_cell_length_a 22.209932
_cell_length_b 5.017948
_cell_length_c 13.507150
_cell_angle_alpha 90.000000
_cell_angle_beta 135.659025
_cell_angle_gamma 90.000000
_cell_volume 1052.128742
_symmetry_space_group_name_H-M "C 2"
_symmetry_group_IT_number 5
_symmetry_cell_setting 'monoclinic'
loop_
_space_group_symop_operation_xyz
x,y,z
-x,y,-z
1/2+x,1/2+y,z
1/2-x,1/2+y,-z
loop_
_atom_site_type_symbol
_atom_site_label
_atom_site_fract_x
_atom_site_fract_y
_atom_site_fract_z
Si Si1 0.803610 0.917020 0.651220
Si Si2 0.317151 0.241178 0.221398
Si Si3 0.421697 0.920465 0.828908
Si Si4 0.071585 0.352971 0.864636
Si Si5 0.013267 0.002278 0.619555
Si Si6 0.829134 0.791528 0.454869
Si Si7 0.188028 0.872086 0.006916
O O1 0.800433 0.913271 0.527140
O O2 0.854517 0.661814 0.751121
O O3 0.864180 0.157470 0.759921
O O4 0.707596 0.989331 0.575906
O O5 0.418799 0.270729 0.327235
O O6 0.296425 0.362660 0.304774
O O7 0.276206 0.947478 0.165496
O O8 0.288721 0.382833 0.084148
O O9 0.477898 0.919676 0.795566
O O10 0.500000 0.930217 0.000000
O O11 0.369943 0.111550 0.052337
O O12 0.053926 0.217060 0.739370
O O13 0.126070 0.108942 0.975621
O O14 0.000000 0.143014 0.500000
O O15 0.929359 0.865150 0.566408
#
# Coordination Sequence:
#
# PCOD9128685 Si02
#       7
#     4   4   4   4   4   4   4
#     4  12  27  52  79 121 158 216 275 340 402 493
#     4  10  24  47  83 117 167 210 271 335 417 485
#     4  12  28  49  80 115 161 211 278 336 416 482
#     4  11  24  46  79 114 164 204 266 346 401 486
#     4   9  21  50  84 127 159 218 272 340 417 501
#     4  11  25  52  82 116 168 215 277 338 411 487
#     4  11  24  46  76 123 160 208 266 335 417 486
#
# _framework density 26.612711000000001
#
# number of rings (size 3 to 8) (size 9 to 14) (size 15 to 20)
#    0.000    1.143    1.429    3.000    6.000    1.143 
#    2.571   10.714    0.000    0.000    0.000    0.000 
#    0.000    0.000    0.000    0.000    0.000    0.000 
#
# Total GULP energy -78260.080710 kJ/mol
# GULP energy per Si atom -5590.005765 kJ/mol
# Density = 2.655214 g / cm^3
# Si number density = 26.612711 Si / 1000 Ang^3
#
#
#
# Elastic Constant Matrix: (Units=GPa)
#
#
# Indices 1 2 3 4 5 6 
#
# 1 121.5676 45.2370 31.5195 0.0002 4.9217 0.0000
# 2 45.2370 191.9386 68.7239 0.0005 13.3431 0.0000
# 3 31.5195 68.7239 140.9309 -0.0002 -7.5108 0.0000
# 4 0.0002 0.0005 -0.0002 39.0485 0.0002 9.4257
# 5 4.9217 13.3431 -7.5108 0.0002 42.1600 0.0000
# 6 0.0000 0.0000 0.0000 9.4257 0.0000 26.2402
#
#
#
# Elastic Compliance Matrix: (Units=1/GPa)
#
#
# Indices 1 2 3 4 5 6 
#
# 1 0.009208 -0.001652 -0.001296 0.000000 -0.000783 0.000000
# 2 -0.001652 0.006897 -0.003130 0.000000 -0.002547 0.000000
# 3 -0.001296 -0.003130 0.009058 0.000000 0.002755 0.000000
# 4 0.000000 0.000000 0.000000 0.028040 0.000000 -0.010072
# 5 -0.000783 -0.002547 0.002755 0.000000 0.025108 0.000000
# 6 0.000000 0.000000 0.000000 -0.010072 0.000000 0.041728
#
#
# Mechanical properties :
#
#
# Convention : Reuss Voigt Hill
#
# Bulk Modulus (GPa) = 76.86761 82.82200 79.84480
# Shear Modulus (GPa) = 36.62201 42.08685 39.35443
#
# Velocity S-wave (km/s) = 3.71362 3.98107 3.84967
# Velocity P-wave (km/s) = 6.88000 7.23330 7.05886
#
# Compressibility (1/GPa) = 0.01300938
#
# Stress axis : x y z
#
# Youngs Moduli (GPa) = 108.59897 144.99115 110.39471
#
# Poissons Ratio (x) = 0.23951 0.14303
# Poissons Ratio (y) = 0.17939 0.34549
# Poissons Ratio (z) = 0.14070 0.45376
#
# Static dielectric constant tensor:
#      x y z
#    x 2.101580 0.000000 -0.017860 
#    y 0.000000 2.136970 0.000000 
#    z -0.017860 0.000000 2.250590 
# 
# From -- ./inp_files/46053.got.cif
#   From: 2010.05.17/outbox.cif.g08.bks.cpg/sg5_24_cif.got.tgz:46053.got - 2010.06.03 18:56:24.
