data_PCOD9128370
_publ_section_title
;
Structure prediction by ZEFSAII (Michael W. Deem and Ramdas Pophale) SiO2 
 PCOD9128370
Probable space group: C 2
;
_chemical_formula_sum "Si O2"
_cell_formula_units_Z 24
_cell_length_a 11.030058
_cell_length_b 8.899245
_cell_length_c 14.342079
_cell_angle_alpha 90.000000
_cell_angle_beta 131.262262
_cell_angle_gamma 90.000000
_cell_volume 1058.246543
_symmetry_space_group_name_H-M "C 2"
_symmetry_group_IT_number 5
_symmetry_cell_setting 'monoclinic'
loop_
_space_group_symop_operation_xyz
x,y,z
-x,y,-z
1/2+x,1/2+y,z
1/2-x,1/2+y,-z
loop_
_atom_site_type_symbol
_atom_site_label
_atom_site_fract_x
_atom_site_fract_y
_atom_site_fract_z
Si Si1 0.000000 0.806430 0.000000
Si Si2 0.633709 0.232394 0.448663
Si Si3 0.821188 0.430850 0.418068
Si Si4 0.758519 0.548938 0.180051
Si Si5 0.150127 0.921988 0.623634
Si Si6 0.000000 0.300685 0.000000
Si Si7 0.518704 0.049145 0.157339
O O1 0.989990 0.699096 0.084366
O O2 0.155294 0.912251 0.084278
O O3 0.702864 0.298983 0.389436
O O4 0.725010 0.325296 0.577540
O O5 0.426819 0.056987 0.209156
O O6 0.663678 0.063452 0.496390
O O7 0.774505 0.506810 0.296770
O O8 0.000000 0.368215 0.500000
O O9 0.951663 0.798331 0.368483
O O10 0.647935 0.695094 0.106107
O O11 0.000000 0.010644 0.500000
O O12 0.289778 0.016104 0.739717
O O13 0.953713 0.409940 0.062023
#
# Coordination Sequence:
#
# PCOD9128370 Si02
#       7
#     2   4   4   4   4   2   4
#     4  10  26  48  62 108 132 176 236 282 332 394
#     4   9  22  42  64  98 137 171 224 270 338 408
#     4  12  23  44  69  97 137 180 221 283 345 401
#     4  11  25  44  69 103 136 176 229 285 334 405
#     4   8  19  43  63  97 132 173 219 268 340 394
#     4  10  24  42  72 100 132 188 226 274 344 394
#     4  11  21  47  74  96 138 181 227 278 339 401
#
# _framework density 22.679026
#
# number of rings (size 3 to 8) (size 9 to 14) (size 15 to 20)
#    1.000    0.667    1.667    3.000    0.000    2.667 
#   24.000    0.000    0.000    0.000    0.000    0.000 
#    0.000    0.000    0.000    0.000    0.000    0.000 
#
# Total GULP energy -67022.715013 kJ/mol
# GULP energy per Si atom -5585.226251 kJ/mol
# Density = 2.262741 g / cm^3
# Si number density = 22.679026 Si / 1000 Ang^3
#
#
#
# Elastic Constant Matrix: (Units=GPa)
#
#
# Indices 1 2 3 4 5 6 
#
# 1 121.7826 54.3218 40.4424 0.0000 -10.9149 0.0000
# 2 54.3218 129.3982 39.1080 0.0000 -1.9933 0.0000
# 3 40.4424 39.1080 101.7473 0.0000 4.9333 0.0000
# 4 0.0000 0.0000 0.0000 30.4994 0.0000 -3.0270
# 5 -10.9149 -1.9933 4.9333 0.0000 39.5660 0.0000
# 6 0.0000 0.0000 0.0000 -3.0270 0.0000 24.5665
#
#
#
# Elastic Compliance Matrix: (Units=1/GPa)
#
#
# Indices 1 2 3 4 5 6 
#
# 1 0.011217 -0.003691 -0.003200 0.000000 0.003307 0.000000
# 2 -0.003691 0.009988 -0.002361 0.000000 -0.000221 0.000000
# 3 -0.003200 -0.002361 0.012130 0.000000 -0.002514 0.000000
# 4 0.000000 0.000000 0.000000 0.033193 0.000000 0.004090
# 5 0.003307 -0.000221 -0.002514 0.000000 0.026489 0.000000
# 6 0.000000 0.000000 0.000000 0.004090 0.000000 0.041210
#
#
# Mechanical properties :
#
#
# Convention : Reuss Voigt Hill
#
# Bulk Modulus (GPa) = 67.43122 68.96360 68.19741
# Shear Modulus (GPa) = 31.71094 33.53008 32.62051
#
# Velocity S-wave (km/s) = 3.74337 3.84925 3.79668
# Velocity P-wave (km/s) = 6.96284 7.08732 7.02536
#
# Compressibility (1/GPa) = 0.01482993
#
# Stress axis : x y z
#
# Youngs Moduli (GPa) = 89.15201 100.12326 82.44167
#
# Poissons Ratio (x) = 0.36952 0.26383
# Poissons Ratio (y) = 0.32903 0.19467
# Poissons Ratio (z) = 0.28531 0.23642
#
# Static dielectric constant tensor:
#      x y z
#    x 1.821120 0.000000 -0.021920 
#    y 0.000000 1.843740 0.000000 
#    z -0.021920 0.000000 1.894330 
# 
# From -- ./inp_files/54269.got.cif
#   From: 2010.05.17/outbox.cif.g08.bks.cpg/sg5_28_cif.got.tgz:54269.got - 2010.06.03 18:56:24.
