data_PCOD9128048
_publ_section_title
;
Structure prediction by ZEFSAII (Michael W. Deem and Ramdas Pophale) SiO2 
 PCOD9128048
Probable space group: C 2
;
_chemical_formula_sum "Si O2"
_cell_formula_units_Z 24
_cell_length_a 23.839966
_cell_length_b 9.192719
_cell_length_c 11.551110
_cell_angle_alpha 90.000000
_cell_angle_beta 155.923859
_cell_angle_gamma 90.000000
_cell_volume 1032.715268
_symmetry_space_group_name_H-M "C 2"
_symmetry_group_IT_number 5
_symmetry_cell_setting 'monoclinic'
loop_
_space_group_symop_operation_xyz
x,y,z
-x,y,-z
1/2+x,1/2+y,z
1/2-x,1/2+y,-z
loop_
_atom_site_type_symbol
_atom_site_label
_atom_site_fract_x
_atom_site_fract_y
_atom_site_fract_z
Si Si1 0.886654 0.089710 0.562329
Si Si2 0.494799 0.327680 0.619310
Si Si3 0.213150 0.575381 0.819874
Si Si4 0.838047 0.724084 0.709149
Si Si5 0.809363 0.261474 0.203913
Si Si6 0.661272 0.556138 0.196564
O O1 0.739085 0.123741 0.340709
O O2 0.896035 0.203299 0.474446
O O3 0.003055 0.104871 0.879769
O O4 0.918962 0.933598 0.565925
O O5 0.500000 0.396487 0.500000
O O6 0.406390 0.184914 0.436010
O O7 0.648248 0.276225 0.937491
O O8 0.157626 0.425787 0.767272
O O9 0.287512 0.543635 0.839251
O O10 0.308215 0.655177 0.092731
O O11 0.754949 0.674659 0.438171
O O12 0.825518 0.895745 0.719384
O O13 0.000000 0.694127 0.000000
#
# Coordination Sequence:
#
# PCOD9128048 Si02
#       6
#     4   4   4   4   4   4
#     4  12  24  49  81 108 156 200 249 318 388 448
#     4  10  23  45  72 111 162 202 238 303 379 456
#     4  11  24  47  74 111 157 203 249 299 380 457
#     4  12  29  54  78 104 153 201 265 320 380 440
#     4  11  23  47  72 114 158 200 243 309 380 460
#     4  12  29  51  77 111 153 202 256 322 381 445
#
# _framework density 23.239705000000001
#
# number of rings (size 3 to 8) (size 9 to 14) (size 15 to 20)
#    0.000    0.667    3.333    3.500    7.000    1.333 
#   12.000    0.000    0.000    0.000    0.000    0.000 
#    0.000    0.000    0.000    0.000    0.000    0.000 
#
# Total GULP energy -67112.362692 kJ/mol
# GULP energy per Si atom -5592.696891 kJ/mol
# Density = 2.318681 g / cm^3
# Si number density = 23.239705 Si / 1000 Ang^3
#
#
#
# Elastic Constant Matrix: (Units=GPa)
#
#
# Indices 1 2 3 4 5 6 
#
# 1 126.8995 58.2397 66.1075 0.0000 -8.4365 0.0000
# 2 58.2397 160.0052 91.5778 0.0000 -10.0813 0.0000
# 3 66.1075 91.5778 161.3285 0.0000 -1.6902 0.0000
# 4 0.0000 0.0000 0.0000 44.8564 0.0000 -6.4110
# 5 -8.4365 -10.0813 -1.6902 0.0000 57.0649 0.0000
# 6 0.0000 0.0000 0.0000 -6.4110 0.0000 46.5484
#
#
#
# Elastic Compliance Matrix: (Units=1/GPa)
#
#
# Indices 1 2 3 4 5 6 
#
# 1 0.010504 -0.001920 -0.003203 0.000000 0.001119 0.000000
# 2 -0.001920 0.009735 -0.004726 0.000000 0.001296 0.000000
# 3 -0.003203 -0.004726 0.010183 0.000000 -0.001007 0.000000
# 4 0.000000 0.000000 0.000000 0.022741 0.000000 0.003132
# 5 0.001119 0.001296 -0.001007 0.000000 0.017888 0.000000
# 6 0.000000 0.000000 0.000000 0.003132 0.000000 0.021914
#
#
# Mechanical properties :
#
#
# Convention : Reuss Voigt Hill
#
# Bulk Modulus (GPa) = 93.23671 97.78702 95.51186
# Shear Modulus (GPa) = 43.01519 45.18117 44.09818
#
# Velocity S-wave (km/s) = 4.30692 4.41402 4.36080
# Velocity P-wave (km/s) = 8.05850 8.25512 8.15740
#
# Compressibility (1/GPa) = 0.01072539
#
# Stress axis : x y z
#
# Youngs Moduli (GPa) = 95.20008 102.72196 98.20282
#
# Poissons Ratio (x) = 0.19720 0.31453
# Poissons Ratio (y) = 0.18276 0.46409
# Poissons Ratio (z) = 0.30491 0.48545
#
# Static dielectric constant tensor:
#      x y z
#    x 2.023260 0.000000 0.027300 
#    y 0.000000 1.852010 0.000000 
#    z 0.027300 0.000000 1.885240 
# 
# From -- ./inp_files/47341.got.cif
#   From: 2010.05.17/outbox.cif.g08.bks.cpg/sg5_24_cif.got.tgz:47341.got - 2010.06.03 18:56:24.
