data_PCOD9128563
_publ_section_title
;
Structure prediction by ZEFSAII (Michael W. Deem and Ramdas Pophale) SiO2 
 PCOD9128563
Probable space group: C 2
;
_chemical_formula_sum "Si O2"
_cell_formula_units_Z 22
_cell_length_a 6.673294
_cell_length_b 7.077384
_cell_length_c 16.652604
_cell_angle_alpha 90.000000
_cell_angle_beta 81.503194
_cell_angle_gamma 90.000000
_cell_volume 777.861091
_symmetry_space_group_name_H-M "C 2"
_symmetry_group_IT_number 5
_symmetry_cell_setting 'monoclinic'
loop_
_space_group_symop_operation_xyz
x,y,z
-x,y,-z
1/2+x,1/2+y,z
1/2-x,1/2+y,-z
loop_
_atom_site_type_symbol
_atom_site_label
_atom_site_fract_x
_atom_site_fract_y
_atom_site_fract_z
Si Si1 0.270352 0.901310 0.367300
Si Si2 0.196797 0.973643 0.659418
Si Si3 0.500000 0.908539 0.500000
Si Si4 0.702021 0.403718 0.109677
Si Si5 0.000000 0.155117 0.000000
Si Si6 0.592503 0.177909 0.779569
Si Si7 0.000000 0.915011 0.500000
O O1 0.313106 0.695928 0.332058
O O2 0.259836 0.915904 0.464843
O O3 0.358412 0.054490 0.302011
O O4 0.010505 0.918616 0.379096
O O5 0.392879 0.911286 0.600005
O O6 0.197762 0.872380 0.745152
O O7 0.500000 0.653042 0.500000
O O8 0.500000 0.176913 0.500000
O O9 0.622468 0.255652 0.179570
O O10 0.829335 0.558481 0.150436
O O11 0.816690 0.292871 0.032864
O O12 0.531431 0.523275 0.074830
#
# Coordination Sequence:
#
# PCOD9128563 Si02
#       7
#     4   4   2   4   2   4   2
#     4  11  26  44  69 103 154 215 272 342 381 454
#     4  11  26  44  69 103 154 215 272 342 381 454
#     4  10  26  38  72  96 148 222 294 318 384 448
#     4  12  29  56  87 129 158 206 252 329 395 522
#     4  12  28  60  96 118 162 202 256 304 416 506
#     4  12  30  47  78 123 162 202 268 331 418 455
#     4  10  24  46  62 104 144 222 294 314 382 448
#
# _framework density 28.282685000000001
#
# number of rings (size 3 to 8) (size 9 to 14) (size 15 to 20)
#    0.000    0.727    0.000    4.364   22.909    0.000 
#    0.000    0.000    0.000    0.000    0.000    0.000 
#    0.000    0.000    0.000    0.000    0.000    0.000 
#
# Total GULP energy -61496.591820 kJ/mol
# GULP energy per Si atom -5590.599256 kJ/mol
# Density = 2.821831 g / cm^3
# Si number density = 28.282685 Si / 1000 Ang^3
#
#
#
# Elastic Constant Matrix: (Units=GPa)
#
#
# Indices 1 2 3 4 5 6 
#
# 1 74.6924 52.8539 18.3097 0.0000 -0.8817 0.0000
# 2 52.8539 237.8471 55.5661 0.0000 -3.6930 0.0000
# 3 18.3097 55.5661 120.6111 0.0000 -17.0746 0.0000
# 4 0.0000 0.0000 0.0000 28.6867 0.0000 -8.1980
# 5 -0.8817 -3.6930 -17.0746 0.0000 68.2880 0.0000
# 6 0.0000 0.0000 0.0000 -8.1980 0.0000 63.7785
#
#
#
# Elastic Compliance Matrix: (Units=1/GPa)
#
#
# Indices 1 2 3 4 5 6 
#
# 1 0.015973 -0.003339 -0.000915 0.000000 -0.000203 0.000000
# 2 -0.003339 0.005415 -0.002024 0.000000 -0.000256 0.000000
# 3 -0.000915 -0.002024 0.009688 0.000000 0.002301 0.000000
# 4 0.000000 0.000000 0.000000 0.036189 0.000000 0.004652
# 5 -0.000203 -0.000256 0.002301 0.000000 0.015203 0.000000
# 6 0.000000 0.000000 0.000000 0.004652 0.000000 0.016277
#
#
# Mechanical properties :
#
#
# Convention : Reuss Voigt Hill
#
# Bulk Modulus (GPa) = 53.99664 76.28998 65.14331
# Shear Modulus (GPa) = 42.56219 52.57870 47.57044
#
# Velocity S-wave (km/s) = 3.88349 4.31634 4.10562
# Velocity P-wave (km/s) = 6.26434 7.20234 6.74965
#
# Compressibility (1/GPa) = 0.01851967
#
# Stress axis : x y z
#
# Youngs Moduli (GPa) = 62.60643 184.66392 103.21580
#
# Poissons Ratio (x) = 0.61655 0.09448
# Poissons Ratio (y) = 0.20903 0.20894
# Poissons Ratio (z) = 0.05731 0.37381
#
# Static dielectric constant tensor:
#      x y z
#    x 2.774910 0.000000 -0.028100 
#    y 0.000000 2.185210 0.000000 
#    z -0.028100 0.000000 2.685130 
# 
# From -- ./inp_files/64186.got.cif
#   From: 2010.05.17/outbox.cif.g08.bks.cpg/sg5_33_cif.got.tgz:64186.got - 2010.06.03 18:56:24.
