data_PCOD9128631
_publ_section_title
;
Structure prediction by ZEFSAII (Michael W. Deem and Ramdas Pophale) SiO2 
 PCOD9128631
Probable space group: C 2
;
_chemical_formula_sum "Si O2"
_cell_formula_units_Z 24
_cell_length_a 17.711304
_cell_length_b 5.478457
_cell_length_c 10.761671
_cell_angle_alpha 90.000000
_cell_angle_beta 67.220778
_cell_angle_gamma 90.000000
_cell_volume 962.766859
_symmetry_space_group_name_H-M "C 2"
_symmetry_group_IT_number 5
_symmetry_cell_setting 'monoclinic'
loop_
_space_group_symop_operation_xyz
x,y,z
-x,y,-z
1/2+x,1/2+y,z
1/2-x,1/2+y,-z
loop_
_atom_site_type_symbol
_atom_site_label
_atom_site_fract_x
_atom_site_fract_y
_atom_site_fract_z
Si Si1 0.561248 0.162000 0.726054
Si Si2 0.258744 0.362857 0.429535
Si Si3 0.000000 0.840018 0.500000
Si Si4 0.566403 0.835839 0.113699
Si Si5 0.148505 0.161245 0.313493
Si Si6 0.000000 0.959838 0.000000
Si Si7 0.222670 0.562926 0.951564
O O1 0.655331 0.234456 0.658819
O O2 0.518299 0.201099 0.618331
O O3 0.527312 0.903339 0.796291
O O4 0.527002 0.326575 0.858831
O O5 0.275241 0.639906 0.461852
O O6 0.187774 0.374020 0.370860
O O7 0.917862 0.999583 0.573148
O O8 0.602356 0.753234 0.221396
O O9 0.571743 0.631382 0.006620
O O10 0.624592 0.048088 0.022604
O O11 0.229923 0.027723 0.208751
O O12 0.247396 0.828922 0.987535
#
# Coordination Sequence:
#
# PCOD9128631 Si02
#       7
#     4   4   2   4   4   2   4
#     4  12  29  50  85 115 163 212 272 339 411 482
#     4  12  31  52  77 119 163 212 268 342 408 480
#     4  12  24  52  78 114 156 212 274 324 406 490
#     4  11  27  47  82 114 158 212 270 333 409 485
#     4  11  26  48  79 111 160 207 272 330 404 484
#     4  12  28  50  78 120 162 204 276 338 408 480
#     4  10  24  46  74 112 150 199 264 327 396 470
#
# _framework density 24.928156000000001
#
# number of rings (size 3 to 8) (size 9 to 14) (size 15 to 20)
#    0.000    0.667    3.333    1.500   14.000    5.333 
#    0.000    0.000    0.000    0.000    0.000    0.000 
#    0.000    0.000    0.000    0.000    0.000    0.000 
#
# Total GULP energy -67005.718189 kJ/mol
# GULP energy per Si atom -5583.809849 kJ/mol
# Density = 2.487142 g / cm^3
# Si number density = 24.928156 Si / 1000 Ang^3
#
#
#
# Elastic Constant Matrix: (Units=GPa)
#
#
# Indices 1 2 3 4 5 6 
#
# 1 88.2405 8.2753 36.2094 0.0000 18.7073 0.0000
# 2 8.2753 61.0467 25.6833 0.0000 24.1287 0.0000
# 3 36.2094 25.6833 115.7731 0.0000 3.6846 0.0000
# 4 0.0000 0.0000 0.0000 33.2887 0.0000 -0.3766
# 5 18.7073 24.1287 3.6846 0.0000 63.6856 0.0000
# 6 0.0000 0.0000 0.0000 -0.3766 0.0000 26.7756
#
#
#
# Elastic Compliance Matrix: (Units=1/GPa)
#
#
# Indices 1 2 3 4 5 6 
#
# 1 0.014036 0.001858 -0.004657 0.000000 -0.004557 0.000000
# 2 0.001858 0.021613 -0.005107 0.000000 -0.008439 0.000000
# 3 -0.004657 -0.005107 0.011142 0.000000 0.002658 0.000000
# 4 0.000000 0.000000 0.000000 0.030045 0.000000 0.000423
# 5 -0.004557 -0.008439 0.002658 0.000000 0.020084 0.000000
# 6 0.000000 0.000000 0.000000 0.000423 0.000000 0.037353
#
#
# Mechanical properties :
#
#
# Convention : Reuss Voigt Hill
#
# Bulk Modulus (GPa) = 32.28012 45.04402 38.66207
# Shear Modulus (GPa) = 31.16962 37.74282 34.45622
#
# Velocity S-wave (km/s) = 3.53991 3.89532 3.72186
# Velocity P-wave (km/s) = 5.44842 6.19194 5.83204
#
# Compressibility (1/GPa) = 0.03097882
#
# Stress axis : x y z
#
# Youngs Moduli (GPa) = 71.24767 46.26802 89.74667
#
# Poissons Ratio (x) = -0.08596 0.41794
# Poissons Ratio (y) = -0.13237 0.45836
# Poissons Ratio (z) = 0.33179 0.23630
#
# Static dielectric constant tensor:
#      x y z
#    x 1.982920 0.000000 0.007520 
#    y 0.000000 2.024180 0.000000 
#    z 0.007520 0.000000 2.052110 
# 
# From -- ./inp_files/43736.got.cif
#   From: 2010.05.17/outbox.cif.g08.bks.cpg/sg5_22_cif.got.tgz:43736.got - 2010.06.03 18:56:24.
