data_PCOD9128992
_publ_section_title
;
Structure prediction by ZEFSAII (Michael W. Deem and Ramdas Pophale) SiO2 
 PCOD9128992
Probable space group: C 2
;
_chemical_formula_sum "Si O2"
_cell_formula_units_Z 28
_cell_length_a 21.032687
_cell_length_b 15.222560
_cell_length_c 9.644144
_cell_angle_alpha 90.000000
_cell_angle_beta 27.277559
_cell_angle_gamma 90.000000
_cell_volume 1415.133444
_symmetry_space_group_name_H-M "C 2"
_symmetry_group_IT_number 5
_symmetry_cell_setting 'monoclinic'
loop_
_space_group_symop_operation_xyz
x,y,z
-x,y,-z
1/2+x,1/2+y,z
1/2-x,1/2+y,-z
loop_
_atom_site_type_symbol
_atom_site_label
_atom_site_fract_x
_atom_site_fract_y
_atom_site_fract_z
Si Si1 0.049931 0.058270 0.063082
Si Si2 0.262832 0.220251 0.703864
Si Si3 0.784277 0.427257 0.693952
Si Si4 0.664391 0.787090 0.183587
Si Si5 0.990113 0.587240 0.353595
Si Si6 0.290238 0.632283 0.689976
Si Si7 0.657272 0.779824 0.640117
O O1 0.917180 0.066804 0.419812
O O2 0.146058 0.144477 0.903669
O O3 0.000000 0.054711 0.000000
O O4 0.145173 0.976733 0.919488
O O5 0.405252 0.169252 0.455122
O O6 0.257472 0.279563 0.578043
O O7 0.220392 0.274537 0.921233
O O8 0.767546 0.365270 0.860513
O O9 0.831357 0.364276 0.478421
O O10 0.901225 0.500300 0.495933
O O11 0.500000 0.804017 0.500000
O O12 0.688217 0.695754 0.219681
O O13 0.000000 0.598310 0.500000
O O14 0.142850 0.586170 0.992601
O O15 0.300951 0.697156 0.536751
O O16 0.500000 0.772373 0.000000
#
# Coordination Sequence:
#
# PCOD9128992 Si02
#       7
#     4   4   4   4   4   4   4
#     4  11  21  44  68 100 128 172 223 275 318 403
#     4  11  20  40  75  93 127 169 233 269 316 398
#     4  10  26  42  67  95 143 170 217 274 344 385
#     4  11  20  40  73  99 126 180 218 273 328 404
#     4  11  24  42  66 103 133 170 223 284 326 392
#     4  11  21  40  74  94 130 175 228 264 328 395
#     4  11  21  44  69 101 127 178 226 270 326 406
#
# _framework density 19.78612
#
# number of rings (size 3 to 8) (size 9 to 14) (size 15 to 20)
#    0.000    1.143    5.714    1.286    0.000    1.714 
#    5.143    0.000    9.429    0.000    0.000    0.000 
#    0.000    0.000    0.000    0.000    0.000    0.000 
#
# Total GULP energy -78271.464771 kJ/mol
# GULP energy per Si atom -5590.818912 kJ/mol
# Density = 1.974109 g / cm^3
# Si number density = 19.786120 Si / 1000 Ang^3
#
#
#
# Elastic Constant Matrix: (Units=GPa)
#
#
# Indices 1 2 3 4 5 6 
#
# 1 132.0597 43.8436 31.0690 0.0000 7.3954 0.0000
# 2 43.8436 61.0790 14.8430 0.0000 -5.6437 0.0000
# 3 31.0690 14.8430 85.9273 0.0000 -16.3765 0.0000
# 4 0.0000 0.0000 0.0000 9.5963 0.0000 -1.6406
# 5 7.3954 -5.6437 -16.3765 0.0000 37.2297 0.0000
# 6 0.0000 0.0000 0.0000 -1.6406 0.0000 12.9831
#
#
#
# Elastic Compliance Matrix: (Units=1/GPa)
#
#
# Indices 1 2 3 4 5 6 
#
# 1 0.011267 -0.007651 -0.003711 0.000000 -0.005030 0.000000
# 2 -0.007651 0.022353 -0.000174 0.000000 0.004832 0.000000
# 3 -0.003711 -0.000174 0.014348 0.000000 0.007022 0.000000
# 4 0.000000 0.000000 0.000000 0.106508 0.000000 0.013458
# 5 -0.005030 0.004832 0.007022 0.000000 0.031681 0.000000
# 6 0.000000 0.000000 0.000000 0.013458 0.000000 0.078724
#
#
# Mechanical properties :
#
#
# Convention : Reuss Voigt Hill
#
# Bulk Modulus (GPa) = 40.16664 50.95301 45.55982
# Shear Modulus (GPa) = 16.87758 24.58249 20.73003
#
# Velocity S-wave (km/s) = 2.92379 3.52861 3.24034
# Velocity P-wave (km/s) = 5.63405 6.51224 6.08900
#
# Compressibility (1/GPa) = 0.02489628
#
# Stress axis : x y z
#
# Youngs Moduli (GPa) = 88.75367 44.73706 69.69647
#
# Poissons Ratio (x) = 0.34227 0.25864
# Poissons Ratio (y) = 0.67903 0.01213
# Poissons Ratio (z) = 0.32937 0.00779
#
# Static dielectric constant tensor:
#      x y z
#    x 1.710730 0.000000 -0.003500 
#    y 0.000000 1.687380 0.000000 
#    z -0.003500 0.000000 1.663920 
# 
# From -- ./inp_files/29900.got.cif
#   From: 2010.05.17/outbox.cif.g08.bks.cpg/sg5_15_cif.got.tgz:29900.got - 2010.06.03 18:56:24.
