data_PCOD9128473
_publ_section_title
;
Structure prediction by ZEFSAII (Michael W. Deem and Ramdas Pophale) SiO2 
 PCOD9128473
Probable space group: C 2
;
_chemical_formula_sum "Si O2"
_cell_formula_units_Z 24
_cell_length_a 23.103307
_cell_length_b 7.515415
_cell_length_c 18.291087
_cell_angle_alpha 90.000000
_cell_angle_beta 19.768514
_cell_angle_gamma 90.000000
_cell_volume 1074.155047
_symmetry_space_group_name_H-M "C 2"
_symmetry_group_IT_number 5
_symmetry_cell_setting 'monoclinic'
loop_
_space_group_symop_operation_xyz
x,y,z
-x,y,-z
1/2+x,1/2+y,z
1/2-x,1/2+y,-z
loop_
_atom_site_type_symbol
_atom_site_label
_atom_site_fract_x
_atom_site_fract_y
_atom_site_fract_z
Si Si1 0.500000 0.949510 0.500000
Si Si2 0.024848 0.384257 0.311399
Si Si3 0.042580 0.989923 0.741547
Si Si4 0.785944 0.229845 0.140332
Si Si5 0.311720 0.190916 0.344500
Si Si6 0.500000 0.959739 0.000000
Si Si7 0.632938 0.295447 0.177677
O O1 0.534188 0.842421 0.386186
O O2 0.662748 0.078287 0.319286
O O3 0.051484 0.597963 0.272978
O O4 0.846512 0.312792 0.493430
O O5 0.185404 0.298896 0.079614
O O6 0.048282 0.815902 0.784847
O O7 0.978503 0.930754 0.737483
O O8 0.231230 0.065235 0.502486
O O9 0.927002 0.130906 0.922000
O O10 0.877502 0.340928 0.094182
O O11 0.672239 0.337686 0.215858
O O12 0.388411 0.079927 0.187094
#
# Coordination Sequence:
#
# PCOD9128473 Si02
#       7
#     2   4   4   4   4   2   4
#     4  10  24  44  72 104 142 186 224 294 362 400
#     4  11  23  45  72 107 142 183 240 284 360 417
#     4  12  25  47  75 100 143 185 245 286 356 428
#     4  11  26  48  71 102 143 192 229 298 355 422
#     4  12  28  46  68 108 138 195 233 299 351 427
#     4  12  32  46  68 104 150 186 242 294 362 414
#     4  11  22  46  78 106 135 186 237 289 346 428
#
# _framework density 22.343142
#
# number of rings (size 3 to 8) (size 9 to 14) (size 15 to 20)
#    0.000    0.667    5.000    2.000   11.667    0.000 
#    3.000    0.000    0.000    0.000    0.000    0.000 
#    0.000    0.000    0.000    0.000    0.000    0.000 
#
# Total GULP energy -67142.819084 kJ/mol
# GULP energy per Si atom -5595.234924 kJ/mol
# Density = 2.229229 g / cm^3
# Si number density = 22.343142 Si / 1000 Ang^3
#
#
#
# Elastic Constant Matrix: (Units=GPa)
#
#
# Indices 1 2 3 4 5 6 
#
# 1 130.3874 47.1274 1.4708 -0.0001 0.3177 0.0000
# 2 47.1274 64.1636 5.3541 -0.0002 2.7034 0.0001
# 3 1.4708 5.3541 71.7368 -0.0002 14.4834 0.0001
# 4 -0.0001 -0.0002 -0.0002 24.9049 0.0000 5.6581
# 5 0.3177 2.7034 14.4834 0.0000 35.9350 0.0000
# 6 0.0000 0.0001 0.0001 5.6581 0.0000 32.8461
#
#
#
# Elastic Compliance Matrix: (Units=1/GPa)
#
#
# Indices 1 2 3 4 5 6 
#
# 1 0.010455 -0.007719 0.000286 0.000000 0.000373 0.000000
# 2 -0.007719 0.021401 -0.001228 0.000000 -0.001047 0.000000
# 3 0.000286 -0.001228 0.015248 0.000000 -0.006056 0.000000
# 4 0.000000 0.000000 0.000000 0.041788 0.000000 -0.007198
# 5 0.000373 -0.001047 -0.006056 0.000000 0.030344 0.000000
# 6 0.000000 0.000000 0.000000 -0.007198 0.000000 0.031685
#
#
# Mechanical properties :
#
#
# Convention : Reuss Voigt Hill
#
# Bulk Modulus (GPa) = 33.57443 41.57693 37.57568
# Shear Modulus (GPa) = 28.06306 32.89291 30.47798
#
# Velocity S-wave (km/s) = 3.54786 3.84105 3.69736
# Velocity P-wave (km/s) = 5.64291 6.19034 5.92295
#
# Compressibility (1/GPa) = 0.02978457
#
# Stress axis : x y z
#
# Youngs Moduli (GPa) = 95.64594 46.72657 65.58123
#
# Poissons Ratio (x) = 0.36068 -0.01879
# Poissons Ratio (y) = 0.73828 0.08051
# Poissons Ratio (z) = -0.02740 0.05736
#
# Static dielectric constant tensor:
#      x y z
#    x 1.825740 0.000000 -0.022840 
#    y 0.000000 1.832730 0.000000 
#    z -0.022840 0.000000 1.796750 
# 
# From -- ./inp_files/22871.got.cif
#   From: 2010.05.17/outbox.cif.g08.bks.cpg/sg5_12_cif.got.tgz:22871.got - 2010.06.03 18:56:24.
