data_PCOD9128575
_publ_section_title
;
Structure prediction by ZEFSAII (Michael W. Deem and Ramdas Pophale) SiO2 
 PCOD9128575
Probable space group: C 2
;
_chemical_formula_sum "Si O2"
_cell_formula_units_Z 28
_cell_length_a 15.192622
_cell_length_b 8.453824
_cell_length_c 20.994323
_cell_angle_alpha 90.000000
_cell_angle_beta 151.087628
_cell_angle_gamma 90.000000
_cell_volume 1303.642796
_symmetry_space_group_name_H-M "C 2"
_symmetry_group_IT_number 5
_symmetry_cell_setting 'monoclinic'
loop_
_space_group_symop_operation_xyz
x,y,z
-x,y,-z
1/2+x,1/2+y,z
1/2-x,1/2+y,-z
loop_
_atom_site_type_symbol
_atom_site_label
_atom_site_fract_x
_atom_site_fract_y
_atom_site_fract_z
Si Si1 0.752391 0.954980 0.584785
Si Si2 0.178026 0.392944 0.307884
Si Si3 0.504904 0.390020 0.863545
Si Si4 0.500000 0.916121 0.000000
Si Si5 0.273234 0.134684 0.772878
Si Si6 0.500000 0.149708 0.500000
Si Si7 0.137620 0.235263 0.960879
Si Si8 0.651912 0.612918 0.479768
O O1 0.745635 0.779289 0.553020
O O2 0.861955 0.942588 0.719318
O O3 0.558820 0.034804 0.479744
O O4 0.843027 0.067968 0.590678
O O5 0.172340 0.539459 0.256068
O O6 0.330850 0.267197 0.382073
O O7 0.247572 0.471837 0.417556
O O8 0.987964 0.303252 0.176641
O O9 0.387482 0.296108 0.841592
O O10 0.605052 0.549309 0.948412
O O11 0.657244 0.278927 0.927691
O O12 0.429101 0.817607 0.015821
O O13 0.661724 0.028780 0.127045
O O14 0.056426 0.140616 0.632336
#
# Coordination Sequence:
#
# PCOD9128575 Si02
#       8
#     4   4   4   2   4   2   4   4
#     4  12  27  43  70 108 142 184 233 287 350 419
#     4  11  22  42  74  98 142 188 224 290 352 407
#     4  12  25  46  74 101 139 190 233 284 352 421
#     4  10  24  46  68 104 138 184 234 292 346 406
#     4  11  23  45  72 100 142 185 230 290 350 413
#     4  12  22  44  68 104 138 182 228 278 354 410
#     4  11  25  46  71 104 141 184 239 284 351 415
#     4  12  25  44  69 107 143 181 237 286 350 416
#
# _framework density 21.478276999999999
#
# number of rings (size 3 to 8) (size 9 to 14) (size 15 to 20)
#    0.000    0.571    4.286    4.286    0.000    0.571 
#    0.000    0.000    0.000    0.000    0.000    0.000 
#    0.000    0.000    0.000    0.000    0.000    0.000 
#
# Total GULP energy -78251.625367 kJ/mol
# GULP energy per Si atom -5589.401812 kJ/mol
# Density = 2.142939 g / cm^3
# Si number density = 21.478277 Si / 1000 Ang^3
#
#
#
# Elastic Constant Matrix: (Units=GPa)
#
#
# Indices 1 2 3 4 5 6 
#
# 1 63.6560 42.9889 12.7047 0.0000 6.9545 0.0000
# 2 42.9889 133.0007 22.5389 0.0004 -0.5884 0.0006
# 3 12.7047 22.5389 54.3746 0.0003 -0.9179 0.0010
# 4 0.0000 0.0004 0.0003 32.1309 0.0000 10.3057
# 5 6.9545 -0.5884 -0.9179 0.0000 28.2569 0.0002
# 6 0.0000 0.0006 0.0010 10.3057 0.0002 29.5805
#
#
#
# Elastic Compliance Matrix: (Units=1/GPa)
#
#
# Indices 1 2 3 4 5 6 
#
# 1 0.021129 -0.006455 -0.002353 0.000000 -0.005411 0.000000
# 2 -0.006455 0.010059 -0.002632 0.000000 0.001713 0.000000
# 3 -0.002353 -0.002632 0.020052 0.000000 0.001176 -0.000001
# 4 0.000000 0.000000 0.000000 0.035038 0.000000 -0.012207
# 5 -0.005411 0.001713 0.001176 0.000000 0.036795 0.000000
# 6 0.000000 0.000000 -0.000001 -0.012207 0.000000 0.038059
#
#
# Mechanical properties :
#
#
# Convention : Reuss Voigt Hill
#
# Bulk Modulus (GPa) = 35.26085 45.27737 40.26911
# Shear Modulus (GPa) = 25.84453 29.51361 27.67907
#
# Velocity S-wave (km/s) = 3.47261 3.71093 3.59374
# Velocity P-wave (km/s) = 5.70362 6.28392 6.00079
#
# Compressibility (1/GPa) = 0.02836006
#
# Stress axis : x y z
#
# Youngs Moduli (GPa) = 47.32783 99.41609 49.87123
#
# Poissons Ratio (x) = 0.64170 0.11733
# Poissons Ratio (y) = 0.30549 0.13128
# Poissons Ratio (z) = 0.11135 0.26170
#
# Static dielectric constant tensor:
#      x y z
#    x 1.741240 0.000000 -0.008780 
#    y 0.000000 1.797330 0.000000 
#    z -0.008780 0.000000 1.783880 
# 
# From -- ./inp_files/41728.got.cif
#   From: 2010.05.17/outbox.cif.g08.bks.cpg/sg5_21_cif.got.tgz:41728.got - 2010.06.03 18:56:24.
