data_PCOD9128870
_publ_section_title
;
Structure prediction by ZEFSAII (Michael W. Deem and Ramdas Pophale) SiO2 
 PCOD9128870
Probable space group: C 2
;
_chemical_formula_sum "Si O2"
_cell_formula_units_Z 20
_cell_length_a 19.534360
_cell_length_b 8.092026
_cell_length_c 4.926806
_cell_angle_alpha 90.000000
_cell_angle_beta 76.336681
_cell_angle_gamma 90.000000
_cell_volume 756.753372
_symmetry_space_group_name_H-M "C 2"
_symmetry_group_IT_number 5
_symmetry_cell_setting 'monoclinic'
loop_
_space_group_symop_operation_xyz
x,y,z
-x,y,-z
1/2+x,1/2+y,z
1/2-x,1/2+y,-z
loop_
_atom_site_type_symbol
_atom_site_label
_atom_site_fract_x
_atom_site_fract_y
_atom_site_fract_z
Si Si1 0.211760 0.746090 0.939872
Si Si2 0.381268 0.454945 0.643407
Si Si3 0.930797 0.277374 0.883944
Si Si4 0.434672 0.142457 0.858160
Si Si5 0.802510 0.167243 0.343470
O O1 0.270285 0.741519 0.652739
O O2 0.137805 0.275728 0.858295
O O3 0.139674 0.659430 0.912215
O O4 0.238868 0.660122 0.191951
O O5 0.421641 0.618902 0.700518
O O6 0.426402 0.289592 0.645812
O O7 0.344705 0.502857 0.397744
O O8 0.315900 0.417077 0.904374
O O9 0.936042 0.456898 0.742588
O O10 0.000000 0.254330 0.000000
O O11 0.500000 0.166704 0.000000
#
# Coordination Sequence:
#
# PCOD9128870 Si02
#       5
#     4   4   4   4   4
#     4  10  27  44  79 116 150 207 265 322 392 474
#     4  10  25  45  79 109 159 211 260 320 402 477
#     4  11  25  47  79 115 160 208 267 329 398 472
#     4   9  23  50  77 116 155 208 267 328 390 478
#     4  12  25  48  77 118 154 203 266 324 392 470
#
# _framework density 26.428688999999999
#
# number of rings (size 3 to 8) (size 9 to 14) (size 15 to 20)
#    1.200    0.400    2.000    0.600    5.600    2.400 
#    0.000    3.000    0.000    0.000    0.000    0.000 
#    0.000    0.000    0.000    0.000    0.000    0.000 
#
# Total GULP energy -55914.932678 kJ/mol
# GULP energy per Si atom -5591.493268 kJ/mol
# Density = 2.636854 g / cm^3
# Si number density = 26.428689 Si / 1000 Ang^3
#
#
#
# Elastic Constant Matrix: (Units=GPa)
#
#
# Indices 1 2 3 4 5 6 
#
# 1 161.5857 54.9936 55.7011 0.0000 16.8480 0.0000
# 2 54.9936 209.2408 57.2372 0.0000 33.1417 0.0000
# 3 55.7011 57.2372 137.6473 0.0000 10.2149 0.0000
# 4 0.0000 0.0000 0.0000 -7.4707 0.0000 16.0430
# 5 16.8480 33.1417 10.2149 0.0000 60.1239 0.0000
# 6 0.0000 0.0000 0.0000 16.0430 0.0000 31.0899
#
#
#
# Elastic Compliance Matrix: (Units=1/GPa)
#
#
# Indices 1 2 3 4 5 6 
#
# 1 0.007548 -0.001129 -0.002506 0.000000 -0.001067 0.000000
# 2 -0.001129 0.006004 -0.001841 0.000000 -0.002680 0.000000
# 3 -0.002506 -0.001841 0.009031 0.000000 0.000182 0.000000
# 4 0.000000 0.000000 0.000000 -0.063495 0.000000 0.032765
# 5 -0.001067 -0.002680 0.000182 0.000000 0.018378 0.000000
# 6 0.000000 0.000000 0.000000 0.032765 0.000000 0.015258
#
#
# Mechanical properties :
#
#
# Convention : Reuss Voigt Hill
#
# Bulk Modulus (GPa) = 85.97422 93.81526 89.89474
# Shear Modulus (GPa) = 662.13401 39.45142 350.79271
#
# Velocity S-wave (km/s) = 15.84550 3.86780 11.53343
# Velocity P-wave (km/s) = 19.16702 7.45125 14.54125
#
# Compressibility (1/GPa) = 0.01163139
#
# Stress axis : x y z
#
# Youngs Moduli (GPa) = 132.48527 166.55324 110.73288
#
# Poissons Ratio (x) = 0.18811 0.27745
# Poissons Ratio (y) = 0.14963 0.20383
# Poissons Ratio (z) = 0.33196 0.30657
#
# Static dielectric constant tensor:
#      x y z
#    x 2.075050 0.000000 0.010480 
#    y 0.000000 2.148440 0.000000 
#    z 0.010480 0.000000 2.041940 
# 
# From -- ./inp_files/8052.got.cif
#   From: 2010.05.17/outbox.cif.g08.bks.cpg/sg5_5_cif.got.tgz:8052.got - 2010.06.03 18:56:24.
