data_PCOD9128777
_publ_section_title
;
Structure prediction by ZEFSAII (Michael W. Deem and Ramdas Pophale) SiO2 
 PCOD9128777
Probable space group: C 2
;
_chemical_formula_sum "Si O2"
_cell_formula_units_Z 18
_cell_length_a 8.159952
_cell_length_b 21.422229
_cell_length_c 6.801658
_cell_angle_alpha 90.000000
_cell_angle_beta 139.068442
_cell_angle_gamma 90.000000
_cell_volume 778.955161
_symmetry_space_group_name_H-M "C 2"
_symmetry_group_IT_number 5
_symmetry_cell_setting 'monoclinic'
loop_
_space_group_symop_operation_xyz
x,y,z
-x,y,-z
1/2+x,1/2+y,z
1/2-x,1/2+y,-z
loop_
_atom_site_type_symbol
_atom_site_label
_atom_site_fract_x
_atom_site_fract_y
_atom_site_fract_z
Si Si1 0.791163 0.870290 0.550503
Si Si2 0.286651 0.922236 0.094652
Si Si3 0.500000 0.035913 0.500000
Si Si4 0.759103 0.610937 0.637208
Si Si5 0.736831 0.728586 0.362739
O O1 0.556906 0.907753 0.254675
O O2 0.749918 0.876931 0.748783
O O3 0.773510 0.799539 0.466450
O O4 0.053608 0.904204 0.752742
O O5 0.310006 0.990824 0.207749
O O6 0.342680 0.074134 0.516797
O O7 0.500000 0.587087 0.500000
O O8 0.703495 0.681199 0.512343
O O9 0.000000 0.609329 0.000000
O O10 0.000000 0.710648 0.500000
O O11 0.500000 0.724434 0.000000
#
# Coordination Sequence:
#
# PCOD9128777 Si02
#       5
#     4   4   2   4   4
#     4   9  19  36  63  98 124 181 243 272 370 430
#     4   9  20  39  68  97 136 199 222 306 368 430
#     4  10  24  52  74 108 158 192 264 296 380 444
#     4  12  29  46  75 114 149 205 254 310 373 445
#     4  12  25  44  69 107 156 193 243 313 375 449
#
# _framework density 23.107876000000001
#
# number of rings (size 3 to 8) (size 9 to 14) (size 15 to 20)
#    0.000    1.778    1.111    2.667    6.222    7.111 
#    0.000   13.333    0.000    0.000    0.000    0.000 
#    0.000    0.000    0.000    0.000    0.000    0.000 
#
# Total GULP energy -50295.465054 kJ/mol
# GULP energy per Si atom -5588.385006 kJ/mol
# Density = 2.305528 g / cm^3
# Si number density = 23.107876 Si / 1000 Ang^3
#
#
#
# Elastic Constant Matrix: (Units=GPa)
#
#
# Indices 1 2 3 4 5 6 
#
# 1 137.7748 53.0478 92.6021 0.0000 13.1018 0.0000
# 2 53.0478 124.0350 62.2524 0.0000 3.1378 0.0000
# 3 92.6021 62.2524 242.4811 0.0000 27.5339 0.0000
# 4 0.0000 0.0000 0.0000 4.8507 0.0000 0.6584
# 5 13.1018 3.1378 27.5339 0.0000 50.0175 0.0000
# 6 0.0000 0.0000 0.0000 0.6584 0.0000 47.1872
#
#
#
# Elastic Compliance Matrix: (Units=1/GPa)
#
#
# Indices 1 2 3 4 5 6 
#
# 1 0.010616 -0.002906 -0.003214 0.000000 -0.000829 0.000000
# 2 -0.002906 0.010079 -0.001592 0.000000 0.001005 0.000000
# 3 -0.003214 -0.001592 0.006030 0.000000 -0.002378 0.000000
# 4 0.000000 0.000000 0.000000 0.206545 0.000000 -0.002882
# 5 -0.000829 0.001005 -0.002378 0.000000 0.021456 0.000000
# 6 0.000000 0.000000 0.000000 -0.002882 0.000000 0.021232
#
#
# Mechanical properties :
#
#
# Convention : Reuss Voigt Hill
#
# Bulk Modulus (GPa) = 88.48844 102.23285 95.36064
# Shear Modulus (GPa) = 16.94053 40.17034 28.55543
#
# Velocity S-wave (km/s) = 2.71053 4.17392 3.51913
# Velocity P-wave (km/s) = 6.94066 8.21988 7.60720
#
# Compressibility (1/GPa) = 0.01130091
#
# Stress axis : x y z
#
# Youngs Moduli (GPa) = 94.19440 99.21915 165.83533
#
# Poissons Ratio (x) = 0.28837 0.53299
# Poissons Ratio (y) = 0.27376 0.26397
# Poissons Ratio (z) = 0.30274 0.15793
#
# Static dielectric constant tensor:
#      x y z
#    x 1.918540 0.000000 0.002390 
#    y 0.000000 1.836050 0.000000 
#    z 0.002390 0.000000 1.832140 
# 
# From -- ./inp_files/16964.got.cif
#   From: 2010.05.17/outbox.cif.g08.bks.cpg/sg5_9_cif.got.tgz:16964.got - 2010.06.03 18:56:24.
