data_PCOD9128333
_publ_section_title
;
Structure prediction by ZEFSAII (Michael W. Deem and Ramdas Pophale) SiO2 
 PCOD9128333
Probable space group: C 2
;
_chemical_formula_sum "Si O2"
_cell_formula_units_Z 18
_cell_length_a 7.656843
_cell_length_b 7.544250
_cell_length_c 18.186335
_cell_angle_alpha 90.000000
_cell_angle_beta 42.869940
_cell_angle_gamma 90.000000
_cell_volume 714.718033
_symmetry_space_group_name_H-M "C 2"
_symmetry_group_IT_number 5
_symmetry_cell_setting 'monoclinic'
loop_
_space_group_symop_operation_xyz
x,y,z
-x,y,-z
1/2+x,1/2+y,z
1/2-x,1/2+y,-z
loop_
_atom_site_type_symbol
_atom_site_label
_atom_site_fract_x
_atom_site_fract_y
_atom_site_fract_z
Si Si1 0.041608 0.474090 0.401762
Si Si2 0.500000 0.441945 0.000000
Si Si3 0.810810 0.685919 0.235134
Si Si4 0.698059 0.834788 0.664069
Si Si5 0.159545 0.259158 0.011529
O O1 0.276638 0.350007 0.301998
O O2 0.097601 0.683386 0.379746
O O3 0.000000 0.434884 0.500000
O O4 0.814194 0.418566 0.415275
O O5 0.428633 0.206497 0.890996
O O6 0.510360 0.581752 0.929488
O O7 0.566533 0.720537 0.258580
O O8 0.795335 0.500378 0.282742
O O9 0.252639 0.837036 0.939907
O O10 0.000000 0.370403 0.000000
#
# Coordination Sequence:
#
# PCOD9128333 Si02
#       5
#     4   2   4   4   4
#     4  10  26  41  69  96 135 175 224 270 332 393
#     4  10  24  42  66  98 136 178 222 274 334 400
#     4  10  24  46  66 102 132 179 218 278 330 401
#     4  10  25  40  67  93 135 172 223 272 329 390
#     4  10  24  45  68 102 135 179 222 278 335 404
#
# _framework density 25.184757999999999
#
# number of rings (size 3 to 8) (size 9 to 14) (size 15 to 20)
#    2.000    0.000    0.000    1.333    7.778    2.667 
#    8.000    0.000    0.000    0.000    0.000    0.000 
#    0.000    0.000    0.000    0.000    0.000    0.000 
#
# Total GULP energy -50166.281642 kJ/mol
# GULP energy per Si atom -5574.031294 kJ/mol
# Density = 2.512744 g / cm^3
# Si number density = 25.184758 Si / 1000 Ang^3
#
#
#
# Elastic Constant Matrix: (Units=GPa)
#
#
# Indices 1 2 3 4 5 6 
#
# 1 139.2262 77.3673 3.9769 0.0001 26.0110 0.0002
# 2 77.3673 185.1583 60.4625 0.0000 20.1925 0.0000
# 3 3.9769 60.4625 97.5592 0.0000 10.2091 0.0002
# 4 0.0001 0.0000 0.0000 12.0546 -0.0001 2.5925
# 5 26.0110 20.1925 10.2091 -0.0001 23.5191 -0.0003
# 6 0.0002 0.0000 0.0002 2.5925 -0.0003 63.0334
#
#
#
# Elastic Compliance Matrix: (Units=1/GPa)
#
#
# Indices 1 2 3 4 5 6 
#
# 1 0.011795 -0.005010 0.003708 0.000000 -0.010352 0.000000
# 2 -0.005010 0.009316 -0.005565 0.000000 -0.000042 0.000000
# 3 0.003708 -0.005565 0.014118 0.000000 -0.005451 0.000000
# 4 0.000000 0.000000 0.000000 0.083696 0.000000 -0.003442
# 5 -0.010352 -0.000042 -0.005451 0.000000 0.056370 0.000000
# 6 0.000000 0.000000 0.000000 -0.003442 0.000000 0.016006
#
#
# Mechanical properties :
#
#
# Convention : Reuss Voigt Hill
#
# Bulk Modulus (GPa) = 46.52442 78.39525 62.45983
# Shear Modulus (GPa) = 23.56251 38.39721 30.97986
#
# Velocity S-wave (km/s) = 3.06205 3.90888 3.51109
# Velocity P-wave (km/s) = 5.56910 7.18109 6.42584
#
# Compressibility (1/GPa) = 0.02149409
#
# Stress axis : x y z
#
# Youngs Moduli (GPa) = 84.78286 107.34222 70.82964
#
# Poissons Ratio (x) = 0.53779 -0.26260
# Poissons Ratio (y) = 0.42477 0.39417
# Poissons Ratio (z) = -0.31434 0.59736
#
# Static dielectric constant tensor:
#      x y z
#    x 2.081400 0.000000 0.033850 
#    y 0.000000 2.089930 0.000000 
#    z 0.033850 0.000000 1.976100 
# 
# From -- ./inp_files/59978.got.cif
#   From: 2010.05.17/outbox.cif.g08.bks.cpg/sg5_30_cif.got.tgz:59978.got - 2010.06.03 18:56:24.
