data_PCOD9128238
_publ_section_title
;
Structure prediction by ZEFSAII (Michael W. Deem and Ramdas Pophale) SiO2 
 PCOD9128238
Probable space group: C 2
;
_chemical_formula_sum "Si O2"
_cell_formula_units_Z 20
_cell_length_a 8.535407
_cell_length_b 5.304034
_cell_length_c 17.827599
_cell_angle_alpha 90.000000
_cell_angle_beta 83.497093
_cell_angle_gamma 90.000000
_cell_volume 801.899903
_symmetry_space_group_name_H-M "C 2"
_symmetry_group_IT_number 5
_symmetry_cell_setting 'monoclinic'
loop_
_space_group_symop_operation_xyz
x,y,z
-x,y,-z
1/2+x,1/2+y,z
1/2-x,1/2+y,-z
loop_
_atom_site_type_symbol
_atom_site_label
_atom_site_fract_x
_atom_site_fract_y
_atom_site_fract_z
Si Si1 0.787092 0.607120 0.364692
Si Si2 0.062254 0.109503 0.581596
Si Si3 0.131733 0.721398 0.931145
Si Si4 0.191472 0.209022 0.865857
Si Si5 0.003898 0.563867 0.208044
O O1 0.599689 0.615272 0.360907
O O2 0.893444 0.593036 0.284729
O O3 0.833776 0.356112 0.407985
O O4 0.839966 0.859230 0.405031
O O5 0.000000 0.107770 0.500000
O O6 0.230172 0.471039 0.907851
O O7 0.049891 0.755966 0.853630
O O8 0.203382 0.999274 0.930259
O O9 0.000000 0.674584 0.000000
O O10 0.033270 0.298980 0.831376
O O11 0.313137 0.123288 0.794624
#
# Coordination Sequence:
#
# PCOD9128238 Si02
#       5
#     4   4   4   4   4
#     4  12  26  43  76 100 146 182 231 285 343 409
#     4  12  26  47  72 107 141 184 229 282 346 414
#     4  10  24  42  66  95 132 177 225 284 339 401
#     4  10  24  39  67  90 137 166 235 275 343 399
#     4  10  26  41  68  98 134 177 231 276 345 401
#
# _framework density 24.940767999999998
#
# number of rings (size 3 to 8) (size 9 to 14) (size 15 to 20)
#    1.200    0.000    0.000    4.800    8.400    1.600 
#    0.000    0.000    0.000    0.000    0.000    0.000 
#    0.000    0.000    0.000    0.000    0.000    0.000 
#
# Total GULP energy -55857.001840 kJ/mol
# GULP energy per Si atom -5585.700184 kJ/mol
# Density = 2.488400 g / cm^3
# Si number density = 24.940768 Si / 1000 Ang^3
#
#
#
# Elastic Constant Matrix: (Units=GPa)
#
#
# Indices 1 2 3 4 5 6 
#
# 1 90.9483 50.1275 -17.4265 0.0000 -21.0220 0.0000
# 2 50.1275 187.8282 6.7256 0.0000 -7.4793 0.0000
# 3 -17.4265 6.7256 89.1227 0.0000 -19.8295 0.0000
# 4 0.0000 0.0000 0.0000 18.0193 0.0000 -2.3346
# 5 -21.0220 -7.4793 -19.8295 0.0000 44.5504 0.0000
# 6 0.0000 0.0000 0.0000 -2.3346 0.0000 2.8182
#
#
#
# Elastic Compliance Matrix: (Units=1/GPa)
#
#
# Indices 1 2 3 4 5 6 
#
# 1 0.016702 -0.004276 0.005752 0.000000 0.009723 0.000000
# 2 -0.004276 0.006459 -0.001700 0.000000 -0.001690 0.000000
# 3 0.005752 -0.001700 0.014444 0.000000 0.008858 0.000000
# 4 0.000000 0.000000 0.000000 0.062169 0.000000 0.051501
# 5 0.009723 -0.001690 0.008858 0.000000 0.030694 0.000000
# 6 0.000000 0.000000 0.000000 0.051501 0.000000 0.397498
#
#
# Mechanical properties :
#
#
# Convention : Reuss Voigt Hill
#
# Bulk Modulus (GPa) = 26.91277 49.63918 38.27598
# Shear Modulus (GPa) = 9.24558 34.97575 22.11067
#
# Velocity S-wave (km/s) = 1.92745 3.74886 2.98069
# Velocity P-wave (km/s) = 3.97083 6.21970 5.21786
#
# Compressibility (1/GPa) = 0.03715708
#
# Stress axis : x y z
#
# Youngs Moduli (GPa) = 59.87429 154.82791 69.23156
#
# Poissons Ratio (x) = 0.66206 -0.39821
# Poissons Ratio (y) = 0.25603 0.11766
# Poissons Ratio (z) = -0.34439 0.26313
#
# Static dielectric constant tensor:
#      x y z
#    x 1.615750 0.000000 -0.292910 
#    y 0.000000 2.127720 0.000000 
#    z -0.292910 0.000000 1.810410 
# 
# From -- ./inp_files/59140.got.cif
#   From: 2010.05.17/outbox.cif.g08.bks.cpg/sg5_30_cif.got.tgz:59140.got - 2010.06.03 18:56:24.
