data_PCOD9128100
_publ_section_title
;
Structure prediction by ZEFSAII (Michael W. Deem and Ramdas Pophale) SiO2 
 PCOD9128100
Probable space group: C 2
;
_chemical_formula_sum "Si O2"
_cell_formula_units_Z 20
_cell_length_a 12.681246
_cell_length_b 7.320439
_cell_length_c 11.337470
_cell_angle_alpha 90.000000
_cell_angle_beta 43.655233
_cell_angle_gamma 90.000000
_cell_volume 726.547439
_symmetry_space_group_name_H-M "C 2"
_symmetry_group_IT_number 5
_symmetry_cell_setting 'monoclinic'
loop_
_space_group_symop_operation_xyz
x,y,z
-x,y,-z
1/2+x,1/2+y,z
1/2-x,1/2+y,-z
loop_
_atom_site_type_symbol
_atom_site_label
_atom_site_fract_x
_atom_site_fract_y
_atom_site_fract_z
Si Si1 0.390039 0.286300 0.421502
Si Si2 0.129123 0.183398 0.469541
Si Si3 0.606220 0.444944 0.081614
Si Si4 0.673756 0.004066 0.887717
Si Si5 0.795456 0.098820 0.230625
O O1 0.227166 0.292274 0.485159
O O2 0.431008 0.488495 0.434419
O O3 0.526231 0.269183 0.214167
O O4 0.344288 0.148269 0.565181
O O5 0.000000 0.284133 0.500000
O O6 0.245347 0.111287 0.280615
O O7 0.729794 0.530172 0.070892
O O8 0.451717 0.560239 0.176740
O O9 0.694114 0.447216 0.883310
O O10 0.688402 0.788532 0.850861
O O11 0.500000 0.049924 0.000000
#
# Coordination Sequence:
#
# PCOD9128100 Si02
#       5
#     4   4   4   4   4
#     4  11  22  45  77 104 148 206 249 316 398 453
#     4  11  23  46  71 106 154 195 258 324 377 472
#     4  11  22  46  75 104 154 198 252 328 378 464
#     4  11  23  44  71 103 152 207 246 320 395 448
#     4  10  23  46  71 105 153 194 250 327 382 446
#
# _framework density 27.527452
#
# number of rings (size 3 to 8) (size 9 to 14) (size 15 to 20)
#    0.000    1.200    6.000    0.000    0.000    1.600 
#   10.800    3.000    0.000    0.000    0.000    0.000 
#    0.000    0.000    0.000    0.000    0.000    0.000 
#
# Total GULP energy -55773.074769 kJ/mol
# GULP energy per Si atom -5577.307477 kJ/mol
# Density = 2.746480 g / cm^3
# Si number density = 27.527452 Si / 1000 Ang^3
#
#
#
# Elastic Constant Matrix: (Units=GPa)
#
#
# Indices 1 2 3 4 5 6 
#
# 1 203.1279 -34.1434 74.7430 0.0000 -1.6625 0.0000
# 2 -34.1434 12.0799 71.0618 0.0000 -0.5614 0.0000
# 3 74.7430 71.0618 187.4482 0.0000 13.0653 0.0000
# 4 0.0000 0.0000 0.0000 72.9893 0.0000 12.7984
# 5 -1.6625 -0.5614 13.0653 0.0000 46.3355 0.0000
# 6 0.0000 0.0000 0.0000 12.7984 0.0000 47.2834
#
#
#
# Elastic Compliance Matrix: (Units=1/GPa)
#
#
# Indices 1 2 3 4 5 6 
#
# 1 0.002323 -0.009472 0.002720 0.000000 -0.000798 0.000000
# 2 -0.009472 -0.025776 0.013867 0.000000 -0.004562 0.000000
# 3 0.002720 0.013867 -0.001046 0.000000 0.000560 0.000000
# 4 0.000000 0.000000 0.000000 0.014383 0.000000 -0.003893
# 5 -0.000798 -0.004562 0.000560 0.000000 0.021340 0.000000
# 6 0.000000 0.000000 0.000000 -0.003893 0.000000 0.022203
#
#
# Mechanical properties :
#
#
# Convention : Reuss Voigt Hill
#
# Bulk Modulus (GPa) = -97.37735 69.55321 -13.91207
# Shear Modulus (GPa) = 316.95207 52.72129 184.83668
#
# Velocity S-wave (km/s) = 10.74199 4.38108 8.20317
# Velocity P-wave (km/s) = 10.88128 7.13537 9.20097
#
# Compressibility (1/GPa) = -0.01026933
#
# Stress axis : x y z
#
# Youngs Moduli (GPa) = 430.41390 -38.79582 -956.21111
#
# Poissons Ratio (x) = -0.36749 2.60111
# Poissons Ratio (y) = 4.07704 13.25948
# Poissons Ratio (z) = -1.17082 0.53797
#
# Static dielectric constant tensor:
#      x y z
#    x 2.007690 0.000000 0.033320 
#    y 0.000000 2.142840 0.000000 
#    z 0.033320 0.000000 2.242900 
# 
# From -- ./inp_files/38226.got.cif
#   From: 2010.05.17/outbox.cif.g08.bks.cpg/sg5_20_cif.got.tgz:38226.got - 2010.06.03 18:56:24.
