data_PCOD9128079
_publ_section_title
;
Structure prediction by ZEFSAII (Michael W. Deem and Ramdas Pophale) SiO2 
 PCOD9128079
Probable space group: C 2
;
_chemical_formula_sum "Si O2"
_cell_formula_units_Z 20
_cell_length_a 23.628912
_cell_length_b 6.110934
_cell_length_c 7.480999
_cell_angle_alpha 90.000000
_cell_angle_beta 132.678886
_cell_angle_gamma 90.000000
_cell_volume 794.136970
_symmetry_space_group_name_H-M "C 2"
_symmetry_group_IT_number 5
_symmetry_cell_setting 'monoclinic'
loop_
_space_group_symop_operation_xyz
x,y,z
-x,y,-z
1/2+x,1/2+y,z
1/2-x,1/2+y,-z
loop_
_atom_site_type_symbol
_atom_site_label
_atom_site_fract_x
_atom_site_fract_y
_atom_site_fract_z
Si Si1 0.000000 0.872160 0.500000
Si Si2 0.908623 0.494934 0.104803
Si Si3 0.339334 0.245026 0.668620
Si Si4 0.500000 0.070331 0.000000
Si Si5 0.141385 0.144855 0.711337
Si Si6 0.748687 0.970412 0.761176
O O1 0.054943 0.715654 0.735254
O O2 0.061665 0.013545 0.518858
O O3 0.883659 0.335810 0.204362
O O4 0.976809 0.421208 0.117974
O O5 0.839344 0.550408 0.820553
O O6 0.305849 0.436712 0.715668
O O7 0.297007 0.185315 0.396890
O O8 0.428636 0.229528 0.814385
O O9 0.186967 0.273136 0.652895
O O10 0.203309 0.001379 0.955797
#
# Coordination Sequence:
#
# PCOD9128079 Si02
#       6
#     2   4   4   2   4   4
#     4  12  26  44  74 110 150 202 260 310 370 464
#     4  10  23  46  70 107 146 193 261 298 379 437
#     4  10  23  46  67 105 148 198 245 310 370 454
#     4   8  22  42  70  94 140 192 236 310 352 446
#     4  12  27  46  77 112 151 204 252 318 377 457
#     4  12  26  47  74 112 154 199 257 312 386 444
#
# _framework density 25.184574000000001
#
# number of rings (size 3 to 8) (size 9 to 14) (size 15 to 20)
#    1.200    0.000    2.000    3.000    5.600    1.600 
#    0.000    4.000    0.000    0.000    0.000    0.000 
#    0.000    0.000    0.000    0.000    0.000    0.000 
#
# Total GULP energy -55802.817542 kJ/mol
# GULP energy per Si atom -5580.281754 kJ/mol
# Density = 2.512725 g / cm^3
# Si number density = 25.184574 Si / 1000 Ang^3
#
#
#
# Elastic Constant Matrix: (Units=GPa)
#
#
# Indices 1 2 3 4 5 6 
#
# 1 84.6576 13.8699 25.3406 0.0000 18.1812 0.0000
# 2 13.8699 44.2642 27.9490 0.0000 5.7075 0.0000
# 3 25.3406 27.9490 90.3044 0.0000 4.8730 0.0000
# 4 0.0000 0.0000 0.0000 26.6706 0.0000 -4.8672
# 5 18.1812 5.7075 4.8730 0.0000 42.6678 0.0000
# 6 0.0000 0.0000 0.0000 -4.8672 0.0000 55.1551
#
#
#
# Elastic Compliance Matrix: (Units=1/GPa)
#
#
# Indices 1 2 3 4 5 6 
#
# 1 0.014217 -0.001762 -0.003149 0.000000 -0.005463 0.000000
# 2 -0.001762 0.028629 -0.008251 0.000000 -0.002136 0.000000
# 3 -0.003149 -0.008251 0.014468 0.000000 0.000793 0.000000
# 4 0.000000 0.000000 0.000000 0.038108 0.000000 0.003363
# 5 -0.005463 -0.002136 0.000793 0.000000 0.025960 0.000000
# 6 0.000000 0.000000 0.000000 0.003363 0.000000 0.018427
#
#
# Mechanical properties :
#
#
# Convention : Reuss Voigt Hill
#
# Bulk Modulus (GPa) = 32.26875 39.28279 35.77577
# Shear Modulus (GPa) = 28.33450 35.03647 31.68548
#
# Velocity S-wave (km/s) = 3.35785 3.73391 3.55086
# Velocity P-wave (km/s) = 5.27961 5.84989 5.57205
#
# Compressibility (1/GPa) = 0.03098973
#
# Stress axis : x y z
#
# Youngs Moduli (GPa) = 70.33930 34.92982 69.11696
#
# Poissons Ratio (x) = 0.06154 0.21767
# Poissons Ratio (y) = 0.12393 0.57027
# Poissons Ratio (z) = 0.22152 0.28820
#
# Static dielectric constant tensor:
#      x y z
#    x 2.018780 0.000000 0.003500 
#    y 0.000000 2.022930 0.000000 
#    z 0.003500 0.000000 2.052490 
# 
# From -- ./inp_files/28415.got.cif
#   From: 2010.05.17/outbox.cif.g08.bks.cpg/sg5_15_cif.got.tgz:28415.got - 2010.06.03 18:56:24.
