data_PCOD9128334
_publ_section_title
;
Structure prediction by ZEFSAII (Michael W. Deem and Ramdas Pophale) SiO2 
 PCOD9128334
Probable space group: C 2
;
_chemical_formula_sum "Si O2"
_cell_formula_units_Z 22
_cell_length_a 22.882930
_cell_length_b 7.703111
_cell_length_c 6.756893
_cell_angle_alpha 90.000000
_cell_angle_beta 58.491972
_cell_angle_gamma 90.000000
_cell_volume 1015.437788
_symmetry_space_group_name_H-M "C 2"
_symmetry_group_IT_number 5
_symmetry_cell_setting 'monoclinic'
loop_
_space_group_symop_operation_xyz
x,y,z
-x,y,-z
1/2+x,1/2+y,z
1/2-x,1/2+y,-z
loop_
_atom_site_type_symbol
_atom_site_label
_atom_site_fract_x
_atom_site_fract_y
_atom_site_fract_z
Si Si1 0.809074 0.846760 0.643834
Si Si2 0.691538 0.633081 0.645381
Si Si3 0.557370 0.804385 0.740022
Si Si4 0.570980 0.195922 0.812179
Si Si5 0.000000 0.062338 0.500000
Si Si6 0.124816 0.861210 0.067430
O O1 0.755500 0.714600 0.643722
O O2 0.883256 0.803720 0.418606
O O3 0.820291 0.833498 0.856342
O O4 0.788285 0.032352 0.590894
O O5 0.633144 0.767345 0.686160
O O6 0.655938 0.499057 0.858654
O O7 0.540986 0.691575 0.575694
O O8 0.553481 0.013514 0.739912
O O9 0.500000 0.749845 0.000000
O O10 0.500000 0.284843 0.000000
O O11 0.609242 0.193335 0.957698
O O12 0.943750 0.943861 0.712785
#
# Coordination Sequence:
#
# PCOD9128334 Si02
#       6
#     4   4   4   4   2   4
#     4  11  24  44  65  95 134 180 224 277 339 404
#     4  11  24  42  65  95 132 178 223 280 336 398
#     4  11  23  42  67  99 136 173 223 283 332 398
#     4  10  24  42  66  99 134 171 223 276 340 395
#     4  12  22  42  76 100 132 182 230 274 344 396
#     4  11  24  41  69  96 132 181 227 273 333 412
#
# _framework density 21.665531999999999
#
# number of rings (size 3 to 8) (size 9 to 14) (size 15 to 20)
#    0.000    1.091    3.636    2.182    2.545    7.273 
#    3.273    0.000    0.000    0.000    0.000    0.000 
#    0.000    0.000    0.000    0.000    0.000    0.000 
#
# Total GULP energy -61444.079154 kJ/mol
# GULP energy per Si atom -5585.825378 kJ/mol
# Density = 2.161622 g / cm^3
# Si number density = 21.665532 Si / 1000 Ang^3
#
#
#
# Elastic Constant Matrix: (Units=GPa)
#
#
# Indices 1 2 3 4 5 6 
#
# 1 85.8582 7.7253 7.8294 0.0000 15.0426 0.0000
# 2 7.7253 49.1412 4.4357 0.0000 3.8217 0.0000
# 3 7.8294 4.4357 51.3185 0.0000 17.4299 0.0000
# 4 0.0000 0.0000 0.0000 22.4387 0.0000 9.6286
# 5 15.0426 3.8217 17.4299 0.0000 42.6336 0.0000
# 6 0.0000 0.0000 0.0000 9.6286 0.0000 45.7799
#
#
#
# Elastic Compliance Matrix: (Units=1/GPa)
#
#
# Indices 1 2 3 4 5 6 
#
# 1 0.012550 -0.001618 -0.000372 0.000000 -0.004131 0.000000
# 2 -0.001618 0.020780 -0.001290 0.000000 -0.000765 0.000000
# 3 -0.000372 -0.001290 0.022726 0.000000 -0.009044 0.000000
# 4 0.000000 0.000000 0.000000 0.048987 0.000000 -0.010303
# 5 -0.004131 -0.000765 -0.009044 0.000000 0.028679 0.000000
# 6 0.000000 0.000000 0.000000 -0.010303 0.000000 0.024011
#
#
# Mechanical properties :
#
#
# Convention : Reuss Voigt Hill
#
# Bulk Modulus (GPa) = 20.20305 25.14430 22.67367
# Shear Modulus (GPa) = 27.65615 33.25893 30.45754
#
# Velocity S-wave (km/s) = 3.57670 3.92230 3.75348
# Velocity P-wave (km/s) = 5.13831 5.66952 5.41044
#
# Compressibility (1/GPa) = 0.04949747
#
# Stress axis : x y z
#
# Youngs Moduli (GPa) = 79.67876 48.12372 44.00209
#
# Poissons Ratio (x) = 0.07787 0.01636
# Poissons Ratio (y) = 0.12893 0.05674
# Poissons Ratio (z) = 0.02962 0.06206
#
# Static dielectric constant tensor:
#      x y z
#    x 1.834200 0.000000 0.005300 
#    y 0.000000 1.801500 0.000000 
#    z 0.005300 0.000000 1.769580 
# 
# From -- ./inp_files/9226.got.cif
#   From: 2010.05.17/outbox.cif.g08.bks.cpg/sg5_5_cif.got.tgz:9226.got - 2010.06.03 18:56:24.
