data_PCOD9128571
_publ_section_title
;
Structure prediction by ZEFSAII (Michael W. Deem and Ramdas Pophale) SiO2 
 PCOD9128571
Probable space group: C 2
;
_chemical_formula_sum "Si O2"
_cell_formula_units_Z 20
_cell_length_a 9.211958
_cell_length_b 21.064452
_cell_length_c 5.416668
_cell_angle_alpha 90.000000
_cell_angle_beta 72.740649
_cell_angle_gamma 90.000000
_cell_volume 1003.748151
_symmetry_space_group_name_H-M "C 2"
_symmetry_group_IT_number 5
_symmetry_cell_setting 'monoclinic'
loop_
_space_group_symop_operation_xyz
x,y,z
-x,y,-z
1/2+x,1/2+y,z
1/2-x,1/2+y,-z
loop_
_atom_site_type_symbol
_atom_site_label
_atom_site_fract_x
_atom_site_fract_y
_atom_site_fract_z
Si Si1 0.597311 0.547930 0.701980
Si Si2 0.133188 0.619296 0.244998
Si Si3 0.500000 0.003373 0.000000
Si Si4 0.415513 0.344955 0.290008
Si Si5 0.668150 0.936117 0.528216
Si Si6 0.000000 0.720955 0.000000
O O1 0.500000 0.554004 0.500000
O O2 0.711077 0.606758 0.692623
O O3 0.707706 0.487477 0.618678
O O4 0.500000 0.541471 0.000000
O O5 0.000000 0.636094 0.500000
O O6 0.128078 0.674581 0.045426
O O7 0.078784 0.553061 0.147603
O O8 0.630375 0.957814 0.826074
O O9 0.500000 0.363144 0.500000
O O10 0.246063 0.370221 0.416827
O O11 0.430972 0.269643 0.235234
O O12 0.500000 0.371557 0.000000
O O13 0.500000 0.940474 0.500000
#
# Coordination Sequence:
#
# PCOD9128571 Si02
#       6
#     4   4   2   4   4   2
#     4  12  25  40  64 108 145 176 219 286 361 406
#     4  11  21  42  71  99 140 183 234 277 342 427
#     4  11  20  36  66 106 140 177 226 274 354 411
#     4  10  24  46  68 101 131 183 235 284 335 399
#     4  12  24  40  68 102 144 181 226 279 354 421
#     4   9  24  42  82  90 134 191 246 270 342 399
#
# _framework density 19.925319999999999
#
# number of rings (size 3 to 8) (size 9 to 14) (size 15 to 20)
#    0.600    0.400    4.000    3.000    5.600    0.000 
#    0.000    0.000    8.800    0.000    0.000    0.000 
#    0.000    0.000    0.000    0.000    0.000    0.000 
#
# Total GULP energy -55737.232917 kJ/mol
# GULP energy per Si atom -5573.723292 kJ/mol
# Density = 1.987997 g / cm^3
# Si number density = 19.925320 Si / 1000 Ang^3
#
#
#
# Elastic Constant Matrix: (Units=GPa)
#
#
# Indices 1 2 3 4 5 6 
#
# 1 150.1378 43.7928 51.4138 0.0000 10.5090 0.0000
# 2 43.7928 88.1819 31.4439 0.0000 -6.2389 0.0000
# 3 51.4138 31.4439 132.3381 0.0000 -10.4680 0.0000
# 4 0.0000 0.0000 0.0000 21.3556 0.0000 5.7734
# 5 10.5090 -6.2389 -10.4680 0.0000 42.4436 0.0000
# 6 0.0000 0.0000 0.0000 5.7734 0.0000 -61.0874
#
#
#
# Elastic Compliance Matrix: (Units=1/GPa)
#
#
# Indices 1 2 3 4 5 6 
#
# 1 0.008961 -0.003667 -0.002884 0.000000 -0.003469 0.000000
# 2 -0.003667 0.013943 -0.001687 0.000000 0.002541 0.000000
# 3 -0.002884 -0.001687 0.009296 0.000000 0.002759 0.000000
# 4 0.000000 0.000000 0.000000 0.045660 0.000000 0.004315
# 5 -0.003469 0.002541 0.002759 0.000000 0.025474 0.000000
# 6 0.000000 0.000000 0.000000 0.004315 0.000000 -0.015962
#
#
# Mechanical properties :
#
#
# Convention : Reuss Voigt Hill
#
# Bulk Modulus (GPa) = 63.60336 69.32874 66.46605
# Shear Modulus (GPa) = 45.83439 16.80952 31.32196
#
# Velocity S-wave (km/s) = 4.80136 2.90768 3.96911
# Velocity P-wave (km/s) = 7.92007 6.79283 7.37801
#
# Compressibility (1/GPa) = 0.01572244
#
# Stress axis : x y z
#
# Youngs Moduli (GPa) = 111.59825 71.72212 107.57193
#
# Poissons Ratio (x) = 0.26300 0.31028
# Poissons Ratio (y) = 0.40923 0.18149
# Poissons Ratio (z) = 0.32189 0.12101
#
# Static dielectric constant tensor:
#      x y z
#    x 1.765560 0.000000 0.119580 
#    y 0.000000 1.708820 0.000000 
#    z 0.119580 0.000000 1.892440 
# 
# From -- ./inp_files/2621.got.cif
#   From: 2010.05.17/outbox.cif.g08.bks.cpg/sg5_2_cif.got.tgz:2621.got - 2010.06.03 18:56:24.
