data_PCOD9128449
_publ_section_title
;
Structure prediction by ZEFSAII (Michael W. Deem and Ramdas Pophale) SiO2 
 PCOD9128449
Probable space group: C 2
;
_chemical_formula_sum "Si O2"
_cell_formula_units_Z 14
_cell_length_a 7.130725
_cell_length_b 7.304915
_cell_length_c 11.608786
_cell_angle_alpha 90.000000
_cell_angle_beta 86.799013
_cell_angle_gamma 90.000000
_cell_volume 603.750559
_symmetry_space_group_name_H-M "C 2"
_symmetry_group_IT_number 5
_symmetry_cell_setting 'monoclinic'
loop_
_space_group_symop_operation_xyz
x,y,z
-x,y,-z
1/2+x,1/2+y,z
1/2-x,1/2+y,-z
loop_
_atom_site_type_symbol
_atom_site_label
_atom_site_fract_x
_atom_site_fract_y
_atom_site_fract_z
Si Si1 0.360471 0.356750 0.601688
Si Si2 0.500000 0.712490 0.500000
Si Si3 0.051899 0.703014 0.153533
Si Si4 0.189719 0.316448 0.048475
O O1 0.500000 0.276602 0.500000
O O2 0.409374 0.572061 0.596115
O O3 0.153329 0.327666 0.561249
O O4 0.398363 0.257601 0.719519
O O5 0.120776 0.502860 0.111189
O O6 0.830709 0.720282 0.133638
O O7 0.172052 0.836320 0.065993
O O8 0.000000 0.230576 0.000000
#
# Coordination Sequence:
#
# PCOD9128449 Si02
#       4
#     4   2   4   4
#     4  10  25  45  71 103 134 182 221 286 331 409
#     4  10  24  44  70 100 138 172 232 264 354 382
#     4  11  25  46  71 101 140 175 233 271 345 397
#     4  11  24  44  68 101 136 183 217 285 327 406
#
# _framework density 23.188385
#
# number of rings (size 3 to 8) (size 9 to 14) (size 15 to 20)
#    0.857    0.571    2.857    1.714    6.000    4.571 
#    0.000    0.000    0.000    0.000    0.000    0.000 
#    0.000    0.000    0.000    0.000    0.000    0.000 
#
# Total GULP energy -39100.203075 kJ/mol
# GULP energy per Si atom -5585.743296 kJ/mol
# Density = 2.313561 g / cm^3
# Si number density = 23.188385 Si / 1000 Ang^3
#
#
#
# Elastic Constant Matrix: (Units=GPa)
#
#
# Indices 1 2 3 4 5 6 
#
# 1 181.3648 44.2216 44.3056 0.0000 49.0533 0.0000
# 2 44.2216 61.7414 -22.9019 0.0000 -1.1417 0.0000
# 3 44.3056 -22.9019 118.5553 0.0000 11.3911 0.0000
# 4 0.0000 0.0000 0.0000 -8.7798 0.0000 36.1331
# 5 49.0533 -1.1417 11.3911 0.0000 37.7867 0.0000
# 6 0.0000 0.0000 0.0000 36.1331 0.0000 -6.1662
#
#
#
# Elastic Compliance Matrix: (Units=1/GPa)
#
#
# Indices 1 2 3 4 5 6 
#
# 1 0.015664 -0.014078 -0.006775 0.000000 -0.018717 0.000000
# 2 -0.014078 0.030109 0.009510 0.000000 0.016319 0.000000
# 3 -0.006775 0.009510 0.012287 0.000000 0.005378 0.000000
# 4 0.000000 0.000000 0.000000 0.004927 0.000000 0.028873
# 5 -0.018717 0.016319 0.005378 0.000000 0.049634 0.000000
# 6 0.000000 0.000000 0.000000 0.028873 0.000000 0.007016
#
#
# Mechanical properties :
#
#
# Convention : Reuss Voigt Hill
#
# Bulk Modulus (GPa) = 28.27027 54.76802 41.51914
# Shear Modulus (GPa) = 32.44339 24.30390 28.37364
#
# Velocity S-wave (km/s) = 3.74454 3.24096 3.50182
# Velocity P-wave (km/s) = 5.55999 6.13800 5.85613
#
# Compressibility (1/GPa) = 0.03537285
#
# Stress axis : x y z
#
# Youngs Moduli (GPa) = 63.84146 33.21256 81.38678
#
# Poissons Ratio (x) = 0.46757 0.55139
# Poissons Ratio (y) = 0.89877 -0.77395
# Poissons Ratio (z) = 0.43252 -0.31584
#
# Static dielectric constant tensor:
#      x y z
#    x 1.902000 0.000000 -0.053810 
#    y 0.000000 1.929370 0.000000 
#    z -0.053810 0.000000 1.854200 
# 
# From -- ./inp_files/32764.got.cif
#   From: 2010.05.17/outbox.cif.g08.bks.cpg/sg5_17_cif.got.tgz:32764.got - 2010.06.03 18:56:24.
