data_PCOD9128271
_publ_section_title
;
Structure prediction by ZEFSAII (Michael W. Deem and Ramdas Pophale) SiO2 
 PCOD9128271
Probable space group: C 2
;
_chemical_formula_sum "Si O2"
_cell_formula_units_Z 26
_cell_length_a 10.928497
_cell_length_b 9.543731
_cell_length_c 13.047859
_cell_angle_alpha 90.000000
_cell_angle_beta 60.092841
_cell_angle_gamma 90.000000
_cell_volume 1179.652381
_symmetry_space_group_name_H-M "C 2"
_symmetry_group_IT_number 5
_symmetry_cell_setting 'monoclinic'
loop_
_space_group_symop_operation_xyz
x,y,z
-x,y,-z
1/2+x,1/2+y,z
1/2-x,1/2+y,-z
loop_
_atom_site_type_symbol
_atom_site_label
_atom_site_fract_x
_atom_site_fract_y
_atom_site_fract_z
Si Si1 0.235681 0.448040 0.894762
Si Si2 0.033675 0.740316 0.269535
Si Si3 0.463254 0.669772 0.743152
Si Si4 0.500000 0.712570 0.500000
Si Si5 0.491290 0.955606 0.831934
Si Si6 0.759120 0.894504 0.459305
Si Si7 0.230314 0.679837 0.374410
O O1 0.347062 0.321549 0.844844
O O2 0.331121 0.586266 0.840550
O O3 0.128297 0.425730 0.844781
O O4 0.140569 0.458848 0.034976
O O5 0.983600 0.604543 0.230351
O O6 0.109255 0.687483 0.341845
O O7 0.907683 0.846904 0.348538
O O8 0.482706 0.632962 0.614693
O O9 0.452796 0.836561 0.764927
O O10 0.614468 0.641909 0.734412
O O11 0.637339 0.807749 0.453786
O O12 0.762627 0.829725 0.571756
O O13 0.715539 0.056039 0.464650
#
# Coordination Sequence:
#
# PCOD9128271 Si02
#       7
#     4   4   4   2   4   4   4
#     4  11  24  46  69 100 134 178 235 283 339 399
#     4  12  24  44  71  98 136 177 228 277 336 409
#     4  11  22  45  66  99 141 176 226 284 342 402
#     4  10  24  40  68  96 140 178 216 274 344 404
#     4  11  25  43  71  98 135 183 226 287 340 401
#     4  11  25  42  65 100 137 176 227 271 335 404
#     4  11  25  42  67 101 136 180 223 278 337 408
#
# _framework density 22.040392000000001
#
# number of rings (size 3 to 8) (size 9 to 14) (size 15 to 20)
#    0.000    0.923    3.077    3.231    6.462    2.462 
#    0.000    0.000    0.000    0.000    0.000    0.000 
#    0.000    0.000    0.000    0.000    0.000    0.000 
#
# Total GULP energy -72684.444860 kJ/mol
# GULP energy per Si atom -5591.111143 kJ/mol
# Density = 2.199023 g / cm^3
# Si number density = 22.040392 Si / 1000 Ang^3
#
#
#
# Elastic Constant Matrix: (Units=GPa)
#
#
# Indices 1 2 3 4 5 6 
#
# 1 84.2581 -3.0213 25.3937 0.0000 -13.4802 0.0000
# 2 -3.0213 93.3085 18.6962 0.0000 0.9504 0.0000
# 3 25.3937 18.6962 83.7109 0.0000 -10.9692 0.0000
# 4 0.0000 0.0000 0.0000 31.5456 0.0000 -6.1432
# 5 -13.4802 0.9504 -10.9692 0.0000 40.1517 0.0000
# 6 0.0000 0.0000 0.0000 -6.1432 0.0000 27.0364
#
#
#
# Elastic Compliance Matrix: (Units=1/GPa)
#
#
# Indices 1 2 3 4 5 6 
#
# 1 0.013660 0.001200 -0.003956 0.000000 0.003477 0.000000
# 2 0.001200 0.011362 -0.002991 0.000000 -0.000683 0.000000
# 3 -0.003956 -0.002991 0.014156 0.000000 0.002610 0.000000
# 4 0.000000 0.000000 0.000000 0.033168 0.000000 0.007536
# 5 0.003477 -0.000683 0.002610 0.000000 0.026802 0.000000
# 6 0.000000 0.000000 0.000000 0.007536 0.000000 0.038700
#
#
# Mechanical properties :
#
#
# Convention : Reuss Voigt Hill
#
# Bulk Modulus (GPa) = 36.12336 38.15719 37.14028
# Shear Modulus (GPa) = 31.53176 34.42732 32.97954
#
# Velocity S-wave (km/s) = 3.78648 3.95652 3.87243
# Velocity P-wave (km/s) = 5.96169 6.18239 6.07304
#
# Compressibility (1/GPa) = 0.02768292
#
# Stress axis : x y z
#
# Youngs Moduli (GPa) = 73.20736 88.01061 70.64152
#
# Poissons Ratio (x) = -0.10557 0.27946
# Poissons Ratio (y) = -0.08782 0.21130
# Poissons Ratio (z) = 0.28961 0.26325
#
# Static dielectric constant tensor:
#      x y z
#    x 1.788560 0.000000 -0.021300 
#    y 0.000000 1.815470 0.000000 
#    z -0.021300 0.000000 1.833900 
# 
# From -- ./inp_files/52188.got.cif
#   From: 2010.05.17/outbox.cif.g08.bks.cpg/sg5_27_cif.got.tgz:52188.got - 2010.06.03 18:56:24.
