data_PCOD9128550
_publ_section_title
;
Structure prediction by ZEFSAII (Michael W. Deem and Ramdas Pophale) SiO2 
 PCOD9128550
Probable space group: C 2
;
_chemical_formula_sum "Si O2"
_cell_formula_units_Z 22
_cell_length_a 5.245934
_cell_length_b 31.294441
_cell_length_c 5.659247
_cell_angle_alpha 90.000000
_cell_angle_beta 89.161642
_cell_angle_gamma 90.000000
_cell_volume 928.971044
_symmetry_space_group_name_H-M "C 2"
_symmetry_group_IT_number 5
_symmetry_cell_setting 'monoclinic'
loop_
_space_group_symop_operation_xyz
x,y,z
-x,y,-z
1/2+x,1/2+y,z
1/2-x,1/2+y,-z
loop_
_atom_site_type_symbol
_atom_site_label
_atom_site_fract_x
_atom_site_fract_y
_atom_site_fract_z
Si Si1 0.500000 0.680250 0.000000
Si Si2 0.145680 0.928507 0.244541
Si Si3 0.260704 0.243531 0.649731
Si Si4 0.757123 0.521155 0.339173
Si Si5 0.251725 0.113320 0.333663
Si Si6 0.858671 0.333231 0.250205
O O1 0.686209 0.711324 0.854572
O O2 0.315062 0.650407 0.847193
O O3 0.284060 0.974460 0.224508
O O4 0.277426 0.882504 0.244732
O O5 0.000000 0.929576 0.500000
O O6 0.000000 0.927197 0.000000
O O7 0.500000 0.227589 0.500000
O O8 0.325928 0.291992 0.732573
O O9 0.000000 0.244841 0.500000
O O10 0.500000 0.519991 0.500000
O O11 0.758290 0.566558 0.205393
O O12 0.000000 0.524920 0.500000
O O13 0.500000 0.118989 0.500000
O O14 0.000000 0.112297 0.500000
O O15 0.000000 0.331084 0.500000
O O16 0.000000 0.325806 0.000000
#
# Coordination Sequence:
#
# PCOD9128550 Si02
#       6
#     2   4   4   4   4   4
#     4  12  26  48  80 110 150 208 266 326 408 464
#     4  11  23  40  70 108 152 199 254 309 384 463
#     4  11  27  49  73 110 152 197 257 324 392 471
#     4   9  20  42  68 104 146 192 245 310 377 456
#     4  10  24  45  73 107 151 195 256 321 390 465
#     4  11  23  45  72 109 154 202 256 319 387 467
#
# _framework density 23.682117000000002
#
# number of rings (size 3 to 8) (size 9 to 14) (size 15 to 20)
#    0.000    1.455    0.909    2.727    1.273    8.727 
#    0.000    0.000    0.000    0.000    0.000    0.000 
#    0.000    0.000    0.000    0.000    0.000    0.000 
#
# Total GULP energy -61396.048332 kJ/mol
# GULP energy per Si atom -5581.458939 kJ/mol
# Density = 2.362822 g / cm^3
# Si number density = 23.682117 Si / 1000 Ang^3
#
#
#
# Elastic Constant Matrix: (Units=GPa)
#
#
# Indices 1 2 3 4 5 6 
#
# 1 124.0442 41.3992 43.1056 0.0000 -8.1794 0.0000
# 2 41.3992 251.5254 67.2787 0.0000 -0.1456 0.0000
# 3 43.1056 67.2787 128.9846 0.0000 -9.6184 0.0000
# 4 0.0000 0.0000 0.0000 108.2146 0.0000 46.3088
# 5 -8.1794 -0.1456 -9.6184 0.0000 45.1399 0.0000
# 6 0.0000 0.0000 0.0000 46.3088 0.0000 35.5433
#
#
#
# Elastic Compliance Matrix: (Units=1/GPa)
#
#
# Indices 1 2 3 4 5 6 
#
# 1 0.009317 -0.000840 -0.002591 0.000000 0.001133 0.000000
# 2 -0.000840 0.004707 -0.002220 0.000000 -0.000610 0.000000
# 3 -0.002591 -0.002220 0.009899 0.000000 0.001633 0.000000
# 4 0.000000 0.000000 0.000000 0.020886 0.000000 -0.027212
# 5 0.001133 -0.000610 0.001633 0.000000 0.022705 0.000000
# 6 0.000000 0.000000 0.000000 -0.027212 0.000000 0.063588
#
#
# Mechanical properties :
#
#
# Convention : Reuss Voigt Hill
#
# Bulk Modulus (GPa) = 79.23422 89.79123 84.51272
# Shear Modulus (GPa) = 34.10376 61.29760 47.70068
#
# Velocity S-wave (km/s) = 3.79893 5.09310 4.49286
# Velocity P-wave (km/s) = 7.26447 8.51961 7.91695
#
# Compressibility (1/GPa) = 0.01262081
#
# Stress axis : x y z
#
# Youngs Moduli (GPa) = 107.32975 212.42702 101.02387
#
# Poissons Ratio (x) = 0.17839 0.26177
# Poissons Ratio (y) = 0.09013 0.22430
# Poissons Ratio (z) = 0.27811 0.47165
#
# Static dielectric constant tensor:
#      x y z
#    x 1.881920 0.000000 -0.006160 
#    y 0.000000 2.129180 0.000000 
#    z -0.006160 0.000000 1.807300 
# 
# From -- ./inp_files/1288.got.cif
#   From: 2010.05.17/outbox.cif.g08.bks.cpg/sg5_1_cif.got.tgz:1288.got - 2010.06.03 18:56:24.
