data_PCOD9128410
_publ_section_title
;
Structure prediction by ZEFSAII (Michael W. Deem and Ramdas Pophale) SiO2 
 PCOD9128410
Probable space group: C 2
;
_chemical_formula_sum "Si O2"
_cell_formula_units_Z 22
_cell_length_a 8.928907
_cell_length_b 6.846066
_cell_length_c 14.386462
_cell_angle_alpha 90.000000
_cell_angle_beta 79.725686
_cell_angle_gamma 90.000000
_cell_volume 865.312700
_symmetry_space_group_name_H-M "C 2"
_symmetry_group_IT_number 5
_symmetry_cell_setting 'monoclinic'
loop_
_space_group_symop_operation_xyz
x,y,z
-x,y,-z
1/2+x,1/2+y,z
1/2-x,1/2+y,-z
loop_
_atom_site_type_symbol
_atom_site_label
_atom_site_fract_x
_atom_site_fract_y
_atom_site_fract_z
Si Si1 0.500000 0.450100 0.000000
Si Si2 0.188819 0.253601 0.104657
Si Si3 0.339985 0.357009 0.259216
Si Si4 0.401684 0.091759 0.780503
Si Si5 0.634120 0.449969 0.541077
Si Si6 0.073365 0.392097 0.590011
O O1 0.355149 0.315552 0.045831
O O2 0.587155 0.598072 0.062211
O O3 0.237670 0.211365 0.207053
O O4 0.094256 0.456829 0.128509
O O5 0.275114 0.566881 0.230666
O O6 0.311537 0.346339 0.371493
O O7 0.514164 0.296916 0.221372
O O8 0.492677 0.983834 0.687253
O O9 0.500000 0.349390 0.500000
O O10 0.757413 0.464879 0.447253
O O11 0.579443 0.657441 0.587146
O O12 0.000000 0.443903 0.500000
#
# Coordination Sequence:
#
# PCOD9128410 Si02
#       6
#     2   4   4   4   4   4
#     4  12  28  48  84 104 152 182 252 300 386 448
#     4  10  29  49  79 113 145 193 239 311 374 448
#     4  10  24  45  68 105 145 189 240 298 363 429
#     4  10  24  43  71  99 149 182 244 296 368 431
#     4  11  25  38  67 101 142 199 248 297 355 426
#     4  11  22  42  63  96 143 190 249 300 353 428
#
# _framework density 25.424337999999999
#
# number of rings (size 3 to 8) (size 9 to 14) (size 15 to 20)
#    1.091    0.364    1.818    1.091   12.727    1.455 
#    0.000    0.000    0.000    0.000    0.000    0.000 
#    0.000    0.000    0.000    0.000    0.000    0.000 
#
# Total GULP energy -61309.793934 kJ/mol
# GULP energy per Si atom -5573.617630 kJ/mol
# Density = 2.536647 g / cm^3
# Si number density = 25.424338 Si / 1000 Ang^3
#
#
#
# Elastic Constant Matrix: (Units=GPa)
#
#
# Indices 1 2 3 4 5 6 
#
# 1 149.8632 60.8572 57.1617 0.0000 0.2720 0.0000
# 2 60.8572 108.3157 54.5963 0.0000 -1.2306 0.0000
# 3 57.1617 54.5963 118.3692 0.0000 6.8133 0.0000
# 4 0.0000 0.0000 0.0000 28.0097 0.0000 -15.0635
# 5 0.2720 -1.2306 6.8133 0.0000 57.5299 0.0000
# 6 0.0000 0.0000 0.0000 -15.0635 0.0000 43.5792
#
#
#
# Elastic Compliance Matrix: (Units=1/GPa)
#
#
# Indices 1 2 3 4 5 6 
#
# 1 0.009266 -0.003834 -0.002717 0.000000 0.000196 0.000000
# 2 -0.003834 0.013664 -0.004499 0.000000 0.000843 0.000000
# 3 -0.002717 -0.004499 0.011922 0.000000 -0.001495 0.000000
# 4 0.000000 0.000000 0.000000 0.043854 0.000000 0.015159
# 5 0.000196 0.000843 -0.001495 0.000000 0.017576 0.000000
# 6 0.000000 0.000000 0.000000 0.015159 0.000000 0.028186
#
#
# Mechanical properties :
#
#
# Convention : Reuss Voigt Hill
#
# Bulk Modulus (GPa) = 78.43245 80.19761 79.31503
# Shear Modulus (GPa) = 33.15209 39.41928 36.28569
#
# Velocity S-wave (km/s) = 3.61494 3.94185 3.78193
# Velocity P-wave (km/s) = 6.95270 7.23393 7.09471
#
# Compressibility (1/GPa) = 0.01274983
#
# Stress axis : x y z
#
# Youngs Moduli (GPa) = 107.92307 73.18555 83.88030
#
# Poissons Ratio (x) = 0.28060 0.22794
# Poissons Ratio (y) = 0.41378 0.37740
# Poissons Ratio (z) = 0.29328 0.32929
#
# Static dielectric constant tensor:
#      x y z
#    x 2.072590 0.000000 0.036520 
#    y 0.000000 2.034280 0.000000 
#    z 0.036520 0.000000 2.004410 
# 
# From -- ./inp_files/49873.got.cif
#   From: 2010.05.17/outbox.cif.g08.bks.cpg/sg5_25_cif.got.tgz:49873.got - 2010.06.03 18:56:24.
