data_PCOD9128213
_publ_section_title
;
Structure prediction by ZEFSAII (Michael W. Deem and Ramdas Pophale) SiO2 
 PCOD9128213
Probable space group: C 2
;
_chemical_formula_sum "Si O2"
_cell_formula_units_Z 18
_cell_length_a 4.968118
_cell_length_b 17.772473
_cell_length_c 11.921553
_cell_angle_alpha 90.000000
_cell_angle_beta 51.711738
_cell_angle_gamma 90.000000
_cell_volume 826.206807
_symmetry_space_group_name_H-M "C 2"
_symmetry_group_IT_number 5
_symmetry_cell_setting 'monoclinic'
loop_
_space_group_symop_operation_xyz
x,y,z
-x,y,-z
1/2+x,1/2+y,z
1/2-x,1/2+y,-z
loop_
_atom_site_type_symbol
_atom_site_label
_atom_site_fract_x
_atom_site_fract_y
_atom_site_fract_z
Si Si1 0.000000 0.522470 0.500000
Si Si2 0.603897 0.010985 0.100741
Si Si3 0.614503 0.737291 0.650498
Si Si4 0.885136 0.411202 0.349386
Si Si5 0.965961 0.639516 0.312224
O O1 0.117582 0.461093 0.374926
O O2 0.136435 0.584000 0.556710
O O3 0.400733 0.948923 0.224327
O O4 0.545841 0.086554 0.186692
O O5 0.500000 0.019247 0.000000
O O6 0.000000 0.989594 0.000000
O O7 0.515029 0.824364 0.686251
O O8 0.696124 0.686029 0.737743
O O9 0.000000 0.739292 0.500000
O O10 0.327956 0.696526 0.650864
O O11 0.500000 0.417763 0.500000
#
# Coordination Sequence:
#
# PCOD9128213 Si02
#       5
#     2   4   4   4   4
#     4  10  24  36  68  98 138 168 232 268 342 380
#     4  11  26  48  69  98 138 184 234 281 340 407
#     4  11  24  41  67 108 143 175 222 288 350 403
#     4  10  26  42  73 105 140 178 230 284 345 411
#     4  11  24  41  67  98 139 184 225 278 340 405
#
# _framework density 21.786311000000001
#
# number of rings (size 3 to 8) (size 9 to 14) (size 15 to 20)
#    0.000    1.333    1.111    2.000   18.667    0.000 
#    0.000    6.667    0.000    0.000    0.000    0.000 
#    0.000    0.000    0.000    0.000    0.000    0.000 
#
# Total GULP energy -50167.455927 kJ/mol
# GULP energy per Si atom -5574.161770 kJ/mol
# Density = 2.173672 g / cm^3
# Si number density = 21.786311 Si / 1000 Ang^3
#
#
#
# Elastic Constant Matrix: (Units=GPa)
#
#
# Indices 1 2 3 4 5 6 
#
# 1 168.4550 75.7181 58.0311 -0.0001 32.3866 0.0000
# 2 75.7181 213.9263 54.8373 0.0000 30.1457 0.0000
# 3 58.0311 54.8373 113.0922 -0.0001 35.9536 0.0000
# 4 -0.0001 0.0000 -0.0001 15.0058 0.0001 -7.1161
# 5 32.3866 30.1457 35.9536 0.0001 49.0517 0.0000
# 6 0.0000 0.0000 0.0000 -7.1161 0.0000 2.8679
#
#
#
# Elastic Compliance Matrix: (Units=1/GPa)
#
#
# Indices 1 2 3 4 5 6 
#
# 1 0.008099 -0.001897 -0.002486 0.000000 -0.002359 0.000000
# 2 -0.001897 0.005908 -0.001480 0.000000 -0.001293 0.000000
# 3 -0.002486 -0.001480 0.013070 0.000000 -0.007029 -0.000001
# 4 0.000000 0.000000 0.000000 -0.377177 0.000000 -0.935879
# 5 -0.002359 -0.001293 -0.007029 0.000000 0.027892 0.000001
# 6 0.000000 0.000000 -0.000001 -0.935879 0.000001 -1.973489
#
#
# Mechanical properties :
#
#
# Convention : Reuss Voigt Hill
#
# Bulk Modulus (GPa) = 65.14139 96.96070 81.05105
# Shear Modulus (GPa) = -2.19408 33.84421 15.82506
#
# Velocity S-wave (km/s) = -1.00463 3.94567 2.69806
# Velocity P-wave (km/s) = 5.34971 8.08454 6.85489
#
# Compressibility (1/GPa) = 0.01535122
#
# Stress axis : x y z
#
# Youngs Moduli (GPa) = 123.47339 169.27582 76.50940
#
# Poissons Ratio (x) = 0.32109 0.19020
# Poissons Ratio (y) = 0.23421 0.11323
# Poissons Ratio (z) = 0.30695 0.25052
#
# Static dielectric constant tensor:
#      x y z
#    x 1.854640 0.000000 -0.010220 
#    y 0.000000 1.809640 0.000000 
#    z -0.010220 0.000000 1.809600 
# 
# From -- ./inp_files/33466.got.cif
#   From: 2010.05.17/outbox.cif.g08.bks.cpg/sg5_17_cif.got.tgz:33466.got - 2010.06.03 18:56:24.
