data_PCOD9128316
_publ_section_title
;
Structure prediction by ZEFSAII (Michael W. Deem and Ramdas Pophale) SiO2 
 PCOD9128316
Probable space group: C 2
;
_chemical_formula_sum "Si O2"
_cell_formula_units_Z 22
_cell_length_a 7.948326
_cell_length_b 20.442416
_cell_length_c 6.655303
_cell_angle_alpha 90.000000
_cell_angle_beta 110.966447
_cell_angle_gamma 90.000000
_cell_volume 1009.775909
_symmetry_space_group_name_H-M "C 2"
_symmetry_group_IT_number 5
_symmetry_cell_setting 'monoclinic'
loop_
_space_group_symop_operation_xyz
x,y,z
-x,y,-z
1/2+x,1/2+y,z
1/2-x,1/2+y,-z
loop_
_atom_site_type_symbol
_atom_site_label
_atom_site_fract_x
_atom_site_fract_y
_atom_site_fract_z
Si Si1 0.000000 0.079060 0.500000
Si Si2 0.162084 0.502438 0.477625
Si Si3 0.320788 0.393526 0.800304
Si Si4 0.500000 0.324171 0.500000
Si Si5 0.000000 0.532526 0.000000
Si Si6 0.816462 0.768947 0.050792
Si Si7 0.174179 0.126392 0.950030
O O1 0.142076 0.034191 0.444938
O O2 0.117612 0.122498 0.695021
O O3 0.181667 0.446419 0.657098
O O4 0.000000 0.545650 0.500000
O O5 0.107196 0.492442 0.219082
O O6 0.395008 0.365520 0.621348
O O7 0.500000 0.417427 0.000000
O O8 0.242961 0.334441 0.906061
O O9 0.365357 0.284134 0.301679
O O10 0.151847 0.579436 0.964105
O O11 0.710872 0.701829 0.008832
O O12 0.000000 0.757147 0.000000
O O13 0.000000 0.103518 0.000000
#
# Coordination Sequence:
#
# PCOD9128316 Si02
#       7
#     2   4   4   2   2   4   4
#     4  10  25  42  64  92 128 169 212 266 314 372
#     4  11  23  42  64  93 126 168 213 262 313 376
#     4   9  20  38  65  90 126 169 209 258 314 377
#     4   8  17  36  62  90 116 173 202 246 324 364
#     4  10  24  42  64  94 130 164 216 266 316 372
#     4   9  19  38  62  91 128 163 207 259 313 383
#     4  11  22  41  64  95 125 168 211 261 322 376
#
# _framework density 21.787013000000002
#
# number of rings (size 3 to 8) (size 9 to 14) (size 15 to 20)
#    0.000    2.545    0.909    1.636    0.000    9.455 
#    6.545    0.000    0.000    0.000    0.000    0.000 
#    0.000    0.000    0.000    0.000    0.000    0.000 
#
# Total GULP energy -61265.313028 kJ/mol
# GULP energy per Si atom -5569.573912 kJ/mol
# Density = 2.173742 g / cm^3
# Si number density = 21.787013 Si / 1000 Ang^3
#
#
#
# Elastic Constant Matrix: (Units=GPa)
#
#
# Indices 1 2 3 4 5 6 
#
# 1 104.8307 31.1083 15.0133 0.0000 -2.8831 0.0000
# 2 31.1083 78.8725 65.4590 0.0000 10.9774 0.0000
# 3 15.0133 65.4590 175.4767 0.0000 14.0970 0.0000
# 4 0.0000 0.0000 0.0000 21.2213 0.0000 1.3140
# 5 -2.8831 10.9774 14.0970 0.0000 29.2081 0.0000
# 6 0.0000 0.0000 0.0000 1.3140 0.0000 48.9269
#
#
#
# Elastic Compliance Matrix: (Units=1/GPa)
#
#
# Indices 1 2 3 4 5 6 
#
# 1 0.011120 -0.005496 0.000879 0.000000 0.002739 0.000000
# 2 -0.005496 0.021482 -0.007128 0.000000 -0.005176 0.000000
# 3 0.000879 -0.007128 0.008385 0.000000 -0.001282 0.000000
# 4 0.000000 0.000000 0.000000 0.047201 0.000000 -0.001268
# 5 0.002739 -0.005176 -0.001282 0.000000 0.037071 0.000000
# 6 0.000000 0.000000 0.000000 -0.001268 0.000000 0.020473
#
#
# Mechanical properties :
#
#
# Convention : Reuss Voigt Hill
#
# Bulk Modulus (GPa) = 57.15171 64.70457 60.92814
# Shear Modulus (GPa) = 28.56244 36.37789 32.47017
#
# Velocity S-wave (km/s) = 3.62468 4.09064 3.86469
# Velocity P-wave (km/s) = 6.61866 7.21625 6.92391
#
# Compressibility (1/GPa) = 0.01749729
#
# Stress axis : x y z
#
# Youngs Moduli (GPa) = 89.93050 46.54971 119.25548
#
# Poissons Ratio (x) = 0.25586 -0.10482
# Poissons Ratio (y) = 0.49430 0.85000
# Poissons Ratio (z) = -0.07904 0.33179
#
# Static dielectric constant tensor:
#      x y z
#    x 1.870070 0.000000 0.034440 
#    y 0.000000 1.857920 0.000000 
#    z 0.034440 0.000000 1.816850 
# 
# From -- ./inp_files/3266.got.cif
#   From: 2010.05.17/outbox.cif.g08.bks.cpg/sg5_2_cif.got.tgz:3266.got - 2010.06.03 18:56:24.
