data_PCOD9128872
_publ_section_title
;
Structure prediction by ZEFSAII (Michael W. Deem and Ramdas Pophale) SiO2 
 PCOD9128872
Probable space group: C 2
;
_chemical_formula_sum "Si O2"
_cell_formula_units_Z 28
_cell_length_a 11.686119
_cell_length_b 21.480278
_cell_length_c 5.358984
_cell_angle_alpha 90.000000
_cell_angle_beta 71.848852
_cell_angle_gamma 90.000000
_cell_volume 1278.277256
_symmetry_space_group_name_H-M "C 2"
_symmetry_group_IT_number 5
_symmetry_cell_setting 'monoclinic'
loop_
_space_group_symop_operation_xyz
x,y,z
-x,y,-z
1/2+x,1/2+y,z
1/2-x,1/2+y,-z
loop_
_atom_site_type_symbol
_atom_site_label
_atom_site_fract_x
_atom_site_fract_y
_atom_site_fract_z
Si Si1 0.618944 0.500000 0.953497
Si Si2 0.608987 0.622776 0.623218
Si Si3 0.639108 0.800373 0.364119
Si Si4 0.000000 0.686597 0.500000
Si Si5 0.138849 0.448653 0.428744
Si Si6 0.772978 0.542069 0.231763
Si Si7 0.000000 0.608806 0.000000
Si Si8 0.266069 0.737179 0.213378
O O1 0.597123 0.559159 0.790281
O O2 0.749985 0.472610 0.812211
O O3 0.500000 0.459086 0.000000
O O4 0.643647 0.523168 0.212044
O O5 0.500000 0.635638 0.500000
O O6 0.731877 0.605704 0.396120
O O7 0.646411 0.677590 0.789900
O O8 0.500000 0.780912 0.500000
O O9 0.639603 0.875244 0.374489
O O10 0.709186 0.779531 0.562575
O O11 0.693588 0.770115 0.073893
O O12 0.027165 0.647486 0.732401
O O13 0.123998 0.721061 0.330514
O O14 0.178980 0.481465 0.658317
O O15 0.000000 0.468928 0.500000
O O16 0.886232 0.566306 0.999290
#
# Coordination Sequence:
#
# PCOD9128872 Si02
#       8
#     4   4   4   2   4   4   2   4
#     4  11  23  40  69 105 144 185 238 299 374 450
#     4  11  23  41  68 104 146 189 235 300 370 446
#     4  11  27  50  74 103 139 190 258 316 358 436
#     4  12  26  46  70 102 156 186 236 304 366 462
#     4  10  25  46  69 101 139 193 250 310 366 438
#     4  11  23  40  71 104 144 193 236 296 380 446
#     4  12  24  42  70 112 148 190 240 294 372 464
#     4  12  26  47  73 105 143 197 245 302 381 438
#
# _framework density 21.904478999999998
#
# number of rings (size 3 to 8) (size 9 to 14) (size 15 to 20)
#    0.000    0.857    2.857    3.429    7.000    1.143 
#    2.571    0.000    0.000    0.000    0.000    0.000 
#    0.000    0.000    0.000    0.000    0.000    0.000 
#
# Total GULP energy -77938.908787 kJ/mol
# GULP energy per Si atom -5567.064913 kJ/mol
# Density = 2.185462 g / cm^3
# Si number density = 21.904479 Si / 1000 Ang^3
#
#
#
# Elastic Constant Matrix: (Units=GPa)
#
#
# Indices 1 2 3 4 5 6 
#
# 1 202.3826 58.3048 67.7204 0.0000 -10.1663 0.0000
# 2 58.3048 84.2583 47.7256 0.0000 -5.7777 0.0000
# 3 67.7204 47.7256 128.9831 0.0000 -4.1094 0.0000
# 4 0.0000 0.0000 0.0000 347.4823 0.0000 54.1697
# 5 -10.1663 -5.7777 -4.1094 0.0000 41.1831 0.0000
# 6 0.0000 0.0000 0.0000 54.1697 0.0000 33.9720
#
#
#
# Elastic Compliance Matrix: (Units=1/GPa)
#
#
# Indices 1 2 3 4 5 6 
#
# 1 0.006694 -0.003280 -0.002270 0.000000 0.000966 0.000000
# 2 -0.003280 0.016723 -0.004431 0.000000 0.001094 0.000000
# 3 -0.002270 -0.004431 0.010580 0.000000 -0.000126 0.000000
# 4 0.000000 0.000000 0.000000 0.003830 0.000000 -0.006107
# 5 0.000966 0.001094 -0.000126 0.000000 0.024661 0.000000
# 6 0.000000 0.000000 0.000000 -0.006107 0.000000 0.039174
#
#
# Mechanical properties :
#
#
# Convention : Reuss Voigt Hill
#
# Bulk Modulus (GPa) = 71.24909 84.79173 78.02041
# Shear Modulus (GPa) = 39.58755 100.65235 70.11995
#
# Velocity S-wave (km/s) = 4.25582 6.78604 5.66403
# Velocity P-wave (km/s) = 7.53307 10.00971 8.85837
#
# Compressibility (1/GPa) = 0.01403527
#
# Stress axis : x y z
#
# Youngs Moduli (GPa) = 149.38074 59.79911 94.51560
#
# Poissons Ratio (x) = 0.19615 0.21457
# Poissons Ratio (y) = 0.48999 0.41876
# Poissons Ratio (z) = 0.33913 0.26494
#
# Static dielectric constant tensor:
#      x y z
#    x 1.854170 0.000000 0.029710 
#    y 0.000000 1.856060 0.000000 
#    z 0.029710 0.000000 1.768520 
# 
# From -- ./inp_files/5641.got.cif
#   From: 2010.05.17/outbox.cif.g08.bks.cpg/sg5_3_cif.got.tgz:5641.got - 2010.06.03 18:56:24.
