data_PCOD9128101
_publ_section_title
;
Structure prediction by ZEFSAII (Michael W. Deem and Ramdas Pophale) SiO2 
 PCOD9128101
Probable space group: C 2
;
_chemical_formula_sum "Si O2"
_cell_formula_units_Z 20
_cell_length_a 7.611195
_cell_length_b 12.669517
_cell_length_c 10.389571
_cell_angle_alpha 90.000000
_cell_angle_beta 52.548219
_cell_angle_gamma 90.000000
_cell_volume 795.348353
_symmetry_space_group_name_H-M "C 2"
_symmetry_group_IT_number 5
_symmetry_cell_setting 'monoclinic'
loop_
_space_group_symop_operation_xyz
x,y,z
-x,y,-z
1/2+x,1/2+y,z
1/2-x,1/2+y,-z
loop_
_atom_site_type_symbol
_atom_site_label
_atom_site_fract_x
_atom_site_fract_y
_atom_site_fract_z
Si Si1 0.732966 0.878300 0.114146
Si Si2 0.801230 0.199371 0.689612
Si Si3 0.278806 0.489260 0.821035
Si Si4 0.665748 0.569212 0.807490
Si Si5 0.073755 0.775297 0.327246
O O1 0.630945 0.770935 0.216602
O O2 0.670197 0.971630 0.241444
O O3 0.691471 0.930454 0.991483
O O4 0.000000 0.854634 0.000000
O O5 0.625456 0.268515 0.685850
O O6 0.000000 0.176665 0.500000
O O7 0.680729 0.092942 0.796285
O O8 0.518589 0.540075 0.750924
O O9 0.318993 0.390081 0.712624
O O10 0.760443 0.683529 0.783407
O O11 0.500000 0.558459 0.000000
O O12 0.000000 0.742054 0.500000
#
# Coordination Sequence:
#
# PCOD9128101 Si02
#       5
#     4   4   4   4   4
#     4   9  20  43  74  96 138 183 227 292 348 414
#     4  12  25  46  75 105 145 190 235 292 359 421
#     4  10  23  46  72 101 140 183 242 286 346 432
#     4   9  21  45  69  97 139 177 229 293 343 411
#     4  12  25  45  69 101 145 188 230 295 353 418
#
# _framework density 25.146214000000001
#
# number of rings (size 3 to 8) (size 9 to 14) (size 15 to 20)
#    0.000    2.000    4.000    1.800    5.600    0.800 
#   10.800    1.000    0.000    0.000    0.000    0.000 
#    0.000    0.000    0.000    0.000    0.000    0.000 
#
# Total GULP energy -55813.172586 kJ/mol
# GULP energy per Si atom -5581.317259 kJ/mol
# Density = 2.508898 g / cm^3
# Si number density = 25.146214 Si / 1000 Ang^3
#
#
#
# Elastic Constant Matrix: (Units=GPa)
#
#
# Indices 1 2 3 4 5 6 
#
# 1 68.9852 13.4477 6.1225 0.0000 15.2152 0.0000
# 2 13.4477 163.8832 20.6589 0.0000 -7.9349 0.0000
# 3 6.1225 20.6589 81.8872 0.0000 7.8178 0.0000
# 4 0.0000 0.0000 0.0000 55.2034 0.0000 -10.8330
# 5 15.2152 -7.9349 7.8178 0.0000 18.1151 0.0000
# 6 0.0000 0.0000 0.0000 -10.8330 0.0000 44.3827
#
#
#
# Elastic Compliance Matrix: (Units=1/GPa)
#
#
# Indices 1 2 3 4 5 6 
#
# 1 0.018683 -0.002472 0.000864 0.000000 -0.017148 0.000000
# 2 -0.002472 0.006862 -0.002119 0.000000 0.005997 0.000000
# 3 0.000864 -0.002119 0.013392 0.000000 -0.007433 0.000000
# 4 0.000000 0.000000 0.000000 0.019026 0.000000 0.004644
# 5 -0.017148 0.005997 -0.007433 0.000000 0.075440 0.000000
# 6 0.000000 0.000000 0.000000 0.004644 0.000000 0.023665
#
#
# Mechanical properties :
#
#
# Convention : Reuss Voigt Hill
#
# Bulk Modulus (GPa) = 31.76359 43.91265 37.83812
# Shear Modulus (GPa) = 28.56867 41.84200 35.20534
#
# Velocity S-wave (km/s) = 3.37427 4.08358 3.74575
# Velocity P-wave (km/s) = 5.27635 6.30357 5.81270
#
# Compressibility (1/GPa) = 0.03148259
#
# Stress axis : x y z
#
# Youngs Moduli (GPa) = 53.52383 145.72527 74.67409
#
# Poissons Ratio (x) = 0.36027 -0.06451
# Poissons Ratio (y) = 0.13233 0.15823
# Poissons Ratio (z) = -0.04624 0.30878
#
# Static dielectric constant tensor:
#      x y z
#    x 2.180950 0.000000 -0.033050 
#    y 0.000000 1.949970 0.000000 
#    z -0.033050 0.000000 1.969290 
# 
# From -- ./inp_files/35125.got.cif
#   From: 2010.05.17/outbox.cif.g08.bks.cpg/sg5_18_cif.got.tgz:35125.got - 2010.06.03 18:56:24.
