data_PCOD9128675
_publ_section_title
;
Structure prediction by ZEFSAII (Michael W. Deem and Ramdas Pophale) SiO2 
 PCOD9128675
Probable space group: C 2
;
_chemical_formula_sum "Si O2"
_cell_formula_units_Z 20
_cell_length_a 21.253405
_cell_length_b 7.110911
_cell_length_c 5.749936
_cell_angle_alpha 90.000000
_cell_angle_beta 70.947271
_cell_angle_gamma 90.000000
_cell_volume 821.389243
_symmetry_space_group_name_H-M "C 2"
_symmetry_group_IT_number 5
_symmetry_cell_setting 'monoclinic'
loop_
_space_group_symop_operation_xyz
x,y,z
-x,y,-z
1/2+x,1/2+y,z
1/2-x,1/2+y,-z
loop_
_atom_site_type_symbol
_atom_site_label
_atom_site_fract_x
_atom_site_fract_y
_atom_site_fract_z
Si Si1 0.032778 0.687270 0.207567
Si Si2 0.659869 0.668818 0.570817
Si Si3 0.985075 0.264105 0.264815
Si Si4 0.665404 0.323924 0.235172
Si Si5 0.744086 0.974091 0.230563
O O1 0.106906 0.769887 0.128743
O O2 0.000000 0.738339 0.500000
O O3 0.026787 0.458648 0.214335
O O4 0.000000 0.742176 0.000000
O O5 0.594097 0.793566 0.657003
O O6 0.643248 0.490227 0.429337
O O7 0.688583 0.574833 0.766435
O O8 0.720329 0.794209 0.402227
O O9 0.000000 0.175998 0.500000
O O10 0.000000 0.164546 0.000000
O O11 0.685475 0.124513 0.318869
O O12 0.735120 0.397701 0.044564
#
# Coordination Sequence:
#
# PCOD9128675 Si02
#       5
#     4   4   4   4   4
#     4  10  24  47  75 106 149 203 254 318 386 454
#     4  12  27  47  77 110 154 204 262 321 393 470
#     4  10  24  47  75 106 149 203 254 318 386 454
#     4  12  27  47  77 110 154 204 262 321 393 470
#     4  12  26  48  76 112 154 202 256 328 396 464
#
# _framework density 24.348994999999999
#
# number of rings (size 3 to 8) (size 9 to 14) (size 15 to 20)
#    0.000    0.800    4.000    2.400    5.600    7.200 
#    0.000    0.000    0.000    0.000    0.000    0.000 
#    0.000    0.000    0.000    0.000    0.000    0.000 
#
# Total GULP energy -55827.675860 kJ/mol
# GULP energy per Si atom -5582.767586 kJ/mol
# Density = 2.429358 g / cm^3
# Si number density = 24.348995 Si / 1000 Ang^3
#
#
#
# Elastic Constant Matrix: (Units=GPa)
#
#
# Indices 1 2 3 4 5 6 
#
# 1 110.0802 17.1704 14.3407 0.0000 25.0729 0.0000
# 2 17.1704 127.3404 13.4734 0.0000 10.1213 0.0000
# 3 14.3407 13.4734 111.1320 0.0000 22.1369 0.0000
# 4 0.0000 0.0000 0.0000 14.2615 0.0000 0.0528
# 5 25.0729 10.1213 22.1369 0.0000 41.4840 0.0000
# 6 0.0000 0.0000 0.0000 0.0528 0.0000 24.1650
#
#
#
# Elastic Compliance Matrix: (Units=1/GPa)
#
#
# Indices 1 2 3 4 5 6 
#
# 1 0.010644 -0.000940 -0.000027 0.000000 -0.006190 0.000000
# 2 -0.000940 0.008134 -0.000652 0.000000 -0.001068 0.000000
# 3 -0.000027 -0.000652 0.010122 0.000000 -0.005226 0.000000
# 4 0.000000 0.000000 0.000000 0.070120 0.000000 -0.000153
# 5 -0.006190 -0.001068 -0.005226 0.000000 0.030896 0.000000
# 6 0.000000 0.000000 0.000000 -0.000153 0.000000 0.041382
#
#
# Mechanical properties :
#
#
# Convention : Reuss Voigt Hill
#
# Bulk Modulus (GPa) = 38.96863 48.72464 43.84663
# Shear Modulus (GPa) = 27.30899 36.21997 31.76448
#
# Velocity S-wave (km/s) = 3.35261 3.86104 3.61577
# Velocity P-wave (km/s) = 5.57006 6.31912 5.95638
#
# Compressibility (1/GPa) = 0.02566167
#
# Stress axis : x y z
#
# Youngs Moduli (GPa) = 93.94712 122.94585 98.79677
#
# Poissons Ratio (x) = 0.11563 0.00263
# Poissons Ratio (y) = 0.08835 0.06441
# Poissons Ratio (z) = 0.00250 0.08016
#
# Static dielectric constant tensor:
#      x y z
#    x 1.902640 0.000000 0.008280 
#    y 0.000000 1.895640 0.000000 
#    z 0.008280 0.000000 1.974710 
# 
# From -- ./inp_files/9216.got.cif
#   From: 2010.05.17/outbox.cif.g08.bks.cpg/sg5_5_cif.got.tgz:9216.got - 2010.06.03 18:56:24.
