data_PCOD9128275
_publ_section_title
;
Structure prediction by ZEFSAII (Michael W. Deem and Ramdas Pophale) SiO2 
 PCOD9128275
Probable space group: C 2
;
_chemical_formula_sum "Si O2"
_cell_formula_units_Z 20
_cell_length_a 23.881328
_cell_length_b 9.030213
_cell_length_c 9.612962
_cell_angle_alpha 90.000000
_cell_angle_beta 25.755213
_cell_angle_gamma 90.000000
_cell_volume 900.804745
_symmetry_space_group_name_H-M "C 2"
_symmetry_group_IT_number 5
_symmetry_cell_setting 'monoclinic'
loop_
_space_group_symop_operation_xyz
x,y,z
-x,y,-z
1/2+x,1/2+y,z
1/2-x,1/2+y,-z
loop_
_atom_site_type_symbol
_atom_site_label
_atom_site_fract_x
_atom_site_fract_y
_atom_site_fract_z
Si Si1 0.885611 0.013430 0.648863
Si Si2 0.616278 0.870604 0.343196
Si Si3 0.119630 0.405018 0.651534
Si Si4 0.881396 0.910638 0.346728
Si Si5 0.748585 0.175588 0.498582
O O1 0.874391 0.191862 0.672593
O O2 0.000000 0.974645 0.500000
O O3 0.912594 0.955282 0.433053
O O4 0.750727 0.941758 0.995928
O O5 0.500000 0.910282 0.500000
O O6 0.589203 0.926124 0.559662
O O7 0.242548 0.294471 0.394650
O O8 0.146215 0.556192 0.673517
O O9 0.000000 0.333167 0.000000
O O10 0.759529 0.797031 0.608554
O O11 0.851941 0.056299 0.321422
O O12 0.000000 0.836730 0.000000
#
# Coordination Sequence:
#
# PCOD9128275 Si02
#       5
#     4   4   4   4   4
#     4  11  28  47  70 101 142 184 227 280 347 410
#     4  11  28  47  70 101 142 184 227 280 347 410
#     4  11  24  43  71 100 132 177 229 282 335 403
#     4  11  24  43  71 100 132 177 229 282 335 403
#     4  10  24  40  70 100 136 168 232 278 346 386
#
# _framework density 22.202369000000001
#
# number of rings (size 3 to 8) (size 9 to 14) (size 15 to 20)
#    0.000    1.200    2.000    1.200   14.000    0.800 
#    0.000    0.000    0.000    0.000    0.000    0.000 
#    0.000    0.000    0.000    0.000    0.000    0.000 
#
# Total GULP energy -55684.698113 kJ/mol
# GULP energy per Si atom -5568.469811 kJ/mol
# Density = 2.215184 g / cm^3
# Si number density = 22.202369 Si / 1000 Ang^3
#
#
#
# Elastic Constant Matrix: (Units=GPa)
#
#
# Indices 1 2 3 4 5 6 
#
# 1 213.5230 45.2333 79.7252 0.0000 -12.8118 0.0000
# 2 45.2333 104.6583 21.2904 0.0000 -22.3077 0.0000
# 3 79.7252 21.2904 112.7461 0.0000 7.8974 0.0000
# 4 0.0000 0.0000 0.0000 25.1158 0.0000 -9.3125
# 5 -12.8118 -22.3077 7.8974 0.0000 25.6613 0.0000
# 6 0.0000 0.0000 0.0000 -9.3125 0.0000 16.3395
#
#
#
# Elastic Compliance Matrix: (Units=1/GPa)
#
#
# Indices 1 2 3 4 5 6 
#
# 1 0.007063 -0.001153 -0.005062 0.000000 0.004082 0.000000
# 2 -0.001153 0.012996 -0.002443 0.000000 0.011474 0.000000
# 3 -0.005062 -0.002443 0.013528 0.000000 -0.008814 0.000000
# 4 0.000000 0.000000 0.000000 0.050484 0.000000 0.028773
# 5 0.004082 0.011474 -0.008814 0.000000 0.053694 0.000000
# 6 0.000000 0.000000 0.000000 0.028773 0.000000 0.077600
#
#
# Mechanical properties :
#
#
# Convention : Reuss Voigt Hill
#
# Bulk Modulus (GPa) = 61.46012 80.38058 70.92035
# Shear Modulus (GPa) = 20.99930 32.40188 26.70059
#
# Velocity S-wave (km/s) = 3.07874 3.82434 3.47162
# Velocity P-wave (km/s) = 6.35453 7.46880 6.93408
#
# Compressibility (1/GPa) = 0.01627071
#
# Stress axis : x y z
#
# Youngs Moduli (GPa) = 141.58981 76.94969 73.92101
#
# Poissons Ratio (x) = 0.08869 0.37422
# Poissons Ratio (y) = 0.16318 0.18057
# Poissons Ratio (z) = 0.71679 0.18797
#
# Static dielectric constant tensor:
#      x y z
#    x 1.830280 0.000000 -0.048380 
#    y 0.000000 1.836190 0.000000 
#    z -0.048380 0.000000 1.815090 
# 
# From -- ./inp_files/18270.got.cif
#   From: 2010.05.17/outbox.cif.g08.bks.cpg/sg5_10_cif.got.tgz:18270.got - 2010.06.03 18:56:24.
