data_PCOD9128829
_publ_section_title
;
Structure prediction by ZEFSAII (Michael W. Deem and Ramdas Pophale) SiO2 
 PCOD9128829
Probable space group: C 2
;
_chemical_formula_sum "Si O2"
_cell_formula_units_Z 18
_cell_length_a 20.625164
_cell_length_b 7.355693
_cell_length_c 15.141416
_cell_angle_alpha 90.000000
_cell_angle_beta 159.005542
_cell_angle_gamma 90.000000
_cell_volume 823.013975
_symmetry_space_group_name_H-M "C 2"
_symmetry_group_IT_number 5
_symmetry_cell_setting 'monoclinic'
loop_
_space_group_symop_operation_xyz
x,y,z
-x,y,-z
1/2+x,1/2+y,z
1/2-x,1/2+y,-z
loop_
_atom_site_type_symbol
_atom_site_label
_atom_site_fract_x
_atom_site_fract_y
_atom_site_fract_z
Si Si1 0.000000 0.917440 0.000000
Si Si2 0.207371 0.865735 0.749117
Si Si3 0.869397 0.488792 0.257159
Si Si4 0.086505 0.714411 0.937034
Si Si5 0.818516 0.669408 0.458936
O O1 0.092834 0.799006 0.042572
O O2 0.853784 0.041534 0.764702
O O3 0.221250 0.668610 0.814342
O O4 0.223928 0.828261 0.665547
O O5 0.000000 0.926546 0.500000
O O6 0.342333 0.010520 0.961073
O O7 0.000000 0.411548 0.500000
O O8 0.006000 0.560736 0.356665
O O9 0.720595 0.338108 0.047642
O O10 0.887482 0.727321 0.642087
#
# Coordination Sequence:
#
# PCOD9128829 Si02
#       5
#     2   4   4   4   4
#     4  12  26  46  60 100 150 172 216 270 322 418
#     4   9  21  42  66 100 131 162 221 285 320 380
#     4   9  19  45  67  98 134 160 227 295 308 377
#     4  12  24  43  72  96 131 187 216 266 346 389
#     4  10  25  44  67  99 136 176 220 279 323 393
#
# _framework density 21.870833000000001
#
# number of rings (size 3 to 8) (size 9 to 14) (size 15 to 20)
#    0.000    2.222    4.444    0.667    6.222    4.444 
#    4.000    0.000    0.000    0.000    0.000    0.000 
#    0.000    0.000    0.000    0.000    0.000    0.000 
#
# Total GULP energy -50270.106058 kJ/mol
# GULP energy per Si atom -5585.567340 kJ/mol
# Density = 2.182105 g / cm^3
# Si number density = 21.870833 Si / 1000 Ang^3
#
#
#
# Elastic Constant Matrix: (Units=GPa)
#
#
# Indices 1 2 3 4 5 6 
#
# 1 23.2960 0.4988 0.8051 0.0000 -2.2538 0.0000
# 2 0.4988 83.6753 57.0911 0.0000 -1.0652 0.0000
# 3 0.8051 57.0911 101.7769 0.0000 -16.1374 0.0000
# 4 0.0000 0.0000 0.0000 26.8414 0.0000 -7.6705
# 5 -2.2538 -1.0652 -16.1374 0.0000 22.8075 0.0000
# 6 0.0000 0.0000 0.0000 -7.6705 0.0000 2.1856
#
#
#
# Elastic Compliance Matrix: (Units=1/GPa)
#
#
# Indices 1 2 3 4 5 6 
#
# 1 0.043384 -0.000792 0.000873 -0.000004 0.004868 -0.000013
# 2 -0.000792 0.020633 -0.012871 -0.000003 -0.008222 -0.000009
# 3 0.000873 -0.012871 0.019100 0.000002 0.012999 0.000006
# 4 -0.000004 -0.000003 0.000002-12.699919 0.000001-44.571147
# 5 0.004868 -0.008222 0.012999 0.000001 0.053140 0.000005
# 6 -0.000013 -0.000009 0.000006-44.571147 0.000005**********
#
#
# Mechanical properties :
#
#
# Convention : Reuss Voigt Hill
#
# Bulk Modulus (GPa) = 17.38068 36.17091 26.77580
# Shear Modulus (GPa) = -0.02968 20.39043 10.18038
#
# Velocity S-wave (km/s) = -0.11661 3.05669 2.15983
# Velocity P-wave (km/s) = 2.81888 5.38815 4.29990
#
# Compressibility (1/GPa) = 0.05753515
#
# Stress axis : x y z
#
# Youngs Moduli (GPa) = 23.05020 48.46596 52.35688
#
# Poissons Ratio (x) = 0.03840 -0.04572
# Poissons Ratio (y) = 0.01827 0.67390
# Poissons Ratio (z) = -0.02013 0.62382
#
# Static dielectric constant tensor:
#      x y z
#    x 1.884270 0.000000 -0.021960 
#    y 0.000000 1.779370 0.000000 
#    z -0.021960 0.000000 1.790260 
# 
# From -- ./inp_files/18008.got.cif
#   From: 2010.05.17/outbox.cif.g08.bks.cpg/sg5_10_cif.got.tgz:18008.got - 2010.06.03 18:56:24.
