data_PCOD9128163
_publ_section_title
;
Structure prediction by ZEFSAII (Michael W. Deem and Ramdas Pophale) SiO2 
 PCOD9128163
Probable space group: C 2
;
_chemical_formula_sum "Si O2"
_cell_formula_units_Z 14
_cell_length_a 7.846398
_cell_length_b 12.454144
_cell_length_c 8.542865
_cell_angle_alpha 90.000000
_cell_angle_beta 49.155472
_cell_angle_gamma 90.000000
_cell_volume 631.523095
_symmetry_space_group_name_H-M "C 2"
_symmetry_group_IT_number 5
_symmetry_cell_setting 'monoclinic'
loop_
_space_group_symop_operation_xyz
x,y,z
-x,y,-z
1/2+x,1/2+y,z
1/2-x,1/2+y,-z
loop_
_atom_site_type_symbol
_atom_site_label
_atom_site_fract_x
_atom_site_fract_y
_atom_site_fract_z
Si Si1 0.665874 0.455950 0.254811
Si Si2 0.930532 0.166150 0.361571
Si Si3 0.500000 0.043846 0.500000
Si Si4 0.599750 0.895029 0.163612
O O1 0.500000 0.428105 0.500000
O O2 0.590781 0.567085 0.221380
O O3 0.903516 0.463826 0.198637
O O4 0.699866 0.381306 0.082657
O O5 0.681619 0.121043 0.475535
O O6 0.000000 0.181657 0.500000
O O7 0.987668 0.278862 0.250998
O O8 0.633344 0.961878 0.302928
#
# Coordination Sequence:
#
# PCOD9128163 Si02
#       4
#     4   4   2   4
#     4  10  23  48  69 103 148 176 238 296 333 433
#     4  11  24  46  73 105 145 183 236 291 352 423
#     4  12  24  42  78 110 136 188 240 288 356 422
#     4  11  24  44  75 106 141 188 233 291 361 409
#
# _framework density 22.168627000000001
#
# number of rings (size 3 to 8) (size 9 to 14) (size 15 to 20)
#    0.000    1.143    7.143    0.000    2.000    5.714 
#    0.000    5.714    0.000    0.000    0.000    0.000 
#    0.000    0.000    0.000    0.000    0.000    0.000 
#
# Total GULP energy -38974.428608 kJ/mol
# GULP energy per Si atom -5567.775515 kJ/mol
# Density = 2.211817 g / cm^3
# Si number density = 22.168627 Si / 1000 Ang^3
#
#
#
# Elastic Constant Matrix: (Units=GPa)
#
#
# Indices 1 2 3 4 5 6 
#
# 1 88.1404 49.2824 17.9408 -0.0001 -0.8401 0.0001
# 2 49.2824 128.4525 55.7533 0.0000 -3.9869 0.0001
# 3 17.9408 55.7533 154.2215 0.0000 21.0781 0.0003
# 4 -0.0001 0.0000 0.0000 23.9618 0.0000 -14.3982
# 5 -0.8401 -3.9869 21.0781 0.0000 21.8937 -0.0002
# 6 0.0001 0.0001 0.0003 -14.3982 -0.0002 1.4192
#
#
#
# Elastic Compliance Matrix: (Units=1/GPa)
#
#
# Indices 1 2 3 4 5 6 
#
# 1 0.014483 -0.005836 0.000569 0.000000 -0.001055 0.000000
# 2 -0.005836 0.012232 -0.004626 0.000000 0.006457 0.000000
# 3 0.000569 -0.004626 0.009445 0.000000 -0.009914 0.000001
# 4 0.000000 0.000000 0.000000 -0.008189 -0.000001 -0.083082
# 5 -0.001055 0.006457 -0.009914 -0.000001 0.056355 -0.000002
# 6 0.000000 0.000000 0.000001 -0.083082 -0.000002 -0.138266
#
#
# Mechanical properties :
#
#
# Convention : Reuss Voigt Hill
#
# Bulk Modulus (GPa) = 61.06913 68.52971 64.79942
# Shear Modulus (GPa) = -174.24429 25.97745 -74.13342
#
# Velocity S-wave (km/s) = -8.87525 3.42689 -5.78907
# Velocity P-wave (km/s) = 8.79883 6.82921 3.92310
#
# Compressibility (1/GPa) = 0.01637488
#
# Stress axis : x y z
#
# Youngs Moduli (GPa) = 69.04670 81.75035 105.87409
#
# Poissons Ratio (x) = 0.47713 -0.06028
# Poissons Ratio (y) = 0.40299 0.48974
# Poissons Ratio (z) = -0.03931 0.37815
#
# Static dielectric constant tensor:
#      x y z
#    x 1.845370 0.000000 0.021950 
#    y 0.000000 1.849430 0.000000 
#    z 0.021950 0.000000 1.973290 
# 
# From -- ./inp_files/14137.got.cif
#   From: 2010.05.17/outbox.cif.g08.bks.cpg/sg5_8_cif.got.tgz:14137.got - 2010.06.03 18:56:24.
