data_PCOD9128852
_publ_section_title
;
Structure prediction by ZEFSAII (Michael W. Deem and Ramdas Pophale) SiO2 
 PCOD9128852
Probable space group: C 2
;
_chemical_formula_sum "Si O2"
_cell_formula_units_Z 30
_cell_length_a 13.369555
_cell_length_b 4.897086
_cell_length_c 18.093482
_cell_angle_alpha 90.000000
_cell_angle_beta 110.023050
_cell_angle_gamma 90.000000
_cell_volume 1113.009884
_symmetry_space_group_name_H-M "C 2"
_symmetry_group_IT_number 5
_symmetry_cell_setting 'monoclinic'
loop_
_space_group_symop_operation_xyz
x,y,z
-x,y,-z
1/2+x,1/2+y,z
1/2-x,1/2+y,-z
loop_
_atom_site_type_symbol
_atom_site_label
_atom_site_fract_x
_atom_site_fract_y
_atom_site_fract_z
Si Si1 0.713653 0.453160 0.267306
Si Si2 0.126576 0.598388 0.807627
Si Si3 0.322001 0.984286 0.023307
Si Si4 0.000000 0.856755 0.000000
Si Si5 0.475003 0.487595 0.833643
Si Si6 0.471330 0.717190 0.680917
Si Si7 0.848679 0.953098 0.362082
Si Si8 0.178960 0.145391 0.487548
O O1 0.760904 0.584197 0.202247
O O2 0.614759 0.259696 0.195041
O O3 0.787335 0.669843 0.339494
O O4 0.768423 0.181817 0.313391
O O5 0.122234 0.433730 0.883515
O O6 0.083337 0.889279 0.823925
O O7 0.044338 0.453246 0.731463
O O8 0.228232 0.204172 0.016777
O O9 0.401810 0.153149 0.992130
O O10 0.986852 0.038728 0.922736
O O11 0.410152 0.617925 0.742176
O O12 0.547003 0.488615 0.663050
O O13 0.392479 0.780430 0.594678
O O14 0.877266 0.037556 0.452825
O O15 0.234371 0.873342 0.470427
#
# Coordination Sequence:
#
# PCOD9128852 Si02
#       8
#     4   4   4   2   4   4   4   4
#     4  11  24  43  72 101 143 186 241 297 365 436
#     4  10  25  45  68 107 142 194 250 298 381 442
#     4  11  26  48  75 106 152 196 251 321 377 447
#     4  10  26  48  72 114 146 202 262 308 384 452
#     4  11  23  45  70 103 145 195 242 314 364 443
#     4  11  25  45  75  99 152 194 242 313 369 443
#     4  11  24  46  69 107 139 189 241 295 364 443
#     4  12  27  45  71 109 144 188 247 300 367 448
#
# _framework density 26.953935999999999
#
# number of rings (size 3 to 8) (size 9 to 14) (size 15 to 20)
#    0.000    1.067    1.333    3.600    9.333    1.600 
#    4.800    2.667    0.000    0.000    0.000    0.000 
#    0.000    0.000    0.000    0.000    0.000    0.000 
#
# Total GULP energy -83625.889505 kJ/mol
# GULP energy per Si atom -5575.059300 kJ/mol
# Density = 2.689259 g / cm^3
# Si number density = 26.953936 Si / 1000 Ang^3
#
#
#
# Elastic Constant Matrix: (Units=GPa)
#
#
# Indices 1 2 3 4 5 6 
#
# 1 112.8838 17.0856 25.9042 0.0000 -32.3385 0.0000
# 2 17.0856 103.9903 21.9503 0.0000 -5.3698 0.0000
# 3 25.9042 21.9503 172.1792 0.0000 -36.7525 0.0000
# 4 0.0000 0.0000 0.0000 38.2486 0.0000 -8.7029
# 5 -32.3385 -5.3698 -36.7525 0.0000 54.1691 0.0000
# 6 0.0000 0.0000 0.0000 -8.7029 0.0000 28.7133
#
#
#
# Elastic Compliance Matrix: (Units=1/GPa)
#
#
# Indices 1 2 3 4 5 6 
#
# 1 0.010905 -0.001443 -0.000114 0.000000 0.006290 0.000000
# 2 -0.001443 0.010074 -0.001214 0.000000 -0.000686 0.000000
# 3 -0.000114 -0.001214 0.006945 0.000000 0.004524 0.000000
# 4 0.000000 0.000000 0.000000 0.028081 0.000000 0.008511
# 5 0.006290 -0.000686 0.004524 0.000000 0.025217 0.000000
# 6 0.000000 0.000000 0.000000 0.008511 0.000000 0.037407
#
#
# Mechanical properties :
#
#
# Convention : Reuss Voigt Hill
#
# Bulk Modulus (GPa) = 44.67608 57.65928 51.16768
# Shear Modulus (GPa) = 37.98461 45.83375 41.90918
#
# Velocity S-wave (km/s) = 3.75806 4.12812 3.94743
# Velocity P-wave (km/s) = 5.95329 6.64530 6.30879
#
# Compressibility (1/GPa) = 0.02238334
#
# Stress axis : x y z
#
# Youngs Moduli (GPa) = 91.70006 99.26450 143.97925
#
# Poissons Ratio (x) = 0.14322 0.01643
# Poissons Ratio (y) = 0.13231 0.17475
# Poissons Ratio (z) = 0.01047 0.12048
#
# Static dielectric constant tensor:
#      x y z
#    x 2.167570 0.000000 0.005780 
#    y 0.000000 2.115380 0.000000 
#    z 0.005780 0.000000 2.206670 
# 
# From -- ./inp_files/61127.got.cif
#   From: 2010.05.17/outbox.cif.g08.bks.cpg/sg5_31_cif.got.tgz:61127.got - 2010.06.03 18:56:24.
