data_PCOD9128413
_publ_section_title
;
Structure prediction by ZEFSAII (Michael W. Deem and Ramdas Pophale) SiO2 
 PCOD9128413
Probable space group: C 2
;
_chemical_formula_sum "Si O2"
_cell_formula_units_Z 28
_cell_length_a 8.996703
_cell_length_b 20.775700
_cell_length_c 8.323070
_cell_angle_alpha 90.000000
_cell_angle_beta 53.634398
_cell_angle_gamma 90.000000
_cell_volume 1252.717905
_symmetry_space_group_name_H-M "C 2"
_symmetry_group_IT_number 5
_symmetry_cell_setting 'monoclinic'
loop_
_space_group_symop_operation_xyz
x,y,z
-x,y,-z
1/2+x,1/2+y,z
1/2-x,1/2+y,-z
loop_
_atom_site_type_symbol
_atom_site_label
_atom_site_fract_x
_atom_site_fract_y
_atom_site_fract_z
Si Si1 0.193136 0.689800 0.208114
Si Si2 0.613347 0.595934 0.702113
Si Si3 0.000000 0.795321 0.500000
Si Si4 0.781340 0.773435 0.113699
Si Si5 0.000000 0.198267 0.500000
Si Si6 0.284786 0.871407 0.091047
Si Si7 0.751503 0.021643 0.911136
Si Si8 0.068531 0.579632 0.717911
O O1 0.326124 0.635017 0.182516
O O2 0.159054 0.739291 0.377259
O O3 0.011823 0.651033 0.262263
O O4 0.265245 0.729360 0.011215
O O5 0.555862 0.649953 0.607360
O O6 0.454573 0.544250 0.821927
O O7 0.796667 0.563578 0.512501
O O8 0.105529 0.841692 0.303718
O O9 0.664666 0.744830 0.334280
O O10 0.736190 0.844641 0.077310
O O11 0.000000 0.768844 0.000000
O O12 0.264587 0.947645 0.124739
O O13 0.500000 0.854778 0.000000
O O14 0.683280 0.068224 0.808680
O O15 0.607151 0.034464 0.145309
#
# Coordination Sequence:
#
# PCOD9128413 Si02
#       8
#     4   4   2   4   2   4   4   4
#     4  11  24  45  71 109 150 179 235 302 372 430
#     4  12  24  42  71 111 140 186 234 293 371 429
#     4  10  24  43  72  99 140 182 234 300 348 420
#     4  11  28  46  71 105 147 189 234 304 359 426
#     4  12  26  39  76 107 142 178 234 296 370 430
#     4  11  26  48  72 100 140 198 251 287 348 436
#     4  11  25  43  69 103 139 188 243 289 356 423
#     4  11  21  41  67  98 142 180 224 307 353 412
#
# _framework density 22.351400999999999
#
# number of rings (size 3 to 8) (size 9 to 14) (size 15 to 20)
#    0.000    0.857    4.286    1.714   12.000    1.714 
#    2.571    0.000    0.000    0.000    0.000    0.000 
#    0.000    0.000    0.000    0.000    0.000    0.000 
#
# Total GULP energy -78043.266237 kJ/mol
# GULP energy per Si atom -5574.519017 kJ/mol
# Density = 2.230053 g / cm^3
# Si number density = 22.351401 Si / 1000 Ang^3
#
#
#
# Elastic Constant Matrix: (Units=GPa)
#
#
# Indices 1 2 3 4 5 6 
#
# 1 81.3165 34.5593 26.6071 0.0000 -5.6563 0.0000
# 2 34.5593 89.0902 36.5910 0.0000 -7.9072 0.0000
# 3 26.6071 36.5910 126.3872 0.0000 -37.3981 0.0000
# 4 0.0000 0.0000 0.0000 28.2227 0.0000 -4.1144
# 5 -5.6563 -7.9072 -37.3981 0.0000 35.4977 0.0000
# 6 0.0000 0.0000 0.0000 -4.1144 0.0000 26.0109
#
#
#
# Elastic Compliance Matrix: (Units=1/GPa)
#
#
# Indices 1 2 3 4 5 6 
#
# 1 0.015045 -0.005119 -0.001908 0.000000 -0.000753 0.000000
# 2 -0.005119 0.014538 -0.003508 0.000000 -0.001273 0.000000
# 3 -0.001908 -0.003508 0.013089 0.000000 0.012704 0.000000
# 4 0.000000 0.000000 0.000000 0.036269 0.000000 0.005737
# 5 -0.000753 -0.001273 0.012704 0.000000 0.041151 0.000000
# 6 0.000000 0.000000 0.000000 0.005737 0.000000 0.039353
#
#
# Mechanical properties :
#
#
# Convention : Reuss Voigt Hill
#
# Bulk Modulus (GPa) = 46.29396 54.70096 50.49746
# Shear Modulus (GPa) = 26.63591 31.21537 28.92564
#
# Velocity S-wave (km/s) = 3.45583 3.74113 3.60131
# Velocity P-wave (km/s) = 6.05644 6.57173 6.31934
#
# Compressibility (1/GPa) = 0.02160109
#
# Stress axis : x y z
#
# Youngs Moduli (GPa) = 66.46585 68.78385 76.40250
#
# Poissons Ratio (x) = 0.35214 0.14578
# Poissons Ratio (y) = 0.34027 0.26802
# Poissons Ratio (z) = 0.12682 0.24130
#
# Static dielectric constant tensor:
#      x y z
#    x 1.899190 0.000000 0.005590 
#    y 0.000000 1.812580 0.000000 
#    z 0.005590 0.000000 1.895070 
# 
# From -- ./inp_files/17050.got.cif
#   From: 2010.05.17/outbox.cif.g08.bks.cpg/sg5_9_cif.got.tgz:17050.got - 2010.06.03 18:56:24.
