data_PCOD9128355
_publ_section_title
;
Structure prediction by ZEFSAII (Michael W. Deem and Ramdas Pophale) SiO2 
 PCOD9128355
Probable space group: C 2
;
_chemical_formula_sum "Si O2"
_cell_formula_units_Z 28
_cell_length_a 5.055582
_cell_length_b 14.306552
_cell_length_c 17.693478
_cell_angle_alpha 90.000000
_cell_angle_beta 64.253456
_cell_angle_gamma 90.000000
_cell_volume 1152.686735
_symmetry_space_group_name_H-M "C 2"
_symmetry_group_IT_number 5
_symmetry_cell_setting 'monoclinic'
loop_
_space_group_symop_operation_xyz
x,y,z
-x,y,-z
1/2+x,1/2+y,z
1/2-x,1/2+y,-z
loop_
_atom_site_type_symbol
_atom_site_label
_atom_site_fract_x
_atom_site_fract_y
_atom_site_fract_z
Si Si1 0.012479 0.553470 0.748549
Si Si2 0.759212 0.640043 0.418028
Si Si3 0.500000 0.987713 0.500000
Si Si4 0.761453 0.403190 0.666439
Si Si5 0.241054 0.287042 0.682720
Si Si6 0.500000 0.690981 0.000000
Si Si7 0.030466 0.542994 0.914462
Si Si8 0.030301 0.193096 0.840628
O O1 0.278063 0.592470 0.661483
O O2 0.027856 0.503234 0.828923
O O3 0.814553 0.488912 0.717716
O O4 0.851232 0.649962 0.789290
O O5 0.500000 0.685884 0.500000
O O6 0.841717 0.553081 0.459862
O O7 0.037867 0.709373 0.377586
O O8 0.272652 0.930419 0.577334
O O9 0.450865 0.351466 0.709147
O O10 0.050768 0.340415 0.644364
O O11 0.987054 0.248100 0.769626
O O12 0.517185 0.747399 0.075549
O O13 0.225243 0.621484 0.045893
O O14 0.328316 0.602542 0.874905
O O15 0.000000 0.490737 0.000000
#
# Coordination Sequence:
#
# PCOD9128355 Si02
#       8
#     4   4   2   4   4   2   4   4
#     4   9  21  39  63  94 128 173 218 268 324 390
#     4  10  24  42  69  95 127 173 228 273 321 385
#     4  10  26  44  66  92 126 176 224 276 322 384
#     4  11  27  45  63  95 136 176 212 268 336 393
#     4  11  27  43  66  97 133 176 216 271 328 393
#     4   8  16  32  58 100 122 160 214 280 312 376
#     4   9  17  33  66 100 126 160 222 277 319 373
#     4   9  19  36  66  92 125 170 222 269 319 382
#
# _framework density 24.291073999999998
#
# number of rings (size 3 to 8) (size 9 to 14) (size 15 to 20)
#    0.000    2.286    0.000    0.000   15.000    1.143 
#    0.000    0.000    1.571    0.000    0.000    0.000 
#    0.000    0.000    0.000    0.000    0.000    0.000 
#
# Total GULP energy -77989.861142 kJ/mol
# GULP energy per Si atom -5570.704367 kJ/mol
# Density = 2.423579 g / cm^3
# Si number density = 24.291074 Si / 1000 Ang^3
#
#
#
# Elastic Constant Matrix: (Units=GPa)
#
#
# Indices 1 2 3 4 5 6 
#
# 1 71.1702 7.7047 46.7343 0.0000 -1.1589 0.0000
# 2 7.7047 43.5133 42.2212 0.0000 4.6643 0.0000
# 3 46.7343 42.2212 213.8163 0.0000 15.5616 0.0000
# 4 0.0000 0.0000 0.0000 16.9638 0.0000 5.8723
# 5 -1.1589 4.6643 15.5616 0.0000 42.1123 0.0000
# 6 0.0000 0.0000 0.0000 5.8723 0.0000 11.3241
#
#
#
# Elastic Compliance Matrix: (Units=1/GPa)
#
#
# Indices 1 2 3 4 5 6 
#
# 1 0.016557 0.000635 -0.003877 0.000000 0.001818 0.000000
# 2 0.000635 0.028503 -0.005692 0.000000 -0.001036 0.000000
# 3 -0.003877 -0.005692 0.006793 0.000000 -0.001986 0.000000
# 4 0.000000 0.000000 0.000000 0.071846 0.000000 -0.037257
# 5 0.001818 -0.001036 -0.001986 0.000000 0.024645 0.000000
# 6 0.000000 0.000000 0.000000 -0.037257 0.000000 0.107628
#
#
# Mechanical properties :
#
#
# Convention : Reuss Voigt Hill
#
# Bulk Modulus (GPa) = 29.42378 57.98002 43.70190
# Shear Modulus (GPa) = 17.53358 29.53602 23.53480
#
# Velocity S-wave (km/s) = 2.68957 3.49079 3.11604
# Velocity P-wave (km/s) = 4.66737 6.33783 5.56563
#
# Compressibility (1/GPa) = 0.03398611
#
# Stress axis : x y z
#
# Youngs Moduli (GPa) = 60.39632 35.08426 147.21658
#
# Poissons Ratio (x) = -0.02228 0.57071
# Poissons Ratio (y) = -0.03835 0.83791
# Poissons Ratio (z) = 0.23414 0.19969
#
# Static dielectric constant tensor:
#      x y z
#    x 2.065660 0.000000 -0.023220 
#    y 0.000000 2.014900 0.000000 
#    z -0.023220 0.000000 2.143670 
# 
# From -- ./inp_files/58863.got.cif
#   From: 2010.05.17/outbox.cif.g08.bks.cpg/sg5_30_cif.got.tgz:58863.got - 2010.06.03 18:56:24.
