data_PCOD9128483
_publ_section_title
;
Structure prediction by ZEFSAII (Michael W. Deem and Ramdas Pophale) SiO2 
 PCOD9128483
Probable space group: C 2
;
_chemical_formula_sum "Si O2"
_cell_formula_units_Z 30
_cell_length_a 20.868011
_cell_length_b 9.453515
_cell_length_c 14.850377
_cell_angle_alpha 90.000000
_cell_angle_beta 27.916981
_cell_angle_gamma 90.000000
_cell_volume 1371.625599
_symmetry_space_group_name_H-M "C 2"
_symmetry_group_IT_number 5
_symmetry_cell_setting 'monoclinic'
loop_
_space_group_symop_operation_xyz
x,y,z
-x,y,-z
1/2+x,1/2+y,z
1/2-x,1/2+y,-z
loop_
_atom_site_type_symbol
_atom_site_label
_atom_site_fract_x
_atom_site_fract_y
_atom_site_fract_z
Si Si1 0.140965 0.279790 0.476979
Si Si2 0.361259 0.462294 0.117608
Si Si3 0.355366 0.112404 0.838002
Si Si4 0.500000 0.952229 0.500000
Si Si5 0.976699 0.439524 0.225501
Si Si6 0.893451 0.912102 0.875694
Si Si7 0.857322 0.286326 0.123004
Si Si8 0.794153 0.975636 0.556719
O O1 0.260497 0.392857 0.314428
O O2 0.044345 0.338596 0.520059
O O3 0.072245 0.301292 0.658921
O O4 0.193853 0.122026 0.404091
O O5 0.328619 0.624908 0.135404
O O6 0.500000 0.459124 0.000000
O O7 0.361361 0.382354 0.021545
O O8 0.410314 0.058478 0.672947
O O9 0.356494 0.278507 0.858601
O O10 0.462958 0.048939 0.777583
O O11 0.205367 0.040615 0.032763
O O12 0.839264 0.488477 0.343158
O O13 0.102346 0.391237 0.007148
O O14 0.055630 0.947177 0.670846
O O15 0.742336 0.349427 0.330052
O O16 0.000000 0.283169 0.000000
#
# Coordination Sequence:
#
# PCOD9128483 Si02
#       8
#     4   4   4   2   4   4   4   4
#     4  11  24  42  73  99 140 180 231 296 343 418
#     4  11  24  42  72 102 140 183 234 289 356 418
#     4  11  28  47  72 100 143 192 234 290 355 428
#     4  10  24  50  68  94 134 190 234 278 364 422
#     4  10  24  44  73 100 149 187 232 289 359 418
#     4  12  28  48  70 106 144 189 238 289 354 427
#     4   9  22  44  66 100 144 186 225 286 352 417
#     4  11  26  43  73 111 141 181 245 295 352 416
#
# _framework density 21.871859000000001
#
# number of rings (size 3 to 8) (size 9 to 14) (size 15 to 20)
#    0.000    1.333    1.333    1.600   14.933    1.600 
#    0.000    0.000    0.000    0.000    0.000    0.000 
#    0.000    0.000    0.000    0.000    0.000    0.000 
#
# Total GULP energy -83691.602367 kJ/mol
# GULP energy per Si atom -5579.440158 kJ/mol
# Density = 2.182208 g / cm^3
# Si number density = 21.871859 Si / 1000 Ang^3
#
#
#
# Elastic Constant Matrix: (Units=GPa)
#
#
# Indices 1 2 3 4 5 6 
#
# 1 96.6172 21.5824 17.4183 0.0000 -5.0607 0.0000
# 2 21.5824 69.5145 -2.8942 0.0000 -2.1321 0.0000
# 3 17.4183 -2.8942 86.6583 0.0000 3.5639 0.0000
# 4 0.0000 0.0000 0.0000 23.3828 0.0000 -2.3240
# 5 -5.0607 -2.1321 3.5639 0.0000 28.2697 0.0000
# 6 0.0000 0.0000 0.0000 -2.3240 0.0000 19.7068
#
#
#
# Elastic Compliance Matrix: (Units=1/GPa)
#
#
# Indices 1 2 3 4 5 6 
#
# 1 0.011751 -0.003690 -0.002574 0.000000 0.002150 0.000000
# 2 -0.003690 0.015594 0.001248 0.000000 0.000358 0.000000
# 3 -0.002574 0.001248 0.012177 0.000000 -0.001902 0.000000
# 4 0.000000 0.000000 0.000000 0.043274 0.000000 0.005103
# 5 0.002150 0.000358 -0.001902 0.000000 0.036025 0.000000
# 6 0.000000 0.000000 0.000000 0.005103 0.000000 0.051346
#
#
# Mechanical properties :
#
#
# Convention : Reuss Voigt Hill
#
# Bulk Modulus (GPa) = 33.90903 36.11143 35.01023
# Shear Modulus (GPa) = 26.31204 28.71744 27.51474
#
# Velocity S-wave (km/s) = 3.47220 3.62745 3.55067
# Velocity P-wave (km/s) = 5.62246 5.83873 5.73162
#
# Compressibility (1/GPa) = 0.02949067
#
# Stress axis : x y z
#
# Youngs Moduli (GPa) = 85.10014 64.12754 82.12380
#
# Poissons Ratio (x) = 0.23660 0.21135
# Poissons Ratio (y) = 0.31398 -0.10246
# Poissons Ratio (z) = 0.21901 -0.08001
#
# Static dielectric constant tensor:
#      x y z
#    x 1.781860 0.000000 0.007240 
#    y 0.000000 1.751420 0.000000 
#    z 0.007240 0.000000 1.816950 
# 
# From -- ./inp_files/56912.got.cif
#   From: 2010.05.17/outbox.cif.g08.bks.cpg/sg5_29_cif.got.tgz:56912.got - 2010.06.03 18:56:24.
