data_PCOD9128005
_publ_section_title
;
Structure prediction by ZEFSAII (Michael W. Deem and Ramdas Pophale) SiO2 
 PCOD9128005
Probable space group: C 2
;
_chemical_formula_sum "Si O2"
_cell_formula_units_Z 28
_cell_length_a 17.350066
_cell_length_b 7.792895
_cell_length_c 15.004019
_cell_angle_alpha 90.000000
_cell_angle_beta 146.743414
_cell_angle_gamma 90.000000
_cell_volume 1112.491181
_symmetry_space_group_name_H-M "C 2"
_symmetry_group_IT_number 5
_symmetry_cell_setting 'monoclinic'
loop_
_space_group_symop_operation_xyz
x,y,z
-x,y,-z
1/2+x,1/2+y,z
1/2-x,1/2+y,-z
loop_
_atom_site_type_symbol
_atom_site_label
_atom_site_fract_x
_atom_site_fract_y
_atom_site_fract_z
Si Si1 0.683383 0.579560 0.347136
Si Si2 0.075110 0.441339 0.959356
Si Si3 0.513104 0.637018 0.343962
Si Si4 0.154978 0.806251 0.849797
Si Si5 0.202037 0.124343 0.162718
Si Si6 0.677218 0.170696 0.343723
Si Si7 0.785215 0.756969 0.892967
O O1 0.556189 0.668446 0.281261
O O2 0.723038 0.643831 0.287977
O O3 0.651127 0.375235 0.310717
O O4 0.808732 0.618114 0.537911
O O5 0.195282 0.408191 0.000424
O O6 0.086269 0.258666 0.017374
O O7 0.071237 0.528791 0.204146
O O8 0.156876 0.586049 0.097339
O O9 0.459345 0.442590 0.290807
O O10 0.662002 0.653045 0.536539
O O11 0.382615 0.743522 0.255449
O O12 0.174905 0.670443 0.789740
O O13 0.140127 0.751498 0.937224
O O14 0.167702 0.927535 0.110319
#
# Coordination Sequence:
#
# PCOD9128005 Si02
#       7
#     4   4   4   4   4   4   4
#     4  10  24  47  77 112 156 209 264 322 402 483
#     4   9  22  41  75 112 144 203 258 323 383 475
#     4   9  22  42  73 106 148 210 255 317 404 474
#     4   9  20  40  75 109 148 200 264 316 389 468
#     4  10  23  44  83 115 146 201 276 319 378 482
#     4  10  23  46  78 107 165 212 253 325 426 473
#     4  11  20  42  77 107 153 203 260 319 396 471
#
# _framework density 25.168738999999999
#
# number of rings (size 3 to 8) (size 9 to 14) (size 15 to 20)
#    1.714    0.571    0.000    2.571    2.000    0.000 
#    2.571    7.143   12.571    3.429    0.000    0.000 
#    0.000    0.000    0.000    0.000    0.000    0.000 
#
# Total GULP energy -78075.352029 kJ/mol
# GULP energy per Si atom -5576.810859 kJ/mol
# Density = 2.511145 g / cm^3
# Si number density = 25.168739 Si / 1000 Ang^3
#
#
#
# Elastic Constant Matrix: (Units=GPa)
#
#
# Indices 1 2 3 4 5 6 
#
# 1 99.2222 14.6183 55.1585 0.0000 -12.0195 0.0000
# 2 14.6183 77.8802 33.7401 0.0000 6.6370 0.0000
# 3 55.1585 33.7401 108.2276 0.0000 10.2039 0.0000
# 4 0.0000 0.0000 0.0000 33.3956 0.0000 18.9812
# 5 -12.0195 6.6370 10.2039 0.0000 47.1793 0.0000
# 6 0.0000 0.0000 0.0000 18.9812 0.0000 -67.9034
#
#
#
# Elastic Compliance Matrix: (Units=1/GPa)
#
#
# Indices 1 2 3 4 5 6 
#
# 1 0.015463 0.000297 -0.008515 0.000000 0.005739 0.000000
# 2 0.000297 0.014908 -0.004704 0.000000 -0.001004 0.000000
# 3 -0.008515 -0.004704 0.015504 0.000000 -0.004861 0.000000
# 4 0.000000 0.000000 0.000000 0.025839 0.000000 0.007223
# 5 0.005739 -0.001004 -0.004861 0.000000 0.023850 0.000000
# 6 0.000000 0.000000 0.000000 0.007223 0.000000 -0.012708
#
#
# Mechanical properties :
#
#
# Convention : Reuss Voigt Hill
#
# Bulk Modulus (GPa) = 49.92065 54.70709 52.31387
# Shear Modulus (GPa) = 43.33595 14.65517 28.99556
#
# Velocity S-wave (km/s) = 4.15398 2.41566 3.39786
# Velocity P-wave (km/s) = 6.54865 5.43727 6.01867
#
# Compressibility (1/GPa) = 0.02003179
#
# Stress axis : x y z
#
# Youngs Moduli (GPa) = 64.66990 67.07758 64.49886
#
# Poissons Ratio (x) = -0.01994 0.54918
# Poissons Ratio (y) = -0.01922 0.30343
# Poissons Ratio (z) = 0.55064 0.31556
#
# Static dielectric constant tensor:
#      x y z
#    x 2.083310 0.000000 -0.021680 
#    y 0.000000 2.031370 0.000000 
#    z -0.021680 0.000000 2.056480 
# 
# From -- ./inp_files/55769.got.cif
#   From: 2010.05.17/outbox.cif.g08.bks.cpg/sg5_28_cif.got.tgz:55769.got - 2010.06.03 18:56:24.
