data_PCOD9128185
_publ_section_title
;
Structure prediction by ZEFSAII (Michael W. Deem and Ramdas Pophale) SiO2 
 PCOD9128185
Probable space group: C 2
;
_chemical_formula_sum "Si O2"
_cell_formula_units_Z 32
_cell_length_a 10.589281
_cell_length_b 9.942096
_cell_length_c 12.821722
_cell_angle_alpha 90.000000
_cell_angle_beta 64.458806
_cell_angle_gamma 90.000000
_cell_volume 1217.951400
_symmetry_space_group_name_H-M "C 2"
_symmetry_group_IT_number 5
_symmetry_cell_setting 'monoclinic'
loop_
_space_group_symop_operation_xyz
x,y,z
-x,y,-z
1/2+x,1/2+y,z
1/2-x,1/2+y,-z
loop_
_atom_site_type_symbol
_atom_site_label
_atom_site_fract_x
_atom_site_fract_y
_atom_site_fract_z
Si Si1 0.992135 0.894800 0.160124
Si Si2 0.188447 0.151538 0.815809
Si Si3 0.864126 0.623449 0.109877
Si Si4 0.080436 0.459307 0.246607
Si Si5 0.790953 0.325198 0.395200
Si Si6 0.860214 0.283889 0.594282
Si Si7 0.294009 0.807114 0.986415
Si Si8 0.122596 0.995127 0.318452
O O1 0.147381 0.883522 0.056426
O O2 0.018051 0.930713 0.272506
O O3 0.921212 0.750589 0.157582
O O4 0.911237 0.022440 0.141928
O O5 0.178296 0.212658 0.703504
O O6 0.155094 0.254684 0.920326
O O7 0.350243 0.105718 0.777724
O O8 0.773982 0.519791 0.208472
O O9 0.752800 0.679811 0.066415
O O10 0.000000 0.573060 0.000000
O O11 0.176756 0.381654 0.298453
O O12 0.921874 0.429654 0.336408
O O13 0.108047 0.392151 0.124830
O O14 0.772424 0.271586 0.519836
O O15 0.654162 0.401341 0.404647
O O16 0.000000 0.349282 0.500000
O O17 0.908085 0.144583 0.629739
#
# Coordination Sequence:
#
# PCOD9128185 Si02
#       8
#     4   4   4   4   4   4   4   4
#     4  11  24  44  68 107 145 187 230 282 353 428
#     4  12  26  45  75 101 152 184 231 300 348 423
#     4  10  24  42  68 104 147 186 226 285 350 429
#     4  11  25  46  71 101 141 191 230 297 358 411
#     4  11  28  44  71 108 133 184 251 288 355 428
#     4  10  23  49  70  97 135 187 246 294 355 411
#     4  11  24  41  64 113 137 185 243 267 358 433
#     4  12  24  46  75 102 145 187 236 297 355 426
#
# _framework density 26.273627000000001
#
# number of rings (size 3 to 8) (size 9 to 14) (size 15 to 20)
#    0.000    1.000    3.750    1.500    7.000    1.500 
#    2.250    0.000    0.000    0.000    0.000    0.000 
#    0.000    0.000    0.000    0.000    0.000    0.000 
#
# Total GULP energy -89567.510937 kJ/mol
# GULP energy per Si atom -5597.969434 kJ/mol
# Density = 2.621383 g / cm^3
# Si number density = 26.273627 Si / 1000 Ang^3
#
#
#
# Elastic Constant Matrix: (Units=GPa)
#
#
# Indices 1 2 3 4 5 6 
#
# 1 87.3562 36.3476 49.2529 0.0000 18.2978 0.0000
# 2 36.3476 78.1305 41.6419 0.0000 28.4494 0.0000
# 3 49.2529 41.6419 126.9276 0.0000 42.6513 0.0000
# 4 0.0000 0.0000 0.0000 13.7036 0.0000 21.4569
# 5 18.2978 28.4494 42.6513 0.0000 70.2177 0.0000
# 6 0.0000 0.0000 0.0000 21.4569 0.0000 41.6984
#
#
#
# Elastic Compliance Matrix: (Units=1/GPa)
#
#
# Indices 1 2 3 4 5 6 
#
# 1 0.016188 -0.005261 -0.004843 0.000000 0.000855 0.000000
# 2 -0.005261 0.018176 -0.002397 0.000000 -0.004537 0.000000
# 3 -0.004843 -0.002397 0.012305 0.000000 -0.005241 0.000000
# 4 0.000000 0.000000 0.000000 0.375595 0.000000 -0.193272
# 5 0.000855 -0.004537 -0.005241 0.000000 0.019041 0.000000
# 6 0.000000 0.000000 0.000000 -0.193272 0.000000 0.123434
#
#
# Mechanical properties :
#
#
# Convention : Reuss Voigt Hill
#
# Bulk Modulus (GPa) = 46.15121 60.76657 53.45889
# Shear Modulus (GPa) = 8.37571 36.13541 22.25556
#
# Velocity S-wave (km/s) = 1.78740 3.71259 2.91360
# Velocity P-wave (km/s) = 4.67584 6.44642 5.63116
#
# Compressibility (1/GPa) = 0.02166791
#
# Stress axis : x y z
#
# Youngs Moduli (GPa) = 61.77500 55.01646 81.26574
#
# Poissons Ratio (x) = 0.28944 0.39355
# Poissons Ratio (y) = 0.32500 0.19480
# Poissons Ratio (z) = 0.29916 0.13188
#
# Static dielectric constant tensor:
#      x y z
#    x 2.190830 0.000000 0.032280 
#    y 0.000000 2.084560 0.000000 
#    z 0.032280 0.000000 2.121350 
# 
# From -- ./inp_files/39405.got.cif
#   From: 2010.05.17/outbox.cif.g08.bks.cpg/sg5_20_cif.got.tgz:39405.got - 2010.06.03 18:56:24.
