data_PCOD9128117
_publ_section_title
;
Structure prediction by ZEFSAII (Michael W. Deem and Ramdas Pophale) SiO2 
 PCOD9128117
Probable space group: C 2
;
_chemical_formula_sum "Si O2"
_cell_formula_units_Z 26
_cell_length_a 21.666490
_cell_length_b 11.369296
_cell_length_c 5.757354
_cell_angle_alpha 90.000000
_cell_angle_beta 131.423117
_cell_angle_gamma 90.000000
_cell_volume 1063.447608
_symmetry_space_group_name_H-M "C 2"
_symmetry_group_IT_number 5
_symmetry_cell_setting 'monoclinic'
loop_
_space_group_symop_operation_xyz
x,y,z
-x,y,-z
1/2+x,1/2+y,z
1/2-x,1/2+y,-z
loop_
_atom_site_type_symbol
_atom_site_label
_atom_site_fract_x
_atom_site_fract_y
_atom_site_fract_z
Si Si1 0.357670 0.169330 0.134773
Si Si2 0.393408 0.392058 0.488632
Si Si3 0.866076 0.270083 0.085029
Si Si4 0.543453 0.986110 0.862939
Si Si5 0.720195 0.320191 0.419687
Si Si6 0.281156 0.951813 0.191954
Si Si7 0.000000 0.070638 0.500000
O O1 0.409203 0.268722 0.396228
O O2 0.399771 0.098787 0.032136
O O3 0.323287 0.072865 0.224750
O O4 0.288000 0.241152 0.827521
O O5 0.365643 0.358609 0.679233
O O6 0.465377 0.484107 0.615101
O O7 0.306662 0.442286 0.163151
O O8 0.914396 0.358918 0.036525
O O9 0.843970 0.350423 0.254523
O O10 0.922748 0.156772 0.256563
O O11 0.777591 0.254383 0.745462
O O12 0.500000 0.987923 0.500000
O O13 0.500000 0.998629 0.000000
O O14 0.762626 0.436093 0.416932
#
# Coordination Sequence:
#
# PCOD9128117 Si02
#       7
#     4   4   4   4   4   4   2
#     4  10  24  45  75 101 145 189 257 316 375 463
#     4  10  25  43  70 105 149 198 241 310 381 470
#     4  10  24  47  73 101 150 195 254 313 379 460
#     4  11  26  46  77 110 147 197 255 321 389 452
#     4  10  23  46  75 108 137 198 262 309 388 455
#     4   9  22  47  72 102 136 190 261 316 366 452
#     4  12  26  48  68 112 164 192 238 316 396 462
#
# _framework density 24.448785000000001
#
# number of rings (size 3 to 8) (size 9 to 14) (size 15 to 20)
#    0.000    1.846    0.769    0.000   14.000    2.462 
#    8.308    5.385    0.000    0.000    0.000    0.000 
#    0.000    0.000    0.000    0.000    0.000    0.000 
#
# Total GULP energy -72621.206374 kJ/mol
# GULP energy per Si atom -5586.246644 kJ/mol
# Density = 2.439314 g / cm^3
# Si number density = 24.448785 Si / 1000 Ang^3
#
#
#
# Elastic Constant Matrix: (Units=GPa)
#
#
# Indices 1 2 3 4 5 6 
#
# 1 179.0709 95.3451 16.8657 0.0000 -27.1257 0.0000
# 2 95.3451 158.0513 21.0293 0.0000 -12.7552 0.0000
# 3 16.8657 21.0293 57.2495 0.0000 -9.1938 0.0000
# 4 0.0000 0.0000 0.0000 22.0312 0.0000 6.5305
# 5 -27.1257 -12.7552 -9.1938 0.0000 31.3955 0.0000
# 6 0.0000 0.0000 0.0000 6.5305 0.0000 59.3557
#
#
#
# Elastic Compliance Matrix: (Units=1/GPa)
#
#
# Indices 1 2 3 4 5 6 
#
# 1 0.009165 -0.005068 0.000108 0.000000 0.005891 0.000000
# 2 -0.005068 0.009587 -0.002210 0.000000 -0.001131 0.000000
# 3 0.000108 -0.002210 0.019012 0.000000 0.004763 0.000000
# 4 0.000000 0.000000 0.000000 0.046920 0.000000 -0.005162
# 5 0.005891 -0.001131 0.004763 0.000000 0.037877 0.000000
# 6 0.000000 0.000000 0.000000 -0.005162 0.000000 0.017416
#
#
# Mechanical properties :
#
#
# Convention : Reuss Voigt Hill
#
# Bulk Modulus (GPa) = 42.69186 73.42799 58.05993
# Shear Modulus (GPa) = 30.84032 39.96524 35.40278
#
# Velocity S-wave (km/s) = 3.55551 4.04747 3.80944
# Velocity P-wave (km/s) = 5.86133 7.20703 6.56873
#
# Compressibility (1/GPa) = 0.02342367
#
# Stress axis : x y z
#
# Youngs Moduli (GPa) = 109.11258 104.30853 52.59723
#
# Poissons Ratio (x) = 0.52860 -0.00566
# Poissons Ratio (y) = 0.55294 0.11625
# Poissons Ratio (z) = -0.01174 0.23054
#
# Static dielectric constant tensor:
#      x y z
#    x 1.994340 0.000000 0.057300 
#    y 0.000000 2.041230 0.000000 
#    z 0.057300 0.000000 2.039740 
# 
# From -- ./inp_files/9627.got.cif
#   From: 2010.05.17/outbox.cif.g08.bks.cpg/sg5_5_cif.got.tgz:9627.got - 2010.06.03 18:56:24.
