data_PCOD9128498
_publ_section_title
;
Structure prediction by ZEFSAII (Michael W. Deem and Ramdas Pophale) SiO2 
 PCOD9128498
Probable space group: C 2
;
_chemical_formula_sum "Si O2"
_cell_formula_units_Z 26
_cell_length_a 14.911268
_cell_length_b 13.441064
_cell_length_c 8.502897
_cell_angle_alpha 90.000000
_cell_angle_beta 140.609070
_cell_angle_gamma 90.000000
_cell_volume 1081.485769
_symmetry_space_group_name_H-M "C 2"
_symmetry_group_IT_number 5
_symmetry_cell_setting 'monoclinic'
loop_
_space_group_symop_operation_xyz
x,y,z
-x,y,-z
1/2+x,1/2+y,z
1/2-x,1/2+y,-z
loop_
_atom_site_type_symbol
_atom_site_label
_atom_site_fract_x
_atom_site_fract_y
_atom_site_fract_z
Si Si1 0.575240 0.029710 0.266475
Si Si2 0.000000 0.600630 0.500000
Si Si3 0.976434 0.154627 0.286390
Si Si4 0.233208 0.722661 0.441749
Si Si5 0.370537 0.417712 0.726963
Si Si6 0.744158 0.268653 0.813660
Si Si7 0.585230 0.444397 0.764241
O O1 0.503414 0.033483 0.344012
O O2 0.605939 0.146216 0.281420
O O3 0.729029 0.978356 0.498986
O O4 0.500000 0.994161 0.000000
O O5 0.868428 0.678422 0.314800
O O6 0.000000 0.178468 0.500000
O O7 0.133532 0.157850 0.430319
O O8 0.885669 0.053629 0.126383
O O9 0.891722 0.241228 0.089357
O O10 0.186855 0.816084 0.272303
O O11 0.266070 0.771094 0.655842
O O12 0.465958 0.390219 0.705100
O O13 0.500000 0.466521 0.000000
O O14 0.692814 0.366660 0.837262
O O15 0.500000 0.483111 0.500000
#
# Coordination Sequence:
#
# PCOD9128498 Si02
#       7
#     4   2   4   4   4   4   4
#     4  11  26  48  77 111 154 202 257 329 391 460
#     4  10  24  44  76 112 150 198 258 330 378 474
#     4  11  27  42  73 110 151 189 253 321 379 459
#     4  11  24  49  70 108 147 203 251 315 386 465
#     4  12  27  46  75 107 153 202 253 312 391 467
#     4  11  23  46  76 104 149 201 253 312 392 467
#     4  11  22  47  74 105 140 203 249 305 386 467
#
# _framework density 24.041001999999999
#
# number of rings (size 3 to 8) (size 9 to 14) (size 15 to 20)
#    0.000    0.923    3.846    1.846    8.615    1.231 
#    4.154    0.000    0.000    0.000    0.000    0.000 
#    0.000    0.000    0.000    0.000    0.000    0.000 
#
# Total GULP energy -72417.091717 kJ/mol
# GULP energy per Si atom -5570.545517 kJ/mol
# Density = 2.398628 g / cm^3
# Si number density = 24.041002 Si / 1000 Ang^3
#
#
#
# Elastic Constant Matrix: (Units=GPa)
#
#
# Indices 1 2 3 4 5 6 
#
# 1 114.9387 7.9692 26.1740 0.0000 -16.7955 0.0000
# 2 7.9692 60.7679 13.0957 0.0000 -5.2805 0.0000
# 3 26.1740 13.0957 115.0683 0.0000 -13.3938 0.0000
# 4 0.0000 0.0000 0.0000 42.9955 0.0000 26.5829
# 5 -16.7955 -5.2805 -13.3938 0.0000 21.5970 0.0000
# 6 0.0000 0.0000 0.0000 26.5829 0.0000 44.2738
#
#
#
# Elastic Compliance Matrix: (Units=1/GPa)
#
#
# Indices 1 2 3 4 5 6 
#
# 1 0.010055 -0.000414 -0.001446 0.000000 0.006822 0.000000
# 2 -0.000414 0.017090 -0.001511 0.000000 0.002919 0.000000
# 3 -0.001446 -0.001511 0.009719 0.000000 0.004534 0.000000
# 4 0.000000 0.000000 0.000000 0.036990 0.000000 -0.022209
# 5 0.006822 0.002919 0.004534 0.000000 0.055133 0.000000
# 6 0.000000 0.000000 0.000000 -0.022209 0.000000 0.035922
#
#
# Mechanical properties :
#
#
# Convention : Reuss Voigt Hill
#
# Bulk Modulus (GPa) = 33.19890 42.80584 38.00237
# Shear Modulus (GPa) = 27.51927 38.00900 32.76414
#
# Velocity S-wave (km/s) = 3.38698 3.98050 3.69568
# Velocity P-wave (km/s) = 5.39767 6.24258 5.83544
#
# Compressibility (1/GPa) = 0.03012148
#
# Stress axis : x y z
#
# Youngs Moduli (GPa) = 99.45197 58.51489 102.89063
#
# Poissons Ratio (x) = 0.02424 0.14878
# Poissons Ratio (y) = 0.04120 0.15546
# Poissons Ratio (z) = 0.14381 0.08841
#
# Static dielectric constant tensor:
#      x y z
#    x 1.819530 0.000000 0.023410 
#    y 0.000000 2.029490 0.000000 
#    z 0.023410 0.000000 1.890380 
# 
# From -- ./inp_files/24828.got.cif
#   From: 2010.05.17/outbox.cif.g08.bks.cpg/sg5_13_cif.got.tgz:24828.got - 2010.06.03 18:56:24.
