data_PCOD9128476
_publ_section_title
;
Structure prediction by ZEFSAII (Michael W. Deem and Ramdas Pophale) SiO2 
 PCOD9128476
Probable space group: C 2
;
_chemical_formula_sum "Si O2"
_cell_formula_units_Z 30
_cell_length_a 7.423574
_cell_length_b 11.623055
_cell_length_c 15.435000
_cell_angle_alpha 90.000000
_cell_angle_beta 77.829802
_cell_angle_gamma 90.000000
_cell_volume 1301.871575
_symmetry_space_group_name_H-M "C 2"
_symmetry_group_IT_number 5
_symmetry_cell_setting 'monoclinic'
loop_
_space_group_symop_operation_xyz
x,y,z
-x,y,-z
1/2+x,1/2+y,z
1/2-x,1/2+y,-z
loop_
_atom_site_type_symbol
_atom_site_label
_atom_site_fract_x
_atom_site_fract_y
_atom_site_fract_z
Si Si1 0.286724 0.396250 0.541686
Si Si2 0.247264 0.200341 0.161028
Si Si3 0.500000 0.328882 0.000000
Si Si4 0.987397 0.000070 0.142247
Si Si5 0.097735 0.434501 0.214273
Si Si6 0.800307 0.877578 0.738436
Si Si7 0.783431 0.143401 0.513409
Si Si8 0.485525 0.146591 0.298877
O O1 0.500000 0.381156 0.500000
O O2 0.275885 0.425184 0.644469
O O3 0.215478 0.265291 0.537851
O O4 0.217898 0.511116 0.497282
O O5 0.360418 0.251125 0.068758
O O6 0.170967 0.307144 0.224242
O O7 0.382697 0.140531 0.216038
O O8 0.084374 0.122000 0.140736
O O9 0.582988 0.416299 0.062644
O O10 0.768707 0.993750 0.145292
O O11 0.034421 0.940649 0.229064
O O12 0.077769 0.521519 0.296250
O O13 0.895758 0.403805 0.196326
O O14 0.860987 0.745349 0.724086
O O15 0.658069 0.171290 0.610353
O O16 0.000000 0.122841 0.500000
#
# Coordination Sequence:
#
# PCOD9128476 Si02
#       8
#     4   4   2   4   4   4   4   4
#     4  11  24  46  67 101 139 194 240 304 373 428
#     4  11  24  47  74 105 146 191 237 301 362 444
#     4  10  24  44  72 110 144 188 242 294 384 428
#     4  11  24  49  72 107 150 185 245 305 357 447
#     4  11  24  43  74 107 134 196 242 288 375 421
#     4  12  23  46  76 100 146 190 246 299 359 447
#     4  11  26  44  68 103 147 188 253 312 371 437
#     4  12  23  45  74 102 143 195 244 301 364 443
#
# _framework density 23.043748000000001
#
# number of rings (size 3 to 8) (size 9 to 14) (size 15 to 20)
#    0.000    0.800    6.667    0.800    1.867    2.667 
#    9.600    0.000    0.000    0.000    0.000    0.000 
#    0.000    0.000    0.000    0.000    0.000    0.000 
#
# Total GULP energy -83532.723890 kJ/mol
# GULP energy per Si atom -5568.848259 kJ/mol
# Density = 2.299130 g / cm^3
# Si number density = 23.043748 Si / 1000 Ang^3
#
#
#
# Elastic Constant Matrix: (Units=GPa)
#
#
# Indices 1 2 3 4 5 6 
#
# 1 108.9941 37.0163 19.9297 0.0000 -21.6656 0.0000
# 2 37.0163 157.9862 19.5535 0.0000 -4.7994 0.0000
# 3 19.9297 19.5535 79.1890 0.0000 -9.2187 0.0000
# 4 0.0000 0.0000 0.0000 23.7580 0.0000 1.8032
# 5 -21.6656 -4.7994 -9.2187 0.0000 13.6495 0.0000
# 6 0.0000 0.0000 0.0000 1.8032 0.0000 14.0002
#
#
#
# Elastic Compliance Matrix: (Units=1/GPa)
#
#
# Indices 1 2 3 4 5 6 
#
# 1 0.014492 -0.002678 -0.000453 0.000000 0.021754 0.000000
# 2 -0.002678 0.007046 -0.001381 0.000000 -0.002707 0.000000
# 3 -0.000453 -0.001381 0.014047 0.000000 0.008282 0.000000
# 4 0.000000 0.000000 0.000000 0.042507 0.000000 -0.005475
# 5 0.021754 -0.002707 0.008282 0.000000 0.112435 0.000000
# 6 0.000000 0.000000 0.000000 -0.005475 0.000000 0.072133
#
#
# Mechanical properties :
#
#
# Convention : Reuss Voigt Hill
#
# Bulk Modulus (GPa) = 37.65086 55.46313 46.55700
# Shear Modulus (GPa) = 17.82294 28.25953 23.04124
#
# Velocity S-wave (km/s) = 2.78409 3.50572 3.16554
# Velocity P-wave (km/s) = 5.16810 6.36456 5.79728
#
# Compressibility (1/GPa) = 0.02655982
#
# Stress axis : x y z
#
# Youngs Moduli (GPa) = 69.00543 141.92649 71.18842
#
# Poissons Ratio (x) = 0.38014 0.03227
# Poissons Ratio (y) = 0.18483 0.09830
# Poissons Ratio (z) = 0.03128 0.19597
#
# Static dielectric constant tensor:
#      x y z
#    x 1.940080 0.000000 -0.080370 
#    y 0.000000 1.947460 0.000000 
#    z -0.080370 0.000000 1.936920 
# 
# From -- ./inp_files/50278.got.cif
#   From: 2010.05.17/outbox.cif.g08.bks.cpg/sg5_26_cif.got.tgz:50278.got - 2010.06.03 18:56:24.
