data_PCOD9128133
_publ_section_title
;
Structure prediction by ZEFSAII (Michael W. Deem and Ramdas Pophale) SiO2 
 PCOD9128133
Probable space group: C 2
;
_chemical_formula_sum "Si O2"
_cell_formula_units_Z 32
_cell_length_a 28.036171
_cell_length_b 7.284399
_cell_length_c 11.366845
_cell_angle_alpha 90.000000
_cell_angle_beta 147.548683
_cell_angle_gamma 90.000000
_cell_volume 1245.630156
_symmetry_space_group_name_H-M "C 2"
_symmetry_group_IT_number 5
_symmetry_cell_setting 'monoclinic'
loop_
_space_group_symop_operation_xyz
x,y,z
-x,y,-z
1/2+x,1/2+y,z
1/2-x,1/2+y,-z
loop_
_atom_site_type_symbol
_atom_site_label
_atom_site_fract_x
_atom_site_fract_y
_atom_site_fract_z
Si Si1 0.801458 0.375000 0.908336
Si Si2 0.183753 0.944282 0.454137
Si Si3 0.013949 0.235369 0.656448
Si Si4 0.472149 0.908308 0.822185
Si Si5 0.142560 0.795842 0.963005
Si Si6 0.513639 0.282538 0.213745
Si Si7 0.778058 0.368353 0.412885
Si Si8 0.112647 0.878505 0.635113
O O1 0.877896 0.233847 0.106941
O O2 0.846842 0.576255 0.999402
O O3 0.756160 0.338089 0.686968
O O4 0.716018 0.394185 0.815069
O O5 0.083676 0.888667 0.279607
O O6 0.211353 0.916653 0.378202
O O7 0.195241 0.155641 0.513839
O O8 0.000000 0.335369 0.500000
O O9 0.986847 0.314281 0.727808
O O10 0.945623 0.063703 0.500802
O O11 0.370104 0.970920 0.619081
O O12 0.523152 0.100780 0.923575
O O13 0.500000 0.806917 0.000000
O O14 0.110066 0.825107 0.764556
O O15 0.072183 0.876995 0.909678
O O16 0.235860 0.882556 0.196322
O O17 0.569073 0.240216 0.449750
#
# Coordination Sequence:
#
# PCOD9128133 Si02
#       8
#     4   4   4   4   4   4   4   4
#     4  10  24  46  76 104 150 202 249 316 393 459
#     4  10  23  47  70 108 145 194 256 312 383 471
#     4  12  26  47  77 115 151 198 263 319 389 477
#     4  12  27  48  75 108 152 204 258 317 392 469
#     4  11  24  45  75 108 150 197 250 319 395 465
#     4  11  24  45  74 103 152 192 251 314 382 462
#     4  11  25  46  75 104 150 194 257 316 387 466
#     4  11  27  49  74 114 155 195 260 321 386 481
#
# _framework density 25.689807999999999
#
# number of rings (size 3 to 8) (size 9 to 14) (size 15 to 20)
#    0.000    1.000    1.250    4.875    8.750    0.000 
#   18.000    0.625    0.000    0.000    0.000    0.000 
#    0.000    0.000    0.000    0.000    0.000    0.000 
#
# Total GULP energy -89500.615850 kJ/mol
# GULP energy per Si atom -5593.788491 kJ/mol
# Density = 2.563134 g / cm^3
# Si number density = 25.689808 Si / 1000 Ang^3
#
#
#
# Elastic Constant Matrix: (Units=GPa)
#
#
# Indices 1 2 3 4 5 6 
#
# 1 168.8454 22.7765 60.6932 0.0000 -4.9395 0.0000
# 2 22.7765 61.5500 30.8568 0.0000 -2.7744 0.0000
# 3 60.6932 30.8568 145.1044 0.0000 -7.5895 0.0000
# 4 0.0000 0.0000 0.0000 38.1408 0.0000 -1.1006
# 5 -4.9395 -2.7744 -7.5895 0.0000 59.5719 0.0000
# 6 0.0000 0.0000 0.0000 -1.1006 0.0000 32.4686
#
#
#
# Elastic Compliance Matrix: (Units=1/GPa)
#
#
# Indices 1 2 3 4 5 6 
#
# 1 0.007060 -0.001263 -0.002675 0.000000 0.000186 0.000000
# 2 -0.001263 0.018419 -0.003372 0.000000 0.000324 0.000000
# 3 -0.002675 -0.003372 0.008766 0.000000 0.000738 0.000000
# 4 0.000000 0.000000 0.000000 0.026244 0.000000 0.000890
# 5 0.000186 0.000324 0.000738 0.000000 0.016911 0.000000
# 6 0.000000 0.000000 0.000000 0.000890 0.000000 0.030829
#
#
# Mechanical properties :
#
#
# Convention : Reuss Voigt Hill
#
# Bulk Modulus (GPa) = 50.95254 67.12811 59.04032
# Shear Modulus (GPa) = 38.64277 43.44780 41.04528
#
# Velocity S-wave (km/s) = 3.88262 4.11694 4.00149
# Velocity P-wave (km/s) = 6.32269 6.98469 6.66192
#
# Compressibility (1/GPa) = 0.01962611
#
# Stress axis : x y z
#
# Youngs Moduli (GPa) = 141.64652 54.29090 114.07877
#
# Poissons Ratio (x) = 0.06858 0.30511
# Poissons Ratio (y) = 0.17894 0.38463
# Poissons Ratio (z) = 0.37884 0.18305
#
# Static dielectric constant tensor:
#      x y z
#    x 2.002320 0.000000 0.008780 
#    y 0.000000 2.107610 0.000000 
#    z 0.008780 0.000000 2.024540 
# 
# From -- ./inp_files/48423.got.cif
#   From: 2010.05.17/outbox.cif.g08.bks.cpg/sg5_25_cif.got.tgz:48423.got - 2010.06.03 18:56:24.
