data_PCOD9128561
_publ_section_title
;
Structure prediction by ZEFSAII (Michael W. Deem and Ramdas Pophale) SiO2 
 PCOD9128561
Probable space group: C 2
;
_chemical_formula_sum "Si O2"
_cell_formula_units_Z 26
_cell_length_a 17.966501
_cell_length_b 7.481570
_cell_length_c 11.358543
_cell_angle_alpha 90.000000
_cell_angle_beta 50.576041
_cell_angle_gamma 90.000000
_cell_volume 1179.395378
_symmetry_space_group_name_H-M "C 2"
_symmetry_group_IT_number 5
_symmetry_cell_setting 'monoclinic'
loop_
_space_group_symop_operation_xyz
x,y,z
-x,y,-z
1/2+x,1/2+y,z
1/2-x,1/2+y,-z
loop_
_atom_site_type_symbol
_atom_site_label
_atom_site_fract_x
_atom_site_fract_y
_atom_site_fract_z
Si Si1 0.853536 0.178720 0.799259
Si Si2 0.676335 0.223714 0.415657
Si Si3 0.657841 0.976054 0.648718
Si Si4 0.825628 0.107908 0.085708
Si Si5 0.057475 0.420799 0.112775
Si Si6 0.151432 0.725041 0.875197
Si Si7 0.000000 0.945872 0.500000
O O1 0.892851 0.365246 0.813682
O O2 0.760435 0.203358 0.813206
O O3 0.821206 0.072984 0.950061
O O4 0.936061 0.070590 0.649404
O O5 0.667765 0.053573 0.508432
O O6 0.752903 0.355781 0.401410
O O7 0.725308 0.164323 0.244307
O O8 0.575865 0.322755 0.494181
O O9 0.649213 0.139256 0.749312
O O10 0.554538 0.882501 0.760965
O O11 0.868738 0.934468 0.103632
O O12 0.893733 0.280590 0.025674
O O13 0.083446 0.613149 0.032920
#
# Coordination Sequence:
#
# PCOD9128561 Si02
#       7
#     4   4   4   4   4   4   2
#     4  10  24  45  78 104 149 188 248 308 356 433
#     4  12  28  48  74 109 152 196 247 304 370 444
#     4  12  26  47  71 110 158 189 241 311 370 438
#     4  10  25  46  77 105 144 198 246 300 365 434
#     4  10  25  45  71 111 147 185 249 304 362 438
#     4  12  22  47  77 112 145 198 242 306 368 439
#     4  12  26  48  76 114 144 198 252 304 368 436
#
# _framework density 22.045193999999999
#
# number of rings (size 3 to 8) (size 9 to 14) (size 15 to 20)
#    0.923    0.000    3.077    2.308    6.462    2.462 
#    5.538    0.000    0.000    0.000    0.000    0.000 
#    0.000    0.000    0.000    0.000    0.000    0.000 
#
# Total GULP energy -72690.613190 kJ/mol
# GULP energy per Si atom -5591.585630 kJ/mol
# Density = 2.199502 g / cm^3
# Si number density = 22.045194 Si / 1000 Ang^3
#
#
#
# Elastic Constant Matrix: (Units=GPa)
#
#
# Indices 1 2 3 4 5 6 
#
# 1 86.0635 -2.7425 49.9633 0.0000 -27.4899 0.0000
# 2 -2.7425 54.3252 9.0410 -0.0001 -13.0434 0.0000
# 3 49.9633 9.0410 119.1923 0.0000 -2.7320 0.0000
# 4 0.0000 -0.0001 0.0000 23.5520 0.0000 6.1389
# 5 -27.4899 -13.0434 -2.7320 0.0000 38.0709 0.0000
# 6 0.0000 0.0000 0.0000 6.1389 0.0000 17.9390
#
#
#
# Elastic Compliance Matrix: (Units=1/GPa)
#
#
# Indices 1 2 3 4 5 6 
#
# 1 0.023792 0.007446 -0.010102 0.000000 0.019006 0.000000
# 2 0.007446 0.022612 -0.004543 0.000000 0.012797 0.000000
# 3 -0.010102 -0.004543 0.012787 0.000000 -0.007933 0.000000
# 4 0.000000 0.000000 0.000000 0.046617 0.000000 -0.015953
# 5 0.019006 0.012797 -0.007933 0.000000 0.043805 0.000000
# 6 0.000000 0.000000 0.000000 -0.015953 0.000000 0.061204
#
#
# Mechanical properties :
#
#
# Convention : Reuss Voigt Hill
#
# Bulk Modulus (GPa) = 22.32534 41.34497 31.83516
# Shear Modulus (GPa) = 20.82049 29.46700 25.14374
#
# Velocity S-wave (km/s) = 3.07652 3.66001 3.38087
# Velocity P-wave (km/s) = 4.77169 6.05444 5.45093
#
# Compressibility (1/GPa) = 0.04479215
#
# Stress axis : x y z
#
# Youngs Moduli (GPa) = 42.03088 44.22389 78.20277
#
# Poissons Ratio (x) = -0.32927 0.79003
# Poissons Ratio (y) = -0.31294 0.35527
# Poissons Ratio (z) = 0.42461 0.20091
#
# Static dielectric constant tensor:
#      x y z
#    x 1.812760 0.000000 0.026630 
#    y 0.000000 1.818470 0.000000 
#    z 0.026630 0.000000 1.801840 
# 
# From -- ./inp_files/46098.got.cif
#   From: 2010.05.17/outbox.cif.g08.bks.cpg/sg5_24_cif.got.tgz:46098.got - 2010.06.03 18:56:24.
