data_PCOD9128003
_publ_section_title
;
Structure prediction by ZEFSAII (Michael W. Deem and Ramdas Pophale) SiO2 
 PCOD9128003
Probable space group: C 2
;
_chemical_formula_sum "Si O2"
_cell_formula_units_Z 22
_cell_length_a 18.568330
_cell_length_b 7.857025
_cell_length_c 8.621739
_cell_angle_alpha 90.000000
_cell_angle_beta 38.672027
_cell_angle_gamma 90.000000
_cell_volume 785.976680
_symmetry_space_group_name_H-M "C 2"
_symmetry_group_IT_number 5
_symmetry_cell_setting 'monoclinic'
loop_
_space_group_symop_operation_xyz
x,y,z
-x,y,-z
1/2+x,1/2+y,z
1/2-x,1/2+y,-z
loop_
_atom_site_type_symbol
_atom_site_label
_atom_site_fract_x
_atom_site_fract_y
_atom_site_fract_z
Si Si1 0.833008 0.984590 0.699694
Si Si2 0.781159 0.606619 0.816227
Si Si3 0.500000 0.982030 0.500000
Si Si4 0.414815 0.629012 0.286453
Si Si5 0.291630 0.384519 0.311345
Si Si6 0.578311 0.081962 0.024496
O O1 0.848785 0.784396 0.708550
O O2 0.932834 0.085812 0.437957
O O3 0.810889 0.086557 0.895187
O O4 0.704195 0.989767 0.830696
O O5 0.733869 0.563257 0.728026
O O6 0.865518 0.445872 0.707758
O O7 0.513041 0.046954 0.294402
O O8 0.365608 0.441314 0.331348
O O9 0.319640 0.777156 0.457581
O O10 0.500000 0.666882 0.000000
O O11 0.375619 0.274396 0.063662
O O12 0.500000 0.051710 0.000000
#
# Coordination Sequence:
#
# PCOD9128003 Si02
#       6
#     4   4   2   4   4   4
#     4  10  23  44  77 105 151 198 252 323 378 466
#     4  11  23  48  73 105 150 199 255 318 389 454
#     4  10  24  40  72 106 138 202 244 308 382 458
#     4  11  25  47  70 112 149 196 250 313 388 456
#     4  11  25  47  70 108 150 195 253 316 381 463
#     4  10  23  45  74 108 151 200 255 312 390 461
#
# _framework density 27.990651
#
# number of rings (size 3 to 8) (size 9 to 14) (size 15 to 20)
#    0.000    1.455    0.000    4.909   10.182    0.000 
#   16.364    1.818    0.000    0.000    0.000    0.000 
#    0.000    0.000    0.000    0.000    0.000    0.000 
#
# Total GULP energy -61264.171449 kJ/mol
# GULP energy per Si atom -5569.470132 kJ/mol
# Density = 2.792694 g / cm^3
# Si number density = 27.990651 Si / 1000 Ang^3
#
#
#
# Elastic Constant Matrix: (Units=GPa)
#
#
# Indices 1 2 3 4 5 6 
#
# 1 114.6382 1.8465 43.1267 0.0000 -1.2774 0.0000
# 2 1.8465 104.7034 27.0983 0.0000 7.4550 0.0000
# 3 43.1267 27.0983 224.8377 0.0000 27.1168 0.0000
# 4 0.0000 0.0000 0.0000 30.4383 0.0000 4.9693
# 5 -1.2774 7.4550 27.1168 0.0000 48.6308 0.0000
# 6 0.0000 0.0000 0.0000 4.9693 0.0000 19.7098
#
#
#
# Elastic Compliance Matrix: (Units=1/GPa)
#
#
# Indices 1 2 3 4 5 6 
#
# 1 0.009491 0.000259 -0.002012 0.000000 0.001332 0.000000
# 2 0.000259 0.009903 -0.001137 0.000000 -0.000877 0.000000
# 3 -0.002012 -0.001137 0.005313 0.000000 -0.002841 0.000000
# 4 0.000000 0.000000 0.000000 0.034264 0.000000 -0.008639
# 5 0.001332 -0.000877 -0.002841 0.000000 0.022317 0.000000
# 6 0.000000 0.000000 0.000000 -0.008639 0.000000 0.052914
#
#
# Mechanical properties :
#
#
# Convention : Reuss Voigt Hill
#
# Bulk Modulus (GPa) = 52.83963 65.36914 59.10438
# Shear Modulus (GPa) = 34.17816 44.56298 39.37057
#
# Velocity S-wave (km/s) = 3.49815 3.99440 3.75448
# Velocity P-wave (km/s) = 5.93588 6.68418 6.32111
#
# Compressibility (1/GPa) = 0.01892519
#
# Stress axis : x y z
#
# Youngs Moduli (GPa) = 105.36557 100.97906 188.20427
#
# Poissons Ratio (x) = -0.02611 0.37871
# Poissons Ratio (y) = -0.02725 0.21406
# Poissons Ratio (z) = 0.21202 0.11485
#
# Static dielectric constant tensor:
#      x y z
#    x 2.345990 0.000000 0.063930 
#    y 0.000000 2.252120 0.000000 
#    z 0.063930 0.000000 2.256180 
# 
# From -- ./inp_files/28845.got.cif
#   From: 2010.05.17/outbox.cif.g08.bks.cpg/sg5_15_cif.got.tgz:28845.got - 2010.06.03 18:56:24.
