data_PCOD9128832
_publ_section_title
;
Structure prediction by ZEFSAII (Michael W. Deem and Ramdas Pophale) SiO2 
 PCOD9128832
Probable space group: C 2
;
_chemical_formula_sum "Si O2"
_cell_formula_units_Z 28
_cell_length_a 8.401523
_cell_length_b 12.591198
_cell_length_c 13.731585
_cell_angle_alpha 90.000000
_cell_angle_beta 50.670098
_cell_angle_gamma 90.000000
_cell_volume 1123.599206
_symmetry_space_group_name_H-M "C 2"
_symmetry_group_IT_number 5
_symmetry_cell_setting 'monoclinic'
loop_
_space_group_symop_operation_xyz
x,y,z
-x,y,-z
1/2+x,1/2+y,z
1/2-x,1/2+y,-z
loop_
_atom_site_type_symbol
_atom_site_label
_atom_site_fract_x
_atom_site_fract_y
_atom_site_fract_z
Si Si1 0.378804 0.056480 0.453385
Si Si2 0.945761 0.928163 0.831203
Si Si3 0.123848 0.649973 0.747697
Si Si4 0.903543 0.339120 0.934154
Si Si5 0.948854 0.964567 0.626057
Si Si6 0.129469 0.366799 0.279211
Si Si7 0.334679 0.609595 0.989533
O O1 0.500000 0.091948 0.500000
O O2 0.409929 0.141739 0.355619
O O3 0.139080 0.044207 0.569240
O O4 0.447965 0.933000 0.402512
O O5 0.930071 0.889484 0.726619
O O6 0.826230 0.036615 0.898241
O O7 0.180157 0.942162 0.767584
O O8 0.838203 0.850384 0.948617
O O9 0.253778 0.541304 0.707088
O O10 0.267850 0.751185 0.727655
O O11 0.896482 0.631765 0.882859
O O12 0.926451 0.372879 0.813630
O O13 0.952484 0.216009 0.915359
O O14 0.000000 0.381076 0.000000
O O15 0.000000 0.918088 0.500000
O O16 0.500000 0.557637 0.000000
#
# Coordination Sequence:
#
# PCOD9128832 Si02
#       7
#     4   4   4   4   4   4   4
#     4  11  24  47  75 106 151 202 261 319 382 452
#     4  12  23  42  73 104 145 198 245 312 390 457
#     4  11  25  48  76 110 155 202 258 324 392 465
#     4  11  26  42  67 111 148 187 253 309 387 478
#     4  10  25  44  68 104 144 199 259 314 387 443
#     4  12  25  48  76 107 151 201 257 322 391 465
#     4  11  24  43  71 107 152 193 243 319 394 464
#
# _framework density 24.919916000000001
#
# number of rings (size 3 to 8) (size 9 to 14) (size 15 to 20)
#    0.000    0.857    2.857    3.857    6.000    2.857 
#    0.000    0.714    0.000    0.000    0.000    0.000 
#    0.000    0.000    0.000    0.000    0.000    0.000 
#
# Total GULP energy -78000.314819 kJ/mol
# GULP energy per Si atom -5571.451058 kJ/mol
# Density = 2.486320 g / cm^3
# Si number density = 24.919916 Si / 1000 Ang^3
#
#
#
# Elastic Constant Matrix: (Units=GPa)
#
#
# Indices 1 2 3 4 5 6 
#
# 1 141.9065 35.5534 56.4191 0.0001 18.2272 -0.0001
# 2 35.5534 77.0980 32.3931 0.0001 11.1680 -0.0001
# 3 56.4191 32.3931 95.7528 0.0000 16.9166 0.0000
# 4 0.0001 0.0001 0.0000 10.3652 0.0000 2.1978
# 5 18.2272 11.1680 16.9166 0.0000 63.8806 0.0001
# 6 -0.0001 -0.0001 0.0000 2.1978 0.0001 38.7561
#
#
#
# Elastic Compliance Matrix: (Units=1/GPa)
#
#
# Indices 1 2 3 4 5 6 
#
# 1 0.009636 -0.002309 -0.004702 0.000000 -0.001101 0.000000
# 2 -0.002309 0.015785 -0.003786 0.000000 -0.001098 0.000000
# 3 -0.004702 -0.003786 0.014835 0.000000 -0.001925 0.000000
# 4 0.000000 0.000000 0.000000 0.097650 0.000000 -0.005538
# 5 -0.001101 -0.001098 -0.001925 0.000000 0.016670 0.000000
# 6 0.000000 0.000000 0.000000 -0.005538 0.000000 0.026116
#
#
# Mechanical properties :
#
#
# Convention : Reuss Voigt Hill
#
# Bulk Modulus (GPa) = 53.58249 62.60983 58.09616
# Shear Modulus (GPa) = 23.97999 35.29316 29.63657
#
# Velocity S-wave (km/s) = 3.10543 3.76741 3.45232
# Velocity P-wave (km/s) = 5.86573 6.64104 6.26539
#
# Compressibility (1/GPa) = 0.01866281
#
# Stress axis : x y z
#
# Youngs Moduli (GPa) = 103.77503 63.35221 67.40788
#
# Poissons Ratio (x) = 0.14625 0.31698
# Poissons Ratio (y) = 0.23957 0.25519
# Poissons Ratio (z) = 0.48799 0.23983
#
# Static dielectric constant tensor:
#      x y z
#    x 2.183240 0.000000 0.088600 
#    y 0.000000 2.010210 0.000000 
#    z 0.088600 0.000000 1.995010 
# 
# From -- ./inp_files/50889.got.cif
#   From: 2010.05.17/outbox.cif.g08.bks.cpg/sg5_26_cif.got.tgz:50889.got - 2010.06.03 18:56:24.
