data_PCOD9128220
_publ_section_title
;
Structure prediction by ZEFSAII (Michael W. Deem and Ramdas Pophale) SiO2 
 PCOD9128220
Probable space group: C 2
;
_chemical_formula_sum "Si O2"
_cell_formula_units_Z 22
_cell_length_a 24.529520
_cell_length_b 5.638330
_cell_length_c 16.048727
_cell_angle_alpha 90.000000
_cell_angle_beta 27.621890
_cell_angle_gamma 90.000000
_cell_volume 1029.096137
_symmetry_space_group_name_H-M "C 2"
_symmetry_group_IT_number 5
_symmetry_cell_setting 'monoclinic'
loop_
_space_group_symop_operation_xyz
x,y,z
-x,y,-z
1/2+x,1/2+y,z
1/2-x,1/2+y,-z
loop_
_atom_site_type_symbol
_atom_site_label
_atom_site_fract_x
_atom_site_fract_y
_atom_site_fract_z
Si Si1 0.202851 0.042090 0.674063
Si Si2 0.000000 0.702575 0.000000
Si Si3 0.364201 0.669143 0.417051
Si Si4 0.372178 0.564714 0.898215
Si Si5 0.215451 0.441753 0.764785
Si Si6 0.256635 0.565617 0.884200
O O1 0.176921 0.172078 0.622637
O O2 0.196538 0.166210 0.772520
O O3 0.095208 0.855867 0.821955
O O4 0.332319 0.931392 0.492010
O O5 0.083808 0.547064 0.945422
O O6 0.495234 0.581912 0.250630
O O7 0.282438 0.514533 0.589369
O O8 0.357601 0.563603 0.817403
O O9 0.312018 0.317280 0.010374
O O10 0.313648 0.816706 0.004778
O O11 0.286980 0.535644 0.746151
#
# Coordination Sequence:
#
# PCOD9128220 Si02
#       6
#     4   2   4   4   4   4
#     4  11  23  40  58 101 129 176 214 272 333 402
#     4  10  24  38  62  92 126 178 220 268 332 384
#     4  11  24  39  64  93 138 169 216 269 343 385
#     4  10  24  45  72  94 130 174 221 282 324 388
#     4  11  24  39  63  93 135 171 219 275 323 407
#     4  10  24  45  69  99 125 174 232 268 327 389
#
# _framework density 21.377983
#
# number of rings (size 3 to 8) (size 9 to 14) (size 15 to 20)
#    0.000    1.455    1.818    1.636   12.727    0.727 
#    0.000    0.000    0.000    0.000    0.000    0.000 
#    0.000    0.000    0.000    0.000    0.000    0.000 
#
# Total GULP energy -61269.293264 kJ/mol
# GULP energy per Si atom -5569.935751 kJ/mol
# Density = 2.132933 g / cm^3
# Si number density = 21.377983 Si / 1000 Ang^3
#
#
#
# Elastic Constant Matrix: (Units=GPa)
#
#
# Indices 1 2 3 4 5 6 
#
# 1 123.9712 34.7850 22.6028 0.0004 14.8746 -0.0016
# 2 34.7850 94.8128 13.9042 -0.0104 6.2894 0.0067
# 3 22.6028 13.9042 22.5386 -0.0103 7.1544 0.0010
# 4 0.0004 -0.0104 -0.0103 18.1636 0.0045 -1.6963
# 5 14.8746 6.2894 7.1544 0.0045 23.0093 -0.0017
# 6 -0.0016 0.0067 0.0010 -1.6963 -0.0017 23.0163
#
#
#
# Elastic Compliance Matrix: (Units=1/GPa)
#
#
# Indices 1 2 3 4 5 6 
#
# 1 0.010669 -0.002497 -0.007973 -0.000005 -0.003735 0.000001
# 2 -0.002497 0.012204 -0.004968 0.000004 -0.000177 -0.000003
# 3 -0.007973 -0.004968 0.059205 0.000034 -0.011897 0.000000
# 4 -0.000005 0.000004 0.000034 0.055437 -0.000019 0.004086
# 5 -0.003735 -0.000177 -0.011897 -0.000019 0.049623 0.000003
# 6 0.000001 -0.000003 0.000000 0.004086 0.000003 0.043749
#
#
# Mechanical properties :
#
#
# Convention : Reuss Voigt Hill
#
# Bulk Modulus (GPa) = 19.53079 42.65628 31.09354
# Shear Modulus (GPa) = 17.93207 24.17321 21.05264
#
# Velocity S-wave (km/s) = 2.89936 3.36631 3.14153
# Velocity P-wave (km/s) = 4.51267 5.92504 5.26642
#
# Compressibility (1/GPa) = 0.05120119
#
# Stress axis : x y z
#
# Youngs Moduli (GPa) = 93.73014 81.94331 16.89035
#
# Poissons Ratio (x) = 0.20463 0.13467
# Poissons Ratio (y) = 0.23406 0.08391
# Poissons Ratio (z) = 0.74732 0.40710
#
# Static dielectric constant tensor:
#      x y z
#    x 1.753080 0.000000 0.044360 
#    y 0.000000 2.053730 0.000000 
#    z 0.044360 0.000000 1.745620 
# 
# From -- ./inp_files/41153.got.cif
#   From: 2010.05.17/outbox.cif.g08.bks.cpg/sg5_21_cif.got.tgz:41153.got - 2010.06.03 18:56:24.
