data_PCOD9128339
_publ_section_title
;
Structure prediction by ZEFSAII (Michael W. Deem and Ramdas Pophale) SiO2 
 PCOD9128339
Probable space group: C 2
;
_chemical_formula_sum "Si O2"
_cell_formula_units_Z 32
_cell_length_a 5.038410
_cell_length_b 18.606100
_cell_length_c 15.124379
_cell_angle_alpha 90.000000
_cell_angle_beta 87.752933
_cell_angle_gamma 90.000000
_cell_volume 1416.747080
_symmetry_space_group_name_H-M "C 2"
_symmetry_group_IT_number 5
_symmetry_cell_setting 'monoclinic'
loop_
_space_group_symop_operation_xyz
x,y,z
-x,y,-z
1/2+x,1/2+y,z
1/2-x,1/2+y,-z
loop_
_atom_site_type_symbol
_atom_site_label
_atom_site_fract_x
_atom_site_fract_y
_atom_site_fract_z
Si Si1 0.466056 0.602310 0.363534
Si Si2 0.553197 0.945651 0.827132
Si Si3 0.490868 0.295457 0.747804
Si Si4 0.409751 0.798823 0.899194
Si Si5 0.774942 0.560286 0.942997
Si Si6 0.090525 0.170754 0.810669
Si Si7 0.429753 0.190252 0.406609
Si Si8 0.547373 0.455770 0.717367
O O1 0.559684 0.631332 0.265563
O O2 0.683322 0.636963 0.423318
O O3 0.466346 0.516414 0.357293
O O4 0.178242 0.638933 0.377279
O O5 0.583120 0.862522 0.852183
O O6 0.838430 0.977490 0.797955
O O7 0.348570 0.953174 0.748433
O O8 0.402370 0.985598 0.908239
O O9 0.645864 0.309189 0.839242
O O10 0.254961 0.239184 0.771719
O O11 0.635223 0.248947 0.668113
O O12 0.455059 0.373650 0.703290
O O13 0.428520 0.712918 0.886668
O O14 0.500000 0.809480 0.000000
O O15 0.751895 0.609288 0.856882
O O16 0.500000 0.552091 0.000000
O O17 0.000000 0.595439 0.000000
O O18 0.500000 0.225190 0.500000
#
# Coordination Sequence:
#
# PCOD9128339 Si02
#       8
#     4   4   4   4   4   4   4   4
#     4  11  23  42  73  98 133 172 222 274 334 403
#     4  11  23  42  61  91 130 180 225 281 331 389
#     4  10  24  42  67  95 135 179 224 268 340 399
#     4  11  23  39  61  92 136 179 230 278 323 385
#     4  12  27  40  61  88 130 174 232 282 335 384
#     4  11  23  41  60  94 127 176 221 278 328 388
#     4  11  24  45  72 106 137 171 215 274 342 412
#     4  11  22  42  68  96 127 175 223 269 334 398
#
# _framework density 22.586950999999999
#
# number of rings (size 3 to 8) (size 9 to 14) (size 15 to 20)
#    0.000    1.000    3.750    2.625    5.250    0.000 
#    0.000    1.250    0.000    0.000    0.000    0.000 
#    0.000    0.000    0.000    0.000    0.000    0.000 
#
# Total GULP energy -89088.884873 kJ/mol
# GULP energy per Si atom -5568.055305 kJ/mol
# Density = 2.253554 g / cm^3
# Si number density = 22.586951 Si / 1000 Ang^3
#
#
#
# Elastic Constant Matrix: (Units=GPa)
#
#
# Indices 1 2 3 4 5 6 
#
# 1 81.7163 24.4624 18.8825 0.0000 2.1298 0.0000
# 2 24.4624 128.9498 21.9354 0.0000 -8.7792 0.0000
# 3 18.8825 21.9354 53.9188 0.0000 10.4768 0.0000
# 4 0.0000 0.0000 0.0000 4.5431 0.0000 -5.8279
# 5 2.1298 -8.7792 10.4768 0.0000 29.6941 0.0000
# 6 0.0000 0.0000 0.0000 -5.8279 0.0000 22.1340
#
#
#
# Elastic Compliance Matrix: (Units=1/GPa)
#
#
# Indices 1 2 3 4 5 6 
#
# 1 0.013745 -0.001938 -0.003996 0.000000 -0.000149 0.000000
# 2 -0.001938 0.009055 -0.003814 0.000000 0.004162 0.000000
# 3 -0.003996 -0.003814 0.023255 0.000000 -0.009046 0.000000
# 4 0.000000 0.000000 0.000000 0.332378 0.000000 0.087515
# 5 -0.000149 0.004162 -0.009046 0.000000 0.038109 0.000000
# 6 0.000000 0.000000 0.000000 0.087515 0.000000 0.068222
#
#
# Mechanical properties :
#
#
# Convention : Reuss Voigt Hill
#
# Bulk Modulus (GPa) = 37.65176 43.90506 40.77841
# Shear Modulus (GPa) = 9.74445 24.56121 17.15283
#
# Velocity S-wave (km/s) = 2.07932 3.30116 2.75874
# Velocity P-wave (km/s) = 4.74032 5.83187 5.31419
#
# Compressibility (1/GPa) = 0.02655919
#
# Stress axis : x y z
#
# Youngs Moduli (GPa) = 72.75447 110.44075 43.00148
#
# Poissons Ratio (x) = 0.21401 0.17184
# Poissons Ratio (y) = 0.14098 0.16399
# Poissons Ratio (z) = 0.29074 0.42118
#
# Static dielectric constant tensor:
#      x y z
#    x 1.912460 0.000000 -0.039610 
#    y 0.000000 1.838700 0.000000 
#    z -0.039610 0.000000 2.030930 
# 
# From -- ./inp_files/49343.got.cif
#   From: 2010.05.17/outbox.cif.g08.bks.cpg/sg5_25_cif.got.tgz:49343.got - 2010.06.03 18:56:24.
