data_PCOD9128073
_publ_section_title
;
Structure prediction by ZEFSAII (Michael W. Deem and Ramdas Pophale) SiO2 
 PCOD9128073
Probable space group: C 2
;
_chemical_formula_sum "Si O2"
_cell_formula_units_Z 16
_cell_length_a 15.828797
_cell_length_b 6.601496
_cell_length_c 14.565012
_cell_angle_alpha 90.000000
_cell_angle_beta 25.948663
_cell_angle_gamma 90.000000
_cell_volume 665.954172
_symmetry_space_group_name_H-M "C 2"
_symmetry_group_IT_number 5
_symmetry_cell_setting 'monoclinic'
loop_
_space_group_symop_operation_xyz
x,y,z
-x,y,-z
1/2+x,1/2+y,z
1/2-x,1/2+y,-z
loop_
_atom_site_type_symbol
_atom_site_label
_atom_site_fract_x
_atom_site_fract_y
_atom_site_fract_z
Si Si1 0.621414 0.684800 0.992548
Si Si2 0.969674 0.697422 0.345558
Si Si3 0.229868 0.950555 0.703094
Si Si4 0.317036 0.032130 0.304926
O O1 0.455727 0.520932 0.176880
O O2 0.500119 0.891141 0.103698
O O3 0.800682 0.714940 0.884406
O O4 0.707512 0.594429 0.813548
O O5 0.917479 0.507903 0.462729
O O6 0.865847 0.887684 0.496344
O O7 0.867268 0.645235 0.350691
O O8 0.220254 0.712442 0.730283
#
# Coordination Sequence:
#
# PCOD9128073 Si02
#       4
#     4   4   4   4
#     4  10  25  42  70  99 135 176 224 273 338 398
#     4  11  23  43  70 102 132 179 224 276 334 396
#     4  10  23  46  64  99 139 172 221 277 330 402
#     4  11  24  42  71  99 139 172 227 280 328 398
#
# _framework density 24.025676000000001
#
# number of rings (size 3 to 8) (size 9 to 14) (size 15 to 20)
#    0.000    1.500    2.500    0.750    3.500   10.000 
#    0.000    7.500    0.000    0.000    0.000    0.000 
#    0.000    0.000    0.000    0.000    0.000    0.000 
#
# Total GULP energy -44707.431880 kJ/mol
# GULP energy per Si atom -5588.428985 kJ/mol
# Density = 2.397099 g / cm^3
# Si number density = 24.025676 Si / 1000 Ang^3
#
#
#
# Elastic Constant Matrix: (Units=GPa)
#
#
# Indices 1 2 3 4 5 6 
#
# 1 30.4468 6.4462 16.3686 -0.0002 -15.6077 -0.0001
# 2 6.4462 149.3340 21.5101 -0.0021 2.3640 0.0010
# 3 16.3686 21.5101 75.5979 -0.0015 -22.1355 0.0012
# 4 -0.0002 -0.0021 -0.0015 28.4107 0.0007 8.5208
# 5 -15.6077 2.3640 -22.1355 0.0007 54.3899 -0.0002
# 6 -0.0001 0.0010 0.0012 8.5208 -0.0002 18.5502
#
#
#
# Elastic Compliance Matrix: (Units=1/GPa)
#
#
# Indices 1 2 3 4 5 6 
#
# 1 0.041047 -0.001085 -0.005808 -0.000001 0.009462 0.000001
# 2 -0.001085 0.007088 -0.002229 0.000001 -0.001527 -0.000001
# 3 -0.005808 -0.002229 0.016643 0.000001 0.005204 -0.000001
# 4 -0.000001 0.000001 0.000001 0.040822 0.000000 -0.018751
# 5 0.009462 -0.001527 0.005204 0.000000 0.023285 0.000000
# 6 0.000001 -0.000001 -0.000001 -0.018751 0.000000 0.062521
#
#
# Mechanical properties :
#
#
# Convention : Reuss Voigt Hill
#
# Bulk Modulus (GPa) = 21.48957 38.22539 29.85748
# Shear Modulus (GPa) = 22.20625 34.34043 28.27334
#
# Velocity S-wave (km/s) = 3.04348 3.78474 3.43417
# Velocity P-wave (km/s) = 4.61673 5.91978 5.30839
#
# Compressibility (1/GPa) = 0.04653421
#
# Stress axis : x y z
#
# Youngs Moduli (GPa) = 24.36238 141.07434 60.08398
#
# Poissons Ratio (x) = 0.15306 0.34899
# Poissons Ratio (y) = 0.02643 0.13393
# Poissons Ratio (z) = 0.14150 0.31445
#
# Static dielectric constant tensor:
#      x y z
#    x 2.028840 0.000000 0.000680 
#    y 0.000000 1.920330 0.000000 
#    z 0.000680 0.000000 1.908870 
# 
# From -- ./inp_files/62655.got.cif
#   From: 2010.05.17/outbox.cif.g08.bks.cpg/sg5_32_cif.got.tgz:62655.got - 2010.06.03 18:56:24.
