data_PCOD9128431
_publ_section_title
;
Structure prediction by ZEFSAII (Michael W. Deem and Ramdas Pophale) SiO2 
 PCOD9128431
Probable space group: C 2
;
_chemical_formula_sum "Si O2"
_cell_formula_units_Z 26
_cell_length_a 19.730453
_cell_length_b 10.125522
_cell_length_c 7.604794
_cell_angle_alpha 90.000000
_cell_angle_beta 52.707114
_cell_angle_gamma 90.000000
_cell_volume 1208.672696
_symmetry_space_group_name_H-M "C 2"
_symmetry_group_IT_number 5
_symmetry_cell_setting 'monoclinic'
loop_
_space_group_symop_operation_xyz
x,y,z
-x,y,-z
1/2+x,1/2+y,z
1/2-x,1/2+y,-z
loop_
_atom_site_type_symbol
_atom_site_label
_atom_site_fract_x
_atom_site_fract_y
_atom_site_fract_z
Si Si1 0.760160 0.823360 0.177181
Si Si2 0.000000 0.219678 0.500000
Si Si3 0.745291 0.334571 0.209013
Si Si4 0.563529 0.888854 0.065427
Si Si5 0.650349 0.583358 0.467671
Si Si6 0.226057 0.580482 0.428755
Si Si7 0.588218 0.176725 0.933523
O O1 0.713977 0.682994 0.266263
O O2 0.858217 0.790370 0.058030
O O3 0.723111 0.930389 0.369495
O O4 0.748027 0.874963 0.002581
O O5 0.041440 0.312742 0.281928
O O6 0.061915 0.127504 0.521331
O O7 0.675679 0.431864 0.399107
O O8 0.721140 0.183227 0.277030
O O9 0.839355 0.355743 0.137751
O O10 0.500000 0.859537 0.000000
O O11 0.563753 0.048063 0.086966
O O12 0.682748 0.603479 0.616917
O O13 0.150778 0.620913 0.681061
O O14 0.500000 0.230430 0.000000
#
# Coordination Sequence:
#
# PCOD9128431 Si02
#       7
#     4   2   4   4   4   4   4
#     4  11  23  42  69  99 131 181 231 281 344 416
#     4  12  26  42  72 102 146 180 234 294 340 412
#     4  12  23  44  66  99 137 181 229 282 348 417
#     4  11  24  42  70 105 138 179 233 288 343 410
#     4  11  23  43  65  98 133 178 231 280 340 411
#     4  11  24  42  74  92 136 188 225 281 354 414
#     4  10  24  44  66 101 138 176 235 285 346 412
#
# _framework density 21.511199000000001
#
# number of rings (size 3 to 8) (size 9 to 14) (size 15 to 20)
#    0.000    0.923    4.615    3.692    4.308    0.000 
#    5.538    0.769    0.000    0.000    0.000    0.000 
#    0.000    0.000    0.000    0.000    0.000    0.000 
#
# Total GULP energy -72523.831441 kJ/mol
# GULP energy per Si atom -5578.756265 kJ/mol
# Density = 2.146224 g / cm^3
# Si number density = 21.511199 Si / 1000 Ang^3
#
#
#
# Elastic Constant Matrix: (Units=GPa)
#
#
# Indices 1 2 3 4 5 6 
#
# 1 113.9136 25.5479 37.8981 0.0000 -14.0910 0.0000
# 2 25.5479 66.7214 11.7389 0.0000 0.3674 0.0000
# 3 37.8981 11.7389 42.6846 0.0000 12.3633 0.0000
# 4 0.0000 0.0000 0.0000 15.1612 0.0000 8.7251
# 5 -14.0910 0.3674 12.3633 0.0000 37.2065 0.0000
# 6 0.0000 0.0000 0.0000 8.7251 0.0000 17.1574
#
#
#
# Elastic Compliance Matrix: (Units=1/GPa)
#
#
# Indices 1 2 3 4 5 6 
#
# 1 0.016961 -0.003451 -0.017682 0.000000 0.012333 0.000000
# 2 -0.003451 0.016520 -0.001165 0.000000 -0.001083 0.000000
# 3 -0.017682 -0.001165 0.045791 0.000000 -0.021901 0.000000
# 4 0.000000 0.000000 0.000000 0.093247 0.000000 -0.047419
# 5 0.012333 -0.001083 -0.021901 0.000000 0.038836 0.000000
# 6 0.000000 0.000000 0.000000 -0.047419 0.000000 0.082398
#
#
# Mechanical properties :
#
#
# Convention : Reuss Voigt Hill
#
# Bulk Modulus (GPa) = 28.83953 41.52105 35.18029
# Shear Modulus (GPa) = 14.28950 23.78068 19.03509
#
# Velocity S-wave (km/s) = 2.58016 3.32852 2.97794
# Velocity P-wave (km/s) = 4.72358 5.84089 5.31169
#
# Compressibility (1/GPa) = 0.03467463
#
# Stress axis : x y z
#
# Youngs Moduli (GPa) = 58.95925 60.53190 21.83850
#
# Poissons Ratio (x) = 0.20892 0.38615
# Poissons Ratio (y) = 0.20349 0.02545
# Poissons Ratio (z) = 1.04251 0.07053
#
# Static dielectric constant tensor:
#      x y z
#    x 1.843190 0.000000 -0.002370 
#    y 0.000000 1.769800 0.000000 
#    z -0.002370 0.000000 1.769480 
# 
# From -- ./inp_files/29089.got.cif
#   From: 2010.05.17/outbox.cif.g08.bks.cpg/sg5_15_cif.got.tgz:29089.got - 2010.06.03 18:56:24.
