data_PCOD9128855
_publ_section_title
;
Structure prediction by ZEFSAII (Michael W. Deem and Ramdas Pophale) SiO2 
 PCOD9128855
Probable space group: C 2
;
_chemical_formula_sum "Si O2"
_cell_formula_units_Z 24
_cell_length_a 11.688052
_cell_length_b 7.434007
_cell_length_c 23.203598
_cell_angle_alpha 90.000000
_cell_angle_beta 29.441651
_cell_angle_gamma 90.000000
_cell_volume 991.006731
_symmetry_space_group_name_H-M "C 2"
_symmetry_group_IT_number 5
_symmetry_cell_setting 'monoclinic'
loop_
_space_group_symop_operation_xyz
x,y,z
-x,y,-z
1/2+x,1/2+y,z
1/2-x,1/2+y,-z
loop_
_atom_site_type_symbol
_atom_site_label
_atom_site_fract_x
_atom_site_fract_y
_atom_site_fract_z
Si Si1 0.658810 0.453610 0.104994
Si Si2 0.445450 0.612529 0.626152
Si Si3 0.573919 0.166244 0.712458
Si Si4 0.644629 0.947999 0.488901
Si Si5 0.642597 0.085442 0.869429
Si Si6 0.093502 0.001632 0.896212
O O1 0.538531 0.272951 0.182778
O O2 0.687448 0.567335 0.150767
O O3 0.527290 0.553871 0.110992
O O4 0.930106 0.444931 0.966403
O O5 0.467056 0.824282 0.602683
O O6 0.702307 0.554852 0.532501
O O7 0.290233 0.561907 0.748240
O O8 0.292052 0.547952 0.639146
O O9 0.683508 0.309066 0.619983
O O10 0.363812 0.054538 0.777659
O O11 0.500000 0.040461 0.500000
O O12 0.548166 0.287260 0.913278
O O13 0.000000 0.062417 0.000000
#
# Coordination Sequence:
#
# PCOD9128855 Si02
#       6
#     4   4   4   4   4   4
#     4  11  24  44  66  97 138 182 217 276 341 407
#     4  11  23  48  69  98 138 175 226 287 332 406
#     4  11  25  43  70  99 136 177 227 279 338 398
#     4  10  25  45  69  98 133 179 227 282 341 392
#     4  11  24  44  66  98 140 176 223 276 340 407
#     4  12  26  40  67 103 135 176 224 276 335 410
#
# _framework density 24.217797000000001
#
# number of rings (size 3 to 8) (size 9 to 14) (size 15 to 20)
#    0.000    1.000    5.000    1.000    4.667    1.333 
#    3.000    0.000    0.000    0.000    0.000    0.000 
#    0.000    0.000    0.000    0.000    0.000    0.000 
#
# Total GULP energy -66977.376416 kJ/mol
# GULP energy per Si atom -5581.448035 kJ/mol
# Density = 2.416268 g / cm^3
# Si number density = 24.217797 Si / 1000 Ang^3
#
#
#
# Elastic Constant Matrix: (Units=GPa)
#
#
# Indices 1 2 3 4 5 6 
#
# 1 214.1187 30.9138 31.2581 -0.0001 -33.8308 0.0002
# 2 30.9138 34.7179 14.6902 0.0000 -6.8986 0.0004
# 3 31.2581 14.6902 91.9894 -0.0010 -3.7852 0.0003
# 4 -0.0001 0.0000 -0.0010 34.0456 0.0001 -7.0619
# 5 -33.8308 -6.8986 -3.7852 0.0001 42.2464 0.0000
# 6 0.0002 0.0004 0.0003 -7.0619 0.0000 38.7463
#
#
#
# Elastic Compliance Matrix: (Units=1/GPa)
#
#
# Indices 1 2 3 4 5 6 
#
# 1 0.006089 -0.004079 -0.001249 0.000000 0.004098 0.000000
# 2 -0.004079 0.034549 -0.004048 0.000000 0.002012 0.000000
# 3 -0.001249 -0.004048 0.011917 0.000000 -0.000594 0.000000
# 4 0.000000 0.000000 0.000000 0.030526 0.000000 0.005564
# 5 0.004098 0.002012 -0.000594 0.000000 0.027228 0.000000
# 6 0.000000 0.000000 0.000000 0.005564 0.000000 0.026823
#
#
# Mechanical properties :
#
#
# Convention : Reuss Voigt Hill
#
# Bulk Modulus (GPa) = 29.58400 54.95002 42.26701
# Shear Modulus (GPa) = 29.91284 40.60526 35.25905
#
# Velocity S-wave (km/s) = 3.51830 4.09916 3.81978
# Velocity P-wave (km/s) = 5.36161 6.71888 6.07825
#
# Compressibility (1/GPa) = 0.03380205
#
# Stress axis : x y z
#
# Youngs Moduli (GPa) = 164.22864 28.94481 83.91150
#
# Poissons Ratio (x) = 0.11807 0.10481
# Poissons Ratio (y) = 0.66990 0.33970
# Poissons Ratio (z) = 0.20513 0.11718
#
# Static dielectric constant tensor:
#      x y z
#    x 1.955910 0.000000 -0.033540 
#    y 0.000000 1.923430 0.000000 
#    z -0.033540 0.000000 1.978010 
# 
# From -- ./inp_files/68240.got.cif
#   From: 2010.05.17/outbox.cif.g08.bks.cpg/sg5_35_cif.got.tgz:68240.got - 2010.06.03 18:56:24.
