data_PCOD9128281
_publ_section_title
;
Structure prediction by ZEFSAII (Michael W. Deem and Ramdas Pophale) SiO2 
 PCOD9128281
Probable space group: C 2
;
_chemical_formula_sum "Si O2"
_cell_formula_units_Z 26
_cell_length_a 9.252402
_cell_length_b 14.376580
_cell_length_c 10.314754
_cell_angle_alpha 90.000000
_cell_angle_beta 109.478650
_cell_angle_gamma 90.000000
_cell_volume 1293.518900
_symmetry_space_group_name_H-M "C 2"
_symmetry_group_IT_number 5
_symmetry_cell_setting 'monoclinic'
loop_
_space_group_symop_operation_xyz
x,y,z
-x,y,-z
1/2+x,1/2+y,z
1/2-x,1/2+y,-z
loop_
_atom_site_type_symbol
_atom_site_label
_atom_site_fract_x
_atom_site_fract_y
_atom_site_fract_z
Si Si1 0.939180 0.959760 0.269446
Si Si2 0.762412 0.502957 0.230526
Si Si3 0.836589 0.256900 0.608552
Si Si4 0.160111 0.193934 0.104913
Si Si5 0.676405 0.886621 0.005857
Si Si6 0.000000 0.099278 0.500000
Si Si7 0.000000 0.420968 0.500000
Si Si8 0.000000 0.806847 0.500000
O O1 0.089934 0.989005 0.234023
O O2 0.982175 0.869434 0.366325
O O3 0.794560 0.939330 0.136322
O O4 0.907249 0.035515 0.371845
O O5 0.766808 0.606831 0.171530
O O6 0.798483 0.429250 0.128182
O O7 0.882187 0.482243 0.381217
O O8 0.655855 0.252407 0.536616
O O9 0.873451 0.248011 0.770847
O O10 0.901249 0.167262 0.557378
O O11 0.904898 0.350688 0.565784
O O12 0.784408 0.276285 0.973064
O O13 0.000000 0.156887 0.000000
O O14 0.500000 0.897735 0.000000
#
# Coordination Sequence:
#
# PCOD9128281 Si02
#       8
#     4   4   4   4   4   2   2   2
#     4  11  22  44  66  99 140 180 227 286 356 411
#     4  12  25  44  72 100 138 187 236 291 347 426
#     4  11  22  44  69 100 138 184 230 289 346 422
#     4  11  23  44  69  96 135 185 228 285 351 413
#     4  11  25  46  70  97 137 185 236 295 352 413
#     4  10  24  40  71  99 136 186 228 284 347 429
#     4  11  24  42  67 108 138 180 235 287 354 406
#     4  11  22  40  68  99 138 182 219 291 351 401
#
# _framework density 20.100210000000001
#
# number of rings (size 3 to 8) (size 9 to 14) (size 15 to 20)
#    0.000    0.923    4.615    3.231    0.000    0.615 
#    2.769    1.538    0.000    0.000    0.000    0.000 
#    0.000    0.000    0.000    0.000    0.000    0.000 
#
# Total GULP energy -72649.242297 kJ/mol
# GULP energy per Si atom -5588.403254 kJ/mol
# Density = 2.005446 g / cm^3
# Si number density = 20.100210 Si / 1000 Ang^3
#
#
#
# Elastic Constant Matrix: (Units=GPa)
#
#
# Indices 1 2 3 4 5 6 
#
# 1 37.5149 8.5204 27.6897 0.0000 15.8272 0.0000
# 2 8.5204 107.7769 49.0178 0.0000 5.9144 0.0000
# 3 27.6897 49.0178 146.4616 0.0000 21.6918 0.0000
# 4 0.0000 0.0000 0.000010788.1990 0.0000-4414.2053
# 5 15.8272 5.9144 21.6918 0.0000 41.0264 0.0000
# 6 0.0000 0.0000 0.0000-4414.2053 0.0000 1819.4088
#
#
#
# Elastic Compliance Matrix: (Units=1/GPa)
#
#
# Indices 1 2 3 4 5 6 
#
# 1 0.034913 0.000126 -0.005040 0.000000 -0.010822 0.000000
# 2 0.000126 0.010951 -0.003741 0.000000 0.000351 0.000000
# 3 -0.005040 -0.003741 0.009401 0.000000 -0.002487 0.000000
# 4 0.000000 0.000000 0.000000 0.012729 0.000000 0.030882
# 5 -0.010822 0.000351 -0.002487 0.000000 0.029814 0.000000
# 6 0.000000 0.000000 0.000000 0.030882 0.000000 0.075476
#
#
# Mechanical properties :
#
#
# Convention : Reuss Voigt Hill
#
# Bulk Modulus (GPa) = 26.34671 51.35658 38.85165
# Shear Modulus (GPa) = 24.60096 2543.49520 1284.04808
#
# Velocity S-wave (km/s) = 3.50225 35.61115 25.30237
# Velocity P-wave (km/s) = 5.43051 41.43040 29.54631
#
# Compressibility (1/GPa) = 0.03795540
#
# Stress axis : x y z
#
# Youngs Moduli (GPa) = 28.64237 91.31992 106.37363
#
# Poissons Ratio (x) = -0.01151 0.53612
# Poissons Ratio (y) = -0.00361 0.39791
# Poissons Ratio (z) = 0.14436 0.34160
#
# Static dielectric constant tensor:
#      x y z
#    x -13.542500 0.000000 8.127720 
#    y 0.000000 1.731030 0.000000 
#    z 8.127720 0.000000 -2.614820 
# 
# From -- ./inp_files/36284.got.cif
#   From: 2010.05.17/outbox.cif.g08.bks.cpg/sg5_19_cif.got.tgz:36284.got - 2010.06.03 18:56:24.
