data_PCOD9128708
_publ_section_title
;
Structure prediction by ZEFSAII (Michael W. Deem and Ramdas Pophale) SiO2 
 PCOD9128708
Probable space group: C 2
;
_chemical_formula_sum "Si O2"
_cell_formula_units_Z 26
_cell_length_a 9.283325
_cell_length_b 14.188869
_cell_length_c 14.326905
_cell_angle_alpha 90.000000
_cell_angle_beta 140.626870
_cell_angle_gamma 90.000000
_cell_volume 1197.140214
_symmetry_space_group_name_H-M "C 2"
_symmetry_group_IT_number 5
_symmetry_cell_setting 'monoclinic'
loop_
_space_group_symop_operation_xyz
x,y,z
-x,y,-z
1/2+x,1/2+y,z
1/2-x,1/2+y,-z
loop_
_atom_site_type_symbol
_atom_site_label
_atom_site_fract_x
_atom_site_fract_y
_atom_site_fract_z
Si Si1 0.609585 0.808100 0.156982
Si Si2 0.633252 0.471186 0.258925
Si Si3 0.730515 0.015890 0.176721
Si Si4 0.432731 0.134102 0.358104
Si Si5 0.173411 0.676191 0.294538
Si Si6 0.000000 0.334388 0.500000
Si Si7 0.375702 0.302102 0.031802
O O1 0.768901 0.723006 0.263339
O O2 0.736755 0.907677 0.214138
O O3 0.500000 0.794205 0.000000
O O4 0.391299 0.813856 0.114377
O O5 0.452760 0.532656 0.225556
O O6 0.793468 0.536649 0.275768
O O7 0.483377 0.399170 0.123232
O O8 0.791549 0.408300 0.407920
O O9 0.724744 0.085262 0.260246
O O10 0.500000 0.025754 0.000000
O O11 0.500000 0.131178 0.500000
O O12 0.631549 0.149744 0.381693
O O13 0.363553 0.756639 0.370314
O O14 0.941043 0.722851 0.140118
O O15 0.500000 0.273819 0.000000
#
# Coordination Sequence:
#
# PCOD9128708 Si02
#       7
#     4   4   4   4   4   2   4
#     4  11  22  47  71 101 144 184 238 292 357 415
#     4  11  24  45  72  99 142 185 239 290 357 421
#     4  11  24  46  73 106 141 181 233 304 352 422
#     4  12  28  46  70 103 143 193 239 297 353 428
#     4  11  26  45  69 104 139 186 238 290 358 420
#     4  10  24  48  72  90 146 182 232 290 356 422
#     4  11  24  42  71 107 140 185 231 300 354 420
#
# _framework density 21.718423999999999
#
# number of rings (size 3 to 8) (size 9 to 14) (size 15 to 20)
#    0.000    0.923    5.385    1.385    8.615    1.846 
#    1.385    0.000    0.000    0.000    0.000    0.000 
#    0.000    0.000    0.000    0.000    0.000    0.000 
#
# Total GULP energy -72561.690678 kJ/mol
# GULP energy per Si atom -5581.668514 kJ/mol
# Density = 2.166899 g / cm^3
# Si number density = 21.718424 Si / 1000 Ang^3
#
#
#
# Elastic Constant Matrix: (Units=GPa)
#
#
# Indices 1 2 3 4 5 6 
#
# 1 89.9112 9.9764 21.2447 0.0001 -1.7646 0.0000
# 2 9.9764 96.4795 24.0877 0.0001 -3.0170 0.0000
# 3 21.2447 24.0877 46.1445 0.0003 10.9870 0.0002
# 4 0.0001 0.0001 0.0003 20.2295 0.0001 0.5958
# 5 -1.7646 -3.0170 10.9870 0.0001 32.1141 0.0001
# 6 0.0000 0.0000 0.0002 0.5958 0.0001 22.2133
#
#
#
# Elastic Compliance Matrix: (Units=1/GPa)
#
#
# Indices 1 2 3 4 5 6 
#
# 1 0.012750 0.000492 -0.006864 0.000000 0.003095 0.000000
# 2 0.000492 0.012318 -0.007554 0.000000 0.003769 0.000000
# 3 -0.006864 -0.007554 0.031608 0.000000 -0.011901 0.000000
# 4 0.000000 0.000000 0.000000 0.049472 0.000000 -0.001327
# 5 0.003095 0.003769 -0.011901 0.000000 0.035735 0.000000
# 6 0.000000 0.000000 0.000000 -0.001327 0.000000 0.045054
#
#
# Mechanical properties :
#
#
# Convention : Reuss Voigt Hill
#
# Bulk Modulus (GPa) = 34.69278 38.12808 36.41043
# Shear Modulus (GPa) = 22.28215 26.72649 24.50432
#
# Velocity S-wave (km/s) = 3.20653 3.51178 3.36262
# Velocity P-wave (km/s) = 5.45139 5.83414 5.64601
#
# Compressibility (1/GPa) = 0.02882444
#
# Stress axis : x y z
#
# Youngs Moduli (GPa) = 78.43105 81.18340 31.63780
#
# Poissons Ratio (x) = -0.03995 0.21716
# Poissons Ratio (y) = -0.03859 0.23899
# Poissons Ratio (z) = 0.53834 0.61324
#
# Static dielectric constant tensor:
#      x y z
#    x 1.874190 0.000000 0.034290 
#    y 0.000000 1.781590 0.000000 
#    z 0.034290 0.000000 1.822510 
# 
# From -- ./inp_files/50837.got.cif
#   From: 2010.05.17/outbox.cif.g08.bks.cpg/sg5_26_cif.got.tgz:50837.got - 2010.06.03 18:56:24.
