data_PCOD9128804
_publ_section_title
;
Structure prediction by ZEFSAII (Michael W. Deem and Ramdas Pophale) SiO2 
 PCOD9128804
Probable space group: C 2
;
_chemical_formula_sum "Si O2"
_cell_formula_units_Z 20
_cell_length_a 8.762864
_cell_length_b 5.290708
_cell_length_c 18.395594
_cell_angle_alpha 90.000000
_cell_angle_beta 82.167012
_cell_angle_gamma 90.000000
_cell_volume 844.894513
_symmetry_space_group_name_H-M "C 2"
_symmetry_group_IT_number 5
_symmetry_cell_setting 'monoclinic'
loop_
_space_group_symop_operation_xyz
x,y,z
-x,y,-z
1/2+x,1/2+y,z
1/2-x,1/2+y,-z
loop_
_atom_site_type_symbol
_atom_site_label
_atom_site_fract_x
_atom_site_fract_y
_atom_site_fract_z
Si Si1 0.920492 0.775720 0.864999
Si Si2 0.001212 0.283685 0.202879
Si Si3 0.374172 0.615786 0.069113
Si Si4 0.687290 0.729483 0.637495
Si Si5 0.962035 0.729409 0.417191
O O1 0.919788 0.555025 0.805311
O O2 0.801970 0.678404 0.934824
O O3 0.895668 0.040254 0.823494
O O4 0.077775 0.848439 0.898065
O O5 0.899975 0.296291 0.136486
O O6 0.902160 0.237467 0.280287
O O7 0.500000 0.665699 0.000000
O O8 0.871302 0.730868 0.632563
O O9 0.631660 0.978107 0.597728
O O10 0.633723 0.475858 0.599854
O O11 0.000000 0.733671 0.500000
#
# Coordination Sequence:
#
# PCOD9128804 Si02
#       5
#     4   4   4   4   4
#     4  10  25  42  66  94 134 172 234 279 341 402
#     4  10  26  42  69  97 139 172 236 274 347 399
#     4  10  26  43  69  94 137 178 231 282 344 402
#     4  12  26  43  76 103 142 185 228 288 342 409
#     4  12  26  48  72 106 142 183 230 281 347 416
#
# _framework density 23.671592
#
# number of rings (size 3 to 8) (size 9 to 14) (size 15 to 20)
#    1.200    0.000    0.000    4.200   11.200    0.800 
#    0.000    0.000    0.000    0.000    0.000    0.000 
#    0.000    0.000    0.000    0.000    0.000    0.000 
#
# Total GULP energy -55812.513445 kJ/mol
# GULP energy per Si atom -5581.251344 kJ/mol
# Density = 2.361771 g / cm^3
# Si number density = 23.671592 Si / 1000 Ang^3
#
#
#
# Elastic Constant Matrix: (Units=GPa)
#
#
# Indices 1 2 3 4 5 6 
#
# 1 59.5476 48.7529 -15.8880 0.0000 -26.2130 0.0000
# 2 48.7529 184.5048 7.2027 0.0000 -2.8862 0.0000
# 3 -15.8880 7.2027 93.9031 0.0000 -5.1555 0.0000
# 4 0.0000 0.0000 0.0000 80.9165 0.0000 47.2743
# 5 -26.2130 -2.8862 -5.1555 0.0000 40.8209 0.0000
# 6 0.0000 0.0000 0.0000 47.2743 0.0000 53.8415
#
#
#
# Elastic Compliance Matrix: (Units=1/GPa)
#
#
# Indices 1 2 3 4 5 6 
#
# 1 0.038364 -0.010083 0.008638 0.000000 0.025013 0.000000
# 2 -0.010083 0.008091 -0.002669 0.000000 -0.006240 0.000000
# 3 0.008638 -0.002669 0.012698 0.000000 0.006962 0.000000
# 4 0.000000 0.000000 0.000000 0.025375 0.000000 -0.022280
# 5 0.025013 -0.006240 0.006962 0.000000 0.040998 0.000000
# 6 0.000000 0.000000 0.000000 -0.022280 0.000000 0.038136
#
#
# Mechanical properties :
#
#
# Convention : Reuss Voigt Hill
#
# Bulk Modulus (GPa) = 19.63727 46.45452 33.04589
# Shear Modulus (GPa) = 26.47394 54.97496 40.72445
#
# Velocity S-wave (km/s) = 3.34785 4.82436 4.15226
# Velocity P-wave (km/s) = 4.82264 7.12038 6.08102
#
# Compressibility (1/GPa) = 0.05092359
#
# Stress axis : x y z
#
# Youngs Moduli (GPa) = 26.06598 123.59663 78.75440
#
# Poissons Ratio (x) = 1.24624 -0.68026
# Poissons Ratio (y) = 0.26283 0.21021
# Poissons Ratio (z) = -0.22515 0.32990
#
# Static dielectric constant tensor:
#      x y z
#    x -0.786180 0.000000 -0.198680 
#    y 0.000000 1.955700 0.000000 
#    z -0.198680 0.000000 1.897190 
# 
# From -- ./inp_files/64152.got.cif
#   From: 2010.05.17/outbox.cif.g08.bks.cpg/sg5_33_cif.got.tgz:64152.got - 2010.06.03 18:56:24.
