data_PCOD9128405
_publ_section_title
;
Structure prediction by ZEFSAII (Michael W. Deem and Ramdas Pophale) SiO2 
 PCOD9128405
Probable space group: C 2
;
_chemical_formula_sum "Si O2"
_cell_formula_units_Z 30
_cell_length_a 24.143980
_cell_length_b 6.067603
_cell_length_c 20.233953
_cell_angle_alpha 90.000000
_cell_angle_beta 153.352979
_cell_angle_gamma 90.000000
_cell_volume 1329.419907
_symmetry_space_group_name_H-M "C 2"
_symmetry_group_IT_number 5
_symmetry_cell_setting 'monoclinic'
loop_
_space_group_symop_operation_xyz
x,y,z
-x,y,-z
1/2+x,1/2+y,z
1/2-x,1/2+y,-z
loop_
_atom_site_type_symbol
_atom_site_label
_atom_site_fract_x
_atom_site_fract_y
_atom_site_fract_z
Si Si1 0.290464 0.541010 0.570803
Si Si2 0.185959 0.202419 0.855035
Si Si3 0.793599 0.778767 0.831964
Si Si4 0.000000 0.108517 0.000000
Si Si5 0.264163 0.746794 0.371237
Si Si6 0.533128 0.444318 0.339876
Si Si7 0.439329 0.035943 0.182179
Si Si8 0.013462 0.479309 0.113868
O O1 0.243600 0.299032 0.485381
O O2 0.253083 0.470815 0.604934
O O3 0.434020 0.523927 0.700552
O O4 0.214182 0.301538 0.813604
O O5 0.105925 0.350939 0.817604
O O6 0.097312 0.989485 0.762595
O O7 0.317373 0.167652 0.029607
O O8 0.707773 0.762518 0.676227
O O9 0.886153 0.573597 0.946508
O O10 0.890393 0.968300 0.915479
O O11 0.046115 0.262064 0.108706
O O12 0.360903 0.576458 0.507400
O O13 0.126389 0.645742 0.225790
O O14 0.529134 0.184944 0.321521
O O15 0.494429 0.960783 0.171515
#
# Coordination Sequence:
#
# PCOD9128405 Si02
#       8
#     4   4   4   2   4   4   4   4
#     4  10  24  43  70 111 147 189 245 312 387 450
#     4  11  26  44  69  98 143 184 247 298 364 454
#     4  11  25  45  67 107 140 187 247 293 368 460
#     4  12  22  40  78 104 140 192 232 306 392 436
#     4  11  22  45  71 101 150 182 244 313 369 447
#     4  11  25  42  70 100 138 197 229 308 377 434
#     4  11  24  44  69 102 136 187 244 302 371 446
#     4  11  23  43  69 107 143 179 240 306 364 449
#
# _framework density 22.566234000000001
#
# number of rings (size 3 to 8) (size 9 to 14) (size 15 to 20)
#    0.000    1.067    5.333    0.000    5.600    3.733 
#    0.000    0.000    2.933    0.000    0.000    0.000 
#    0.000    0.000    0.000    0.000    0.000    0.000 
#
# Total GULP energy -83576.614082 kJ/mol
# GULP energy per Si atom -5571.774272 kJ/mol
# Density = 2.251487 g / cm^3
# Si number density = 22.566234 Si / 1000 Ang^3
#
#
#
# Elastic Constant Matrix: (Units=GPa)
#
#
# Indices 1 2 3 4 5 6 
#
# 1 169.5696 49.4301 22.7316 0.0000 -10.0298 0.0000
# 2 49.4301 91.0634 20.9211 0.0001 -21.9051 0.0000
# 3 22.7316 20.9211 69.5138 0.0000 -8.2884 0.0000
# 4 0.0000 0.0001 0.0000 32.1504 0.0000 -12.4164
# 5 -10.0298 -21.9051 -8.2884 0.0000 35.7688 0.0000
# 6 0.0000 0.0000 0.0000 -12.4164 0.0000 27.9862
#
#
#
# Elastic Compliance Matrix: (Units=1/GPa)
#
#
# Indices 1 2 3 4 5 6 
#
# 1 0.007115 -0.003706 -0.001280 0.000000 -0.000571 0.000000
# 2 -0.003706 0.015455 -0.002504 0.000000 0.007846 0.000000
# 3 -0.001280 -0.002504 0.015768 0.000000 0.001761 0.000000
# 4 0.000000 0.000000 0.000000 0.037535 0.000000 0.016653
# 5 -0.000571 0.007846 0.001761 0.000000 0.033010 0.000000
# 6 0.000000 0.000000 0.000000 0.016653 0.000000 0.043120
#
#
# Mechanical properties :
#
#
# Convention : Reuss Voigt Hill
#
# Bulk Modulus (GPa) = 42.80896 57.36805 50.08850
# Shear Modulus (GPa) = 28.60916 34.98534 31.79725
#
# Velocity S-wave (km/s) = 3.56446 3.94171 3.75782
# Velocity P-wave (km/s) = 5.99600 6.79657 6.40880
#
# Compressibility (1/GPa) = 0.02335960
#
# Stress axis : x y z
#
# Youngs Moduli (GPa) = 140.54351 64.70260 63.42059
#
# Poissons Ratio (x) = 0.23976 0.08115
# Poissons Ratio (y) = 0.52079 0.15882
# Poissons Ratio (z) = 0.17983 0.16203
#
# Static dielectric constant tensor:
#      x y z
#    x 1.892010 0.000000 0.027780 
#    y 0.000000 1.963610 0.000000 
#    z 0.027780 0.000000 1.972710 
# 
# From -- ./inp_files/67279.got.cif
#   From: 2010.05.17/outbox.cif.g08.bks.cpg/sg5_34_cif.got.tgz:67279.got - 2010.06.03 18:56:24.
