data_PCOD9128507
_publ_section_title
;
Structure prediction by ZEFSAII (Michael W. Deem and Ramdas Pophale) SiO2 
 PCOD9128507
Probable space group: C 2
;
_chemical_formula_sum "Si O2"
_cell_formula_units_Z 14
_cell_length_a 16.987759
_cell_length_b 5.411820
_cell_length_c 13.886132
_cell_angle_alpha 90.000000
_cell_angle_beta 155.160518
_cell_angle_gamma 90.000000
_cell_volume 536.278232
_symmetry_space_group_name_H-M "C 2"
_symmetry_group_IT_number 5
_symmetry_cell_setting 'monoclinic'
loop_
_space_group_symop_operation_xyz
x,y,z
-x,y,-z
1/2+x,1/2+y,z
1/2-x,1/2+y,-z
loop_
_atom_site_type_symbol
_atom_site_label
_atom_site_fract_x
_atom_site_fract_y
_atom_site_fract_z
Si Si1 0.000000 0.504451 0.500000
Si Si2 0.584556 0.624622 0.746689
Si Si3 0.259195 0.312222 0.447018
Si Si4 0.353707 0.794528 0.965479
O O1 0.023298 0.332649 0.431628
O O2 0.194323 0.647605 0.732667
O O3 0.448787 0.386815 0.603097
O O4 0.767651 0.565798 0.886942
O O5 0.637629 0.692177 0.914135
O O6 0.274365 0.057781 0.523454
O O7 0.069192 0.293356 0.174637
#
# Coordination Sequence:
#
# PCOD9128507 Si02
#       4
#     2   4   4   4
#     4  12  26  44  78 112 144 202 250 292 392 430
#     4  11  23  46  76 105 150 196 244 310 367 443
#     4  10  24  44  81 109 144 200 248 301 376 433
#     4  11  23  46  76 105 150 196 244 310 367 443
#
# _framework density 26.105853
#
# number of rings (size 3 to 8) (size 9 to 14) (size 15 to 20)
#    0.000    1.143    2.857    2.571    8.000    0.000 
#    0.000    8.571    0.000    0.000    0.000    0.000 
#    0.000    0.000    0.000    0.000    0.000    0.000 
#
# Total GULP energy -39206.858009 kJ/mol
# GULP energy per Si atom -5600.979716 kJ/mol
# Density = 2.604643 g / cm^3
# Si number density = 26.105853 Si / 1000 Ang^3
#
#
#
# Elastic Constant Matrix: (Units=GPa)
#
#
# Indices 1 2 3 4 5 6 
#
# 1 74.4580 25.3325 47.5057 0.0000 16.6312 0.0000
# 2 25.3325 109.1617 59.9081 0.0006 -17.0785 0.0001
# 3 47.5057 59.9081 247.6505 0.0000 -12.3469 0.0000
# 4 0.0000 0.0006 0.0000 48.4827 0.0000 -5.9505
# 5 16.6312 -17.0785 -12.3469 0.0000 56.7697 0.0000
# 6 0.0000 0.0001 0.0000 -5.9505 0.0000 45.1949
#
#
#
# Elastic Compliance Matrix: (Units=1/GPa)
#
#
# Indices 1 2 3 4 5 6 
#
# 1 0.018143 -0.003705 -0.002937 0.000000 -0.007068 0.000000
# 2 -0.003705 0.011729 -0.001918 0.000000 0.004197 0.000000
# 3 -0.002937 -0.001918 0.005135 0.000000 0.001400 0.000000
# 4 0.000000 0.000000 0.000000 0.020965 0.000000 0.002760
# 5 -0.007068 0.004197 0.001400 0.000000 0.021253 0.000000
# 6 0.000000 0.000000 0.000000 0.002760 0.000000 0.022490
#
#
# Mechanical properties :
#
#
# Convention : Reuss Voigt Hill
#
# Bulk Modulus (GPa) = 55.89696 77.41808 66.65752
# Shear Modulus (GPa) = 40.71803 49.99107 45.35455
#
# Velocity S-wave (km/s) = 3.95362 4.38075 4.17265
# Velocity P-wave (km/s) = 6.50382 7.43692 6.98597
#
# Compressibility (1/GPa) = 0.01789006
#
# Stress axis : x y z
#
# Youngs Moduli (GPa) = 55.11705 85.25594 194.74483
#
# Poissons Ratio (x) = 0.31584 0.57188
# Poissons Ratio (y) = 0.20419 0.37343
# Poissons Ratio (z) = 0.16185 0.16348
#
# Static dielectric constant tensor:
#      x y z
#    x 2.084190 0.000000 -0.017190 
#    y 0.000000 2.080300 0.000000 
#    z -0.017190 0.000000 2.009050 
# 
# From -- ./inp_files/17748.got.cif
#   From: 2010.05.17/outbox.cif.g08.bks.cpg/sg5_9_cif.got.tgz:17748.got - 2010.06.03 18:56:24.
