data_PCOD9128119
_publ_section_title
;
Structure prediction by ZEFSAII (Michael W. Deem and Ramdas Pophale) SiO2 
 PCOD9128119
Probable space group: C 2
;
_chemical_formula_sum "Si O2"
_cell_formula_units_Z 28
_cell_length_a 19.199601
_cell_length_b 5.300215
_cell_length_c 10.844983
_cell_angle_alpha 90.000000
_cell_angle_beta 94.910419
_cell_angle_gamma 90.000000
_cell_volume 1099.556785
_symmetry_space_group_name_H-M "C 2"
_symmetry_group_IT_number 5
_symmetry_cell_setting 'monoclinic'
loop_
_space_group_symop_operation_xyz
x,y,z
-x,y,-z
1/2+x,1/2+y,z
1/2-x,1/2+y,-z
loop_
_atom_site_type_symbol
_atom_site_label
_atom_site_fract_x
_atom_site_fract_y
_atom_site_fract_z
Si Si1 0.000000 0.447310 0.000000
Si Si2 0.859037 0.777789 0.649981
Si Si3 0.257889 0.925942 0.584536
Si Si4 0.341234 0.861337 0.983486
Si Si5 0.499251 0.233619 0.255673
Si Si6 0.227102 0.868936 0.144349
Si Si7 0.500000 0.892298 0.500000
Si Si8 0.114213 0.003618 0.612724
O O1 0.075990 0.317895 0.017790
O O2 0.991022 0.604875 0.124172
O O3 0.834698 0.483635 0.648461
O O4 0.793675 0.889224 0.716238
O O5 0.876478 0.840518 0.511358
O O6 0.926170 0.868902 0.734837
O O7 0.254550 0.666194 0.509997
O O8 0.194459 0.975369 0.669477
O O9 0.302825 0.623118 0.919219
O O10 0.314813 0.123898 0.916294
O O11 0.308619 0.866233 0.117291
O O12 0.434731 0.401542 0.287060
O O13 0.509998 0.051124 0.376229
O O14 0.569221 0.733732 0.548867
#
# Coordination Sequence:
#
# PCOD9128119 Si02
#       8
#     2   4   4   4   4   4   2   4
#     4  12  28  48  74 112 156 198 254 328 376 452
#     4  11  21  46  71 104 146 199 247 313 381 455
#     4  10  24  42  68 107 152 189 248 309 380 446
#     4  10  24  48  69 106 143 197 249 307 369 453
#     4  12  25  47  70 107 152 197 259 309 391 450
#     4  10  23  46  75  99 144 197 253 297 378 458
#     4  12  22  42  78 100 152 192 258 316 382 458
#     4  11  24  44  71 112 141 200 250 320 378 453
#
# _framework density 25.464805999999999
#
# number of rings (size 3 to 8) (size 9 to 14) (size 15 to 20)
#    0.000    1.143    4.286    0.857    4.000    4.000 
#   15.429    0.000    0.000    0.000    0.000    0.000 
#    0.000    0.000    0.000    0.000    0.000    0.000 
#
# Total GULP energy -78087.622445 kJ/mol
# GULP energy per Si atom -5577.687318 kJ/mol
# Density = 2.540685 g / cm^3
# Si number density = 25.464806 Si / 1000 Ang^3
#
#
#
# Elastic Constant Matrix: (Units=GPa)
#
#
# Indices 1 2 3 4 5 6 
#
# 1 169.2438 21.2027 13.9392 0.0000 -30.7347 0.0000
# 2 21.2027 85.1627 21.4941 0.0000 -17.7970 0.0000
# 3 13.9392 21.4941 130.3403 0.0000 -36.7491 0.0000
# 4 0.0000 0.0000 0.0000 44.9143 0.0000 -3.4441
# 5 -30.7347 -17.7970 -36.7491 0.0000 32.4656 0.0000
# 6 0.0000 0.0000 0.0000 -3.4441 0.0000 33.9590
#
#
#
# Elastic Compliance Matrix: (Units=1/GPa)
#
#
# Indices 1 2 3 4 5 6 
#
# 1 0.007410 -0.000459 0.001748 0.000000 0.008741 0.000000
# 2 -0.000459 0.013293 -0.000310 0.000000 0.006502 0.000000
# 3 0.001748 -0.000310 0.011684 0.000000 0.014710 0.000000
# 4 0.000000 0.000000 0.000000 0.022439 0.000000 0.002276
# 5 0.008741 0.006502 0.014710 0.000000 0.059293 0.000000
# 6 0.000000 0.000000 0.000000 0.002276 0.000000 0.029678
#
#
# Mechanical properties :
#
#
# Convention : Reuss Voigt Hill
#
# Bulk Modulus (GPa) = 29.11655 55.33540 42.22597
# Shear Modulus (GPa) = 32.61844 44.14183 38.38014
#
# Velocity S-wave (km/s) = 3.58288 4.16798 3.88646
# Velocity P-wave (km/s) = 5.34555 6.70374 6.06280
#
# Compressibility (1/GPa) = 0.03434473
#
# Stress axis : x y z
#
# Youngs Moduli (GPa) = 134.95918 75.22490 85.58739
#
# Poissons Ratio (x) = 0.03454 -0.14960
# Poissons Ratio (y) = 0.06197 0.02653
# Poissons Ratio (z) = -0.23590 0.02332
#
# Static dielectric constant tensor:
#      x y z
#    x 2.278770 0.000000 0.052200 
#    y 0.000000 2.093000 0.000000 
#    z 0.052200 0.000000 2.003950 
# 
# From -- ./inp_files/45480.got.cif
#   From: 2010.05.17/outbox.cif.g08.bks.cpg/sg5_23_cif.got.tgz:45480.got - 2010.06.03 18:56:24.
