data_PCOD9128287
_publ_section_title
;
Structure prediction by ZEFSAII (Michael W. Deem and Ramdas Pophale) SiO2 
 PCOD9128287
Probable space group: C 2
;
_chemical_formula_sum "Si O2"
_cell_formula_units_Z 28
_cell_length_a 13.300964
_cell_length_b 7.746384
_cell_length_c 17.867755
_cell_angle_alpha 90.000000
_cell_angle_beta 137.198437
_cell_angle_gamma 90.000000
_cell_volume 1250.883509
_symmetry_space_group_name_H-M "C 2"
_symmetry_group_IT_number 5
_symmetry_cell_setting 'monoclinic'
loop_
_space_group_symop_operation_xyz
x,y,z
-x,y,-z
1/2+x,1/2+y,z
1/2-x,1/2+y,-z
loop_
_atom_site_type_symbol
_atom_site_label
_atom_site_fract_x
_atom_site_fract_y
_atom_site_fract_z
Si Si1 0.887533 0.570790 0.870189
Si Si2 0.404219 0.435758 0.798192
Si Si3 0.361522 0.196035 0.374605
Si Si4 0.681993 0.674708 0.867302
Si Si5 0.567942 0.237646 0.756963
Si Si6 0.677506 0.545267 0.026593
Si Si7 0.906069 0.398719 0.729660
O O1 0.880438 0.751450 0.823242
O O2 0.729847 0.559377 0.824041
O O3 0.929005 0.434570 0.830499
O O4 0.000000 0.570490 0.000000
O O5 0.255058 0.539971 0.701795
O O6 0.496171 0.381055 0.773290
O O7 0.503054 0.539076 0.913933
O O8 0.500000 0.142573 0.500000
O O9 0.420249 0.257458 0.325662
O O10 0.264352 0.341263 0.365443
O O11 0.772662 0.856432 0.919111
O O12 0.514813 0.741294 0.770839
O O13 0.730658 0.583526 0.970632
O O14 0.732290 0.182433 0.875693
O O15 0.464393 0.066051 0.717166
#
# Coordination Sequence:
#
# PCOD9128287 Si02
#       7
#     4   4   4   4   4   4   4
#     4  11  21  38  63  97 136 169 200 251 333 412
#     4  11  22  42  64  97 134 170 211 267 333 396
#     4  12  28  46  67  93 124 180 242 274 314 371
#     4  11  20  35  59  93 137 166 199 252 319 404
#     4  10  24  43  65  97 136 167 211 275 333 397
#     4  11  19  36  62  97 137 166 199 257 339 410
#     4  10  24  41  61  94 128 167 219 266 320 385
#
# _framework density 22.384179
#
# number of rings (size 3 to 8) (size 9 to 14) (size 15 to 20)
#    0.000    1.143    4.286    3.429    2.000    2.286 
#    0.000    2.857    0.000    0.000    0.000    0.000 
#    0.000    0.000    0.000    0.000    0.000    0.000 
#
# Total GULP energy -78220.430278 kJ/mol
# GULP energy per Si atom -5587.173591 kJ/mol
# Density = 2.233323 g / cm^3
# Si number density = 22.384179 Si / 1000 Ang^3
#
#
#
# Elastic Constant Matrix: (Units=GPa)
#
#
# Indices 1 2 3 4 5 6 
#
# 1 131.5870 14.8817 37.4323 0.0000 1.1387 0.0000
# 2 14.8817 91.9332 25.0127 0.0000 6.3794 0.0000
# 3 37.4323 25.0127 125.2826 0.0000 18.8058 0.0000
# 4 0.0000 0.0000 0.0000 21.8506 0.0000 4.8498
# 5 1.1387 6.3794 18.8058 0.0000 28.6707 0.0000
# 6 0.0000 0.0000 0.0000 4.8498 0.0000 17.6546
#
#
#
# Elastic Compliance Matrix: (Units=1/GPa)
#
#
# Indices 1 2 3 4 5 6 
#
# 1 0.008410 -0.000763 -0.002591 0.000000 0.001535 0.000000
# 2 -0.000763 0.011607 -0.001893 0.000000 -0.001311 0.000000
# 3 -0.002591 -0.001893 0.010044 0.000000 -0.006064 0.000000
# 4 0.000000 0.000000 0.000000 0.048737 0.000000 -0.013388
# 5 0.001535 -0.001311 -0.006064 0.000000 0.039087 0.000000
# 6 0.000000 0.000000 0.000000 -0.013388 0.000000 0.060320
#
#
# Mechanical properties :
#
#
# Convention : Reuss Voigt Hill
#
# Bulk Modulus (GPa) = 51.10379 55.93958 53.52169
# Shear Modulus (GPa) = 25.61211 31.73359 28.67285
#
# Velocity S-wave (km/s) = 3.38628 3.76929 3.58291
# Velocity P-wave (km/s) = 6.17811 6.63237 6.40927
#
# Compressibility (1/GPa) = 0.01956802
#
# Stress axis : x y z
#
# Youngs Moduli (GPa) = 118.91299 86.15595 99.56046
#
# Poissons Ratio (x) = 0.06573 0.25793
# Poissons Ratio (y) = 0.09072 0.18843
# Poissons Ratio (z) = 0.30807 0.16306
#
# Static dielectric constant tensor:
#      x y z
#    x 1.981410 0.000000 0.047060 
#    y 0.000000 1.918150 0.000000 
#    z 0.047060 0.000000 1.759930 
# 
# From -- ./inp_files/61479.got.cif
#   From: 2010.05.17/outbox.cif.g08.bks.cpg/sg5_31_cif.got.tgz:61479.got - 2010.06.03 18:56:24.
