data_PCOD9128083
_publ_section_title
;
Structure prediction by ZEFSAII (Michael W. Deem and Ramdas Pophale) SiO2 
 PCOD9128083
Probable space group: C 2
;
_chemical_formula_sum "Si O2"
_cell_formula_units_Z 28
_cell_length_a 8.437466
_cell_length_b 29.556229
_cell_length_c 5.710516
_cell_angle_alpha 90.000000
_cell_angle_beta 109.826484
_cell_angle_gamma 90.000000
_cell_volume 1339.672610
_symmetry_space_group_name_H-M "C 2"
_symmetry_group_IT_number 5
_symmetry_cell_setting 'monoclinic'
loop_
_space_group_symop_operation_xyz
x,y,z
-x,y,-z
1/2+x,1/2+y,z
1/2-x,1/2+y,-z
loop_
_atom_site_type_symbol
_atom_site_label
_atom_site_fract_x
_atom_site_fract_y
_atom_site_fract_z
Si Si1 0.901362 0.421680 0.702789
Si Si2 0.000000 0.041083 0.000000
Si Si3 0.408844 0.256234 0.703292
Si Si4 0.814618 0.008297 0.513275
Si Si5 0.166528 0.182968 0.716764
Si Si6 0.335170 0.822794 0.578588
Si Si7 0.000000 0.251096 0.000000
Si Si8 0.698725 0.085881 0.152351
O O1 0.789336 0.466427 0.630406
O O2 0.807777 0.373101 0.659681
O O3 0.000000 0.422070 0.500000
O O4 0.000000 0.423717 0.000000
O O5 0.865509 0.071065 0.081440
O O6 0.138032 0.008976 0.192731
O O7 0.500000 0.256209 0.500000
O O8 0.274978 0.215924 0.611217
O O9 0.313311 0.304089 0.656737
O O10 0.500000 0.249633 0.000000
O O11 0.000000 0.006946 0.500000
O O12 0.731956 0.056243 0.402781
O O13 0.277876 0.139670 0.830714
O O14 0.000000 0.166397 0.500000
O O15 0.105661 0.216994 0.889888
O O16 0.500000 0.823544 0.500000
O O17 0.377887 0.785527 0.798410
O O18 0.500000 0.076234 0.000000
#
# Coordination Sequence:
#
# PCOD9128083 Si02
#       8
#     4   2   4   4   4   4   2   4
#     4  11  26  43  74 108 139 184 251 298 367 439
#     4  10  23  46  68 102 138 190 236 299 380 434
#     4  12  26  43  65 103 146 184 243 300 362 436
#     4  10  24  45  69  97 144 183 235 303 370 440
#     4  12  24  42  69 101 137 194 241 299 371 437
#     4  11  23  45  68  99 141 193 242 302 360 437
#     4  12  19  42  76  92 146 190 250 297 360 436
#     4  11  25  45  69 102 144 183 250 303 370 441
#
# _framework density 20.90063
#
# number of rings (size 3 to 8) (size 9 to 14) (size 15 to 20)
#    0.000    0.857    3.571    3.429    6.000    0.571 
#    6.429    0.000    0.000    0.000    0.000    0.000 
#    0.000    0.000    0.000    0.000    0.000    0.000 
#
# Total GULP energy -77969.653494 kJ/mol
# GULP energy per Si atom -5569.260964 kJ/mol
# Density = 2.085306 g / cm^3
# Si number density = 20.900630 Si / 1000 Ang^3
#
#
#
# Elastic Constant Matrix: (Units=GPa)
#
#
# Indices 1 2 3 4 5 6 
#
# 1 76.2572 6.7132 13.8480 0.0000 5.0956 0.0000
# 2 6.7132 116.8530 27.8295 0.0000 5.4212 0.0000
# 3 13.8480 27.8295 88.7478 0.0000 13.0199 0.0000
# 4 0.0000 0.0000 0.0000 35.7041 0.0000 3.5506
# 5 5.0956 5.4212 13.0199 0.0000 25.2718 0.0000
# 6 0.0000 0.0000 0.0000 3.5506 0.0000 7.4698
#
#
#
# Elastic Compliance Matrix: (Units=1/GPa)
#
#
# Indices 1 2 3 4 5 6 
#
# 1 0.013578 -0.000276 -0.001773 0.000000 -0.001765 0.000000
# 2 -0.000276 0.009261 -0.002788 0.000000 -0.000494 0.000000
# 3 -0.001773 -0.002788 0.013283 0.000000 -0.005888 0.000000
# 4 0.000000 0.000000 0.000000 0.029398 0.000000 -0.013974
# 5 -0.001765 -0.000494 -0.005888 0.000000 0.043065 0.000000
# 6 0.000000 0.000000 0.000000 -0.013974 0.000000 0.140515
#
#
# Mechanical properties :
#
#
# Convention : Reuss Voigt Hill
#
# Bulk Modulus (GPa) = 37.81261 42.07103 39.94182
# Shear Modulus (GPa) = 18.68536 29.25361 23.96949
#
# Velocity S-wave (km/s) = 2.99324 3.74525 3.39016
# Velocity P-wave (km/s) = 5.48424 6.23501 5.87164
#
# Compressibility (1/GPa) = 0.02644621
#
# Stress axis : x y z
#
# Youngs Moduli (GPa) = 73.64994 107.98421 75.28601
#
# Poissons Ratio (x) = 0.02979 0.13350
# Poissons Ratio (y) = 0.02032 0.20993
# Poissons Ratio (z) = 0.13060 0.30110
#
# Static dielectric constant tensor:
#      x y z
#    x 1.842440 0.000000 -0.104610 
#    y 0.000000 1.730400 0.000000 
#    z -0.104610 0.000000 1.923010 
# 
# From -- ./inp_files/3791.got.cif
#   From: 2010.05.17/outbox.cif.g08.bks.cpg/sg5_2_cif.got.tgz:3791.got - 2010.06.03 18:56:24.
