data_PCOD9128628
_publ_section_title
;
Structure prediction by ZEFSAII (Michael W. Deem and Ramdas Pophale) SiO2 
 PCOD9128628
Probable space group: C 2
;
_chemical_formula_sum "Si O2"
_cell_formula_units_Z 28
_cell_length_a 14.076335
_cell_length_b 5.047353
_cell_length_c 17.690277
_cell_angle_alpha 90.000000
_cell_angle_beta 121.919857
_cell_angle_gamma 90.000000
_cell_volume 1066.810769
_symmetry_space_group_name_H-M "C 2"
_symmetry_group_IT_number 5
_symmetry_cell_setting 'monoclinic'
loop_
_space_group_symop_operation_xyz
x,y,z
-x,y,-z
1/2+x,1/2+y,z
1/2-x,1/2+y,-z
loop_
_atom_site_type_symbol
_atom_site_label
_atom_site_fract_x
_atom_site_fract_y
_atom_site_fract_z
Si Si1 0.060555 0.722950 0.283753
Si Si2 0.500000 0.630701 0.000000
Si Si3 0.754466 0.884645 0.742258
Si Si4 0.500000 0.038485 0.500000
Si Si5 0.825648 0.364908 0.545625
Si Si6 0.425867 0.909476 0.101501
Si Si7 0.202056 0.736519 0.076888
Si Si8 0.116041 0.883509 0.671750
O O1 0.152224 0.902180 0.281847
O O2 0.122860 0.485988 0.355382
O O3 0.982615 0.607800 0.184257
O O4 0.986085 0.879977 0.312561
O O5 0.387665 0.471609 0.973269
O O6 0.480101 0.773244 0.911114
O O7 0.801016 0.728736 0.834508
O O8 0.660337 0.676280 0.675793
O O9 0.705227 0.169834 0.742622
O O10 0.425327 0.873584 0.526682
O O11 0.579325 0.234997 0.580636
O O12 0.766551 0.081492 0.520296
O O13 0.332861 0.756506 0.111246
O O14 0.349506 0.025424 0.001463
#
# Coordination Sequence:
#
# PCOD9128628 Si02
#       8
#     4   2   4   2   4   4   4   4
#     4  11  26  45  75 106 145 194 246 300 365 437
#     4  12  26  48  76  98 144 194 240 296 370 414
#     4  12  27  46  73 105 146 190 244 297 362 434
#     4  10  24  46  74 104 148 186 242 304 372 426
#     4  11  25  48  74 108 146 190 242 304 368 436
#     4  12  26  48  71 107 143 192 245 299 358 433
#     4  12  27  46  74 103 146 192 241 303 355 435
#     4  11  27  46  72 109 142 192 243 304 362 437
#
# _framework density 26.246455999999998
#
# number of rings (size 3 to 8) (size 9 to 14) (size 15 to 20)
#    0.000    0.571    2.857    3.857    6.000    8.000 
#    2.571    0.000    0.000    0.000    0.000    0.000 
#    0.000    0.000    0.000    0.000    0.000    0.000 
#
# Total GULP energy -78468.346704 kJ/mol
# GULP energy per Si atom -5604.881907 kJ/mol
# Density = 2.618672 g / cm^3
# Si number density = 26.246456 Si / 1000 Ang^3
#
#
#
# Elastic Constant Matrix: (Units=GPa)
#
#
# Indices 1 2 3 4 5 6 
#
# 1 140.7064 25.7090 -1.0380 0.0000 -16.4969 0.0000
# 2 25.7090 80.6007 -7.8048 0.0001 7.7034 -0.0001
# 3 -1.0380 -7.8048 93.4421 0.0000 -1.6457 0.0000
# 4 0.0000 0.0001 0.0000 33.0246 0.0000 3.6143
# 5 -16.4969 7.7034 -1.6457 0.0000 43.4963 0.0000
# 6 0.0000 -0.0001 0.0000 3.6143 0.0000 18.3702
#
#
#
# Elastic Compliance Matrix: (Units=1/GPa)
#
#
# Indices 1 2 3 4 5 6 
#
# 1 0.008059 -0.002920 -0.000092 0.000000 0.003570 0.000000
# 2 -0.002920 0.013776 0.001056 0.000000 -0.003507 0.000000
# 3 -0.000092 0.001056 0.010792 0.000000 0.000187 0.000000
# 4 0.000000 0.000000 0.000000 0.030947 0.000000 -0.006089
# 5 0.003570 -0.003507 0.000187 0.000000 0.024973 0.000000
# 6 0.000000 0.000000 0.000000 -0.006089 0.000000 0.055634
#
#
# Mechanical properties :
#
#
# Convention : Reuss Voigt Hill
#
# Bulk Modulus (GPa) = 34.82433 38.72016 36.77225
# Shear Modulus (GPa) = 31.71311 38.83707 35.27509
#
# Velocity S-wave (km/s) = 3.47981 3.85087 3.67003
# Velocity P-wave (km/s) = 5.42609 5.87850 5.65682
#
# Compressibility (1/GPa) = 0.02871555
#
# Stress axis : x y z
#
# Youngs Moduli (GPa) = 124.09243 72.59053 92.65844
#
# Poissons Ratio (x) = 0.21200 0.00848
# Poissons Ratio (y) = 0.36241 -0.09789
# Poissons Ratio (z) = 0.01136 -0.07669
#
# Static dielectric constant tensor:
#      x y z
#    x 2.015730 0.000000 0.109320 
#    y 0.000000 2.081060 0.000000 
#    z 0.109320 0.000000 2.116670 
# 
# From -- ./inp_files/61094.got.cif
#   From: 2010.05.17/outbox.cif.g08.bks.cpg/sg5_31_cif.got.tgz:61094.got - 2010.06.03 18:56:24.
