data_PCOD9128107
_publ_section_title
;
Structure prediction by ZEFSAII (Michael W. Deem and Ramdas Pophale) SiO2 
 PCOD9128107
Probable space group: C 2
;
_chemical_formula_sum "Si O2"
_cell_formula_units_Z 30
_cell_length_a 8.342537
_cell_length_b 13.886273
_cell_length_c 12.060772
_cell_angle_alpha 90.000000
_cell_angle_beta 89.356972
_cell_angle_gamma 90.000000
_cell_volume 1397.113203
_symmetry_space_group_name_H-M "C 2"
_symmetry_group_IT_number 5
_symmetry_cell_setting 'monoclinic'
loop_
_space_group_symop_operation_xyz
x,y,z
-x,y,-z
1/2+x,1/2+y,z
1/2-x,1/2+y,-z
loop_
_atom_site_type_symbol
_atom_site_label
_atom_site_fract_x
_atom_site_fract_y
_atom_site_fract_z
Si Si1 0.527450 0.518240 0.624281
Si Si2 0.492326 0.743357 0.622706
Si Si3 0.500000 0.568069 0.000000
Si Si4 0.827002 0.220721 0.157590
Si Si5 0.266413 0.539113 0.819191
Si Si6 0.020740 0.404929 0.886833
Si Si7 0.276214 0.357621 0.258387
Si Si8 0.470350 0.213363 0.130935
O O1 0.500000 0.478875 0.500000
O O2 0.550628 0.632536 0.608363
O O3 0.380895 0.524366 0.713204
O O4 0.665323 0.452628 0.677744
O O5 0.500000 0.787758 0.500000
O O6 0.604098 0.763913 0.728055
O O7 0.316296 0.777596 0.665725
O O8 0.574703 0.635265 0.901991
O O9 0.364773 0.513455 0.930939
O O10 0.646770 0.184763 0.171932
O O11 0.867237 0.313583 0.081498
O O12 0.118807 0.469162 0.802248
O O13 0.179395 0.641732 0.844205
O O14 0.851846 0.381070 0.835464
O O15 0.000000 0.464331 0.000000
O O16 0.426854 0.309985 0.196743
O O17 0.500000 0.226034 0.000000
#
# Coordination Sequence:
#
# PCOD9128107 Si02
#       8
#     4   4   2   4   4   4   4   4
#     4  11  25  46  72  99 140 181 236 293 337 412
#     4  10  23  46  72  97 137 186 230 287 351 402
#     4  12  22  42  64  92 134 180 212 282 344 408
#     4  11  22  42  67  92 135 179 221 279 347 406
#     4  12  25  41  66 101 137 175 230 283 349 415
#     4  11  24  39  62 102 136 175 225 282 341 423
#     4  11  25  44  70  98 139 184 234 280 351 411
#     4  12  23  41  67 103 141 180 224 281 349 424
#
# _framework density 21.472847999999999
#
# number of rings (size 3 to 8) (size 9 to 14) (size 15 to 20)
#    0.000    0.800    4.667    2.800    3.733    3.200 
#    1.200    0.000    0.000    0.000    0.000    0.000 
#    0.000    0.000    0.000    0.000    0.000    0.000 
#
# Total GULP energy -83534.850604 kJ/mol
# GULP energy per Si atom -5568.990040 kJ/mol
# Density = 2.142397 g / cm^3
# Si number density = 21.472848 Si / 1000 Ang^3
#
#
#
# Elastic Constant Matrix: (Units=GPa)
#
#
# Indices 1 2 3 4 5 6 
#
# 1 92.6929 7.1983 43.5673 0.0000 0.2927 0.0000
# 2 7.1983 51.1505 12.2164 0.0000 8.7764 0.0000
# 3 43.5673 12.2164 139.7087 0.0000 -6.2015 0.0000
# 4 0.0000 0.0000 0.0000 17.1483 0.0000 4.3925
# 5 0.2927 8.7764 -6.2015 0.0000 18.6485 0.0000
# 6 0.0000 0.0000 0.0000 4.3925 0.0000 27.6292
#
#
#
# Elastic Compliance Matrix: (Units=1/GPa)
#
#
# Indices 1 2 3 4 5 6 
#
# 1 0.012703 -0.000633 -0.003960 0.000000 -0.001218 0.000000
# 2 -0.000633 0.022079 -0.002227 0.000000 -0.011122 0.000000
# 3 -0.003960 -0.002227 0.008766 0.000000 0.004025 0.000000
# 4 0.000000 0.000000 0.000000 0.060790 0.000000 -0.009664
# 5 -0.001218 -0.011122 0.004025 0.000000 0.060215 0.000000
# 6 0.000000 0.000000 0.000000 -0.009664 0.000000 0.037730
#
#
# Mechanical properties :
#
#
# Convention : Reuss Voigt Hill
#
# Bulk Modulus (GPa) = 33.43537 45.50180 39.46858
# Shear Modulus (GPa) = 22.13441 27.38987 24.76214
#
# Velocity S-wave (km/s) = 3.21411 3.57537 3.39954
# Velocity P-wave (km/s) = 5.42022 6.18714 5.81634
#
# Compressibility (1/GPa) = 0.02990845
#
# Stress axis : x y z
#
# Youngs Moduli (GPa) = 78.72429 45.29122 114.07631
#
# Poissons Ratio (x) = 0.02866 0.45174
# Poissons Ratio (y) = 0.04981 0.25405
# Poissons Ratio (z) = 0.31175 0.10086
#
# Static dielectric constant tensor:
#      x y z
#    x 1.766280 0.000000 -0.029440 
#    y 0.000000 1.848820 0.000000 
#    z -0.029440 0.000000 1.874460 
# 
# From -- ./inp_files/36146.got.cif
#   From: 2010.05.17/outbox.cif.g08.bks.cpg/sg5_19_cif.got.tgz:36146.got - 2010.06.03 18:56:24.
