data_PCOD9128915
_publ_section_title
;
Structure prediction by ZEFSAII (Michael W. Deem and Ramdas Pophale) SiO2 
 PCOD9128915
Probable space group: C 2
;
_chemical_formula_sum "Si O2"
_cell_formula_units_Z 20
_cell_length_a 16.860071
_cell_length_b 9.352903
_cell_length_c 5.182029
_cell_angle_alpha 90.000000
_cell_angle_beta 92.266838
_cell_angle_gamma 90.000000
_cell_volume 816.517845
_symmetry_space_group_name_H-M "C 2"
_symmetry_group_IT_number 5
_symmetry_cell_setting 'monoclinic'
loop_
_space_group_symop_operation_xyz
x,y,z
-x,y,-z
1/2+x,1/2+y,z
1/2-x,1/2+y,-z
loop_
_atom_site_type_symbol
_atom_site_label
_atom_site_fract_x
_atom_site_fract_y
_atom_site_fract_z
Si Si1 0.270471 0.408040 0.140663
Si Si2 0.000000 0.673921 0.500000
Si Si3 0.393885 0.911878 0.620331
Si Si4 0.129865 0.875063 0.353053
Si Si5 0.500000 0.725624 0.000000
Si Si6 0.366750 0.642965 0.327122
O O1 0.177461 0.408325 0.181578
O O2 0.319567 0.331986 0.381848
O O3 0.383750 0.542663 0.576802
O O4 0.313313 0.362621 0.884703
O O5 0.927378 0.556552 0.497240
O O6 0.963923 0.330516 0.779018
O O7 0.452885 0.288615 0.677288
O O8 0.209174 0.075774 0.815249
O O9 0.361576 0.806405 0.398491
O O10 0.562851 0.628065 0.864504
#
# Coordination Sequence:
#
# PCOD9128915 Si02
#       6
#     4   2   4   4   2   4
#     4  10  27  47  82 105 151 197 262 301 382 448
#     4  12  28  46  72 118 156 194 254 322 388 432
#     4  12  27  48  75 116 152 202 248 325 375 460
#     4  10  27  48  78 109 148 202 252 314 368 461
#     4  12  24  44  80 106 150 200 256 304 380 448
#     4  10  25  47  78 105 146 205 252 306 370 464
#
# _framework density 24.494261000000002
#
# number of rings (size 3 to 8) (size 9 to 14) (size 15 to 20)
#    1.200    0.000    2.000    1.200   11.200    4.000 
#    0.000    0.000    0.000    0.000    0.000    0.000 
#    0.000    0.000    0.000    0.000    0.000    0.000 
#
# Total GULP energy -55707.003743 kJ/mol
# GULP energy per Si atom -5570.700374 kJ/mol
# Density = 2.443851 g / cm^3
# Si number density = 24.494261 Si / 1000 Ang^3
#
#
#
# Elastic Constant Matrix: (Units=GPa)
#
#
# Indices 1 2 3 4 5 6 
#
# 1 83.0820 36.2251 49.9720 0.0000 -31.3015 0.0000
# 2 36.2251 100.0905 27.9967 0.0000 -20.0002 0.0000
# 3 49.9720 27.9967 161.8811 0.0000 -34.7845 0.0000
# 4 0.0000 0.0000 0.0000 7.3937 0.0000 -7.0089
# 5 -31.3015 -20.0002 -34.7845 0.0000 47.2121 0.0000
# 6 0.0000 0.0000 0.0000 -7.0089 0.0000 31.4748
#
#
#
# Elastic Compliance Matrix: (Units=1/GPa)
#
#
# Indices 1 2 3 4 5 6 
#
# 1 0.019072 -0.004296 -0.003349 0.000000 0.008358 0.000000
# 2 -0.004296 0.012039 -0.000323 0.000000 0.002013 0.000000
# 3 -0.003349 -0.000323 0.008032 0.000000 0.003561 0.000000
# 4 0.000000 0.000000 0.000000 0.171440 0.000000 0.038176
# 5 0.008358 0.002013 0.003561 0.000000 0.030199 0.000000
# 6 0.000000 0.000000 0.000000 0.038176 0.000000 0.040273
#
#
# Mechanical properties :
#
#
# Convention : Reuss Voigt Hill
#
# Bulk Modulus (GPa) = 43.08998 63.71570 53.40284
# Shear Modulus (GPa) = 16.40819 32.60676 24.50747
#
# Velocity S-wave (km/s) = 2.59101 3.65252 3.16656
# Velocity P-wave (km/s) = 5.15569 6.62245 5.93456
#
# Compressibility (1/GPa) = 0.02320725
#
# Stress axis : x y z
#
# Youngs Moduli (GPa) = 52.43165 83.06664 124.50011
#
# Poissons Ratio (x) = 0.35686 0.41691
# Poissons Ratio (y) = 0.22525 0.04024
# Poissons Ratio (z) = 0.17558 0.02685
#
# Static dielectric constant tensor:
#      x y z
#    x 1.959450 0.000000 0.055450 
#    y 0.000000 1.965240 0.000000 
#    z 0.055450 0.000000 2.008280 
# 
# From -- ./inp_files/8153.got.cif
#   From: 2010.05.17/outbox.cif.g08.bks.cpg/sg5_5_cif.got.tgz:8153.got - 2010.06.03 18:56:24.
