data_PCOD9128062
_publ_section_title
;
Structure prediction by ZEFSAII (Michael W. Deem and Ramdas Pophale) SiO2 
 PCOD9128062
Probable space group: C 2
;
_chemical_formula_sum "Si O2"
_cell_formula_units_Z 30
_cell_length_a 16.732731
_cell_length_b 6.164614
_cell_length_c 13.086043
_cell_angle_alpha 90.000000
_cell_angle_beta 105.700614
_cell_angle_gamma 90.000000
_cell_volume 1299.472223
_symmetry_space_group_name_H-M "C 2"
_symmetry_group_IT_number 5
_symmetry_cell_setting 'monoclinic'
loop_
_space_group_symop_operation_xyz
x,y,z
-x,y,-z
1/2+x,1/2+y,z
1/2-x,1/2+y,-z
loop_
_atom_site_type_symbol
_atom_site_label
_atom_site_fract_x
_atom_site_fract_y
_atom_site_fract_z
Si Si1 0.500000 0.226440 0.000000
Si Si2 0.908344 0.016974 0.336496
Si Si3 0.257991 0.192258 0.268092
Si Si4 0.087219 0.445454 0.178803
Si Si5 0.469056 0.153986 0.635557
Si Si6 0.731054 0.637989 0.032001
Si Si7 0.122219 0.446044 0.583990
Si Si8 0.938664 0.104611 0.115658
O O1 0.470152 0.375230 0.083327
O O2 0.576753 0.088796 0.072540
O O3 0.830436 0.858838 0.320920
O O4 0.997233 0.896400 0.369602
O O5 0.896222 0.193131 0.419800
O O6 0.901902 0.097788 0.216946
O O7 0.170992 0.316512 0.234056
O O8 0.268167 0.107771 0.156854
O O9 0.283027 0.996673 0.352217
O O10 0.068058 0.601516 0.268001
O O11 0.013557 0.271888 0.144286
O O12 0.555200 0.022847 0.647092
O O13 0.406835 0.068911 0.527346
O O14 0.740650 0.388901 0.988442
O O15 0.632397 0.668245 0.988419
#
# Coordination Sequence:
#
# PCOD9128062 Si02
#       8
#     2   4   4   4   4   4   4   4
#     4  12  26  42  72 104 148 196 242 302 366 454
#     4  11  22  46  74 101 141 191 253 310 359 446
#     4  11  26  43  66 105 151 187 241 309 372 441
#     4  12  26  47  69 107 152 188 245 304 382 450
#     4  10  23  45  76 103 133 191 245 310 366 449
#     4  12  27  43  75 110 147 199 252 309 371 448
#     4  10  23  46  74 102 139 183 257 303 371 434
#     4  12  25  44  71 103 145 198 244 302 369 449
#
# _framework density 23.086296000000001
#
# number of rings (size 3 to 8) (size 9 to 14) (size 15 to 20)
#    0.000    0.800    4.000    2.800    5.600    5.333 
#    2.400    0.000    0.000    0.000    0.000    0.000 
#    0.000    0.000    0.000    0.000    0.000    0.000 
#
# Total GULP energy -83674.043352 kJ/mol
# GULP energy per Si atom -5578.269557 kJ/mol
# Density = 2.303375 g / cm^3
# Si number density = 23.086296 Si / 1000 Ang^3
#
#
#
# Elastic Constant Matrix: (Units=GPa)
#
#
# Indices 1 2 3 4 5 6 
#
# 1 52.6352 32.7405 23.7874 0.0000 30.6277 0.0000
# 2 32.7405 108.1696 56.9139 0.0000 23.9106 0.0000
# 3 23.7874 56.9139 123.5980 0.0000 30.5239 0.0000
# 4 0.0000 0.0000 0.0000 22.4933 0.0000 8.0335
# 5 30.6277 23.9106 30.5239 0.0000 37.7258 0.0000
# 6 0.0000 0.0000 0.0000 8.0335 0.0000 33.3692
#
#
#
# Elastic Compliance Matrix: (Units=1/GPa)
#
#
# Indices 1 2 3 4 5 6 
#
# 1 0.039410 -0.006859 0.003001 0.000000 -0.030076 0.000000
# 2 -0.006859 0.013893 -0.005346 0.000000 0.001089 0.000000
# 3 0.003001 -0.005346 0.012172 0.000000 -0.008897 0.000000
# 4 0.000000 0.000000 0.000000 0.048640 0.000000 -0.011710
# 5 -0.030076 0.001089 -0.008897 0.000000 0.057432 0.000000
# 6 0.000000 0.000000 0.000000 -0.011710 0.000000 0.032787
#
#
# Mechanical properties :
#
#
# Convention : Reuss Voigt Hill
#
# Bulk Modulus (GPa) = 21.24660 56.80960 39.02810
# Shear Modulus (GPa) = 20.97041 30.11506 25.54274
#
# Velocity S-wave (km/s) = 3.01715 3.61564 3.32987
# Velocity P-wave (km/s) = 4.62177 6.48779 5.63259
#
# Compressibility (1/GPa) = 0.04706636
#
# Stress axis : x y z
#
# Youngs Moduli (GPa) = 25.37446 71.97776 82.15540
#
# Poissons Ratio (x) = 0.49373 -0.24659
# Poissons Ratio (y) = 0.17406 0.43922
# Poissons Ratio (z) = -0.07616 0.38481
#
# Static dielectric constant tensor:
#      x y z
#    x 1.865200 0.000000 -0.035470 
#    y 0.000000 2.028330 0.000000 
#    z -0.035470 0.000000 1.867670 
# 
# From -- ./inp_files/55477.got.cif
#   From: 2010.05.17/outbox.cif.g08.bks.cpg/sg5_28_cif.got.tgz:55477.got - 2010.06.03 18:56:24.
