data_PCOD9128982
_publ_section_title
;
Structure prediction by ZEFSAII (Michael W. Deem and Ramdas Pophale) SiO2 
 PCOD9128982
Probable space group: C 2
;
_chemical_formula_sum "Si O2"
_cell_formula_units_Z 30
_cell_length_a 17.450154
_cell_length_b 9.901122
_cell_length_c 9.946800
_cell_angle_alpha 90.000000
_cell_angle_beta 48.340118
_cell_angle_gamma 90.000000
_cell_volume 1283.949669
_symmetry_space_group_name_H-M "C 2"
_symmetry_group_IT_number 5
_symmetry_cell_setting 'monoclinic'
loop_
_space_group_symop_operation_xyz
x,y,z
-x,y,-z
1/2+x,1/2+y,z
1/2-x,1/2+y,-z
loop_
_atom_site_type_symbol
_atom_site_label
_atom_site_fract_x
_atom_site_fract_y
_atom_site_fract_z
Si Si1 0.094096 0.310070 0.312476
Si Si2 0.500000 0.313597 0.500000
Si Si3 0.238496 0.339714 0.397784
Si Si4 0.052229 0.954381 0.173732
Si Si5 0.592234 0.192606 0.956923
Si Si6 0.583392 0.104065 0.244441
Si Si7 0.143079 0.120611 0.702428
Si Si8 0.301861 0.659994 0.061344
O O1 0.173073 0.346702 0.338015
O O2 0.053468 0.452748 0.306807
O O3 0.148940 0.242028 0.120336
O O4 0.000000 0.236932 0.500000
O O5 0.546283 0.418884 0.337496
O O6 0.486776 0.197589 0.396905
O O7 0.331365 0.242692 0.243835
O O8 0.177225 0.250084 0.576605
O O9 0.281383 0.487336 0.390482
O O10 0.166238 0.008477 0.015172
O O11 0.045532 0.825953 0.083561
O O12 0.964642 0.059611 0.227625
O O13 0.500000 0.110901 0.000000
O O14 0.630637 0.111881 0.040137
O O15 0.679075 0.169574 0.215458
O O16 0.146686 0.172977 0.852268
#
# Coordination Sequence:
#
# PCOD9128982 Si02
#       8
#     4   2   4   4   4   4   4   4
#     4  12  26  47  71 101 146 183 229 290 362 423
#     4  10  26  40  72 106 134 186 240 290 344 424
#     4  12  26  46  70 108 140 188 233 299 352 414
#     4  11  23  44  73  99 136 187 242 282 344 422
#     4  11  21  43  73  97 135 184 239 284 342 420
#     4  11  24  44  69 103 143 180 232 290 357 414
#     4  12  27  45  73 105 147 179 239 299 353 415
#     4  12  25  44  70 100 141 183 232 288 347 418
#
# _framework density 23.365402
#
# number of rings (size 3 to 8) (size 9 to 14) (size 15 to 20)
#    0.000    0.533    6.000    1.200    6.533    2.133 
#    0.000    1.333    0.000    0.000    0.000    0.000 
#    0.000    0.000    0.000    0.000    0.000    0.000 
#
# Total GULP energy -83507.195870 kJ/mol
# GULP energy per Si atom -5567.146391 kJ/mol
# Density = 2.331222 g / cm^3
# Si number density = 23.365402 Si / 1000 Ang^3
#
#
#
# Elastic Constant Matrix: (Units=GPa)
#
#
# Indices 1 2 3 4 5 6 
#
# 1 59.5740 17.6538 14.9318 0.0000 -8.2618 0.0000
# 2 17.6538 63.3529 44.0569 0.0000 9.6423 0.0000
# 3 14.9318 44.0569 151.1858 0.0000 7.7824 0.0000
# 4 0.0000 0.0000 0.0000 11.8653 0.0000 15.0531
# 5 -8.2618 9.6423 7.7824 0.0000 31.2184 0.0000
# 6 0.0000 0.0000 0.0000 15.0531 0.0000 9.8237
#
#
#
# Elastic Compliance Matrix: (Units=1/GPa)
#
#
# Indices 1 2 3 4 5 6 
#
# 1 0.019783 -0.006275 -0.000501 0.000000 0.007299 0.000000
# 2 -0.006275 0.022503 -0.005566 0.000000 -0.007224 0.000000
# 3 -0.000501 -0.005566 0.008311 0.000000 -0.000485 0.000000
# 4 0.000000 0.000000 0.000000 -0.089278 0.000000 0.136803
# 5 0.007299 -0.007224 -0.000485 0.000000 0.036316 0.000000
# 6 0.000000 0.000000 0.000000 0.136803 0.000000 -0.107832
#
#
# Mechanical properties :
#
#
# Convention : Reuss Voigt Hill
#
# Bulk Modulus (GPa) = 38.59076 47.48865 43.03970
# Shear Modulus (GPa) = -65.04153 23.74614 -20.64769
#
# Velocity S-wave (km/s) = -5.28177 3.19140 -2.97591
# Velocity P-wave (km/s) = 4.54358 5.82653 2.57918
#
# Compressibility (1/GPa) = 0.02591294
#
# Stress axis : x y z
#
# Youngs Moduli (GPa) = 50.54808 44.43762 120.32480
#
# Poissons Ratio (x) = 0.27886 0.06027
# Poissons Ratio (y) = 0.31720 0.66974
# Poissons Ratio (z) = 0.02532 0.24734
#
# Static dielectric constant tensor:
#      x y z
#    x 2.009250 0.000000 0.002330 
#    y 0.000000 1.910830 0.000000 
#    z 0.002330 0.000000 1.952320 
# 
# From -- ./inp_files/27397.got.cif
#   From: 2010.05.17/outbox.cif.g08.bks.cpg/sg5_14_cif.got.tgz:27397.got - 2010.06.03 18:56:24.
