data_PCOD9128936
_publ_section_title
;
Structure prediction by ZEFSAII (Michael W. Deem and Ramdas Pophale) SiO2 
 PCOD9128936
Probable space group: C 2
;
_chemical_formula_sum "Si O2"
_cell_formula_units_Z 20
_cell_length_a 16.755681
_cell_length_b 7.872857
_cell_length_c 11.483165
_cell_angle_alpha 90.000000
_cell_angle_beta 149.246059
_cell_angle_gamma 90.000000
_cell_volume 774.597657
_symmetry_space_group_name_H-M "C 2"
_symmetry_group_IT_number 5
_symmetry_cell_setting 'monoclinic'
loop_
_space_group_symop_operation_xyz
x,y,z
-x,y,-z
1/2+x,1/2+y,z
1/2-x,1/2+y,-z
loop_
_atom_site_type_symbol
_atom_site_label
_atom_site_fract_x
_atom_site_fract_y
_atom_site_fract_z
Si Si1 0.942266 0.512450 0.550478
Si Si2 0.670282 0.721855 0.268015
Si Si3 0.921639 0.982404 0.662747
Si Si4 0.045111 0.670048 0.928605
Si Si5 0.890621 0.150064 0.271888
O O1 0.019605 0.326124 0.642286
O O2 0.000000 0.593692 0.500000
O O3 0.761258 0.565921 0.320681
O O4 0.988715 0.576092 0.738669
O O5 0.789536 0.881919 0.422503
O O6 0.646007 0.654719 0.369156
O O7 0.500000 0.748343 0.000000
O O8 0.087482 0.030392 0.811432
O O9 0.965113 0.852458 0.818043
O O10 0.228466 0.679225 0.131138
O O11 0.000000 0.604182 0.000000
O O12 0.000000 0.054581 0.500000
#
# Coordination Sequence:
#
# PCOD9128936 Si02
#       5
#     4   4   4   4   4
#     4  10  25  48  79 113 155 209 264 320 399 481
#     4  11  26  48  80 110 157 202 272 325 397 460
#     4  11  26  49  75 118 151 209 265 325 393 484
#     4  11  26  48  81 115 159 205 263 333 399 468
#     4  11  26  47  76 114 160 205 262 324 400 475
#
# _framework density 25.819856000000001
#
# number of rings (size 3 to 8) (size 9 to 14) (size 15 to 20)
#    0.000    1.200    0.000    3.000   19.600    3.200 
#   10.800    2.000    0.000    0.000    0.000    0.000 
#    0.000    0.000    0.000    0.000    0.000    0.000 
#
# Total GULP energy -55789.491807 kJ/mol
# GULP energy per Si atom -5578.949181 kJ/mol
# Density = 2.576109 g / cm^3
# Si number density = 25.819856 Si / 1000 Ang^3
#
#
#
# Elastic Constant Matrix: (Units=GPa)
#
#
# Indices 1 2 3 4 5 6 
#
# 1 227.1506 69.1415 75.2505 0.0000 15.1110 0.0000
# 2 69.1415 100.9690 53.7420 0.0000 6.6709 0.0000
# 3 75.2505 53.7420 155.9335 0.0000 23.3716 0.0000
# 4 0.0000 0.0000 0.0000 236.8562 0.0000 -22.1324
# 5 15.1110 6.6709 23.3716 0.0000 57.2761 0.0000
# 6 0.0000 0.0000 0.0000 -22.1324 0.0000 43.2823
#
#
#
# Elastic Compliance Matrix: (Units=1/GPa)
#
#
# Indices 1 2 3 4 5 6 
#
# 1 0.005959 -0.003131 -0.001721 0.000000 -0.000505 0.000000
# 2 -0.003131 0.013780 -0.003325 0.000000 0.000578 0.000000
# 3 -0.001721 -0.003325 0.008801 0.000000 -0.002750 0.000000
# 4 0.000000 0.000000 0.000000 0.004434 0.000000 0.002267
# 5 -0.000505 0.000578 -0.002750 0.000000 0.018648 0.000000
# 6 0.000000 0.000000 0.000000 0.002267 0.000000 0.024263
#
#
# Mechanical properties :
#
#
# Convention : Reuss Voigt Hill
#
# Bulk Modulus (GPa) = 82.05660 97.81347 89.93504
# Shear Modulus (GPa) = 51.92044 86.54421 69.23233
#
# Velocity S-wave (km/s) = 4.48914 5.79579 5.18380
# Velocity P-wave (km/s) = 7.66285 9.09690 8.41050
#
# Compressibility (1/GPa) = 0.01218671
#
# Stress axis : x y z
#
# Youngs Moduli (GPa) = 167.80710 72.57028 113.61775
#
# Poissons Ratio (x) = 0.22725 0.19552
# Poissons Ratio (y) = 0.52548 0.37773
# Poissons Ratio (z) = 0.28877 0.24127
#
# Static dielectric constant tensor:
#      x y z
#    x 2.185460 0.000000 -0.070160 
#    y 0.000000 2.066880 0.000000 
#    z -0.070160 0.000000 1.790120 
# 
# From -- ./inp_files/44346.got.cif
#   From: 2010.05.17/outbox.cif.g08.bks.cpg/sg5_23_cif.got.tgz:44346.got - 2010.06.03 18:56:24.
