data_PCOD9128232
_publ_section_title
;
Structure prediction by ZEFSAII (Michael W. Deem and Ramdas Pophale) SiO2 
 PCOD9128232
Probable space group: C 2
;
_chemical_formula_sum "Si O2"
_cell_formula_units_Z 28
_cell_length_a 27.714860
_cell_length_b 8.507583
_cell_length_c 6.672813
_cell_angle_alpha 90.000000
_cell_angle_beta 56.859676
_cell_angle_gamma 90.000000
_cell_volume 1317.427281
_symmetry_space_group_name_H-M "C 2"
_symmetry_group_IT_number 5
_symmetry_cell_setting 'monoclinic'
loop_
_space_group_symop_operation_xyz
x,y,z
-x,y,-z
1/2+x,1/2+y,z
1/2-x,1/2+y,-z
loop_
_atom_site_type_symbol
_atom_site_label
_atom_site_fract_x
_atom_site_fract_y
_atom_site_fract_z
Si Si1 0.054097 0.369440 0.739445
Si Si2 0.165709 0.860999 0.295325
Si Si3 0.627391 0.706321 0.279275
Si Si4 0.126041 0.439925 0.954095
Si Si5 0.939327 0.651683 0.578427
Si Si6 0.742988 0.504879 0.443628
Si Si7 0.263572 0.823268 0.766463
O O1 0.075872 0.226716 0.553598
O O2 0.102713 0.427748 0.783060
O O3 0.042797 0.510012 0.609739
O O4 0.000000 0.332511 0.000000
O O5 0.107827 0.760176 0.422616
O O6 0.195439 0.895777 0.441955
O O7 0.151274 0.032087 0.235651
O O8 0.213812 0.787662 0.039479
O O9 0.676760 0.825901 0.249788
O O10 0.612860 0.775309 0.096271
O O11 0.194050 0.468902 0.788714
O O12 0.093178 0.573296 0.157151
O O13 0.000000 0.731257 0.500000
O O14 0.729669 0.682456 0.409224
O O15 0.747286 0.473256 0.670019
#
# Coordination Sequence:
#
# PCOD9128232 Si02
#       7
#     4   4   4   4   4   4   4
#     4  11  23  42  67  91 122 164 223 266 310 383
#     4  11  25  42  61  95 135 167 208 267 327 380
#     4  10  24  39  62  95 127 167 208 260 328 384
#     4  11  21  41  66  91 124 165 209 265 313 379
#     4  11  24  44  67  94 124 171 221 266 321 377
#     4  11  24  37  65  93 126 172 210 260 321 380
#     4  11  23  38  61  94 131 164 211 260 320 383
#
# _framework density 21.253547000000001
#
# number of rings (size 3 to 8) (size 9 to 14) (size 15 to 20)
#    0.000    1.143    5.714    0.000    4.000    0.000 
#    2.571    0.714    0.000    0.000    0.000    0.000 
#    0.000    0.000    0.000    0.000    0.000    0.000 
#
# Total GULP energy -78254.072182 kJ/mol
# GULP energy per Si atom -5589.576584 kJ/mol
# Density = 2.120517 g / cm^3
# Si number density = 21.253547 Si / 1000 Ang^3
#
#
#
# Elastic Constant Matrix: (Units=GPa)
#
#
# Indices 1 2 3 4 5 6 
#
# 1 78.8062 8.6739 13.0656 0.0000 -17.6105 0.0000
# 2 8.6739 21.5541 -1.9819 0.0000 2.6378 0.0000
# 3 13.0656 -1.9819 75.5190 0.0000 -15.7555 0.0000
# 4 0.0000 0.0000 0.0000 17.5945 0.0000 -0.6822
# 5 -17.6105 2.6378 -15.7555 0.0000 37.6178 0.0000
# 6 0.0000 0.0000 0.0000 -0.6822 0.0000 29.2166
#
#
#
# Elastic Compliance Matrix: (Units=1/GPa)
#
#
# Indices 1 2 3 4 5 6 
#
# 1 0.015284 -0.007143 -0.001353 0.000000 0.007089 0.000000
# 2 -0.007143 0.050159 0.001228 0.000000 -0.006347 0.000000
# 3 -0.001353 0.001228 0.014637 0.000000 0.005411 0.000000
# 4 0.000000 0.000000 0.000000 0.056888 0.000000 0.001328
# 5 0.007089 -0.006347 0.005411 0.000000 0.032613 0.000000
# 6 0.000000 0.000000 0.000000 0.001328 0.000000 0.034258
#
#
# Mechanical properties :
#
#
# Convention : Reuss Voigt Hill
#
# Bulk Modulus (GPa) = 15.25667 23.93274 19.59470
# Shear Modulus (GPa) = 20.81408 27.29388 24.05398
#
# Velocity S-wave (km/s) = 3.13281 3.58747 3.36782
# Velocity P-wave (km/s) = 4.50333 5.33338 4.93583
#
# Compressibility (1/GPa) = 0.06554510
#
# Stress axis : x y z
#
# Youngs Moduli (GPa) = 65.42774 19.93661 68.32061
#
# Poissons Ratio (x) = 0.14240 0.09242
# Poissons Ratio (y) = 0.46733 -0.08390
# Poissons Ratio (z) = 0.08850 -0.02448
#
# Static dielectric constant tensor:
#      x y z
#    x 1.792800 0.000000 -0.011580 
#    y 0.000000 1.767040 0.000000 
#    z -0.011580 0.000000 1.738480 
# 
# From -- ./inp_files/11183.got.cif
#   From: 2010.05.17/outbox.cif.g08.bks.cpg/sg5_6_cif.got.tgz:11183.got - 2010.06.03 18:56:24.
