data_PCOD9128664
_publ_section_title
;
Structure prediction by ZEFSAII (Michael W. Deem and Ramdas Pophale) SiO2 
 PCOD9128664
Probable space group: C 2
;
_chemical_formula_sum "Si O2"
_cell_formula_units_Z 26
_cell_length_a 14.199546
_cell_length_b 13.103359
_cell_length_c 6.556536
_cell_angle_alpha 90.000000
_cell_angle_beta 90.395970
_cell_angle_gamma 90.000000
_cell_volume 1219.891422
_symmetry_space_group_name_H-M "C 2"
_symmetry_group_IT_number 5
_symmetry_cell_setting 'monoclinic'
loop_
_space_group_symop_operation_xyz
x,y,z
-x,y,-z
1/2+x,1/2+y,z
1/2-x,1/2+y,-z
loop_
_atom_site_type_symbol
_atom_site_label
_atom_site_fract_x
_atom_site_fract_y
_atom_site_fract_z
Si Si1 0.500000 0.454080 0.000000
Si Si2 0.928836 0.817273 0.657574
Si Si3 0.653219 0.605417 0.918342
Si Si4 0.500000 0.763835 0.000000
Si Si5 0.072121 0.429714 0.313990
Si Si6 0.168980 0.728652 0.956112
Si Si7 0.789755 0.919247 0.343414
Si Si8 0.000000 0.596199 0.000000
O O1 0.498047 0.383581 0.802545
O O2 0.590022 0.524349 0.039411
O O3 0.863779 0.756144 0.813997
O O4 0.856574 0.886140 0.528424
O O5 0.000000 0.764201 0.500000
O O6 0.742035 0.653859 0.031699
O O7 0.684827 0.533247 0.733164
O O8 0.578230 0.695843 0.884839
O O9 0.550521 0.833287 0.168500
O O10 0.179116 0.422210 0.391147
O O11 0.000000 0.433350 0.500000
O O12 0.054183 0.525679 0.163585
O O13 0.195331 0.830810 0.831154
O O14 0.077104 0.665500 0.885309
#
# Coordination Sequence:
#
# PCOD9128664 Si02
#       8
#     2   4   4   2   4   4   4   2
#     4  11  23  47  71  96 138 181 223 295 349 402
#     4  12  24  44  73 100 141 175 233 295 348 403
#     4  11  23  46  70 100 137 185 234 278 354 407
#     4  10  24  47  71  98 144 186 226 291 341 416
#     4  11  26  46  68 105 145 180 228 285 351 411
#     4  12  25  46  70 103 141 184 235 285 347 419
#     4  12  25  47  71 104 137 186 235 293 344 415
#     4  11  25  44  74  96 144 187 225 282 352 416
#
# _framework density 21.313374
#
# number of rings (size 3 to 8) (size 9 to 14) (size 15 to 20)
#    0.000    0.615    6.154    1.385    2.154    3.077 
#    8.308    0.000    0.000    0.000    0.000    0.000 
#    0.000    0.000    0.000    0.000    0.000    0.000 
#
# Total GULP energy -72564.385675 kJ/mol
# GULP energy per Si atom -5581.875821 kJ/mol
# Density = 2.126486 g / cm^3
# Si number density = 21.313374 Si / 1000 Ang^3
#
#
#
# Elastic Constant Matrix: (Units=GPa)
#
#
# Indices 1 2 3 4 5 6 
#
# 1 165.5036 49.0225 40.6169 0.0000 -3.8272 0.0000
# 2 49.0225 112.1368 36.0297 0.0000 2.3042 0.0000
# 3 40.6169 36.0297 98.0505 0.0000 0.6318 0.0000
# 4 0.0000 0.0000 0.0000 0.4102 0.0000 -4.0967
# 5 -3.8272 2.3042 0.6318 0.0000 38.0168 0.0000
# 6 0.0000 0.0000 0.0000 -4.0967 0.0000 37.9379
#
#
#
# Elastic Compliance Matrix: (Units=1/GPa)
#
#
# Indices 1 2 3 4 5 6 
#
# 1 0.007336 -0.002549 -0.002108 0.000000 0.000928 0.000000
# 2 -0.002549 0.011009 -0.002984 0.000000 -0.000874 0.000000
# 3 -0.002108 -0.002984 0.012170 0.000000 -0.000234 0.000000
# 4 0.000000 0.000000 0.000000-31.052563 0.000000 -3.353212
# 5 0.000928 -0.000874 -0.000234 0.000000 0.026454 0.000000
# 6 0.000000 0.000000 0.000000 -3.353212 0.000000 -0.335738
#
#
# Mechanical properties :
#
#
# Convention : Reuss Voigt Hill
#
# Bulk Modulus (GPa) = 65.64689 69.66988 67.65838
# Shear Modulus (GPa) = -0.15969 31.94108 15.89070
#
# Velocity S-wave (km/s) = -0.27402 3.87543 2.73348
# Velocity P-wave (km/s) = 5.54685 7.26530 6.46344
#
# Compressibility (1/GPa) = 0.01523302
#
# Stress axis : x y z
#
# Youngs Moduli (GPa) = 136.31466 90.83856 82.16847
#
# Poissons Ratio (x) = 0.23152 0.17324
# Poissons Ratio (y) = 0.34743 0.24517
# Poissons Ratio (z) = 0.28740 0.27104
#
# Static dielectric constant tensor:
#      x y z
#    x 1.787040 0.000000 -0.034440 
#    y 0.000000 1.788470 0.000000 
#    z -0.034440 0.000000 1.753250 
# 
# From -- ./inp_files/6888.got.cif
#   From: 2010.05.17/outbox.cif.g08.bks.cpg/sg5_4_cif.got.tgz:6888.got - 2010.06.03 18:56:24.
