data_PCOD9128327
_publ_section_title
;
Structure prediction by ZEFSAII (Michael W. Deem and Ramdas Pophale) SiO2 
 PCOD9128327
Probable space group: C 2
;
_chemical_formula_sum "Si O2"
_cell_formula_units_Z 30
_cell_length_a 16.121640
_cell_length_b 15.563557
_cell_length_c 10.335828
_cell_angle_alpha 90.000000
_cell_angle_beta 144.479961
_cell_angle_gamma 90.000000
_cell_volume 1506.712034
_symmetry_space_group_name_H-M "C 2"
_symmetry_group_IT_number 5
_symmetry_cell_setting 'monoclinic'
loop_
_space_group_symop_operation_xyz
x,y,z
-x,y,-z
1/2+x,1/2+y,z
1/2-x,1/2+y,-z
loop_
_atom_site_type_symbol
_atom_site_label
_atom_site_fract_x
_atom_site_fract_y
_atom_site_fract_z
Si Si1 0.632673 0.411500 0.924084
Si Si2 0.000000 0.627284 0.500000
Si Si3 0.638837 0.864659 0.581188
Si Si4 0.774077 0.542669 0.895773
Si Si5 0.369411 0.529386 0.563288
Si Si6 0.979144 0.201317 0.624009
Si Si7 0.418706 0.018753 0.652975
Si Si8 0.785727 0.724439 0.059846
O O1 0.715384 0.477103 0.931460
O O2 0.474453 0.451597 0.734976
O O3 0.634769 0.312053 0.880035
O O4 0.727352 0.404963 0.174384
O O5 0.046979 0.569823 0.437033
O O6 0.132319 0.685493 0.713836
O O7 0.500000 0.865421 0.500000
O O8 0.653050 0.766689 0.553020
O O9 0.600700 0.920877 0.411292
O O10 0.683257 0.524219 0.652425
O O11 0.775683 0.641501 0.950140
O O12 0.940878 0.526665 0.082754
O O13 0.458954 0.616999 0.681339
O O14 0.228918 0.543744 0.469420
O O15 0.000000 0.176434 0.500000
O O16 0.119096 0.248843 0.856370
#
# Coordination Sequence:
#
# PCOD9128327 Si02
#       8
#     4   2   4   4   4   4   4   4
#     4  12  22  38  70  98 128 169 216 275 319 380
#     4  10  24  42  66  88 132 176 222 262 338 392
#     4  11  19  40  67  88 118 174 226 249 309 405
#     4  11  21  42  65  91 133 178 218 253 331 403
#     4  12  25  38  63 103 135 161 218 282 325 368
#     4  11  19  40  68  94 125 170 225 256 316 397
#     4  11  23  43  64  90 132 177 214 267 332 393
#     4  11  21  39  68  97 124 176 219 266 314 400
#
# _framework density 19.910905
#
# number of rings (size 3 to 8) (size 9 to 14) (size 15 to 20)
#    0.000    0.800    7.333    1.600    1.867    0.533 
#    4.800    0.000    0.000    0.000    0.000    0.000 
#    0.000    0.000    0.000    0.000    0.000    0.000 
#
# Total GULP energy -83620.585188 kJ/mol
# GULP energy per Si atom -5574.705679 kJ/mol
# Density = 1.986559 g / cm^3
# Si number density = 19.910905 Si / 1000 Ang^3
#
#
#
# Elastic Constant Matrix: (Units=GPa)
#
#
# Indices 1 2 3 4 5 6 
#
# 1 33.9303 13.9900 16.9798 0.0000 12.9023 0.0000
# 2 13.9900 99.3061 26.9630 0.0000 -2.3606 0.0000
# 3 16.9798 26.9630 141.9527 0.0000 8.4433 0.0000
# 4 0.0000 0.0000 0.0000 41.2040 0.0000 -2.6169
# 5 12.9023 -2.3606 8.4433 0.0000 21.0811 0.0000
# 6 0.0000 0.0000 0.0000 -2.6169 0.0000 5.5967
#
#
#
# Elastic Compliance Matrix: (Units=1/GPa)
#
#
# Indices 1 2 3 4 5 6 
#
# 1 0.043099 -0.006023 -0.002461 0.000000 -0.026067 0.000000
# 2 -0.006023 0.011546 -0.001812 0.000000 0.005705 0.000000
# 3 -0.002461 -0.001812 0.007791 0.000000 -0.001817 0.000000
# 4 0.000000 0.000000 0.000000 0.025012 0.000000 0.011695
# 5 -0.026067 0.005705 -0.001817 0.000000 0.064756 0.000000
# 6 0.000000 0.000000 0.000000 0.011695 0.000000 0.184144
#
#
# Mechanical properties :
#
#
# Convention : Reuss Voigt Hill
#
# Bulk Modulus (GPa) = 23.89791 43.45050 33.67421
# Shear Modulus (GPa) = 13.48111 28.06013 20.77062
#
# Velocity S-wave (km/s) = 2.60488 3.75812 3.23333
# Velocity P-wave (km/s) = 4.59083 6.37974 5.55773
#
# Compressibility (1/GPa) = 0.04184466
#
# Stress axis : x y z
#
# Youngs Moduli (GPa) = 23.20215 86.61011 128.34967
#
# Poissons Ratio (x) = 0.52167 0.31585
# Poissons Ratio (y) = 0.13975 0.23256
# Poissons Ratio (z) = 0.05710 0.15693
#
# Static dielectric constant tensor:
#      x y z
#    x 1.742910 0.000000 0.043080 
#    y 0.000000 1.746710 0.000000 
#    z 0.043080 0.000000 1.754970 
# 
# From -- ./inp_files/44919.got.cif
#   From: 2010.05.17/outbox.cif.g08.bks.cpg/sg5_23_cif.got.tgz:44919.got - 2010.06.03 18:56:24.
