data_PCOD9128926
_publ_section_title
;
Structure prediction by ZEFSAII (Michael W. Deem and Ramdas Pophale) SiO2 
 PCOD9128926
Probable space group: C 2
;
_chemical_formula_sum "Si O2"
_cell_formula_units_Z 16
_cell_length_a 8.743275
_cell_length_b 14.909075
_cell_length_c 5.041819
_cell_angle_alpha 90.000000
_cell_angle_beta 83.731369
_cell_angle_gamma 90.000000
_cell_volume 653.292388
_symmetry_space_group_name_H-M "C 2"
_symmetry_group_IT_number 5
_symmetry_cell_setting 'monoclinic'
loop_
_space_group_symop_operation_xyz
x,y,z
-x,y,-z
1/2+x,1/2+y,z
1/2-x,1/2+y,-z
loop_
_atom_site_type_symbol
_atom_site_label
_atom_site_fract_x
_atom_site_fract_y
_atom_site_fract_z
Si Si1 0.000000 0.918051 0.500000
Si Si2 0.397799 0.948732 0.759862
Si Si3 0.344589 0.554023 0.857801
Si Si4 0.839268 0.250630 0.862543
Si Si5 0.000000 0.794719 0.000000
O O1 0.969255 0.856370 0.257545
O O2 0.861056 0.981462 0.621181
O O3 0.500000 0.984392 0.500000
O O4 0.348159 0.845279 0.705138
O O5 0.500000 0.933787 0.000000
O O6 0.278292 0.019708 0.904701
O O7 0.331521 0.652356 0.731957
O O8 0.500000 0.551523 0.000000
O O9 0.667519 0.250829 0.029600
O O10 0.000000 0.246676 0.000000
#
# Coordination Sequence:
#
# PCOD9128926 Si02
#       5
#     2   4   4   4   2
#     4  12  24  48  78 108 144 198 248 304 368 438
#     4  11  26  46  69 104 144 188 237 297 361 428
#     4  11  25  47  75 109 145 191 245 302 367 437
#     4  10  25  48  74 112 146 197 243 306 366 440
#     4  12  26  50  76 104 152 196 246 302 370 436
#
# _framework density 24.491332
#
# number of rings (size 3 to 8) (size 9 to 14) (size 15 to 20)
#    0.000    1.000    3.750    0.000   10.500    0.000 
#    6.750    0.000    0.000    0.000    0.000    0.000 
#    0.000    0.000    0.000    0.000    0.000    0.000 
#
# Total GULP energy -44593.054432 kJ/mol
# GULP energy per Si atom -5574.131804 kJ/mol
# Density = 2.443559 g / cm^3
# Si number density = 24.491332 Si / 1000 Ang^3
#
#
#
# Elastic Constant Matrix: (Units=GPa)
#
#
# Indices 1 2 3 4 5 6 
#
# 1 134.1503 38.8094 27.8163 0.0000 -38.4898 0.0000
# 2 38.8094 106.3137 20.6709 0.0000 -7.5193 0.0000
# 3 27.8163 20.6709 141.8653 0.0000 -21.8356 0.0000
# 4 0.0000 0.0000 0.0000 9.8412 0.0000 4.7508
# 5 -38.4898 -7.5193 -21.8356 0.0000 41.9826 0.0000
# 6 0.0000 0.0000 0.0000 4.7508 0.0000 -1.3935
#
#
#
# Elastic Compliance Matrix: (Units=1/GPa)
#
#
# Indices 1 2 3 4 5 6 
#
# 1 0.011223 -0.003375 -0.000237 0.000000 0.009562 0.000000
# 2 -0.003375 0.010741 -0.001178 0.000000 -0.001783 0.000000
# 3 -0.000237 -0.001178 0.007828 0.000000 0.003643 0.000000
# 4 0.000000 0.000000 0.000000 0.038405 0.000000 0.130935
# 5 0.009562 -0.001783 0.003643 0.000000 0.034161 0.000000
# 6 0.000000 0.000000 0.000000 0.130935 0.000000 -0.271229
#
#
# Mechanical properties :
#
#
# Convention : Reuss Voigt Hill
#
# Bulk Modulus (GPa) = 49.47355 61.88029 55.67692
# Shear Modulus (GPa) = -32.77520 29.75492 -1.51014
#
# Velocity S-wave (km/s) = -3.66216 3.48935 -0.78609
# Velocity P-wave (km/s) = 1.53701 6.44632 4.68602
#
# Compressibility (1/GPa) = 0.02021282
#
# Stress axis : x y z
#
# Youngs Moduli (GPa) = 89.10157 93.10197 127.75040
#
# Poissons Ratio (x) = 0.31418 0.03030
# Poissons Ratio (y) = 0.30068 0.15046
# Poissons Ratio (z) = 0.02113 0.10965
#
# Static dielectric constant tensor:
#      x y z
#    x 2.102510 0.000000 -0.004850 
#    y 0.000000 1.960770 0.000000 
#    z -0.004850 0.000000 1.873260 
# 
# From -- ./inp_files/1726.got.cif
#   From: 2010.05.17/outbox.cif.g08.bks.cpg/sg5_1_cif.got.tgz:1726.got - 2010.06.03 18:56:24.
