data_PCOD9128091
_publ_section_title
;
Structure prediction by ZEFSAII (Michael W. Deem and Ramdas Pophale) SiO2 
 PCOD9128091
Probable space group: C 2
;
_chemical_formula_sum "Si O2"
_cell_formula_units_Z 18
_cell_length_a 8.897518
_cell_length_b 12.252800
_cell_length_c 8.432390
_cell_angle_alpha 90.000000
_cell_angle_beta 104.994246
_cell_angle_gamma 90.000000
_cell_volume 887.994686
_symmetry_space_group_name_H-M "C 2"
_symmetry_group_IT_number 5
_symmetry_cell_setting 'monoclinic'
loop_
_space_group_symop_operation_xyz
x,y,z
-x,y,-z
1/2+x,1/2+y,z
1/2-x,1/2+y,-z
loop_
_atom_site_type_symbol
_atom_site_label
_atom_site_fract_x
_atom_site_fract_y
_atom_site_fract_z
Si Si1 0.500000 0.852660 0.500000
Si Si2 0.628175 0.988059 0.252929
Si Si3 0.826824 0.272203 0.919528
Si Si4 0.740296 0.220848 0.242712
Si Si5 0.057870 0.666570 0.693259
O O1 0.609873 0.923765 0.413649
O O2 0.385347 0.780811 0.361184
O O3 0.656910 0.897396 0.129618
O O4 0.747167 0.089444 0.273498
O O5 0.466565 0.057604 0.207435
O O6 0.736744 0.251699 0.057907
O O7 0.729713 0.211440 0.756829
O O8 0.000000 0.229683 0.000000
O O9 0.573165 0.249193 0.274973
O O10 0.000000 0.644033 0.500000
#
# Coordination Sequence:
#
# PCOD9128091 Si02
#       5
#     2   4   4   4   4
#     4  12  20  46  70 102 130 184 220 280 336 400
#     4  10  24  43  69  94 141 180 214 283 345 377
#     4  12  24  41  72  98 137 179 223 272 336 401
#     4  10  25  42  70 100 138 172 231 274 328 412
#     4  10  23  46  69  99 133 177 225 279 332 400
#
# _framework density 20.270389999999999
#
# number of rings (size 3 to 8) (size 9 to 14) (size 15 to 20)
#    1.333    0.000    3.333    2.000    3.111    0.000 
#    6.000    2.222    0.000    0.000    0.000    0.000 
#    0.000    0.000    0.000    0.000    0.000    0.000 
#
# Total GULP energy -50108.671451 kJ/mol
# GULP energy per Si atom -5567.630161 kJ/mol
# Density = 2.022425 g / cm^3
# Si number density = 20.270390 Si / 1000 Ang^3
#
#
#
# Elastic Constant Matrix: (Units=GPa)
#
#
# Indices 1 2 3 4 5 6 
#
# 1 71.8522 36.3321 27.3777 0.0000 -15.4531 0.0000
# 2 36.3321 118.6314 55.6448 0.0000 -4.1974 0.0000
# 3 27.3777 55.6448 103.3798 0.0000 8.4495 0.0000
# 4 0.0000 0.0000 0.0000 28.1123 0.0000 -12.2934
# 5 -15.4531 -4.1974 8.4495 0.0000 43.0380 0.0000
# 6 0.0000 0.0000 0.0000 -12.2934 0.0000 38.8995
#
#
#
# Elastic Compliance Matrix: (Units=1/GPa)
#
#
# Indices 1 2 3 4 5 6 
#
# 1 0.018690 -0.003860 -0.003445 0.000000 0.007010 0.000000
# 2 -0.003860 0.012308 -0.005679 0.000000 0.000929 0.000000
# 3 -0.003445 -0.005679 0.014013 0.000000 -0.004542 0.000000
# 4 0.000000 0.000000 0.000000 0.041276 0.000000 0.013044
# 5 0.007010 0.000929 -0.004542 0.000000 0.026735 0.000000
# 6 0.000000 0.000000 0.000000 0.013044 0.000000 0.029830
#
#
# Mechanical properties :
#
#
# Convention : Reuss Voigt Hill
#
# Bulk Modulus (GPa) = 52.51025 59.17474 55.84249
# Shear Modulus (GPa) = 28.54437 33.64390 31.09413
#
# Velocity S-wave (km/s) = 3.75664 4.07843 3.92084
# Velocity P-wave (km/s) = 6.69161 7.17176 6.93584
#
# Compressibility (1/GPa) = 0.01904390
#
# Stress axis : x y z
#
# Youngs Moduli (GPa) = 53.50575 81.24718 71.36173
#
# Poissons Ratio (x) = 0.31362 0.24583
# Poissons Ratio (y) = 0.20653 0.40524
# Poissons Ratio (z) = 0.18432 0.46137
#
# Static dielectric constant tensor:
#      x y z
#    x 1.762780 0.000000 -0.026350 
#    y 0.000000 1.738530 0.000000 
#    z -0.026350 0.000000 1.734410 
# 
# From -- ./inp_files/35292.got.cif
#   From: 2010.05.17/outbox.cif.g08.bks.cpg/sg5_18_cif.got.tgz:35292.got - 2010.06.03 18:56:24.
