data_PCOD9128927
_publ_section_title
;
Structure prediction by ZEFSAII (Michael W. Deem and Ramdas Pophale) SiO2 
 PCOD9128927
Probable space group: C 2
;
_chemical_formula_sum "Si O2"
_cell_formula_units_Z 24
_cell_length_a 22.837989
_cell_length_b 5.330030
_cell_length_c 8.677281
_cell_angle_alpha 90.000000
_cell_angle_beta 75.164718
_cell_angle_gamma 90.000000
_cell_volume 1021.051330
_symmetry_space_group_name_H-M "C 2"
_symmetry_group_IT_number 5
_symmetry_cell_setting 'monoclinic'
loop_
_space_group_symop_operation_xyz
x,y,z
-x,y,-z
1/2+x,1/2+y,z
1/2-x,1/2+y,-z
loop_
_atom_site_type_symbol
_atom_site_label
_atom_site_fract_x
_atom_site_fract_y
_atom_site_fract_z
Si Si1 0.683430 0.418130 0.574970
Si Si2 0.136799 0.278304 0.818930
Si Si3 0.934903 0.579190 0.346348
Si Si4 0.366083 0.546968 0.877301
Si Si5 0.573793 0.046618 0.290735
Si Si6 0.250685 0.574008 0.761832
O O1 0.668454 0.697864 0.637796
O O2 0.618070 0.285662 0.628584
O O3 0.712138 0.407499 0.387895
O O4 0.729116 0.306207 0.670972
O O5 0.077079 0.406945 0.795180
O O6 0.187425 0.456530 0.859611
O O7 0.128922 0.050490 0.941171
O O8 0.923972 0.482311 0.528412
O O9 0.005724 0.639633 0.298754
O O10 0.385692 0.283003 0.789787
O O11 0.298254 0.611387 0.865312
O O12 0.407379 0.785701 0.801361
#
# Coordination Sequence:
#
# PCOD9128927 Si02
#       6
#     4   4   4   4   4   4
#     4  11  22  43  70 102 135 191 243 297 353 432
#     4  11  27  44  71 105 147 192 236 303 367 438
#     4  10  25  48  75 103 137 193 254 293 355 428
#     4  12  29  46  71 111 149 188 235 302 378 425
#     4  11  27  49  77 105 143 192 244 304 349 436
#     4  11  24  41  72 101 144 187 244 296 360 435
#
# _framework density 23.505182999999999
#
# number of rings (size 3 to 8) (size 9 to 14) (size 15 to 20)
#    0.000    1.000    3.333    1.000   14.000    2.000 
#    0.000    0.000    0.000    0.000    0.000    0.000 
#    0.000    0.000    0.000    0.000    0.000    0.000 
#
# Total GULP energy -66972.409242 kJ/mol
# GULP energy per Si atom -5581.034103 kJ/mol
# Density = 2.345168 g / cm^3
# Si number density = 23.505183 Si / 1000 Ang^3
#
#
#
# Elastic Constant Matrix: (Units=GPa)
#
#
# Indices 1 2 3 4 5 6 
#
# 1 134.3155 11.7777 33.2975 0.0000 22.9622 0.0000
# 2 11.7777 58.6108 15.0947 0.0000 -1.1108 0.0000
# 3 33.2975 15.0947 78.7200 0.0000 20.7279 0.0000
# 4 0.0000 0.0000 0.0000 37.2829 0.0000 5.7833
# 5 22.9622 -1.1108 20.7279 0.0000 29.2246 0.0000
# 6 0.0000 0.0000 0.0000 5.7833 0.0000 21.8908
#
#
#
# Elastic Compliance Matrix: (Units=1/GPa)
#
#
# Indices 1 2 3 4 5 6 
#
# 1 0.009054 -0.001397 -0.002059 0.000000 -0.005706 0.000000
# 2 -0.001397 0.018521 -0.004224 0.000000 0.004797 0.000000
# 3 -0.002059 -0.004224 0.017216 0.000000 -0.010753 0.000000
# 4 0.000000 0.000000 0.000000 0.027968 0.000000 -0.007389
# 5 -0.005706 0.004797 -0.010753 0.000000 0.046510 0.000000
# 6 0.000000 0.000000 0.000000 -0.007389 0.000000 0.047633
#
#
# Mechanical properties :
#
#
# Convention : Reuss Voigt Hill
#
# Bulk Modulus (GPa) = 33.97859 43.55403 38.76631
# Shear Modulus (GPa) = 26.03192 31.77809 28.90501
#
# Velocity S-wave (km/s) = 3.33152 3.68089 3.51055
# Velocity P-wave (km/s) = 5.41164 6.05269 5.74112
#
# Compressibility (1/GPa) = 0.02943030
#
# Stress axis : x y z
#
# Youngs Moduli (GPa) = 110.45249 53.99230 58.08717
#
# Poissons Ratio (x) = 0.07543 0.11961
# Poissons Ratio (y) = 0.15432 0.24534
# Poissons Ratio (z) = 0.22744 0.22805
#
# Static dielectric constant tensor:
#      x y z
#    x 1.872540 0.000000 0.001150 
#    y 0.000000 1.940970 0.000000 
#    z 0.001150 0.000000 1.909780 
# 
# From -- ./inp_files/30239.got.cif
#   From: 2010.05.17/outbox.cif.g08.bks.cpg/sg5_16_cif.got.tgz:30239.got - 2010.06.03 18:56:24.
