data_PCOD9128996
_publ_section_title
;
Structure prediction by ZEFSAII (Michael W. Deem and Ramdas Pophale) SiO2 
 PCOD9128996
Probable space group: C 2
;
_chemical_formula_sum "Si O2"
_cell_formula_units_Z 30
_cell_length_a 13.224238
_cell_length_b 18.031033
_cell_length_c 10.442588
_cell_angle_alpha 90.000000
_cell_angle_beta 145.606350
_cell_angle_gamma 90.000000
_cell_volume 1406.540329
_symmetry_space_group_name_H-M "C 2"
_symmetry_group_IT_number 5
_symmetry_cell_setting 'monoclinic'
loop_
_space_group_symop_operation_xyz
x,y,z
-x,y,-z
1/2+x,1/2+y,z
1/2-x,1/2+y,-z
loop_
_atom_site_type_symbol
_atom_site_label
_atom_site_fract_x
_atom_site_fract_y
_atom_site_fract_z
Si Si1 0.758809 0.993460 0.662144
Si Si2 0.500000 0.016305 0.000000
Si Si3 0.903783 0.919652 0.076304
Si Si4 0.723401 0.156938 0.520236
Si Si5 0.029707 0.426460 0.789289
Si Si6 0.372505 0.246751 0.094791
Si Si7 0.023422 0.275064 0.881914
Si Si8 0.713649 0.636360 0.715994
O O1 0.823976 0.957874 0.863782
O O2 0.563315 0.963933 0.426725
O O3 0.743404 0.081570 0.622939
O O4 0.905104 0.959984 0.713729
O O5 0.662809 0.066605 0.119505
O O6 0.551965 0.966148 0.173178
O O7 0.744693 0.932753 0.011828
O O8 0.924727 0.829833 0.100230
O O9 0.536929 0.201698 0.328772
O O10 0.743616 0.144595 0.389247
O O11 0.887460 0.208264 0.731270
O O12 0.977826 0.340478 0.736127
O O13 0.221835 0.252536 0.047454
O O14 0.284666 0.202267 0.882740
O O15 0.000000 0.305986 0.000000
O O16 0.500000 0.628066 0.500000
#
# Coordination Sequence:
#
# PCOD9128996 Si02
#       8
#     4   2   4   4   4   4   4   4
#     4  11  24  43  66 102 134 173 216 283 337 402
#     4  12  24  42  66  96 134 170 222 276 332 408
#     4  10  26  42  70  99 132 173 227 279 333 396
#     4  12  25  43  66 100 139 177 218 278 341 400
#     4  11  23  45  68  94 133 177 220 275 334 402
#     4  11  24  46  71  99 132 178 232 283 330 402
#     4  11  26  45  67  95 134 180 227 274 334 407
#     4  12  24  41  69 101 129 173 227 278 333 399
#
# _framework density 21.328928999999999
#
# number of rings (size 3 to 8) (size 9 to 14) (size 15 to 20)
#    0.000    0.800    4.667    1.200    9.333    1.600 
#    2.400    0.000    0.000    0.000    0.000    0.000 
#    0.000    0.000    0.000    0.000    0.000    0.000 
#
# Total GULP energy -83692.590453 kJ/mol
# GULP energy per Si atom -5579.506030 kJ/mol
# Density = 2.128038 g / cm^3
# Si number density = 21.328929 Si / 1000 Ang^3
#
#
#
# Elastic Constant Matrix: (Units=GPa)
#
#
# Indices 1 2 3 4 5 6 
#
# 1 62.3576 44.5193 19.7899 0.0000 6.9279 0.0000
# 2 44.5193 165.9584 58.8576 0.0000 28.6836 0.0000
# 3 19.7899 58.8576 86.8579 0.0000 27.6445 0.0000
# 4 0.0000 0.0000 0.0000 16.0882 0.0000 -10.7398
# 5 6.9279 28.6836 27.6445 0.0000 35.0093 0.0000
# 6 0.0000 0.0000 0.0000 -10.7398 0.0000 15.3131
#
#
#
# Elastic Compliance Matrix: (Units=1/GPa)
#
#
# Indices 1 2 3 4 5 6 
#
# 1 0.019983 -0.005044 -0.001592 0.000000 0.001435 0.000000
# 2 -0.005044 0.009450 -0.004151 0.000000 -0.003467 0.000000
# 3 -0.001592 -0.004151 0.018040 0.000000 -0.010529 0.000000
# 4 0.000000 0.000000 0.000000 0.116879 0.000000 0.081973
# 5 0.001435 -0.003467 -0.010529 0.000000 0.039434 0.000000
# 6 0.000000 0.000000 0.000000 0.081973 0.000000 0.122795
#
#
# Mechanical properties :
#
#
# Convention : Reuss Voigt Hill
#
# Bulk Modulus (GPa) = 38.61133 62.38969 50.50051
# Shear Modulus (GPa) = 14.01393 26.08260 20.04826
#
# Velocity S-wave (km/s) = 2.56606 3.50076 3.06920
# Velocity P-wave (km/s) = 5.18861 6.75686 6.02398
#
# Compressibility (1/GPa) = 0.02589914
#
# Stress axis : x y z
#
# Youngs Moduli (GPa) = 50.04130 105.81925 55.43355
#
# Poissons Ratio (x) = 0.53378 0.08824
# Poissons Ratio (y) = 0.25242 0.23011
# Poissons Ratio (z) = 0.07965 0.43926
#
# Static dielectric constant tensor:
#      x y z
#    x 1.795980 0.000000 0.044360 
#    y 0.000000 1.818570 0.000000 
#    z 0.044360 0.000000 1.653500 
# 
# From -- ./inp_files/43325.got.cif
#   From: 2010.05.17/outbox.cif.g08.bks.cpg/sg5_22_cif.got.tgz:43325.got - 2010.06.03 18:56:24.
