data_PCOD9128755
_publ_section_title
;
Structure prediction by ZEFSAII (Michael W. Deem and Ramdas Pophale) SiO2 
 PCOD9128755
Probable space group: C 2
;
_chemical_formula_sum "Si O2"
_cell_formula_units_Z 18
_cell_length_a 12.240182
_cell_length_b 7.743161
_cell_length_c 15.294129
_cell_angle_alpha 90.000000
_cell_angle_beta 27.093495
_cell_angle_gamma 90.000000
_cell_volume 660.185136
_symmetry_space_group_name_H-M "C 2"
_symmetry_group_IT_number 5
_symmetry_cell_setting 'monoclinic'
loop_
_space_group_symop_operation_xyz
x,y,z
-x,y,-z
1/2+x,1/2+y,z
1/2-x,1/2+y,-z
loop_
_atom_site_type_symbol
_atom_site_label
_atom_site_fract_x
_atom_site_fract_y
_atom_site_fract_z
Si Si1 0.505137 0.551290 0.220187
Si Si2 0.068751 0.709504 0.625152
Si Si3 0.710496 0.964609 0.277916
Si Si4 0.500000 0.421554 0.500000
Si Si5 0.043405 0.603328 0.878732
O O1 0.340988 0.650427 0.409070
O O2 0.467576 0.347551 0.272098
O O3 0.399578 0.579092 0.198490
O O4 0.779148 0.606328 0.027805
O O5 0.901101 0.541084 0.731313
O O6 0.989357 0.812089 0.594880
O O7 0.500000 0.945509 0.500000
O O8 0.832673 0.781027 0.179806
O O9 0.249642 0.523041 0.672034
O O10 0.000000 0.499320 0.000000
#
# Coordination Sequence:
#
# PCOD9128755 Si02
#       5
#     4   4   4   2   4
#     4  11  26  46  75 112 144 202 251 301 386 448
#     4  11  25  48  76 108 154 196 250 309 379 447
#     4  10  24  50  70 104 154 193 246 321 364 442
#     4  12  24  50  72 102 166 188 242 332 352 446
#     4  12  27  46  73 109 146 198 255 303 377 443
#
# _framework density 27.265080000000001
#
# number of rings (size 3 to 8) (size 9 to 14) (size 15 to 20)
#    0.000    0.889    6.667    0.000   12.444    0.000 
#    8.000    0.000    0.000    0.000    0.000    0.000 
#    0.000    0.000    0.000    0.000    0.000    0.000 
#
# Total GULP energy -50423.410063 kJ/mol
# GULP energy per Si atom -5602.601118 kJ/mol
# Density = 2.720302 g / cm^3
# Si number density = 27.265080 Si / 1000 Ang^3
#
#
#
# Elastic Constant Matrix: (Units=GPa)
#
#
# Indices 1 2 3 4 5 6 
#
# 1 79.2957 5.2102 35.9720 -0.0014 -16.4379 -0.0002
# 2 5.2102 116.0685 64.6841 -0.0067 -14.0627 -0.0001
# 3 35.9720 64.6841 227.6744 -0.0127 -41.6956 0.0017
# 4 -0.0014 -0.0067 -0.0127 42.0104 0.0025 -10.7003
# 5 -16.4379 -14.0627 -41.6956 0.0025 54.8337 0.0007
# 6 -0.0002 -0.0001 0.0017 -10.7003 0.0007 27.2377
#
#
#
# Elastic Compliance Matrix: (Units=1/GPa)
#
#
# Indices 1 2 3 4 5 6 
#
# 1 0.014035 0.000787 -0.001898 0.000000 0.002966 0.000000
# 2 0.000787 0.010291 -0.002930 0.000001 0.000648 0.000001
# 3 -0.001898 -0.002930 0.006137 0.000001 0.003347 0.000000
# 4 0.000000 0.000001 0.000001 0.026450 0.000000 0.010391
# 5 0.002966 0.000648 0.003347 0.000000 0.021837 -0.000001
# 6 0.000000 0.000001 0.000000 0.010391 -0.000001 0.040796
#
#
# Mechanical properties :
#
#
# Convention : Reuss Voigt Hill
#
# Bulk Modulus (GPa) = 44.67708 70.53015 57.60361
# Shear Modulus (GPa) = 37.01265 45.96118 41.48691
#
# Velocity S-wave (km/s) = 3.68844 4.11020 3.90502
# Velocity P-wave (km/s) = 5.87888 6.96057 6.44246
#
# Compressibility (1/GPa) = 0.02238284
#
# Stress axis : x y z
#
# Youngs Moduli (GPa) = 71.24964 97.16863 162.93800
#
# Poissons Ratio (x) = -0.07648 0.30924
# Poissons Ratio (y) = -0.05608 0.47735
# Poissons Ratio (z) = 0.13523 0.28467
#
# Static dielectric constant tensor:
#      x y z
#    x 2.171260 0.000000 0.006960 
#    y 0.000000 2.231340 0.000000 
#    z 0.006960 0.000000 2.147070 
# 
# From -- ./inp_files/65821.got.cif
#   From: 2010.05.17/outbox.cif.g08.bks.cpg/sg5_33_cif.got.tgz:65821.got - 2010.06.03 18:56:24.
