data_PCOD9128425
_publ_section_title
;
Structure prediction by ZEFSAII (Michael W. Deem and Ramdas Pophale) SiO2 
 PCOD9128425
Probable space group: C 2
;
_chemical_formula_sum "Si O2"
_cell_formula_units_Z 20
_cell_length_a 27.817758
_cell_length_b 5.158753
_cell_length_c 11.981834
_cell_angle_alpha 90.000000
_cell_angle_beta 152.109226
_cell_angle_gamma 90.000000
_cell_volume 804.338341
_symmetry_space_group_name_H-M "C 2"
_symmetry_group_IT_number 5
_symmetry_cell_setting 'monoclinic'
loop_
_space_group_symop_operation_xyz
x,y,z
-x,y,-z
1/2+x,1/2+y,z
1/2-x,1/2+y,-z
loop_
_atom_site_type_symbol
_atom_site_label
_atom_site_fract_x
_atom_site_fract_y
_atom_site_fract_z
Si Si1 0.370827 0.509470 0.677263
Si Si2 0.865779 0.512320 0.822837
Si Si3 0.271615 0.505705 0.893784
Si Si4 0.147195 0.010002 0.688840
Si Si5 0.468369 0.651500 0.178936
O O1 0.254523 0.505149 0.393189
O O2 0.380029 0.768838 0.769059
O O3 0.455385 0.525130 0.754820
O O4 0.383255 0.265112 0.784342
O O5 0.941740 0.442736 0.081159
O O6 0.281613 0.729933 0.219381
O O7 0.354851 0.538067 0.966989
O O8 0.329715 0.519205 0.132086
O O9 0.185445 0.731179 0.722418
O O10 0.033170 0.100734 0.423477
#
# Coordination Sequence:
#
# PCOD9128425 Si02
#       5
#     4   4   4   4   4
#     4  10  24  44  63  91 133 174 218 274 328 384
#     4  10  24  44  63  91 133 174 218 274 328 384
#     4  10  24  45  68 101 140 173 216 275 335 399
#     4  10  24  45  68 101 140 173 216 275 335 399
#     4  12  24  42  74 100 128 180 230 270 330 398
#
# _framework density 24.865155999999999
#
# number of rings (size 3 to 8) (size 9 to 14) (size 15 to 20)
#    0.000    1.600    0.000    2.400    0.000   16.000 
#    0.000   10.000    0.000    0.000    0.000    0.000 
#    0.000    0.000    0.000    0.000    0.000    0.000 
#
# Total GULP energy -56009.736768 kJ/mol
# GULP energy per Si atom -5600.973677 kJ/mol
# Density = 2.480856 g / cm^3
# Si number density = 24.865156 Si / 1000 Ang^3
#
#
#
# Elastic Constant Matrix: (Units=GPa)
#
#
# Indices 1 2 3 4 5 6 
#
# 1 141.3164 40.2321 6.4025 0.0000 29.1684 0.0000
# 2 40.2321 137.7487 19.6851 0.0001 -10.5585 0.0001
# 3 6.4025 19.6851 131.2850 0.0000 9.2703 0.0000
# 4 0.0000 0.0001 0.0000 24.6427 0.0000 -1.1218
# 5 29.1684 -10.5585 9.2703 0.0000 36.4434 0.0000
# 6 0.0000 0.0001 0.0000 -1.1218 0.0000 15.8050
#
#
#
# Elastic Compliance Matrix: (Units=1/GPa)
#
#
# Indices 1 2 3 4 5 6 
#
# 1 0.010029 -0.003746 0.000729 0.000000 -0.009298 0.000000
# 2 -0.003746 0.009044 -0.001599 0.000000 0.006025 0.000000
# 3 0.000729 -0.001599 0.008040 0.000000 -0.003092 0.000000
# 4 0.000000 0.000000 0.000000 0.040712 0.000000 0.002890
# 5 -0.009298 0.006025 -0.003092 0.000000 0.037413 0.000000
# 6 0.000000 0.000000 0.000000 0.002890 0.000000 0.063476
#
#
# Mechanical properties :
#
#
# Convention : Reuss Voigt Hill
#
# Bulk Modulus (GPa) = 55.92548 60.33217 58.12883
# Shear Modulus (GPa) = 27.18793 38.31358 32.75075
#
# Velocity S-wave (km/s) = 3.31027 3.92963 3.63317
# Velocity P-wave (km/s) = 6.09515 6.70117 6.40533
#
# Compressibility (1/GPa) = 0.01788094
#
# Stress axis : x y z
#
# Youngs Moduli (GPa) = 99.71287 110.57075 124.38569
#
# Poissons Ratio (x) = 0.41419 -0.09069
# Poissons Ratio (y) = 0.37352 0.19887
# Poissons Ratio (z) = -0.07270 0.17678
#
# Static dielectric constant tensor:
#      x y z
#    x 1.986150 0.000000 -0.046140 
#    y 0.000000 1.928760 0.000000 
#    z -0.046140 0.000000 2.074140 
# 
# From -- ./inp_files/43572.got.cif
#   From: 2010.05.17/outbox.cif.g08.bks.cpg/sg5_22_cif.got.tgz:43572.got - 2010.06.03 18:56:24.
