data_PCOD9128187
_publ_section_title
;
Structure prediction by ZEFSAII (Michael W. Deem and Ramdas Pophale) SiO2 
 PCOD9128187
Probable space group: C 2
;
_chemical_formula_sum "Si O2"
_cell_formula_units_Z 30
_cell_length_a 10.127197
_cell_length_b 15.983408
_cell_length_c 11.788042
_cell_angle_alpha 90.000000
_cell_angle_beta 40.052086
_cell_angle_gamma 90.000000
_cell_volume 1227.829013
_symmetry_space_group_name_H-M "C 2"
_symmetry_group_IT_number 5
_symmetry_cell_setting 'monoclinic'
loop_
_space_group_symop_operation_xyz
x,y,z
-x,y,-z
1/2+x,1/2+y,z
1/2-x,1/2+y,-z
loop_
_atom_site_type_symbol
_atom_site_label
_atom_site_fract_x
_atom_site_fract_y
_atom_site_fract_z
Si Si1 0.824441 0.320600 0.034425
Si Si2 0.232268 0.500008 0.981441
Si Si3 0.271052 0.714566 0.451661
Si Si4 0.924121 0.876168 0.436298
Si Si5 0.613954 0.133664 0.752619
Si Si6 0.110244 0.043605 0.598550
Si Si7 0.000000 0.918690 0.000000
Si Si8 0.788315 0.266824 0.803845
O O1 0.896003 0.414629 0.951063
O O2 0.614586 0.345030 0.236236
O O3 0.786281 0.270124 0.943132
O O4 0.000000 0.283609 0.000000
O O5 0.372327 0.528146 0.783182
O O6 0.393937 0.475047 0.973841
O O7 0.077451 0.574050 0.107879
O O8 0.199524 0.796615 0.434526
O O9 0.092572 0.695621 0.659304
O O10 0.322912 0.623428 0.366004
O O11 0.474630 0.749076 0.380040
O O12 0.000000 0.920571 0.500000
O O13 0.802834 0.948921 0.448404
O O14 0.801682 0.080016 0.576519
O O15 0.674449 0.190920 0.817537
O O16 0.823534 0.853130 0.158392
#
# Coordination Sequence:
#
# PCOD9128187 Si02
#       8
#     4   4   4   4   4   4   2   4
#     4  10  24  44  74 114 148 206 263 324 407 465
#     4  10  23  49  73 113 157 206 264 331 382 489
#     4  10  25  43  69 111 150 202 260 328 400 459
#     4  11  24  45  74 103 155 201 259 325 391 483
#     4  10  25  44  71 111 157 206 258 325 394 463
#     4   9  25  42  71 109 150 199 269 315 394 464
#     4  10  26  44  80 116 152 212 268 324 420 464
#     4  11  24  42  74 111 156 187 270 330 389 482
#
# _framework density 24.433368999999999
#
# number of rings (size 3 to 8) (size 9 to 14) (size 15 to 20)
#    0.800    1.067    0.000    1.200   14.933    1.067 
#    4.800    0.667    1.467    0.000    0.000    0.000 
#    0.000    0.000    0.000    0.000    0.000    0.000 
#
# Total GULP energy -83603.334709 kJ/mol
# GULP energy per Si atom -5573.555647 kJ/mol
# Density = 2.437776 g / cm^3
# Si number density = 24.433369 Si / 1000 Ang^3
#
#
#
# Elastic Constant Matrix: (Units=GPa)
#
#
# Indices 1 2 3 4 5 6 
#
# 1 99.9099 48.5347 14.4281 -0.0004 3.4655 0.0001
# 2 48.5347 169.4043 53.8083 0.0003 -2.0012 -0.0003
# 3 14.4281 53.8083 102.1474 0.0001 15.0241 -0.0002
# 4 -0.0004 0.0003 0.0001 44.6807 0.0004 -7.7011
# 5 3.4655 -2.0012 15.0241 0.0004 27.6988 -0.0003
# 6 0.0001 -0.0003 -0.0002 -7.7011 -0.0003 41.3451
#
#
#
# Elastic Compliance Matrix: (Units=1/GPa)
#
#
# Indices 1 2 3 4 5 6 
#
# 1 0.011727 -0.003543 0.000504 0.000000 -0.001996 0.000000
# 2 -0.003543 0.008359 -0.004409 0.000000 0.003439 0.000000
# 3 0.000504 -0.004409 0.013146 0.000000 -0.007512 0.000000
# 4 0.000000 0.000000 0.000000 0.023123 0.000000 0.004307
# 5 -0.001996 0.003439 -0.007512 0.000000 0.040675 0.000000
# 6 0.000000 0.000000 0.000000 0.004307 0.000000 0.024989
#
#
# Mechanical properties :
#
#
# Convention : Reuss Voigt Hill
#
# Bulk Modulus (GPa) = 54.53917 67.22262 60.88090
# Shear Modulus (GPa) = 34.95825 39.72427 37.34126
#
# Velocity S-wave (km/s) = 3.78664 4.03652 3.91358
# Velocity P-wave (km/s) = 6.44114 7.02118 6.73741
#
# Compressibility (1/GPa) = 0.01833545
#
# Stress axis : x y z
#
# Youngs Moduli (GPa) = 85.27451 119.62925 76.06978
#
# Poissons Ratio (x) = 0.42389 -0.03832
# Poissons Ratio (y) = 0.30216 0.33536
# Poissons Ratio (z) = -0.04296 0.52740
#
# Static dielectric constant tensor:
#      x y z
#    x 1.979650 0.000000 -0.015320 
#    y 0.000000 1.996790 0.000000 
#    z -0.015320 0.000000 1.965620 
# 
# From -- ./inp_files/53418.got.cif
#   From: 2010.05.17/outbox.cif.g08.bks.cpg/sg5_27_cif.got.tgz:53418.got - 2010.06.03 18:56:24.
