data_PCOD9128345
_publ_section_title
;
Structure prediction by ZEFSAII (Michael W. Deem and Ramdas Pophale) SiO2 
 PCOD9128345
Probable space group: C 2
;
_chemical_formula_sum "Si O2"
_cell_formula_units_Z 20
_cell_length_a 9.419136
_cell_length_b 11.310892
_cell_length_c 11.893018
_cell_angle_alpha 90.000000
_cell_angle_beta 36.472543
_cell_angle_gamma 90.000000
_cell_volume 753.192865
_symmetry_space_group_name_H-M "C 2"
_symmetry_group_IT_number 5
_symmetry_cell_setting 'monoclinic'
loop_
_space_group_symop_operation_xyz
x,y,z
-x,y,-z
1/2+x,1/2+y,z
1/2-x,1/2+y,-z
loop_
_atom_site_type_symbol
_atom_site_label
_atom_site_fract_x
_atom_site_fract_y
_atom_site_fract_z
Si Si1 0.793015 0.847850 0.725197
Si Si2 0.566545 0.626079 0.780347
Si Si3 0.961935 0.871342 0.190389
Si Si4 0.111997 0.492207 0.133567
Si Si5 0.290914 0.647135 0.556866
O O1 0.677515 0.718033 0.795123
O O2 0.910329 0.878405 0.768337
O O3 0.000000 0.845091 0.500000
O O4 0.576879 0.934051 0.831004
O O5 0.677018 0.495427 0.729511
O O6 0.609241 0.678087 0.629114
O O7 0.287234 0.595008 0.975661
O O8 0.806555 0.754955 0.304329
O O9 0.193009 0.890054 0.960718
O O10 0.925326 0.557955 0.331813
O O11 0.500000 0.592848 0.500000
#
# Coordination Sequence:
#
# PCOD9128345 Si02
#       5
#     4   4   4   4   4
#     4  12  21  43  75  97 137 184 233 289 346 418
#     4  10  25  43  71 102 134 179 238 283 343 428
#     4  10  24  43  67 101 137 180 233 282 356 411
#     4  10  24  42  68 101 135 178 234 285 344 427
#     4  12  24  43  69  96 138 184 228 294 352 409
#
# _framework density 26.553621
#
# number of rings (size 3 to 8) (size 9 to 14) (size 15 to 20)
#    1.200    0.000    2.000    4.800    2.800    0.800 
#    0.000    0.000    4.400    0.000    0.000    0.000 
#    0.000    0.000    0.000    0.000    0.000    0.000 
#
# Total GULP energy -55896.737890 kJ/mol
# GULP energy per Si atom -5589.673789 kJ/mol
# Density = 2.649318 g / cm^3
# Si number density = 26.553621 Si / 1000 Ang^3
#
#
#
# Elastic Constant Matrix: (Units=GPa)
#
#
# Indices 1 2 3 4 5 6 
#
# 1 92.5649 25.3267 23.1969 -0.0015 -19.5679 0.0008
# 2 25.3267 113.6219 29.5408 -0.0008 -17.9178 0.0005
# 3 23.1969 29.5408 159.9301 -0.0045 -19.3620 0.0031
# 4 -0.0015 -0.0008 -0.0045 42.1296 0.0021 -13.3855
# 5 -19.5679 -17.9178 -19.3620 0.0021 39.1740 -0.0013
# 6 0.0008 0.0005 0.0031 -13.3855 -0.0013 35.7793
#
#
#
# Elastic Compliance Matrix: (Units=1/GPa)
#
#
# Indices 1 2 3 4 5 6 
#
# 1 0.012575 -0.001780 -0.000886 0.000000 0.005030 0.000000
# 2 -0.001780 0.010000 -0.001216 0.000000 0.003084 0.000000
# 3 -0.000886 -0.001216 0.006898 0.000000 0.002410 0.000000
# 4 0.000000 0.000000 0.000000 0.026938 -0.000001 0.010078
# 5 0.005030 0.003084 0.002410 -0.000001 0.030642 0.000000
# 6 0.000000 0.000000 0.000000 0.010078 0.000000 0.031719
#
#
# Mechanical properties :
#
#
# Convention : Reuss Voigt Hill
#
# Bulk Modulus (GPa) = 46.06117 58.02729 52.04423
# Shear Modulus (GPa) = 37.37691 42.62009 39.99850
#
# Velocity S-wave (km/s) = 3.75587 4.01066 3.88536
# Velocity P-wave (km/s) = 6.01605 6.58388 6.30636
#
# Compressibility (1/GPa) = 0.02171026
#
# Stress axis : x y z
#
# Youngs Moduli (GPa) = 79.51974 99.99782 144.97674
#
# Poissons Ratio (x) = 0.17795 0.12851
# Poissons Ratio (y) = 0.14151 0.17624
# Poissons Ratio (z) = 0.07049 0.12156
#
# Static dielectric constant tensor:
#      x y z
#    x 2.058000 0.000000 0.063730 
#    y 0.000000 2.135200 0.000000 
#    z 0.063730 0.000000 2.113440 
# 
# From -- ./inp_files/18790.got.cif
#   From: 2010.05.17/outbox.cif.g08.bks.cpg/sg5_10_cif.got.tgz:18790.got - 2010.06.03 18:56:24.
