data_PCOD9128111
_publ_section_title
;
Structure prediction by ZEFSAII (Michael W. Deem and Ramdas Pophale) SiO2 
 PCOD9128111
Probable space group: C 2
;
_chemical_formula_sum "Si O2"
_cell_formula_units_Z 28
_cell_length_a 5.441451
_cell_length_b 22.652555
_cell_length_c 10.549944
_cell_angle_alpha 90.000000
_cell_angle_beta 101.189932
_cell_angle_gamma 90.000000
_cell_volume 1275.693457
_symmetry_space_group_name_H-M "C 2"
_symmetry_group_IT_number 5
_symmetry_cell_setting 'monoclinic'
loop_
_space_group_symop_operation_xyz
x,y,z
-x,y,-z
1/2+x,1/2+y,z
1/2-x,1/2+y,-z
loop_
_atom_site_type_symbol
_atom_site_label
_atom_site_fract_x
_atom_site_fract_y
_atom_site_fract_z
Si Si1 0.912292 0.193640 0.199228
Si Si2 0.458996 0.473226 0.844851
Si Si3 0.000000 0.749059 0.000000
Si Si4 0.462059 0.900207 0.848630
Si Si5 0.500000 0.150997 0.500000
Si Si6 0.750809 0.762392 0.576316
Si Si7 0.919592 0.080600 0.643630
Si Si8 0.699662 0.287721 0.767752
O O1 0.800962 0.238272 0.289885
O O2 0.918628 0.129769 0.263847
O O3 0.188222 0.221549 0.212723
O O4 0.732449 0.206634 0.062639
O O5 0.707138 0.438649 0.823234
O O6 0.424405 0.524466 0.736578
O O7 0.206940 0.433551 0.821957
O O8 0.500000 0.490964 0.000000
O O9 0.073332 0.792362 0.892443
O O10 0.406319 0.838102 0.777591
O O11 0.500000 0.887081 0.000000
O O12 0.287115 0.199220 0.510397
O O13 0.638444 0.107705 0.610393
O O14 0.500000 0.792161 0.500000
O O15 0.014489 0.793768 0.630123
O O16 0.000000 0.073386 0.500000
#
# Coordination Sequence:
#
# PCOD9128111 Si02
#       8
#     4   4   2   4   2   4   4   4
#     4  11  21  39  60 103 139 178 228 285 367 435
#     4  10  26  48  73 105 139 189 251 310 359 424
#     4  10  24  34  60 110 146 178 230 294 364 448
#     4  10  23  46  74 101 139 188 242 297 373 432
#     4  12  20  42  68  90 138 190 232 284 352 446
#     4  11  20  37  62  98 136 179 232 274 355 437
#     4  12  25  44  74  99 141 194 242 297 363 438
#     4  11  23  38  69 100 144 184 230 296 364 442
#
# _framework density 21.948844999999999
#
# number of rings (size 3 to 8) (size 9 to 14) (size 15 to 20)
#    0.000    1.143    4.286    1.286    9.000    1.143 
#    3.857    0.000    6.286    0.000    0.000    0.000 
#    0.000    0.000    0.000    0.000    0.000    0.000 
#
# Total GULP energy -77995.199108 kJ/mol
# GULP energy per Si atom -5571.085651 kJ/mol
# Density = 2.189889 g / cm^3
# Si number density = 21.948845 Si / 1000 Ang^3
#
#
#
# Elastic Constant Matrix: (Units=GPa)
#
#
# Indices 1 2 3 4 5 6 
#
# 1 109.1407 45.5084 53.1385 0.0000 29.7921 0.0000
# 2 45.5084 115.2209 74.7798 0.0000 16.5715 0.0000
# 3 53.1385 74.7798 142.1536 0.0000 18.0150 0.0000
# 4 0.0000 0.0000 0.0000 40.5573 0.0000 8.5195
# 5 29.7921 16.5715 18.0150 0.0000 42.6282 0.0000
# 6 0.0000 0.0000 0.0000 8.5195 0.0000 22.7159
#
#
#
# Elastic Compliance Matrix: (Units=1/GPa)
#
#
# Indices 1 2 3 4 5 6 
#
# 1 0.013576 -0.002456 -0.002855 0.000000 -0.007327 0.000000
# 2 -0.002456 0.013843 -0.006233 0.000000 -0.001031 0.000000
# 3 -0.002855 -0.006233 0.011433 0.000000 -0.000414 0.000000
# 4 0.000000 0.000000 0.000000 0.026765 0.000000 -0.010038
# 5 -0.007327 -0.001031 -0.000414 0.000000 0.029155 0.000000
# 6 0.000000 0.000000 0.000000 -0.010038 0.000000 0.047787
#
#
# Mechanical properties :
#
#
# Convention : Reuss Voigt Hill
#
# Bulk Modulus (GPa) = 63.43180 79.26318 71.34749
# Shear Modulus (GPa) = 29.25666 34.05286 31.65476
#
# Velocity S-wave (km/s) = 3.65492 3.94314 3.80176
# Velocity P-wave (km/s) = 6.83914 7.54468 7.20056
#
# Compressibility (1/GPa) = 0.01576496
#
# Stress axis : x y z
#
# Youngs Moduli (GPa) = 73.65706 72.24043 87.46492
#
# Poissons Ratio (x) = 0.17740 0.24968
# Poissons Ratio (y) = 0.18088 0.54520
# Poissons Ratio (z) = 0.21026 0.45030
#
# Static dielectric constant tensor:
#      x y z
#    x 2.078810 0.000000 -0.022510 
#    y 0.000000 1.774610 0.000000 
#    z -0.022510 0.000000 1.886650 
# 
# From -- ./inp_files/33991.got.cif
#   From: 2010.05.17/outbox.cif.g08.bks.cpg/sg5_17_cif.got.tgz:33991.got - 2010.06.03 18:56:24.
