data_PCOD9128116
_publ_section_title
;
Structure prediction by ZEFSAII (Michael W. Deem and Ramdas Pophale) SiO2 
 PCOD9128116
Probable space group: C 2
;
_chemical_formula_sum "Si O2"
_cell_formula_units_Z 26
_cell_length_a 12.673371
_cell_length_b 7.115949
_cell_length_c 12.587803
_cell_angle_alpha 90.000000
_cell_angle_beta 58.712912
_cell_angle_gamma 90.000000
_cell_volume 970.120198
_symmetry_space_group_name_H-M "C 2"
_symmetry_group_IT_number 5
_symmetry_cell_setting 'monoclinic'
loop_
_space_group_symop_operation_xyz
x,y,z
-x,y,-z
1/2+x,1/2+y,z
1/2-x,1/2+y,-z
loop_
_atom_site_type_symbol
_atom_site_label
_atom_site_fract_x
_atom_site_fract_y
_atom_site_fract_z
Si Si1 0.122192 0.221290 0.621455
Si Si2 0.170722 0.880841 0.211756
Si Si3 0.377974 0.370684 0.523576
Si Si4 0.877759 0.098286 0.137373
Si Si5 0.519723 0.044142 0.210845
Si Si6 0.257312 0.786327 0.881803
Si Si7 0.000000 0.647462 0.000000
O O1 0.267338 0.260621 0.525567
O O2 0.049605 0.418802 0.663920
O O3 0.820317 0.084553 0.844069
O O4 0.098656 0.150910 0.753949
O O5 0.178504 0.922785 0.332711
O O6 0.289402 0.750299 0.126918
O O7 0.915486 0.057092 0.439282
O O8 0.055520 0.747470 0.240153
O O9 0.500000 0.263355 0.500000
O O10 0.790051 0.912335 0.193132
O O11 0.000000 0.081991 0.000000
O O12 0.643976 0.925953 0.120272
O O13 0.449721 0.051000 0.133474
O O14 0.117573 0.748438 0.993782
#
# Coordination Sequence:
#
# PCOD9128116 Si02
#       7
#     4   4   4   4   4   4   2
#     4  11  27  48  82 116 160 216 274 344 416 487
#     4  10  25  48  78 112 161 211 278 336 407 485
#     4  11  26  50  78 115 151 209 271 344 406 481
#     4  10  23  46  74 118 163 212 263 332 410 495
#     4  11  28  49  73 119 162 214 277 336 413 495
#     4  11  25  46  74 112 158 219 263 331 404 488
#     4  12  26  44  80 116 162 214 264 328 408 502
#
# _framework density 26.800802999999998
#
# number of rings (size 3 to 8) (size 9 to 14) (size 15 to 20)
#    0.000    1.231    0.769    2.769   10.769    3.692 
#    2.769    0.769    0.000    0.000    0.000    0.000 
#    0.000    0.000    0.000    0.000    0.000    0.000 
#
# Total GULP energy -72595.972177 kJ/mol
# GULP energy per Si atom -5584.305552 kJ/mol
# Density = 2.673980 g / cm^3
# Si number density = 26.800803 Si / 1000 Ang^3
#
#
#
# Elastic Constant Matrix: (Units=GPa)
#
#
# Indices 1 2 3 4 5 6 
#
# 1 106.7763 60.3694 31.4110 0.0000 -20.1031 0.0000
# 2 60.3694 189.8009 33.7707 0.0000 0.3173 0.0000
# 3 31.4110 33.7707 84.8117 0.0000 1.1307 0.0000
# 4 0.0000 0.0000 0.0000 47.3848 0.0000 -13.6936
# 5 -20.1031 0.3173 1.1307 0.0000 49.7855 0.0000
# 6 0.0000 0.0000 0.0000 -13.6936 0.0000 63.1869
#
#
#
# Elastic Compliance Matrix: (Units=1/GPa)
#
#
# Indices 1 2 3 4 5 6 
#
# 1 0.013565 -0.003677 -0.003634 0.000000 0.005583 0.000000
# 2 -0.003677 0.006667 -0.001273 0.000000 -0.001498 0.000000
# 3 -0.003634 -0.001273 0.013667 0.000000 -0.001770 0.000000
# 4 0.000000 0.000000 0.000000 0.022514 0.000000 0.004879
# 5 0.005583 -0.001498 -0.001770 0.000000 0.022390 0.000000
# 6 0.000000 0.000000 0.000000 0.004879 0.000000 0.016883
#
#
# Mechanical properties :
#
#
# Convention : Reuss Voigt Hill
#
# Bulk Modulus (GPa) = 59.77024 70.27678 65.02351
# Shear Modulus (GPa) = 42.21831 49.12730 45.67281
#
# Velocity S-wave (km/s) = 3.97326 4.28606 4.13262
# Velocity P-wave (km/s) = 6.58781 7.12549 6.86192
#
# Compressibility (1/GPa) = 0.01673073
#
# Stress axis : x y z
#
# Youngs Moduli (GPa) = 73.72109 149.98638 73.16796
#
# Poissons Ratio (x) = 0.55153 0.26590
# Poissons Ratio (y) = 0.27109 0.09314
# Poissons Ratio (z) = 0.26791 0.19092
#
# Static dielectric constant tensor:
#      x y z
#    x 2.101260 0.000000 -0.046470 
#    y 0.000000 2.248820 0.000000 
#    z -0.046470 0.000000 2.209650 
# 
# From -- ./inp_files/52593.got.cif
#   From: 2010.05.17/outbox.cif.g08.bks.cpg/sg5_27_cif.got.tgz:52593.got - 2010.06.03 18:56:24.
