data_PCOD9128440
_publ_section_title
;
Structure prediction by ZEFSAII (Michael W. Deem and Ramdas Pophale) SiO2 
 PCOD9128440
Probable space group: C 2
;
_chemical_formula_sum "Si O2"
_cell_formula_units_Z 28
_cell_length_a 19.298274
_cell_length_b 4.847694
_cell_length_c 12.477449
_cell_angle_alpha 90.000000
_cell_angle_beta 88.773239
_cell_angle_gamma 90.000000
_cell_volume 1167.024343
_symmetry_space_group_name_H-M "C 2"
_symmetry_group_IT_number 5
_symmetry_cell_setting 'monoclinic'
loop_
_space_group_symop_operation_xyz
x,y,z
-x,y,-z
1/2+x,1/2+y,z
1/2-x,1/2+y,-z
loop_
_atom_site_type_symbol
_atom_site_label
_atom_site_fract_x
_atom_site_fract_y
_atom_site_fract_z
Si Si1 0.219870 0.893110 0.061197
Si Si2 0.694570 0.623713 0.767659
Si Si3 0.888878 0.616233 0.175961
Si Si4 0.438032 0.662183 0.588319
Si Si5 0.470009 0.158170 0.727587
Si Si6 0.431464 0.399811 0.958996
Si Si7 0.705905 0.793413 0.523598
O O1 0.239505 0.754016 0.173614
O O2 0.144240 0.029428 0.055921
O O3 0.228996 0.629904 0.982566
O O4 0.676391 0.308185 0.790288
O O5 0.696351 0.691296 0.644230
O O6 0.631029 0.797665 0.819447
O O7 0.947101 0.677426 0.263152
O O8 0.918684 0.695084 0.059433
O O9 0.500000 0.703896 0.500000
O O10 0.441812 0.354274 0.634721
O O11 0.364300 0.738733 0.539310
O O12 0.450905 0.852446 0.691911
O O13 0.443816 0.248519 0.845434
O O14 0.500000 0.559257 0.000000
O O15 0.768967 0.607994 0.476606
#
# Coordination Sequence:
#
# PCOD9128440 Si02
#       7
#     4   4   4   4   4   4   4
#     4  12  24  44  69 102 135 178 225 268 329 414
#     4  12  24  44  71  95 139 181 223 271 344 398
#     4  11  22  44  69 105 134 180 220 274 333 419
#     4  12  26  48  72  98 133 182 237 277 328 402
#     4  11  25  43  73 100 138 175 226 283 341 382
#     4  10  24  44  68 104 141 173 219 277 339 402
#     4  12  28  47  68 102 138 176 228 289 339 387
#
# _framework density 23.992643000000001
#
# number of rings (size 3 to 8) (size 9 to 14) (size 15 to 20)
#    0.000    0.571    2.857    4.714    4.000    2.286 
#    0.000    6.429    0.000    0.000    0.000    0.000 
#    0.000    0.000    0.000    0.000    0.000    0.000 
#
# Total GULP energy -78321.777960 kJ/mol
# GULP energy per Si atom -5594.412711 kJ/mol
# Density = 2.393803 g / cm^3
# Si number density = 23.992643 Si / 1000 Ang^3
#
#
#
# Elastic Constant Matrix: (Units=GPa)
#
#
# Indices 1 2 3 4 5 6 
#
# 1 127.3249 -6.2869 17.2962 0.0000 28.8464 0.0000
# 2 -6.2869 53.4431 -15.3555 0.0000 -0.7463 0.0000
# 3 17.2962 -15.3555 106.2782 0.0000 13.2903 0.0000
# 4 0.0000 0.0000 0.0000 21.1699 0.0000 6.2522
# 5 28.8464 -0.7463 13.2903 0.0000 37.0082 0.0000
# 6 0.0000 0.0000 0.0000 6.2522 0.0000 24.1337
#
#
#
# Elastic Compliance Matrix: (Units=1/GPa)
#
#
# Indices 1 2 3 4 5 6 
#
# 1 0.009621 0.000879 -0.000527 0.000000 -0.007292 0.000000
# 2 0.000879 0.019617 0.002856 0.000000 -0.001315 0.000000
# 3 -0.000527 0.002856 0.010312 0.000000 -0.003235 0.000000
# 4 0.000000 0.000000 0.000000 0.051151 0.000000 -0.013251
# 5 -0.007292 -0.001315 -0.003235 0.000000 0.033840 0.000000
# 6 0.000000 0.000000 0.000000 -0.013251 0.000000 0.044869
#
#
# Mechanical properties :
#
#
# Convention : Reuss Voigt Hill
#
# Bulk Modulus (GPa) = 21.75569 30.92821 26.34195
# Shear Modulus (GPa) = 28.04002 35.88852 31.96427
#
# Velocity S-wave (km/s) = 3.42232 3.87177 3.65396
# Velocity P-wave (km/s) = 4.97028 5.73639 5.36702
#
# Compressibility (1/GPa) = 0.04596499
#
# Stress axis : x y z
#
# Youngs Moduli (GPa) = 103.93945 50.97618 96.97271
#
# Poissons Ratio (x) = -0.04479 0.05110
# Poissons Ratio (y) = -0.09132 -0.27693
# Poissons Ratio (z) = 0.05477 -0.14558
#
# Static dielectric constant tensor:
#      x y z
#    x 2.003200 0.000000 -0.004630 
#    y 0.000000 1.820280 0.000000 
#    z -0.004630 0.000000 1.907180 
# 
# From -- ./inp_files/45470.got.cif
#   From: 2010.05.17/outbox.cif.g08.bks.cpg/sg5_23_cif.got.tgz:45470.got - 2010.06.03 18:56:24.
