data_PCOD9128491
_publ_section_title
;
Structure prediction by ZEFSAII (Michael W. Deem and Ramdas Pophale) SiO2 
 PCOD9128491
Probable space group: C 2
;
_chemical_formula_sum "Si O2"
_cell_formula_units_Z 16
_cell_length_a 6.016327
_cell_length_b 18.311766
_cell_length_c 5.354186
_cell_angle_alpha 90.000000
_cell_angle_beta 93.034724
_cell_angle_gamma 90.000000
_cell_volume 589.041169
_symmetry_space_group_name_H-M "C 2"
_symmetry_group_IT_number 5
_symmetry_cell_setting 'monoclinic'
loop_
_space_group_symop_operation_xyz
x,y,z
-x,y,-z
1/2+x,1/2+y,z
1/2-x,1/2+y,-z
loop_
_atom_site_type_symbol
_atom_site_label
_atom_site_fract_x
_atom_site_fract_y
_atom_site_fract_z
Si Si1 0.500000 0.311321 0.500000
Si Si2 0.363364 0.642823 0.239674
Si Si3 0.868244 0.954798 0.738437
Si Si4 0.000000 0.554012 0.500000
Si Si5 0.050108 0.299627 0.249490
O O1 0.394016 0.367671 0.695294
O O2 0.303378 0.273437 0.326372
O O3 0.500000 0.631658 0.500000
O O4 0.379463 0.731408 0.214594
O O5 0.133033 0.605693 0.308660
O O6 0.500000 0.618780 0.000000
O O7 0.000000 0.981426 0.500000
O O8 0.643883 0.000010 0.686010
O O9 0.000000 0.968773 0.000000
O O10 0.000000 0.341457 0.500000
O O11 0.000000 0.345012 0.000000
#
# Coordination Sequence:
#
# PCOD9128491 Si02
#       5
#     2   4   4   2   4
#     4  10  26  45  78 106 155 192 254 314 374 444
#     4  10  25  48  73 116 151 197 254 303 383 457
#     4  10  27  46  70 116 145 202 260 302 377 443
#     4  12  26  49  82 106 163 202 246 324 370 450
#     4  10  24  44  74 109 149 195 248 306 382 452
#
# _framework density 27.162787000000002
#
# number of rings (size 3 to 8) (size 9 to 14) (size 15 to 20)
#    0.750    1.000    0.000    0.750    5.250   12.000 
#    0.000   15.000    0.000    0.000    0.000    0.000 
#    0.000    0.000    0.000    0.000    0.000    0.000 
#
# Total GULP energy -44555.379703 kJ/mol
# GULP energy per Si atom -5569.422463 kJ/mol
# Density = 2.710096 g / cm^3
# Si number density = 27.162787 Si / 1000 Ang^3
#
#
#
# Elastic Constant Matrix: (Units=GPa)
#
#
# Indices 1 2 3 4 5 6 
#
# 1 144.7377 46.7965 88.0344 0.0000 5.0119 0.0000
# 2 46.7965 133.2721 24.6278 0.0000 -3.2526 0.0000
# 3 88.0344 24.6278 288.2953 0.0000 5.0891 0.0000
# 4 0.0000 0.0000 0.0000 -33.7153 0.0000 -38.5006
# 5 5.0119 -3.2526 5.0891 0.0000 64.3443 0.0000
# 6 0.0000 0.0000 0.0000 -38.5006 0.0000 26.3616
#
#
#
# Elastic Compliance Matrix: (Units=1/GPa)
#
#
# Indices 1 2 3 4 5 6 
#
# 1 0.009454 -0.002850 -0.002632 0.000000 -0.000672 0.000000
# 2 -0.002850 0.008495 0.000133 0.000000 0.000641 0.000000
# 3 -0.002632 0.000133 0.004263 0.000000 -0.000125 0.000000
# 4 0.000000 0.000000 0.000000 -0.011118 0.000000 -0.016238
# 5 -0.000672 0.000641 -0.000125 0.000000 0.015636 0.000000
# 6 0.000000 0.000000 0.000000 -0.016238 0.000000 0.014219
#
#
# Mechanical properties :
#
#
# Convention : Reuss Voigt Hill
#
# Bulk Modulus (GPa) = 86.83560 98.35806 92.59683
# Shear Modulus (GPa) = 90.11349 38.52122 64.31736
#
# Velocity S-wave (km/s) = 5.76605 3.76993 4.87133
# Velocity P-wave (km/s) = 8.73887 7.43230 8.11193
#
# Compressibility (1/GPa) = 0.01151601
#
# Stress axis : x y z
#
# Youngs Moduli (GPa) = 105.77036 117.71413 234.56986
#
# Poissons Ratio (x) = 0.33547 0.61732
# Poissons Ratio (y) = 0.30143 -0.03125
# Poissons Ratio (z) = 0.27836 -0.01568
#
# Static dielectric constant tensor:
#      x y z
#    x 2.847770 0.000000 -0.230930 
#    y 0.000000 2.187300 0.000000 
#    z -0.230930 0.000000 2.288400 
# 
# From -- ./inp_files/928.got.cif
#   From: 2010.05.17/outbox.cif.g08.bks.cpg/sg5_1_cif.got.tgz:928.got - 2010.06.03 18:56:24.
