data_PCOD9128962
_publ_section_title
;
Structure prediction by ZEFSAII (Michael W. Deem and Ramdas Pophale) SiO2 
 PCOD9128962
Probable space group: C 2
;
_chemical_formula_sum "Si O2"
_cell_formula_units_Z 16
_cell_length_a 5.183049
_cell_length_b 23.264316
_cell_length_c 4.953564
_cell_angle_alpha 90.000000
_cell_angle_beta 94.213009
_cell_angle_gamma 90.000000
_cell_volume 595.687178
_symmetry_space_group_name_H-M "C 2"
_symmetry_group_IT_number 5
_symmetry_cell_setting 'monoclinic'
loop_
_space_group_symop_operation_xyz
x,y,z
-x,y,-z
1/2+x,1/2+y,z
1/2-x,1/2+y,-z
loop_
_atom_site_type_symbol
_atom_site_label
_atom_site_fract_x
_atom_site_fract_y
_atom_site_fract_z
Si Si1 0.500000 0.159920 0.000000
Si Si2 0.728650 0.051743 0.829661
Si Si3 0.000000 0.353658 0.000000
Si Si4 0.178868 0.933666 0.286634
Si Si5 0.264049 0.263337 0.690666
O O1 0.370649 0.116849 0.209466
O O2 0.697209 0.201805 0.165132
O O3 0.766153 0.999922 0.626271
O O4 0.500000 0.027390 0.000000
O O5 0.000000 0.058642 0.000000
O O6 0.063151 0.399396 0.769523
O O7 0.225114 0.308867 0.931853
O O8 0.000000 0.905763 0.500000
O O9 0.000000 0.934910 0.000000
O O10 0.500000 0.271999 0.500000
O O11 0.000000 0.266814 0.500000
#
# Coordination Sequence:
#
# PCOD9128962 Si02
#       5
#     2   4   2   4   4
#     4  10  25  52  76 110 167 204 264 336 394 484
#     4   9  21  46  77 112 152 203 254 326 403 474
#     4  12  27  48  76 108 165 206 262 338 398 472
#     4  11  26  50  80 116 158 204 267 331 408 484
#     4  12  29  47  76 117 157 216 274 326 398 477
#
# _framework density 26.859734
#
# number of rings (size 3 to 8) (size 9 to 14) (size 15 to 20)
#    0.750    0.500    1.250    2.250   14.000    0.000 
#    9.000    0.000    0.000    0.000    0.000    0.000 
#    0.000    0.000    0.000    0.000    0.000    0.000 
#
# Total GULP energy -44632.602244 kJ/mol
# GULP energy per Si atom -5579.075280 kJ/mol
# Density = 2.679860 g / cm^3
# Si number density = 26.859734 Si / 1000 Ang^3
#
#
#
# Elastic Constant Matrix: (Units=GPa)
#
#
# Indices 1 2 3 4 5 6 
#
# 1 194.9011 37.3346 73.7346 0.0000 -24.7927 0.0000
# 2 37.3346 238.7224 43.8234 0.0000 -22.4020 0.0000
# 3 73.7346 43.8234 148.4775 0.0000 -28.9083 0.0000
# 4 0.0000 0.0000 0.0000 -2.7737 0.0000 -24.3380
# 5 -24.7927 -22.4020 -28.9083 0.0000 71.8267 0.0000
# 6 0.0000 0.0000 0.0000 -24.3380 0.0000 -41.4045
#
#
#
# Elastic Compliance Matrix: (Units=1/GPa)
#
#
# Indices 1 2 3 4 5 6 
#
# 1 0.006417 -0.000385 -0.002892 0.000000 0.000931 0.000000
# 2 -0.000385 0.004510 -0.000968 0.000000 0.000884 0.000000
# 3 -0.002892 -0.000968 0.008901 0.000000 0.002283 0.000000
# 4 0.000000 0.000000 0.000000 0.086712 0.000000 -0.050970
# 5 0.000931 0.000884 0.002283 0.000000 0.015438 0.000000
# 6 0.000000 0.000000 0.000000 -0.050970 0.000000 0.005809
#
#
# Mechanical properties :
#
#
# Convention : Reuss Voigt Hill
#
# Bulk Modulus (GPa) = 88.19446 99.09846 93.64646
# Shear Modulus (GPa) = 35.70017 34.01028 34.85523
#
# Velocity S-wave (km/s) = 3.64968 3.56226 3.60623
# Velocity P-wave (km/s) = 7.11806 7.34128 7.23053
#
# Compressibility (1/GPa) = 0.01133858
#
# Stress axis : x y z
#
# Youngs Moduli (GPa) = 155.83492 221.73816 112.34628
#
# Poissons Ratio (x) = 0.08545 0.32488
# Poissons Ratio (y) = 0.06005 0.10870
# Poissons Ratio (z) = 0.45063 0.21455
#
# Static dielectric constant tensor:
#      x y z
#    x 2.155510 0.000000 0.154680 
#    y 0.000000 2.090700 0.000000 
#    z 0.154680 0.000000 2.202310 
# 
# From -- ./inp_files/858.got.cif
#   From: 2010.05.17/outbox.cif.g08.bks.cpg/sg5_1_cif.got.tgz:858.got - 2010.06.03 18:56:24.
