data_PCOD9128312
_publ_section_title
;
Structure prediction by ZEFSAII (Michael W. Deem and Ramdas Pophale) SiO2 
 PCOD9128312
Probable space group: C 2
;
_chemical_formula_sum "Si O2"
_cell_formula_units_Z 22
_cell_length_a 13.557744
_cell_length_b 4.939002
_cell_length_c 12.258707
_cell_angle_alpha 90.000000
_cell_angle_beta 100.835291
_cell_angle_gamma 90.000000
_cell_volume 806.229508
_symmetry_space_group_name_H-M "C 2"
_symmetry_group_IT_number 5
_symmetry_cell_setting 'monoclinic'
loop_
_space_group_symop_operation_xyz
x,y,z
-x,y,-z
1/2+x,1/2+y,z
1/2-x,1/2+y,-z
loop_
_atom_site_type_symbol
_atom_site_label
_atom_site_fract_x
_atom_site_fract_y
_atom_site_fract_z
Si Si1 0.000000 0.005340 0.000000
Si Si2 0.352865 0.235966 0.389819
Si Si3 0.915209 0.767497 0.635784
Si Si4 0.321132 0.740896 0.249871
Si Si5 0.297199 0.340870 0.052064
Si Si6 0.049619 0.289242 0.223343
O O1 0.057504 0.185846 0.101679
O O2 0.915051 0.837334 0.046091
O O3 0.347392 0.199131 0.518057
O O4 0.470626 0.207481 0.380312
O O5 0.331924 0.544898 0.356331
O O6 0.293074 0.025477 0.300671
O O7 0.900635 0.573021 0.736394
O O8 0.914286 0.071393 0.679713
O O9 0.276920 0.526873 0.153062
O O10 0.429820 0.799925 0.218169
O O11 0.257830 0.035612 0.048203
#
# Coordination Sequence:
#
# PCOD9128312 Si02
#       6
#     2   4   4   4   4   4
#     4  10  24  42  64  90 128 164 200 256 306 352
#     4   9  15  26  46  73 110 146 183 243 293 337
#     4   9  16  26  44  76 109 143 192 237 286 352
#     4   9  17  30  49  76 110 147 190 238 292 350
#     4  11  24  41  63  93 124 161 207 250 302 368
#     4   9  18  30  48  76 111 149 190 237 290 350
#
# _framework density 27.287516
#
# number of rings (size 3 to 8) (size 9 to 14) (size 15 to 20)
#    0.000    2.545    0.000    2.182    0.000   11.636 
#    0.000    0.000    0.000    0.000    0.000   25.455 
#    0.000    0.000    0.000    0.000    0.000    0.000 
#
# Total GULP energy -61562.483896 kJ/mol
# GULP energy per Si atom -5596.589445 kJ/mol
# Density = 2.722541 g / cm^3
# Si number density = 27.287516 Si / 1000 Ang^3
#
#
#
# Elastic Constant Matrix: (Units=GPa)
#
#
# Indices 1 2 3 4 5 6 
#
# 1 112.4160 -18.3118 2.4170 0.0000 -18.3748 0.0000
# 2 -18.3118 131.8242 0.5724 0.0000 7.4856 0.0000
# 3 2.4170 0.5724 98.5172 0.0000 -1.1931 0.0000
# 4 0.0000 0.0000 0.0000 30.7308 0.0000 9.1333
# 5 -18.3748 7.4856 -1.1931 0.0000 26.9562 0.0000
# 6 0.0000 0.0000 0.0000 9.1333 0.0000 9.2371
#
#
#
# Elastic Compliance Matrix: (Units=1/GPa)
#
#
# Indices 1 2 3 4 5 6 
#
# 1 0.010151 0.001035 -0.000175 0.000000 0.006624 0.000000
# 2 0.001035 0.007813 -0.000089 0.000000 -0.001468 0.000000
# 3 -0.000175 -0.000089 0.010160 0.000000 0.000355 0.000000
# 4 0.000000 0.000000 0.000000 0.046083 0.000000 -0.045565
# 5 0.006624 -0.001468 0.000355 0.000000 0.042036 0.000000
# 6 0.000000 0.000000 0.000000 -0.045565 0.000000 0.153311
#
#
# Mechanical properties :
#
#
# Convention : Reuss Voigt Hill
#
# Bulk Modulus (GPa) = 33.70859 34.67917 34.19388
# Shear Modulus (GPa) = 17.99213 37.25681 27.62447
#
# Velocity S-wave (km/s) = 2.57057 3.69906 3.18519
# Velocity P-wave (km/s) = 4.60330 5.56601 5.10739
#
# Compressibility (1/GPa) = 0.02966603
#
# Stress axis : x y z
#
# Youngs Moduli (GPa) = 98.51674 127.98607 98.42892
#
# Poissons Ratio (x) = -0.13242 0.01721
# Poissons Ratio (y) = -0.10193 0.00872
# Poissons Ratio (z) = 0.01722 0.01133
#
# Static dielectric constant tensor:
#      x y z
#    x 2.165900 0.000000 0.037540 
#    y 0.000000 2.023840 0.000000 
#    z 0.037540 0.000000 2.209210 
# 
# From -- ./inp_files/41125.got.cif
#   From: 2010.05.17/outbox.cif.g08.bks.cpg/sg5_21_cif.got.tgz:41125.got - 2010.06.03 18:56:24.
