data_PCOD9128459
_publ_section_title
;
Structure prediction by ZEFSAII (Michael W. Deem and Ramdas Pophale) SiO2 
 PCOD9128459
Probable space group: C 2
;
_chemical_formula_sum "Si O2"
_cell_formula_units_Z 18
_cell_length_a 4.791133
_cell_length_b 15.606027
_cell_length_c 9.616467
_cell_angle_alpha 90.000000
_cell_angle_beta 87.817455
_cell_angle_gamma 90.000000
_cell_volume 718.506927
_symmetry_space_group_name_H-M "C 2"
_symmetry_group_IT_number 5
_symmetry_cell_setting 'monoclinic'
loop_
_space_group_symop_operation_xyz
x,y,z
-x,y,-z
1/2+x,1/2+y,z
1/2-x,1/2+y,-z
loop_
_atom_site_type_symbol
_atom_site_label
_atom_site_fract_x
_atom_site_fract_y
_atom_site_fract_z
Si Si1 0.611280 0.347130 0.345951
Si Si2 0.000000 0.369133 0.000000
Si Si3 0.907580 0.448906 0.719811
Si Si4 0.276532 0.115278 0.400562
Si Si5 0.128501 0.722162 0.862510
O O1 0.500000 0.331783 0.500000
O O2 0.067747 0.370386 0.645737
O O3 0.586514 0.272300 0.233544
O O4 0.418765 0.427755 0.293692
O O5 0.977978 0.435482 0.127246
O O6 0.211787 0.300570 0.065218
O O7 0.039180 0.533366 0.651800
O O8 0.500000 0.159600 0.500000
O O9 0.213167 0.165000 0.256382
O O10 0.000000 0.099688 0.500000
O O11 0.000000 0.673896 0.000000
#
# Coordination Sequence:
#
# PCOD9128459 Si02
#       5
#     4   2   4   4   4
#     4  11  22  41  71 100 133 181 228 287 332 404
#     4  10  24  44  70 106 130 188 226 292 336 412
#     4  11  23  43  70  99 140 171 237 277 345 402
#     4  12  28  47  70 104 141 185 229 285 348 409
#     4  11  25  45  69 102 144 180 234 278 349 416
#
# _framework density 25.051946999999998
#
# number of rings (size 3 to 8) (size 9 to 14) (size 15 to 20)
#    0.000    0.889    2.222    4.667    4.667    3.556 
#    0.000    0.000    0.000    0.000    0.000    0.000 
#    0.000    0.000    0.000    0.000    0.000    0.000 
#
# Total GULP energy -50157.306792 kJ/mol
# GULP energy per Si atom -5573.034088 kJ/mol
# Density = 2.499493 g / cm^3
# Si number density = 25.051947 Si / 1000 Ang^3
#
#
#
# Elastic Constant Matrix: (Units=GPa)
#
#
# Indices 1 2 3 4 5 6 
#
# 1 103.4567 7.6413 36.7596 0.0000 2.1322 0.0000
# 2 7.6413 64.3826 42.9225 0.0000 0.0839 0.0000
# 3 36.7596 42.9225 264.1257 0.0000 -1.7987 0.0000
# 4 0.0000 0.0000 0.0000 42.3426 0.0000 5.4390
# 5 2.1322 0.0839 -1.7987 0.0000 40.9133 0.0000
# 6 0.0000 0.0000 0.0000 5.4390 0.0000 36.5066
#
#
#
# Elastic Compliance Matrix: (Units=1/GPa)
#
#
# Indices 1 2 3 4 5 6 
#
# 1 0.010188 -0.000292 -0.001374 0.000000 -0.000591 0.000000
# 2 -0.000292 0.017429 -0.002793 0.000000 -0.000143 0.000000
# 3 -0.001374 -0.002793 0.004433 0.000000 0.000272 0.000000
# 4 0.000000 0.000000 0.000000 0.024078 0.000000 -0.003587
# 5 -0.000591 -0.000143 0.000272 0.000000 0.024485 0.000000
# 6 0.000000 0.000000 0.000000 -0.003587 0.000000 0.027927
#
#
# Mechanical properties :
#
#
# Convention : Reuss Voigt Hill
#
# Bulk Modulus (GPa) = 43.23114 67.40132 55.31623
# Shear Modulus (GPa) = 39.94626 46.92859 43.43743
#
# Velocity S-wave (km/s) = 3.99750 4.33280 4.16852
# Velocity P-wave (km/s) = 6.21295 7.21068 6.73033
#
# Compressibility (1/GPa) = 0.02313147
#
# Stress axis : x y z
#
# Youngs Moduli (GPa) = 98.15469 57.37630 225.57833
#
# Poissons Ratio (x) = 0.01676 0.31005
# Poissons Ratio (y) = 0.02867 0.62996
# Poissons Ratio (z) = 0.13491 0.16023
#
# Static dielectric constant tensor:
#      x y z
#    x 1.974740 0.000000 -0.013980 
#    y 0.000000 2.061220 0.000000 
#    z -0.013980 0.000000 1.820310 
# 
# From -- ./inp_files/11894.got.cif
#   From: 2010.05.17/outbox.cif.g08.bks.cpg/sg5_6_cif.got.tgz:11894.got - 2010.06.03 18:56:24.
