data_PCOD9128147
_publ_section_title
;
Structure prediction by ZEFSAII (Michael W. Deem and Ramdas Pophale) SiO2 
 PCOD9128147
Probable space group: C 2
;
_chemical_formula_sum "Si O2"
_cell_formula_units_Z 14
_cell_length_a 5.015669
_cell_length_b 13.648613
_cell_length_c 8.357117
_cell_angle_alpha 90.000000
_cell_angle_beta 95.382857
_cell_angle_gamma 90.000000
_cell_volume 569.579605
_symmetry_space_group_name_H-M "C 2"
_symmetry_group_IT_number 5
_symmetry_cell_setting 'monoclinic'
loop_
_space_group_symop_operation_xyz
x,y,z
-x,y,-z
1/2+x,1/2+y,z
1/2-x,1/2+y,-z
loop_
_atom_site_type_symbol
_atom_site_label
_atom_site_fract_x
_atom_site_fract_y
_atom_site_fract_z
Si Si1 0.849816 0.467110 0.161179
Si Si2 0.392699 0.650651 0.709841
Si Si3 0.571604 0.260973 0.183422
Si Si4 0.500000 0.030090 0.500000
O O1 0.673840 0.566090 0.163133
O O2 0.668769 0.372122 0.179299
O O3 0.034082 0.473860 0.333150
O O4 0.000000 0.459771 0.000000
O O5 0.687472 0.692756 0.742158
O O6 0.193920 0.741998 0.730617
O O7 0.256304 0.596859 0.551366
O O8 0.500000 0.230408 0.000000
#
# Coordination Sequence:
#
# PCOD9128147 Si02
#       4
#     4   4   4   2
#     4  10  23  47  74 110 145 194 243 308 369 435
#     4  10  25  47  70 108 149 188 243 303 366 436
#     4  12  25  44  75 111 141 197 249 296 372 439
#     4   8  24  50  70 112 144 200 236 310 374 432
#
# _framework density 24.579529000000001
#
# number of rings (size 3 to 8) (size 9 to 14) (size 15 to 20)
#    1.714    0.000    0.000    3.429    0.000   10.286 
#    0.000    0.000    0.000    0.000    0.000    0.000 
#    0.000    0.000    0.000    0.000    0.000    0.000 
#
# Total GULP energy -39102.244056 kJ/mol
# GULP energy per Si atom -5586.034865 kJ/mol
# Density = 2.452358 g / cm^3
# Si number density = 24.579529 Si / 1000 Ang^3
#
#
#
# Elastic Constant Matrix: (Units=GPa)
#
#
# Indices 1 2 3 4 5 6 
#
# 1 100.9703 19.6822 60.2768 0.0000 28.1741 0.0000
# 2 19.6822 134.9763 46.8503 0.0000 -3.3364 0.0000
# 3 60.2768 46.8503 176.7332 0.0000 23.4749 0.0000
# 4 0.0000 0.0000 0.0000 30.6928 0.0000 -107.7479
# 5 28.1741 -3.3364 23.4749 0.0000 36.5288 0.0000
# 6 0.0000 0.0000 0.0000 -107.7479 0.0000 638.8488
#
#
#
# Elastic Compliance Matrix: (Units=1/GPa)
#
#
# Indices 1 2 3 4 5 6 
#
# 1 0.014817 -0.001172 -0.003510 0.000000 -0.009279 0.000000
# 2 -0.001172 0.008438 -0.002252 0.000000 0.003122 0.000000
# 3 -0.003510 -0.002252 0.007785 0.000000 -0.002501 0.000000
# 4 0.000000 0.000000 0.000000 0.079872 0.000000 0.013471
# 5 -0.009279 0.003122 -0.002501 0.000000 0.036425 0.000000
# 6 0.000000 0.000000 0.000000 0.013471 0.000000 0.003837
#
#
# Mechanical properties :
#
#
# Convention : Reuss Voigt Hill
#
# Bulk Modulus (GPa) = 58.23343 74.03314 66.13328
# Shear Modulus (GPa) = 29.27980 160.27212 94.77596
#
# Velocity S-wave (km/s) = 3.45516 8.08375 6.21632
# Velocity P-wave (km/s) = 6.29768 10.83119 8.85933
#
# Compressibility (1/GPa) = 0.01717227
#
# Stress axis : x y z
#
# Youngs Moduli (GPa) = 67.48941 118.50639 128.45728
#
# Poissons Ratio (x) = 0.13883 0.45094
# Poissons Ratio (y) = 0.07907 0.28928
# Poissons Ratio (z) = 0.23692 0.26688
#
# Static dielectric constant tensor:
#      x y z
#    x 1.817260 0.000000 -0.008530 
#    y 0.000000 1.935970 0.000000 
#    z -0.008530 0.000000 2.107350 
# 
# From -- ./inp_files/11608.got.cif
#   From: 2010.05.17/outbox.cif.g08.bks.cpg/sg5_6_cif.got.tgz:11608.got - 2010.06.03 18:56:24.
