data_PCOD9128428
_publ_section_title
;
Structure prediction by ZEFSAII (Michael W. Deem and Ramdas Pophale) SiO2 
 PCOD9128428
Probable space group: C 2
;
_chemical_formula_sum "Si O2"
_cell_formula_units_Z 22
_cell_length_a 9.614652
_cell_length_b 16.859137
_cell_length_c 8.509209
_cell_angle_alpha 90.000000
_cell_angle_beta 52.937921
_cell_angle_gamma 90.000000
_cell_volume 1100.656320
_symmetry_space_group_name_H-M "C 2"
_symmetry_group_IT_number 5
_symmetry_cell_setting 'monoclinic'
loop_
_space_group_symop_operation_xyz
x,y,z
-x,y,-z
1/2+x,1/2+y,z
1/2-x,1/2+y,-z
loop_
_atom_site_type_symbol
_atom_site_label
_atom_site_fract_x
_atom_site_fract_y
_atom_site_fract_z
Si Si1 0.732802 0.556750 0.447773
Si Si2 0.416386 0.516728 0.887754
Si Si3 0.000000 0.628442 0.500000
Si Si4 0.798721 0.230849 0.122875
Si Si5 0.703746 0.151603 0.895515
Si Si6 0.200649 0.413335 0.826862
O O1 0.567517 0.549714 0.672092
O O2 0.900661 0.576228 0.438163
O O3 0.716728 0.625767 0.326668
O O4 0.748299 0.472626 0.348233
O O5 0.261241 0.580350 0.973317
O O6 0.331854 0.437076 0.877256
O O7 0.500000 0.507975 0.000000
O O8 0.848714 0.681307 0.684682
O O9 0.791619 0.319282 0.198529
O O10 0.758998 0.226867 0.962258
O O11 0.000000 0.201779 0.000000
O O12 0.500000 0.153667 0.000000
O O13 0.000000 0.433255 0.000000
#
# Coordination Sequence:
#
# PCOD9128428 Si02
#       6
#     4   4   2   4   4   4
#     4  11  23  39  70  97 131 181 226 278 330 413
#     4  11  23  38  66  98 133 175 235 277 329 411
#     4  12  24  40  72 102 130 180 234 282 334 402
#     4  11  25  44  67  98 141 176 227 288 343 398
#     4  11  20  39  63  93 130 169 221 278 332 392
#     4  10  24  44  65  94 140 182 218 283 346 393
#
# _framework density 19.988071999999999
#
# number of rings (size 3 to 8) (size 9 to 14) (size 15 to 20)
#    0.000    1.091    1.818    7.091    5.091    0.727 
#    0.000    0.000    0.000    0.000    0.000    0.000 
#    0.000    0.000    0.000    0.000    0.000    0.000 
#
# Total GULP energy -61391.624162 kJ/mol
# GULP energy per Si atom -5581.056742 kJ/mol
# Density = 1.994258 g / cm^3
# Si number density = 19.988072 Si / 1000 Ang^3
#
#
#
# Elastic Constant Matrix: (Units=GPa)
#
#
# Indices 1 2 3 4 5 6 
#
# 1 194.6958 35.1556 60.2457 0.0000 -0.0670 0.0000
# 2 35.1556 70.2430 33.3593 0.0000 1.0070 0.0000
# 3 60.2457 33.3593 130.7820 0.0000 -4.2394 0.0000
# 4 0.0000 0.0000 0.0000 10.8516 0.0000 -9.9987
# 5 -0.0670 1.0070 -4.2394 0.0000 41.6073 0.0000
# 6 0.0000 0.0000 0.0000 -9.9987 0.0000 26.5057
#
#
#
# Elastic Compliance Matrix: (Units=1/GPa)
#
#
# Indices 1 2 3 4 5 6 
#
# 1 0.006228 -0.001990 -0.002367 0.000000 -0.000183 0.000000
# 2 -0.001990 0.016862 -0.003409 0.000000 -0.000759 0.000000
# 3 -0.002367 -0.003409 0.009641 0.000000 0.001061 0.000000
# 4 0.000000 0.000000 0.000000 0.141246 0.000000 0.053282
# 5 -0.000183 -0.000759 0.001061 0.000000 0.024160 0.000000
# 6 0.000000 0.000000 0.000000 0.053282 0.000000 0.057827
#
#
# Mechanical properties :
#
#
# Convention : Reuss Voigt Hill
#
# Bulk Modulus (GPa) = 58.14569 72.58245 65.36407
# Shear Modulus (GPa) = 18.03554 33.59027 25.81291
#
# Velocity S-wave (km/s) = 3.00712 4.10386 3.59753
# Velocity P-wave (km/s) = 6.41953 7.67120 7.07310
#
# Compressibility (1/GPa) = 0.01719818
#
# Stress axis : x y z
#
# Youngs Moduli (GPa) = 160.56431 59.30439 103.72640
#
# Poissons Ratio (x) = 0.11803 0.24555
# Poissons Ratio (y) = 0.31955 0.35360
# Poissons Ratio (z) = 0.38010 0.20216
#
# Static dielectric constant tensor:
#      x y z
#    x 1.724860 0.000000 0.015440 
#    y 0.000000 1.730110 0.000000 
#    z 0.015440 0.000000 1.740670 
# 
# From -- ./inp_files/16011.got.cif
#   From: 2010.05.17/outbox.cif.g08.bks.cpg/sg5_9_cif.got.tgz:16011.got - 2010.06.03 18:56:24.
