data_PCOD9128321
_publ_section_title
;
Structure prediction by ZEFSAII (Michael W. Deem and Ramdas Pophale) SiO2 
 PCOD9128321
Probable space group: C 2
;
_chemical_formula_sum "Si O2"
_cell_formula_units_Z 20
_cell_length_a 8.972370
_cell_length_b 7.018732
_cell_length_c 19.863873
_cell_angle_alpha 90.000000
_cell_angle_beta 139.923723
_cell_angle_gamma 90.000000
_cell_volume 805.351304
_symmetry_space_group_name_H-M "C 2"
_symmetry_group_IT_number 5
_symmetry_cell_setting 'monoclinic'
loop_
_space_group_symop_operation_xyz
x,y,z
-x,y,-z
1/2+x,1/2+y,z
1/2-x,1/2+y,-z
loop_
_atom_site_type_symbol
_atom_site_label
_atom_site_fract_x
_atom_site_fract_y
_atom_site_fract_z
Si Si1 0.053970 0.441620 0.446862
Si Si2 0.416943 0.371517 0.370364
Si Si3 0.460539 0.884186 0.271208
Si Si4 0.822675 0.254577 0.849854
Si Si5 0.735200 0.615470 0.904772
O O1 0.330434 0.458329 0.540041
O O2 0.000000 0.352761 0.500000
O O3 0.952123 0.653756 0.407040
O O4 0.939336 0.342298 0.342691
O O5 0.299269 0.357726 0.256312
O O6 0.222480 0.454359 0.351577
O O7 0.401350 0.706017 0.205021
O O8 0.302083 0.052500 0.188894
O O9 0.768681 0.392594 0.894586
O O10 0.083450 0.191811 0.915830
O O11 0.000000 0.687460 0.000000
#
# Coordination Sequence:
#
# PCOD9128321 Si02
#       5
#     4   4   4   4   4
#     4  11  23  40  67 103 146 191 249 300 375 456
#     4  10  24  42  65 101 143 195 244 302 376 455
#     4  10  24  48  72 104 152 198 249 315 383 465
#     4  10  26  46  75 109 147 200 251 319 386 461
#     4  11  27  50  78 113 151 194 263 320 392 463
#
# _framework density 24.833884999999999
#
# number of rings (size 3 to 8) (size 9 to 14) (size 15 to 20)
#    0.000    1.600    0.000    1.800   14.000    7.200 
#    3.600    0.000    0.000    0.000    0.000    0.000 
#    0.000    0.000    0.000    0.000    0.000    0.000 
#
# Total GULP energy -55895.140085 kJ/mol
# GULP energy per Si atom -5589.514009 kJ/mol
# Density = 2.477736 g / cm^3
# Si number density = 24.833885 Si / 1000 Ang^3
#
#
#
# Elastic Constant Matrix: (Units=GPa)
#
#
# Indices 1 2 3 4 5 6 
#
# 1 102.8078 48.0130 50.0970 0.0000 18.9887 0.0000
# 2 48.0130 79.1150 23.3245 0.0000 2.6795 0.0000
# 3 50.0970 23.3245 101.3357 0.0000 23.4170 0.0000
# 4 0.0000 0.0000 0.0000 29.1148 0.0000 5.7612
# 5 18.9887 2.6795 23.4170 0.0000 58.7608 0.0000
# 6 0.0000 0.0000 0.0000 5.7612 0.0000 26.6586
#
#
#
# Elastic Compliance Matrix: (Units=1/GPa)
#
#
# Indices 1 2 3 4 5 6 
#
# 1 0.017078 -0.008552 -0.005826 0.000000 -0.002807 0.000000
# 2 -0.008552 0.017867 -0.000369 0.000000 0.002096 0.000000
# 3 -0.005826 -0.000369 0.013651 0.000000 -0.003541 0.000000
# 4 0.000000 0.000000 0.000000 0.035881 0.000000 -0.007754
# 5 -0.002807 0.002096 -0.003541 0.000000 0.019241 0.000000
# 6 0.000000 0.000000 0.000000 -0.007754 0.000000 0.039187
#
#
# Mechanical properties :
#
#
# Convention : Reuss Voigt Hill
#
# Bulk Modulus (GPa) = 52.34592 58.45859 55.40226
# Shear Modulus (GPa) = 27.96935 33.69511 30.83223
#
# Velocity S-wave (km/s) = 3.35962 3.68750 3.52737
# Velocity P-wave (km/s) = 6.01445 6.45919 6.24078
#
# Compressibility (1/GPa) = 0.01910368
#
# Stress axis : x y z
#
# Youngs Moduli (GPa) = 58.55514 55.96762 73.25221
#
# Poissons Ratio (x) = 0.47861 0.42675
# Poissons Ratio (y) = 0.50074 0.02705
# Poissons Ratio (z) = 0.34113 0.02067
#
# Static dielectric constant tensor:
#      x y z
#    x 2.012370 0.000000 -0.009470 
#    y 0.000000 1.975100 0.000000 
#    z -0.009470 0.000000 1.915520 
# 
# From -- ./inp_files/64351.got.cif
#   From: 2010.05.17/outbox.cif.g08.bks.cpg/sg5_33_cif.got.tgz:64351.got - 2010.06.03 18:56:24.
