data_PCOD9128848
_publ_section_title
;
Structure prediction by ZEFSAII (Michael W. Deem and Ramdas Pophale) SiO2 
 PCOD9128848
Probable space group: C 2
;
_chemical_formula_sum "Si O2"
_cell_formula_units_Z 26
_cell_length_a 13.211986
_cell_length_b 19.710976
_cell_length_c 9.248600
_cell_angle_alpha 90.000000
_cell_angle_beta 148.568343
_cell_angle_gamma 90.000000
_cell_volume 1256.003500
_symmetry_space_group_name_H-M "C 2"
_symmetry_group_IT_number 5
_symmetry_cell_setting 'monoclinic'
loop_
_space_group_symop_operation_xyz
x,y,z
-x,y,-z
1/2+x,1/2+y,z
1/2-x,1/2+y,-z
loop_
_atom_site_type_symbol
_atom_site_label
_atom_site_fract_x
_atom_site_fract_y
_atom_site_fract_z
Si Si1 0.414492 0.375000 0.055666
Si Si2 0.000000 0.337148 0.500000
Si Si3 0.744996 0.133562 0.983342
Si Si4 0.278475 0.105416 0.717666
Si Si5 0.898035 0.231712 0.628298
Si Si6 0.059863 0.747086 0.410608
Si Si7 0.017916 0.024154 0.848172
O O1 0.465142 0.305577 0.197647
O O2 0.487528 0.446059 0.208048
O O3 0.500000 0.368827 0.000000
O O4 0.184410 0.380645 0.765571
O O5 0.057855 0.291259 0.431556
O O6 0.793255 0.111074 0.205168
O O7 0.904275 0.188231 0.121023
O O8 0.783585 0.065614 0.941008
O O9 0.541325 0.173163 0.734030
O O10 0.259315 0.182638 0.639750
O O11 0.149588 0.062573 0.447775
O O12 0.500000 0.081952 0.000000
O O13 0.786763 0.248296 0.641680
O O14 0.000000 0.765075 0.500000
O O15 0.000000 0.025730 0.000000
#
# Coordination Sequence:
#
# PCOD9128848 Si02
#       7
#     4   2   4   4   4   4   4
#     4  11  24  47  69  94 138 187 235 282 343 423
#     4  12  20  40  74 100 126 176 240 282 326 426
#     4  11  23  41  66  98 134 182 226 288 342 418
#     4  11  21  40  70 100 131 183 232 282 344 421
#     4  11  20  37  66 100 131 164 235 278 341 405
#     4  12  26  39  67 104 142 179 223 296 348 403
#     4  10  25  45  67  98 144 181 230 291 344 405
#
# _framework density 20.700579999999999
#
# number of rings (size 3 to 8) (size 9 to 14) (size 15 to 20)
#    0.000    0.923    6.154    1.385    4.308    1.231 
#    6.923    0.000    3.385    0.000    0.000    0.000 
#    0.000    0.000    0.000    0.000    0.000    0.000 
#
# Total GULP energy -72532.677113 kJ/mol
# GULP energy per Si atom -5579.436701 kJ/mol
# Density = 2.065346 g / cm^3
# Si number density = 20.700580 Si / 1000 Ang^3
#
#
#
# Elastic Constant Matrix: (Units=GPa)
#
#
# Indices 1 2 3 4 5 6 
#
# 1 140.3691 18.8016 25.1384 0.0000 8.1274 0.0000
# 2 18.8016 72.0270 16.0099 0.0000 -9.2110 0.0000
# 3 25.1384 16.0099 63.0663 0.0000 12.9740 0.0000
# 4 0.0000 0.0000 0.0000 17.7460 0.0000 4.7407
# 5 8.1274 -9.2110 12.9740 0.0000 33.2547 0.0000
# 6 0.0000 0.0000 0.0000 4.7407 0.0000 -66.1214
#
#
#
# Elastic Compliance Matrix: (Units=1/GPa)
#
#
# Indices 1 2 3 4 5 6 
#
# 1 0.007867 -0.001706 -0.002403 0.000000 -0.001458 0.000000
# 2 -0.001706 0.016281 -0.004856 0.000000 0.006821 0.000000
# 3 -0.002403 -0.004856 0.019791 0.000000 -0.008479 0.000000
# 4 0.000000 0.000000 0.000000 0.055292 0.000000 0.003964
# 5 -0.001458 0.006821 -0.008479 0.000000 0.035625 0.000000
# 6 0.000000 0.000000 0.000000 0.003964 0.000000 -0.014839
#
#
# Mechanical properties :
#
#
# Convention : Reuss Voigt Hill
#
# Bulk Modulus (GPa) = 38.44816 43.92914 41.18865
# Shear Modulus (GPa) = 34.10263 11.34334 22.72299
#
# Velocity S-wave (km/s) = 4.06325 2.34342 3.31675
# Velocity P-wave (km/s) = 6.37394 5.34691 5.88288
#
# Compressibility (1/GPa) = 0.02600905
#
# Stress axis : x y z
#
# Youngs Moduli (GPa) = 127.10797 61.42235 50.52720
#
# Poissons Ratio (x) = 0.10478 0.12142
# Poissons Ratio (y) = 0.21684 0.24537
# Poissons Ratio (z) = 0.30544 0.29828
#
# Static dielectric constant tensor:
#      x y z
#    x 1.815880 0.000000 0.011730 
#    y 0.000000 1.723920 0.000000 
#    z 0.011730 0.000000 1.776680 
# 
# From -- ./inp_files/21870.got.cif
#   From: 2010.05.17/outbox.cif.g08.bks.cpg/sg5_11_cif.got.tgz:21870.got - 2010.06.03 18:56:24.
