data_PCOD9128602
_publ_section_title
;
Structure prediction by ZEFSAII (Michael W. Deem and Ramdas Pophale) SiO2 
 PCOD9128602
Probable space group: C 2
;
_chemical_formula_sum "Si O2"
_cell_formula_units_Z 26
_cell_length_a 7.456741
_cell_length_b 16.304067
_cell_length_c 12.103477
_cell_angle_alpha 90.000000
_cell_angle_beta 50.899010
_cell_angle_gamma 90.000000
_cell_volume 1141.922824
_symmetry_space_group_name_H-M "C 2"
_symmetry_group_IT_number 5
_symmetry_cell_setting 'monoclinic'
loop_
_space_group_symop_operation_xyz
x,y,z
-x,y,-z
1/2+x,1/2+y,z
1/2-x,1/2+y,-z
loop_
_atom_site_type_symbol
_atom_site_label
_atom_site_fract_x
_atom_site_fract_y
_atom_site_fract_z
Si Si1 0.534218 0.596000 0.160300
Si Si2 0.883975 0.228049 0.374486
Si Si3 0.558242 0.030290 0.344100
Si Si4 0.362848 0.199034 0.321743
Si Si5 0.000000 0.493358 0.000000
Si Si6 0.280364 0.762511 0.016968
Si Si7 0.031063 0.381214 0.201753
O O1 0.383925 0.641125 0.313775
O O2 0.325528 0.541715 0.196756
O O3 0.763400 0.545444 0.095674
O O4 0.634638 0.674080 0.057919
O O5 0.131567 0.218224 0.341214
O O6 0.873807 0.302955 0.294014
O O7 0.685596 0.236966 0.540437
O O8 0.500000 0.031485 0.500000
O O9 0.420882 0.103378 0.330560
O O10 0.513968 0.938765 0.315613
O O11 0.566626 0.242764 0.177172
O O12 0.987510 0.442334 0.117811
O O13 0.500000 0.794345 0.000000
O O14 0.250981 0.827458 0.929303
#
# Coordination Sequence:
#
# PCOD9128602 Si02
#       7
#     4   4   4   4   2   4   4
#     4  11  23  43  73 100 137 189 242 284 355 421
#     4  10  24  46  71 103 139 191 236 293 350 437
#     4  12  25  45  73 109 143 188 237 303 352 429
#     4  11  23  44  77 100 139 188 247 283 357 421
#     4  12  26  46  70 110 146 190 236 306 354 430
#     4  11  22  43  70 102 133 184 237 294 341 425
#     4  11  27  47  68 108 150 182 241 291 377 413
#
# _framework density 22.768616000000002
#
# number of rings (size 3 to 8) (size 9 to 14) (size 15 to 20)
#    0.000    0.923    3.846    2.769    2.154    4.308 
#    0.000    1.538    0.000    0.000    0.000    0.000 
#    0.000    0.000    0.000    0.000    0.000    0.000 
#
# Total GULP energy -72404.928594 kJ/mol
# GULP energy per Si atom -5569.609892 kJ/mol
# Density = 2.271679 g / cm^3
# Si number density = 22.768616 Si / 1000 Ang^3
#
#
#
# Elastic Constant Matrix: (Units=GPa)
#
#
# Indices 1 2 3 4 5 6 
#
# 1 31.8333 29.0517 19.5638 0.0000 1.5401 0.0000
# 2 29.0517 119.0111 51.8773 0.0000 5.0272 0.0000
# 3 19.5638 51.8773 160.0688 0.0000 5.8604 0.0000
# 4 0.0000 0.0000 0.0000 -13.6988 0.0000 33.2698
# 5 1.5401 5.0272 5.8604 0.0000 34.8839 0.0000
# 6 0.0000 0.0000 0.0000 33.2698 0.0000 11.4193
#
#
#
# Elastic Compliance Matrix: (Units=1/GPa)
#
#
# Indices 1 2 3 4 5 6 
#
# 1 0.040993 -0.009105 -0.002054 0.000000 -0.000153 0.000000
# 2 -0.009105 0.011834 -0.002691 0.000000 -0.000851 0.000000
# 3 -0.002054 -0.002691 0.007399 0.000000 -0.000764 0.000000
# 4 0.000000 0.000000 0.000000 -0.009039 0.000000 0.026335
# 5 -0.000153 -0.000851 -0.000764 0.000000 0.028924 0.000000
# 6 0.000000 0.000000 0.000000 0.026335 0.000000 0.010844
#
#
# Mechanical properties :
#
#
# Convention : Reuss Voigt Hill
#
# Bulk Modulus (GPa) = 30.74540 56.87765 43.81153
# Shear Modulus (GPa) = 38.61116 20.54892 29.58004
#
# Velocity S-wave (km/s) = 4.12248 3.00744 3.60829
# Velocity P-wave (km/s) = 6.01603 6.09053 6.05339
#
# Compressibility (1/GPa) = 0.03252519
#
# Stress axis : x y z
#
# Youngs Moduli (GPa) = 24.39468 84.49968 135.16090
#
# Poissons Ratio (x) = 0.76937 0.27758
# Poissons Ratio (y) = 0.22211 0.36378
# Poissons Ratio (z) = 0.05010 0.22743
#
# Static dielectric constant tensor:
#      x y z
#    x 2.175670 0.000000 0.059010 
#    y 0.000000 1.919940 0.000000 
#    z 0.059010 0.000000 1.858910 
# 
# From -- ./inp_files/51085.got.cif
#   From: 2010.05.17/outbox.cif.g08.bks.cpg/sg5_26_cif.got.tgz:51085.got - 2010.06.03 18:56:24.
