data_PCOD9128106
_publ_section_title
;
Structure prediction by ZEFSAII (Michael W. Deem and Ramdas Pophale) SiO2 
 PCOD9128106
Probable space group: C 2
;
_chemical_formula_sum "Si O2"
_cell_formula_units_Z 18
_cell_length_a 18.459362
_cell_length_b 7.073907
_cell_length_c 9.788555
_cell_angle_alpha 90.000000
_cell_angle_beta 37.872024
_cell_angle_gamma 90.000000
_cell_volume 784.679193
_symmetry_space_group_name_H-M "C 2"
_symmetry_group_IT_number 5
_symmetry_cell_setting 'monoclinic'
loop_
_space_group_symop_operation_xyz
x,y,z
-x,y,-z
1/2+x,1/2+y,z
1/2-x,1/2+y,-z
loop_
_atom_site_type_symbol
_atom_site_label
_atom_site_fract_x
_atom_site_fract_y
_atom_site_fract_z
Si Si1 0.129066 0.645680 0.750911
Si Si2 0.249038 0.493204 0.316502
Si Si3 0.500000 0.514380 0.500000
Si Si4 0.752383 0.396005 0.205767
Si Si5 0.388161 0.879592 0.735493
O O1 0.147628 0.565384 0.571744
O O2 0.162988 0.864085 0.726401
O O3 0.218744 0.530988 0.712605
O O4 0.000000 0.609850 0.000000
O O5 0.202061 0.374689 0.256926
O O6 0.295589 0.688064 0.184410
O O7 0.612086 0.399708 0.386135
O O8 0.440963 0.670885 0.689541
O O9 0.823384 0.457556 0.964101
O O10 0.500000 0.984498 0.500000
#
# Coordination Sequence:
#
# PCOD9128106 Si02
#       5
#     4   4   2   4   4
#     4  12  27  49  72 106 148 196 241 295 368 430
#     4  12  26  47  72 108 146 188 247 290 362 436
#     4  10  24  44  74 106 150 180 246 300 368 424
#     4  12  25  47  77 107 148 195 243 302 364 432
#     4  10  23  46  72 107 146 184 243 305 355 426
#
# _framework density 22.939309000000002
#
# number of rings (size 3 to 8) (size 9 to 14) (size 15 to 20)
#    0.667    0.000    4.444    2.667    1.556    4.444 
#    4.000    0.000    0.000    0.000    0.000    0.000 
#    0.000    0.000    0.000    0.000    0.000    0.000 
#
# Total GULP energy -50219.066831 kJ/mol
# GULP energy per Si atom -5579.896315 kJ/mol
# Density = 2.288710 g / cm^3
# Si number density = 22.939309 Si / 1000 Ang^3
#
#
#
# Elastic Constant Matrix: (Units=GPa)
#
#
# Indices 1 2 3 4 5 6 
#
# 1 65.8047 19.4215 35.1636 -0.0001 19.3005 0.0000
# 2 19.4215 81.6164 13.4430 -0.0004 -4.6071 0.0001
# 3 35.1636 13.4430 103.2655 -0.0002 37.6306 0.0000
# 4 -0.0001 -0.0004 -0.0002 26.1926 0.0001 5.4544
# 5 19.3005 -4.6071 37.6306 0.0001 39.1551 0.0000
# 6 0.0000 0.0001 0.0000 5.4544 0.0000 15.3614
#
#
#
# Elastic Compliance Matrix: (Units=1/GPa)
#
#
# Indices 1 2 3 4 5 6 
#
# 1 0.020717 -0.004688 -0.003881 0.000000 -0.007033 0.000000
# 2 -0.004688 0.014164 -0.002612 0.000000 0.006487 0.000000
# 3 -0.003881 -0.002612 0.016560 0.000000 -0.014309 0.000000
# 4 0.000000 0.000000 0.000000 0.041227 0.000000 -0.014639
# 5 -0.007033 0.006487 -0.014309 0.000000 0.043522 0.000000
# 6 0.000000 0.000000 0.000000 -0.014639 0.000000 0.070296
#
#
# Mechanical properties :
#
#
# Convention : Reuss Voigt Hill
#
# Bulk Modulus (GPa) = 34.38803 42.97142 38.67973
# Shear Modulus (GPa) = 20.96089 28.31907 24.63998
#
# Velocity S-wave (km/s) = 3.02612 3.51739 3.28096
# Velocity P-wave (km/s) = 5.21855 5.93880 5.59029
#
# Compressibility (1/GPa) = 0.02907989
#
# Stress axis : x y z
#
# Youngs Moduli (GPa) = 48.27002 70.60026 60.38750
#
# Poissons Ratio (x) = 0.33094 0.23438
# Poissons Ratio (y) = 0.22627 0.15771
# Poissons Ratio (z) = 0.18735 0.18439
#
# Static dielectric constant tensor:
#      x y z
#    x 1.848080 0.000000 -0.008930 
#    y 0.000000 1.935930 0.000000 
#    z -0.008930 0.000000 1.832590 
# 
# From -- ./inp_files/18532.got.cif
#   From: 2010.05.17/outbox.cif.g08.bks.cpg/sg5_10_cif.got.tgz:18532.got - 2010.06.03 18:56:24.
