data_PCOD9128646
_publ_section_title
;
Structure prediction by ZEFSAII (Michael W. Deem and Ramdas Pophale) SiO2 
 PCOD9128646
Probable space group: C 2
;
_chemical_formula_sum "Si O2"
_cell_formula_units_Z 20
_cell_length_a 10.612699
_cell_length_b 9.289605
_cell_length_c 7.924686
_cell_angle_alpha 90.000000
_cell_angle_beta 85.525283
_cell_angle_gamma 90.000000
_cell_volume 778.895770
_symmetry_space_group_name_H-M "C 2"
_symmetry_group_IT_number 5
_symmetry_cell_setting 'monoclinic'
loop_
_space_group_symop_operation_xyz
x,y,z
-x,y,-z
1/2+x,1/2+y,z
1/2-x,1/2+y,-z
loop_
_atom_site_type_symbol
_atom_site_label
_atom_site_fract_x
_atom_site_fract_y
_atom_site_fract_z
Si Si1 0.000000 0.542470 0.500000
Si Si2 0.000000 0.593435 0.000000
Si Si3 0.500000 0.542475 0.500000
Si Si4 0.906792 0.360169 0.210857
Si Si5 0.000000 0.093434 0.000000
Si Si6 0.093205 0.860169 0.789139
Si Si7 0.749998 0.232047 0.499995
O O1 0.006479 0.441710 0.662971
O O2 0.126356 0.636493 0.484499
O O3 0.893074 0.473285 0.058099
O O4 0.972804 0.711835 0.147960
O O5 0.506473 0.441713 0.662972
O O6 0.373643 0.636498 0.515493
O O7 0.781880 0.323683 0.329796
O O8 0.972804 0.211835 0.147958
O O9 0.106926 0.973285 0.941898
O O10 0.218113 0.823684 0.670192
#
# Coordination Sequence:
#
# PCOD9128646 Si02
#       7
#     2   2   2   4   2   4   4
#     4  12  26  50  88 114 150 208 268 316 374 474
#     4  10  24  46  78 114 166 196 254 326 402 434
#     4  12  26  50  88 114 150 208 268 316 374 474
#     4  11  24  48  80 115 156 206 258 321 382 468
#     4  10  24  46  78 114 166 196 254 326 402 434
#     4  11  24  48  80 115 156 206 258 321 382 468
#     4  12  26  50  88 114 150 208 268 316 374 474
#
# _framework density 25.677375999999999
#
# number of rings (size 3 to 8) (size 9 to 14) (size 15 to 20)
#    0.000    0.800    4.000    2.400    0.000    0.000 
#    0.000    2.000   17.600    0.000    0.000    0.000 
#    0.000    0.000    0.000    0.000    0.000    0.000 
#
# Total GULP energy -55811.815981 kJ/mol
# GULP energy per Si atom -5581.181598 kJ/mol
# Density = 2.561893 g / cm^3
# Si number density = 25.677376 Si / 1000 Ang^3
#
#
#
# Elastic Constant Matrix: (Units=GPa)
#
#
# Indices 1 2 3 4 5 6 
#
# 1 167.8156 79.2738 58.8180 0.0000 -29.9970 0.0000
# 2 79.2738 228.5032 82.9160 0.0000 -40.3189 0.0000
# 3 58.8180 82.9160 145.4685 0.0000 -66.8836 0.0000
# 4 0.0000 0.0000 0.0000 55.4539 0.0000 -7.0219
# 5 -29.9970 -40.3189 -66.8836 0.0000 36.1250 0.0000
# 6 0.0000 0.0000 0.0000 -7.0219 0.0000 41.9386
#
#
#
# Elastic Compliance Matrix: (Units=1/GPa)
#
#
# Indices 1 2 3 4 5 6 
#
# 1 0.007610 -0.001879 -0.000435 0.000000 0.003415 0.000000
# 2 -0.001879 0.006009 -0.002011 0.000000 0.001422 0.000000
# 3 -0.000435 -0.002011 0.047051 0.000000 0.084507 0.000000
# 4 0.000000 0.000000 0.000000 0.018424 0.000000 0.003085
# 5 0.003415 0.001422 0.084507 0.000000 0.188565 0.000000
# 6 0.000000 0.000000 0.000000 0.003085 0.000000 0.024361
#
#
# Mechanical properties :
#
#
# Convention : Reuss Voigt Hill
#
# Bulk Modulus (GPa) = 19.22409 109.31143 64.26776
# Shear Modulus (GPa) = 15.72272 48.08882 31.90577
#
# Velocity S-wave (km/s) = 2.47719 4.33229 3.52883
# Velocity P-wave (km/s) = 3.96043 8.22730 6.45653
#
# Compressibility (1/GPa) = 0.05201805
#
# Stress axis : x y z
#
# Youngs Moduli (GPa) = 131.40916 166.41350 21.25336
#
# Poissons Ratio (x) = 0.31277 0.00925
# Poissons Ratio (y) = 0.24698 0.04275
# Poissons Ratio (z) = 0.05722 0.33470
#
# Static dielectric constant tensor:
#      x y z
#    x 1.967210 0.000000 0.053400 
#    y 0.000000 2.040410 0.000000 
#    z 0.053400 0.000000 2.349310 
# 
# From -- ./inp_files/18295.got.cif
#   From: 2010.05.17/outbox.cif.g08.bks.cpg/sg5_10_cif.got.tgz:18295.got - 2010.06.03 18:56:24.
