data_PCOD9128891
_publ_section_title
;
Structure prediction by ZEFSAII (Michael W. Deem and Ramdas Pophale) SiO2 
 PCOD9128891
Probable space group: C 2
;
_chemical_formula_sum "Si O2"
_cell_formula_units_Z 20
_cell_length_a 9.573440
_cell_length_b 10.928884
_cell_length_c 7.311793
_cell_angle_alpha 90.000000
_cell_angle_beta 104.521627
_cell_angle_gamma 90.000000
_cell_volume 740.571316
_symmetry_space_group_name_H-M "C 2"
_symmetry_group_IT_number 5
_symmetry_cell_setting 'monoclinic'
loop_
_space_group_symop_operation_xyz
x,y,z
-x,y,-z
1/2+x,1/2+y,z
1/2-x,1/2+y,-z
loop_
_atom_site_type_symbol
_atom_site_label
_atom_site_fract_x
_atom_site_fract_y
_atom_site_fract_z
Si Si1 0.791603 0.956740 0.291713
Si Si2 0.000000 0.330291 0.500000
Si Si3 0.509706 0.067917 0.701691
Si Si4 0.129362 0.218960 0.187747
Si Si5 0.896495 0.957785 0.735278
Si Si6 0.000000 0.743771 0.000000
O O1 0.733842 0.832340 0.184724
O O2 0.652904 0.042623 0.274499
O O3 0.933745 0.997372 0.231166
O O4 0.841306 0.930681 0.515111
O O5 0.932686 0.432102 0.336425
O O6 0.914974 0.246068 0.613273
O O7 0.500000 0.132469 0.500000
O O8 0.571650 0.153750 0.876671
O O9 0.178092 0.078249 0.209720
O O10 0.000000 0.229368 0.000000
O O11 0.897377 0.835529 0.854001
#
# Coordination Sequence:
#
# PCOD9128891 Si02
#       6
#     4   2   4   4   4   2
#     4  10  25  46  79 107 153 203 257 321 380 459
#     4   8  20  40  70 108 134 188 248 308 364 434
#     4   9  23  45  77 106 145 196 255 319 372 451
#     4  11  23  48  76 108 153 196 259 316 383 458
#     4  11  26  48  70 116 157 203 248 317 397 453
#     4  12  26  46  68 112 156 194 258 302 386 478
#
# _framework density 27.006180000000001
#
# number of rings (size 3 to 8) (size 9 to 14) (size 15 to 20)
#    0.600    1.200    1.000    1.200   11.200    1.600 
#   10.800    0.000    0.000    0.000    0.000    0.000 
#    0.000    0.000    0.000    0.000    0.000    0.000 
#
# Total GULP energy -55937.617332 kJ/mol
# GULP energy per Si atom -5593.761733 kJ/mol
# Density = 2.694471 g / cm^3
# Si number density = 27.006180 Si / 1000 Ang^3
#
#
#
# Elastic Constant Matrix: (Units=GPa)
#
#
# Indices 1 2 3 4 5 6 
#
# 1 122.5840 54.6919 16.3652 0.0000 -22.9114 0.0000
# 2 54.6919 174.9490 68.0620 0.0000 -6.3850 0.0000
# 3 16.3652 68.0620 123.1430 0.0000 -17.6456 0.0000
# 4 0.0000 0.0000 0.0000 53.2254 0.0000 -5.3265
# 5 -22.9114 -6.3850 -17.6456 0.0000 38.6007 0.0000
# 6 0.0000 0.0000 0.0000 -5.3265 0.0000 48.6504
#
#
#
# Elastic Compliance Matrix: (Units=1/GPa)
#
#
# Indices 1 2 3 4 5 6 
#
# 1 0.010850 -0.003767 0.001577 0.000000 0.006537 0.000000
# 2 -0.003767 0.008606 -0.004679 0.000000 -0.002951 0.000000
# 3 0.001577 -0.004679 0.011258 0.000000 0.005308 0.000000
# 4 0.000000 0.000000 0.000000 0.018996 0.000000 0.002080
# 5 0.006537 -0.002951 0.005308 0.000000 0.031725 0.000000
# 6 0.000000 0.000000 0.000000 0.002080 0.000000 0.020783
#
#
# Mechanical properties :
#
#
# Convention : Reuss Voigt Hill
#
# Bulk Modulus (GPa) = 58.90719 77.65715 68.28217
# Shear Modulus (GPa) = 41.11400 46.86575 43.98988
#
# Velocity S-wave (km/s) = 3.90602 4.17030 4.04032
# Velocity P-wave (km/s) = 6.49634 7.21154 6.86326
#
# Compressibility (1/GPa) = 0.01697586
#
# Stress axis : x y z
#
# Youngs Moduli (GPa) = 92.16988 116.19787 88.82741
#
# Poissons Ratio (x) = 0.43767 -0.14006
# Poissons Ratio (y) = 0.34716 0.41561
# Poissons Ratio (z) = -0.14533 0.54368
#
# Static dielectric constant tensor:
#      x y z
#    x 2.166420 0.000000 0.068630 
#    y 0.000000 2.037870 0.000000 
#    z 0.068630 0.000000 2.047680 
# 
# From -- ./inp_files/19486.got.cif
#   From: 2010.05.17/outbox.cif.g08.bks.cpg/sg5_10_cif.got.tgz:19486.got - 2010.06.03 18:56:24.
