data_PCOD9128809
_publ_section_title
;
Structure prediction by ZEFSAII (Michael W. Deem and Ramdas Pophale) SiO2 
 PCOD9128809
Probable space group: C 2
;
_chemical_formula_sum "Si O2"
_cell_formula_units_Z 24
_cell_length_a 12.480566
_cell_length_b 13.981116
_cell_length_c 7.063224
_cell_angle_alpha 90.000000
_cell_angle_beta 124.467604
_cell_angle_gamma 90.000000
_cell_volume 1016.111765
_symmetry_space_group_name_H-M "C 2"
_symmetry_group_IT_number 5
_symmetry_cell_setting 'monoclinic'
loop_
_space_group_symop_operation_xyz
x,y,z
-x,y,-z
1/2+x,1/2+y,z
1/2-x,1/2+y,-z
loop_
_atom_site_type_symbol
_atom_site_label
_atom_site_fract_x
_atom_site_fract_y
_atom_site_fract_z
Si Si1 0.128551 0.030690 0.501208
Si Si2 0.366306 0.913676 0.794883
Si Si3 0.258766 0.415330 0.710942
Si Si4 0.258766 0.198007 0.806588
Si Si5 0.371448 0.082647 0.244105
Si Si6 0.366307 0.699662 0.937733
O O1 0.132421 0.974807 0.302358
O O2 0.000000 0.028874 0.500000
O O3 0.236413 0.968104 0.719127
O O4 0.196500 0.135190 0.576763
O O5 0.360094 0.806669 0.860099
O O6 0.358477 0.910678 0.559962
O O7 0.500000 0.957749 0.000000
O O8 0.297523 0.306668 0.797523
O O9 0.196500 0.478147 0.816234
O O10 0.367578 0.138530 0.037516
O O11 0.141522 0.202658 0.843004
O O12 0.500000 0.084462 0.500000
O O13 0.263587 0.145235 0.246299
O O14 0.500000 0.655589 0.000000
#
# Coordination Sequence:
#
# PCOD9128809 Si02
#       6
#     4   4   4   4   4   4
#     4  10  25  43  75 104 151 188 250 300 370 425
#     4   9  22  40  71 100 149 187 245 292 366 434
#     4  10  25  42  75 108 148 192 245 299 371 440
#     4  10  25  42  75 108 148 192 245 299 371 440
#     4  10  25  43  75 104 151 188 250 300 370 425
#     4   9  22  40  71 100 149 187 245 292 366 434
#
# _framework density 23.619447999999998
#
# number of rings (size 3 to 8) (size 9 to 14) (size 15 to 20)
#    2.000    0.333    0.000    0.000    9.333    4.000 
#    0.000    0.000    7.333    0.000    0.000    0.000 
#    0.000    0.000    0.000    0.000    0.000    0.000 
#
# Total GULP energy -66817.221917 kJ/mol
# GULP energy per Si atom -5568.101826 kJ/mol
# Density = 2.356569 g / cm^3
# Si number density = 23.619448 Si / 1000 Ang^3
#
#
#
# Elastic Constant Matrix: (Units=GPa)
#
#
# Indices 1 2 3 4 5 6 
#
# 1 86.9837 54.9138 36.8647 0.0000 -2.2890 0.0000
# 2 54.9138 183.9202 54.2581 0.0000 5.5181 0.0000
# 3 36.8647 54.2581 87.8076 0.0000 -4.6347 0.0000
# 4 0.0000 0.0000 0.0000 29.9406 0.0000 -9.2922
# 5 -2.2890 5.5181 -4.6347 0.0000 44.9519 0.0000
# 6 0.0000 0.0000 0.0000 -9.2922 0.0000 28.8397
#
#
#
# Elastic Compliance Matrix: (Units=1/GPa)
#
#
# Indices 1 2 3 4 5 6 
#
# 1 0.015495 -0.003352 -0.004394 0.000000 0.000747 0.000000
# 2 -0.003352 0.007445 -0.003268 0.000000 -0.001422 0.000000
# 3 -0.004394 -0.003268 0.015346 0.000000 0.001760 0.000000
# 4 0.000000 0.000000 0.000000 0.037110 0.000000 0.011957
# 5 0.000747 -0.001422 0.001760 0.000000 0.022640 0.000000
# 6 0.000000 0.000000 0.000000 0.011957 0.000000 0.038527
#
#
# Mechanical properties :
#
#
# Convention : Reuss Voigt Hill
#
# Bulk Modulus (GPa) = 61.51554 72.30941 66.91247
# Shear Modulus (GPa) = 30.48587 34.92476 32.70531
#
# Velocity S-wave (km/s) = 3.59654 3.84949 3.72516
# Velocity P-wave (km/s) = 6.58391 7.10203 6.84787
#
# Compressibility (1/GPa) = 0.01625606
#
# Stress axis : x y z
#
# Youngs Moduli (GPa) = 64.53756 134.32217 65.16543
#
# Poissons Ratio (x) = 0.45031 0.28636
# Poissons Ratio (y) = 0.21636 0.21295
# Poissons Ratio (z) = 0.28360 0.43894
#
# Static dielectric constant tensor:
#      x y z
#    x 1.943400 0.000000 -0.059530 
#    y 0.000000 1.915890 0.000000 
#    z -0.059530 0.000000 1.950460 
# 
# From -- ./inp_files/21356.got.cif
#   From: 2010.05.17/outbox.cif.g08.bks.cpg/sg5_11_cif.got.tgz:21356.got - 2010.06.03 18:56:24.
