data_PCOD9128393
_publ_section_title
;
Structure prediction by ZEFSAII (Michael W. Deem and Ramdas Pophale) SiO2 
 PCOD9128393
Probable space group: C 2
;
_chemical_formula_sum "Si O2"
_cell_formula_units_Z 24
_cell_length_a 23.847566
_cell_length_b 10.257739
_cell_length_c 9.168576
_cell_angle_alpha 90.000000
_cell_angle_beta 28.351409
_cell_angle_gamma 90.000000
_cell_volume 1065.073729
_symmetry_space_group_name_H-M "C 2"
_symmetry_group_IT_number 5
_symmetry_cell_setting 'monoclinic'
loop_
_space_group_symop_operation_xyz
x,y,z
-x,y,-z
1/2+x,1/2+y,z
1/2-x,1/2+y,-z
loop_
_atom_site_type_symbol
_atom_site_label
_atom_site_fract_x
_atom_site_fract_y
_atom_site_fract_z
Si Si1 0.712942 0.090630 0.709934
Si Si2 0.518811 0.968318 0.626266
Si Si3 0.259808 0.833487 0.782180
Si Si4 0.546123 0.471299 0.736037
Si Si5 0.160144 0.740111 0.314234
Si Si6 0.180646 0.099536 0.847395
O O1 0.715195 0.241491 0.754148
O O2 0.737103 0.082744 0.483076
O O3 0.826897 0.034074 0.530498
O O4 0.600739 0.008553 0.018308
O O5 0.500000 0.929672 0.500000
O O6 0.591768 0.104005 0.457929
O O7 0.600734 0.864342 0.523081
O O8 0.199523 0.973356 0.903839
O O9 0.215967 0.771596 0.031913
O O10 0.569591 0.350845 0.575033
O O11 0.500000 0.423685 0.000000
O O12 0.453884 0.581687 0.894967
O O13 0.267529 0.721518 0.183842
#
# Coordination Sequence:
#
# PCOD9128393 Si02
#       6
#     4   4   4   4   4   4
#     4  11  24  45  68  99 138 177 227 283 339 405
#     4  11  23  43  70 102 134 181 228 281 339 403
#     4  11  25  45  69 101 134 178 230 278 342 405
#     4  10  24  43  67  99 136 180 229 278 339 404
#     4  11  24  42  73  97 136 182 229 277 345 399
#     4  10  26  45  68 102 133 179 231 275 344 405
#
# _framework density 22.533653000000001
#
# number of rings (size 3 to 8) (size 9 to 14) (size 15 to 20)
#    0.000    1.333    1.667    2.000    9.333    4.667 
#    6.000    0.000    0.000    0.000    0.000    0.000 
#    0.000    0.000    0.000    0.000    0.000    0.000 
#
# Total GULP energy -67116.979071 kJ/mol
# GULP energy per Si atom -5593.081589 kJ/mol
# Density = 2.248236 g / cm^3
# Si number density = 22.533653 Si / 1000 Ang^3
#
#
#
# Elastic Constant Matrix: (Units=GPa)
#
#
# Indices 1 2 3 4 5 6 
#
# 1 60.7065 -9.6340 26.8231 0.0000 -4.5587 0.0000
# 2 -9.6340 40.0925 27.8623 0.0000 -0.8627 0.0000
# 3 26.8231 27.8623 119.1439 0.0000 -17.7040 0.0000
# 4 0.0000 0.0000 0.0000 24.2528 0.0000 -6.2568
# 5 -4.5587 -0.8627 -17.7040 0.0000 23.0142 0.0000
# 6 0.0000 0.0000 0.0000 -6.2568 0.0000 10.5981
#
#
#
# Elastic Compliance Matrix: (Units=1/GPa)
#
#
# Indices 1 2 3 4 5 6 
#
# 1 0.021238 0.010163 -0.007312 0.000000 -0.001037 0.000000
# 2 0.010163 0.035120 -0.011298 0.000000 -0.005361 0.000000
# 3 -0.007312 -0.011298 0.014004 0.000000 0.008901 0.000000
# 4 0.000000 0.000000 0.000000 0.048640 0.000000 0.028716
# 5 -0.001037 -0.005361 0.008901 0.000000 0.049892 0.000000
# 6 0.000000 0.000000 0.000000 0.028716 0.000000 0.111310
#
#
# Mechanical properties :
#
#
# Convention : Reuss Voigt Hill
#
# Bulk Modulus (GPa) = 18.70254 34.44951 26.57603
# Shear Modulus (GPa) = 15.87694 23.23246 19.55470
#
# Velocity S-wave (km/s) = 2.65729 3.21442 2.94904
# Velocity P-wave (km/s) = 4.21103 5.39425 4.83894
#
# Compressibility (1/GPa) = 0.05346867
#
# Stress axis : x y z
#
# Youngs Moduli (GPa) = 47.08438 28.47361 71.40811
#
# Poissons Ratio (x) = -0.28937 0.52215
# Poissons Ratio (y) = -0.47851 0.80674
# Poissons Ratio (z) = 0.34429 0.32168
#
# Static dielectric constant tensor:
#      x y z
#    x 1.869090 0.000000 -0.037290 
#    y 0.000000 1.867800 0.000000 
#    z -0.037290 0.000000 1.823720 
# 
# From -- ./inp_files/30913.got.cif
#   From: 2010.05.17/outbox.cif.g08.bks.cpg/sg5_16_cif.got.tgz:30913.got - 2010.06.03 18:56:24.
