data_PCOD9128585
_publ_section_title
;
Structure prediction by ZEFSAII (Michael W. Deem and Ramdas Pophale) SiO2 
 PCOD9128585
Probable space group: C 2
;
_chemical_formula_sum "Si O2"
_cell_formula_units_Z 24
_cell_length_a 13.657869
_cell_length_b 4.997916
_cell_length_c 13.862564
_cell_angle_alpha 90.000000
_cell_angle_beta 83.710115
_cell_angle_gamma 90.000000
_cell_volume 940.574591
_symmetry_space_group_name_H-M "C 2"
_symmetry_group_IT_number 5
_symmetry_cell_setting 'monoclinic'
loop_
_space_group_symop_operation_xyz
x,y,z
-x,y,-z
1/2+x,1/2+y,z
1/2-x,1/2+y,-z
loop_
_atom_site_type_symbol
_atom_site_label
_atom_site_fract_x
_atom_site_fract_y
_atom_site_fract_z
Si Si1 0.614789 0.833400 0.650414
Si Si2 0.078861 0.045859 0.297495
Si Si3 0.500000 0.595604 0.500000
Si Si4 0.000000 0.207147 0.000000
Si Si5 0.153613 0.554617 0.913264
Si Si6 0.862277 0.812267 0.892233
Si Si7 0.711493 0.339350 0.727369
O O1 0.514506 0.735602 0.712541
O O2 0.584244 0.772982 0.543361
O O3 0.697103 0.629253 0.682592
O O4 0.648413 0.130073 0.670151
O O5 0.053430 0.940401 0.407456
O O6 0.085493 0.817987 0.215989
O O7 0.177171 0.227373 0.284608
O O8 0.946523 0.392894 0.084942
O O9 0.077676 0.019856 0.046928
O O10 0.251788 0.396879 0.879314
O O11 0.164671 0.806201 0.840431
O O12 0.153997 0.580358 0.029437
#
# Coordination Sequence:
#
# PCOD9128585 Si02
#       7
#     4   4   2   2   4   4   4
#     4  10  24  46  69 104 134 178 230 285 338 425
#     4   9  23  46  64 104 134 185 223 302 328 415
#     4   8  22  46  70 104 138 174 240 284 354 398
#     4  12  24  38  66  88 134 180 214 276 340 388
#     4  11  25  40  64 101 128 188 222 281 326 426
#     4  11  23  43  63  92 143 169 236 272 344 398
#     4  11  25  43  73  97 142 178 231 274 358 398
#
# _framework density 25.516316
#
# number of rings (size 3 to 8) (size 9 to 14) (size 15 to 20)
#    1.000    0.667    1.667    1.500    7.000    3.333 
#    0.000    0.000    0.000    0.000    0.000    0.000 
#    0.000    0.000    0.000    0.000    0.000    0.000 
#
# Total GULP energy -67045.550355 kJ/mol
# GULP energy per Si atom -5587.129196 kJ/mol
# Density = 2.545824 g / cm^3
# Si number density = 25.516316 Si / 1000 Ang^3
#
#
#
# Elastic Constant Matrix: (Units=GPa)
#
#
# Indices 1 2 3 4 5 6 
#
# 1 -30.1921 -11.9132 -39.5431 0.0000 -18.2651 0.0000
# 2 -11.9132 54.3266 19.6907 0.0000 3.7532 0.0000
# 3 -39.5431 19.6907 164.4063 0.0000 -5.8209 0.0000
# 4 0.0000 0.0000 0.0000 27.5496 0.0000 14.3174
# 5 -18.2651 3.7532 -5.8209 0.0000 44.3709 0.0000
# 6 0.0000 0.0000 0.0000 14.3174 0.0000 22.5664
#
#
#
# Elastic Compliance Matrix: (Units=1/GPa)
#
#
# Indices 1 2 3 4 5 6 
#
# 1 -0.020415 -0.002059 -0.004978 0.000000 -0.008883 0.000000
# 2 -0.002059 0.019202 -0.002896 0.000000 -0.002852 0.000000
# 3 -0.004978 -0.002896 0.005192 0.000000 -0.001123 0.000000
# 4 0.000000 0.000000 0.000000 0.054154 0.000000 -0.034359
# 5 -0.008883 -0.002852 -0.001123 0.000000 0.018975 0.000000
# 6 0.000000 0.000000 0.000000 -0.034359 0.000000 0.066113
#
#
# Mechanical properties :
#
#
# Convention : Reuss Voigt Hill
#
# Bulk Modulus (GPa) = -62.94668 13.88996 -24.52836
# Shear Modulus (GPa) = 31.68738 33.58448 32.63593
#
# Velocity S-wave (km/s) = 3.52781 3.63188 3.58022
# Velocity P-wave (km/s) = 2.85111 4.80029 2.73074
#
# Compressibility (1/GPa) = -0.01588646
#
# Stress axis : x y z
#
# Youngs Moduli (GPa) = -48.98328 52.07693 192.59589
#
# Poissons Ratio (x) = 0.10722 0.95878
# Poissons Ratio (y) = -0.10085 0.55775
# Poissons Ratio (z) = -0.24385 0.15081
#
# Static dielectric constant tensor:
#      x y z
#    x 2.005480 0.000000 0.054320 
#    y 0.000000 2.076540 0.000000 
#    z 0.054320 0.000000 2.063170 
# 
# From -- ./inp_files/53669.got.cif
#   From: 2010.05.17/outbox.cif.g08.bks.cpg/sg5_27_cif.got.tgz:53669.got - 2010.06.03 18:56:24.
