data_PCOD9128460
_publ_section_title
;
Structure prediction by ZEFSAII (Michael W. Deem and Ramdas Pophale) SiO2 
 PCOD9128460
Probable space group: C 2
;
_chemical_formula_sum "Si O2"
_cell_formula_units_Z 28
_cell_length_a 21.703182
_cell_length_b 8.239766
_cell_length_c 19.741531
_cell_angle_alpha 90.000000
_cell_angle_beta 20.491560
_cell_angle_gamma 90.000000
_cell_volume 1235.871370
_symmetry_space_group_name_H-M "C 2"
_symmetry_group_IT_number 5
_symmetry_cell_setting 'monoclinic'
loop_
_space_group_symop_operation_xyz
x,y,z
-x,y,-z
1/2+x,1/2+y,z
1/2-x,1/2+y,-z
loop_
_atom_site_type_symbol
_atom_site_label
_atom_site_fract_x
_atom_site_fract_y
_atom_site_fract_z
Si Si1 0.869360 0.720730 0.532577
Si Si2 0.440150 0.062954 0.774947
Si Si3 0.289147 0.976198 0.397688
Si Si4 0.241046 0.760864 0.202936
Si Si5 0.918867 0.925090 0.006608
Si Si6 0.048951 0.577976 0.027512
Si Si7 0.958407 0.931701 0.817463
O O1 0.753185 0.811202 0.597546
O O2 0.761644 0.732097 0.713120
O O3 0.954981 0.568731 0.404803
O O4 0.050017 0.805989 0.370874
O O5 0.445195 0.247496 0.800946
O O6 0.560788 0.959447 0.700928
O O7 0.239030 0.003573 0.981704
O O8 0.104073 0.023359 0.622189
O O9 0.374521 0.090312 0.252634
O O10 0.298619 0.582007 0.122486
O O11 0.360781 0.905886 0.052720
O O12 0.839435 0.743358 0.079898
O O13 0.027537 0.936341 0.824185
O O14 0.000000 0.929872 0.000000
O O15 0.000000 0.571012 0.000000
#
# Coordination Sequence:
#
# PCOD9128460 Si02
#       7
#     4   4   4   4   4   4   4
#     4  10  24  44  70 108 137 196 249 298 381 442
#     4  11  25  46  73 101 149 194 240 306 372 437
#     4  11  25  42  72 104 141 194 246 298 369 445
#     4  11  23  46  77  99 149 191 245 312 371 437
#     4  11  25  43  72 108 143 192 249 302 367 440
#     4  11  23  46  70 103 147 194 245 303 371 434
#     4  11  26  48  69 108 148 190 250 304 368 445
#
# _framework density 22.656079999999999
#
# number of rings (size 3 to 8) (size 9 to 14) (size 15 to 20)
#    0.000    1.143    4.286    0.429    6.000    3.429 
#    0.000    2.857    0.000    0.000    0.000    0.000 
#    0.000    0.000    0.000    0.000    0.000    0.000 
#
# Total GULP energy -77953.509131 kJ/mol
# GULP energy per Si atom -5568.107795 kJ/mol
# Density = 2.260451 g / cm^3
# Si number density = 22.656080 Si / 1000 Ang^3
#
#
#
# Elastic Constant Matrix: (Units=GPa)
#
#
# Indices 1 2 3 4 5 6 
#
# 1 98.4711 30.5298 43.8348 -0.0002 3.0252 0.0001
# 2 30.5298 118.8354 63.6779 -0.0004 -3.8541 0.0003
# 3 43.8348 63.6779 121.7312 -0.0004 -0.9614 0.0002
# 4 -0.0002 -0.0004 -0.0004 21.8520 0.0002 -4.1913
# 5 3.0252 -3.8541 -0.9614 0.0002 28.8172 -0.0002
# 6 0.0001 0.0003 0.0002 -4.1913 -0.0002 5.7645
#
#
#
# Elastic Compliance Matrix: (Units=1/GPa)
#
#
# Indices 1 2 3 4 5 6 
#
# 1 0.012264 -0.001151 -0.003826 0.000000 -0.001569 0.000000
# 2 -0.001151 0.011854 -0.005774 0.000000 0.001514 0.000000
# 3 -0.003826 -0.005774 0.012614 0.000000 0.000050 0.000000
# 4 0.000000 0.000000 0.000000 0.053179 0.000000 0.038666
# 5 -0.001569 0.001514 0.000050 0.000000 0.035070 0.000001
# 6 0.000000 0.000000 0.000000 0.038666 0.000001 0.201591
#
#
# Mechanical properties :
#
#
# Convention : Reuss Voigt Hill
#
# Bulk Modulus (GPa) = 65.67019 68.34695 67.00857
# Shear Modulus (GPa) = 14.15825 24.68641 19.42233
#
# Velocity S-wave (km/s) = 2.50255 3.30451 2.93109
# Velocity P-wave (km/s) = 6.11547 6.69271 6.41059
#
# Compressibility (1/GPa) = 0.01522761
#
# Stress axis : x y z
#
# Youngs Moduli (GPa) = 81.54161 84.35935 79.27929
#
# Poissons Ratio (x) = 0.09712 0.30334
# Poissons Ratio (y) = 0.09387 0.45779
# Poissons Ratio (z) = 0.31200 0.48712
#
# Static dielectric constant tensor:
#      x y z
#    x 1.894990 0.000000 0.065510 
#    y 0.000000 1.900140 0.000000 
#    z 0.065510 0.000000 1.891200 
# 
# From -- ./inp_files/67351.got.cif
#   From: 2010.05.17/outbox.cif.g08.bks.cpg/sg5_34_cif.got.tgz:67351.got - 2010.06.03 18:56:24.
