data_PCOD9128326
_publ_section_title
;
Structure prediction by ZEFSAII (Michael W. Deem and Ramdas Pophale) SiO2 
 PCOD9128326
Probable space group: C 2
;
_chemical_formula_sum "Si O2"
_cell_formula_units_Z 26
_cell_length_a 15.149419
_cell_length_b 15.925881
_cell_length_c 5.082754
_cell_angle_alpha 90.000000
_cell_angle_beta 79.040159
_cell_angle_gamma 90.000000
_cell_volume 1203.938131
_symmetry_space_group_name_H-M "C 2"
_symmetry_group_IT_number 5
_symmetry_cell_setting 'monoclinic'
loop_
_space_group_symop_operation_xyz
x,y,z
-x,y,-z
1/2+x,1/2+y,z
1/2-x,1/2+y,-z
loop_
_atom_site_type_symbol
_atom_site_label
_atom_site_fract_x
_atom_site_fract_y
_atom_site_fract_z
Si Si1 0.738824 0.965010 0.913782
Si Si2 0.911658 0.578846 0.163582
Si Si3 0.587706 0.288580 0.320433
Si Si4 0.557363 0.481867 0.220240
Si Si5 0.500000 0.943404 0.500000
Si Si6 0.687757 0.235808 0.739175
Si Si7 0.186000 0.361904 0.420412
O O1 0.837091 0.005003 0.816678
O O2 0.707657 0.903285 0.692808
O O3 0.658185 0.032116 0.989495
O O4 0.745792 0.911635 0.173829
O O5 0.959131 0.506807 0.307458
O O6 0.846001 0.645231 0.340031
O O7 0.000000 0.624684 0.000000
O O8 0.500000 0.244829 0.500000
O O9 0.559936 0.379449 0.228522
O O10 0.645515 0.299645 0.551049
O O11 0.645197 0.245871 0.054536
O O12 0.500000 0.511019 0.500000
O O13 0.500000 0.507543 0.000000
O O14 0.584590 0.884351 0.393173
O O15 0.790183 0.264430 0.647741
#
# Coordination Sequence:
#
# PCOD9128326 Si02
#       7
#     4   4   4   4   2   4   4
#     4  11  22  40  61  85 127 165 218 248 317 381
#     4  11  24  40  61  97 129 168 199 275 328 375
#     4  11  21  34  51  87 125 162 184 247 308 385
#     4  11  20  34  57  85 113 162 211 247 300 365
#     4  10  24  42  66  86 132 170 222 246 318 388
#     4  12  23  36  60  89 129 156 209 254 323 358
#     4  11  21  41  61  90 117 173 213 257 297 390
#
# _framework density 21.595794999999999
#
# number of rings (size 3 to 8) (size 9 to 14) (size 15 to 20)
#    0.000    0.923    4.615    4.154    3.231    0.000 
#    0.000    0.000    1.692    0.000    4.000    0.000 
#    0.000    0.000    0.000    0.000    0.000    0.000 
#
# Total GULP energy -72423.736833 kJ/mol
# GULP energy per Si atom -5571.056679 kJ/mol
# Density = 2.154664 g / cm^3
# Si number density = 21.595795 Si / 1000 Ang^3
#
#
#
# Elastic Constant Matrix: (Units=GPa)
#
#
# Indices 1 2 3 4 5 6 
#
# 1 136.4135 40.7960 27.9908 0.0000 -10.6982 0.0000
# 2 40.7960 51.0631 4.1223 0.0000 -5.3459 0.0000
# 3 27.9908 4.1223 109.8635 0.0000 10.1848 0.0000
# 4 0.0000 0.0000 0.0000 12.4689 0.0000 -11.5373
# 5 -10.6982 -5.3459 10.1848 0.0000 37.8890 0.0000
# 6 0.0000 0.0000 0.0000 -11.5373 0.0000 40.5555
#
#
#
# Elastic Compliance Matrix: (Units=1/GPa)
#
#
# Indices 1 2 3 4 5 6 
#
# 1 0.010405 -0.007839 -0.002591 0.000000 0.002528 0.000000
# 2 -0.007839 0.025898 0.000915 0.000000 0.001195 0.000000
# 3 -0.002591 0.000915 0.010034 0.000000 -0.003300 0.000000
# 4 0.000000 0.000000 0.000000 0.108853 0.000000 0.030967
# 5 0.002528 0.001195 -0.003300 0.000000 0.028162 0.000000
# 6 0.000000 0.000000 0.000000 0.030967 0.000000 0.033467
#
#
# Mechanical properties :
#
#
# Convention : Reuss Voigt Hill
#
# Bulk Modulus (GPa) = 36.62249 49.23983 42.93116
# Shear Modulus (GPa) = 20.41215 33.14473 26.77844
#
# Velocity S-wave (km/s) = 3.07773 3.92187 3.52516
# Velocity P-wave (km/s) = 5.44287 6.58470 6.04083
#
# Compressibility (1/GPa) = 0.02730562
#
# Stress axis : x y z
#
# Youngs Moduli (GPa) = 96.10779 38.61349 99.66141
#
# Poissons Ratio (x) = 0.30269 0.25824
# Poissons Ratio (y) = 0.75339 -0.09116
# Poissons Ratio (z) = 0.24904 -0.03532
#
# Static dielectric constant tensor:
#      x y z
#    x 1.941190 0.000000 -0.003940 
#    y 0.000000 1.895750 0.000000 
#    z -0.003940 0.000000 1.844150 
# 
# From -- ./inp_files/7075.got.cif
#   From: 2010.05.17/outbox.cif.g08.bks.cpg/sg5_4_cif.got.tgz:7075.got - 2010.06.03 18:56:24.
