data_PCOD9128298
_publ_section_title
;
Structure prediction by ZEFSAII (Michael W. Deem and Ramdas Pophale) SiO2 
 PCOD9128298
Probable space group: C 2
;
_chemical_formula_sum "Si O2"
_cell_formula_units_Z 30
_cell_length_a 9.638795
_cell_length_b 15.411315
_cell_length_c 11.885714
_cell_angle_alpha 90.000000
_cell_angle_beta 60.017357
_cell_angle_gamma 90.000000
_cell_volume 1529.305605
_symmetry_space_group_name_H-M "C 2"
_symmetry_group_IT_number 5
_symmetry_cell_setting 'monoclinic'
loop_
_space_group_symop_operation_xyz
x,y,z
-x,y,-z
1/2+x,1/2+y,z
1/2-x,1/2+y,-z
loop_
_atom_site_type_symbol
_atom_site_label
_atom_site_fract_x
_atom_site_fract_y
_atom_site_fract_z
Si Si1 0.313431 0.362220 0.049567
Si Si2 0.916263 0.242511 0.731095
Si Si3 0.807759 0.516988 0.749926
Si Si4 0.105976 0.420447 0.659739
Si Si5 0.616992 0.471375 0.601712
Si Si6 0.129110 0.193327 0.845832
Si Si7 0.500000 0.627902 0.500000
Si Si8 0.716364 0.376291 0.203515
O O1 0.236279 0.276925 0.137842
O O2 0.241945 0.446228 0.138302
O O3 0.500000 0.360450 0.000000
O O4 0.273603 0.374425 0.935045
O O5 0.895425 0.189435 0.624563
O O6 0.011581 0.332176 0.669695
O O7 0.022828 0.188007 0.775887
O O8 0.717387 0.489501 0.673004
O O9 0.739204 0.609302 0.814317
O O10 0.998362 0.501683 0.663901
O O11 0.272393 0.416666 0.526832
O O12 0.148928 0.424131 0.775064
O O13 0.587975 0.561622 0.548249
O O14 0.452734 0.420617 0.695992
O O15 0.245652 0.275896 0.783664
O O16 0.000000 0.204461 0.000000
#
# Coordination Sequence:
#
# PCOD9128298 Si02
#       8
#     4   4   4   4   4   4   2   4
#     4  11  22  42  70 101 133 179 232 274 348 410
#     4  10  24  41  67  94 134 178 219 281 336 406
#     4  11  24  40  69  97 133 178 225 284 333 406
#     4  10  24  44  65  97 132 181 224 272 343 403
#     4  12  23  45  65  94 137 176 228 275 339 406
#     4  11  22  43  67  98 135 174 230 283 345 399
#     4  12  24  42  66  96 130 178 228 268 340 394
#     4  11  23  43  70  95 135 182 224 280 340 415
#
# _framework density 19.616745000000002
#
# number of rings (size 3 to 8) (size 9 to 14) (size 15 to 20)
#    0.000    1.067    5.333    0.800    3.733    0.000 
#    4.800    1.333    0.000    0.000    0.000    0.000 
#    0.000    0.000    0.000    0.000    0.000    0.000 
#
# Total GULP energy -83667.193587 kJ/mol
# GULP energy per Si atom -5577.812906 kJ/mol
# Density = 1.957210 g / cm^3
# Si number density = 19.616745 Si / 1000 Ang^3
#
#
#
# Elastic Constant Matrix: (Units=GPa)
#
#
# Indices 1 2 3 4 5 6 
#
# 1 77.9322 38.4799 34.3146 0.0000 10.4890 0.0000
# 2 38.4799 72.2278 34.5663 0.0000 -4.7777 0.0000
# 3 34.3146 34.5663 90.8461 0.0000 1.8475 0.0000
# 4 0.0000 0.0000 0.0000 27.0761 0.0000 1.1810
# 5 10.4890 -4.7777 1.8475 0.0000 30.5609 0.0000
# 6 0.0000 0.0000 0.0000 1.1810 0.0000 26.8361
#
#
#
# Elastic Compliance Matrix: (Units=1/GPa)
#
#
# Indices 1 2 3 4 5 6 
#
# 1 0.020362 -0.009527 -0.003898 0.000000 -0.008242 0.000000
# 2 -0.009527 0.021672 -0.004789 0.000000 0.006948 0.000000
# 3 -0.003898 -0.004789 0.014308 0.000000 -0.000276 0.000000
# 4 0.000000 0.000000 0.000000 0.037004 0.000000 -0.001628
# 5 -0.008242 0.006948 -0.000276 0.000000 0.036653 0.000000
# 6 0.000000 0.000000 0.000000 -0.001628 0.000000 0.037335
#
#
# Mechanical properties :
#
#
# Convention : Reuss Voigt Hill
#
# Bulk Modulus (GPa) = 50.21896 50.63643 50.42770
# Shear Modulus (GPa) = 23.76420 25.80431 24.78425
#
# Velocity S-wave (km/s) = 3.48433 3.63081 3.55832
# Velocity P-wave (km/s) = 6.46862 6.59135 6.53027
#
# Compressibility (1/GPa) = 0.01991280
#
# Stress axis : x y z
#
# Youngs Moduli (GPa) = 49.11155 46.14198 69.89201
#
# Poissons Ratio (x) = 0.43962 0.27246
# Poissons Ratio (y) = 0.46791 0.33469
# Poissons Ratio (z) = 0.19145 0.22096
#
# Static dielectric constant tensor:
#      x y z
#    x 1.719000 0.000000 -0.019450 
#    y 0.000000 1.679220 0.000000 
#    z -0.019450 0.000000 1.740840 
# 
# From -- ./inp_files/36360.got.cif
#   From: 2010.05.17/outbox.cif.g08.bks.cpg/sg5_19_cif.got.tgz:36360.got - 2010.06.03 18:56:24.
