data_PCOD9128485
_publ_section_title
;
Structure prediction by ZEFSAII (Michael W. Deem and Ramdas Pophale) SiO2 
 PCOD9128485
Probable space group: C 2
;
_chemical_formula_sum "Si O2"
_cell_formula_units_Z 26
_cell_length_a 12.108165
_cell_length_b 8.858153
_cell_length_c 24.109701
_cell_angle_alpha 90.000000
_cell_angle_beta 24.924853
_cell_angle_gamma 90.000000
_cell_volume 1089.777848
_symmetry_space_group_name_H-M "C 2"
_symmetry_group_IT_number 5
_symmetry_cell_setting 'monoclinic'
loop_
_space_group_symop_operation_xyz
x,y,z
-x,y,-z
1/2+x,1/2+y,z
1/2-x,1/2+y,-z
loop_
_atom_site_type_symbol
_atom_site_label
_atom_site_fract_x
_atom_site_fract_y
_atom_site_fract_z
Si Si1 0.479356 0.761120 0.418934
Si Si2 0.383252 0.519900 0.377548
Si Si3 0.000000 0.024042 0.500000
Si Si4 0.500000 0.344774 0.000000
Si Si5 0.751285 0.749947 0.776581
Si Si6 0.500000 0.850911 0.000000
Si Si7 0.950299 0.454157 0.714789
Si Si8 0.587304 0.607130 0.165099
O O1 0.321152 0.651066 0.449022
O O2 0.597197 0.638289 0.407105
O O3 0.630645 0.858500 0.302910
O O4 0.339172 0.892857 0.517708
O O5 0.633927 0.418089 0.283779
O O6 0.452402 0.595625 0.287341
O O7 0.749906 0.923103 0.596755
O O8 0.283949 0.429367 0.135021
O O9 0.315254 0.230442 0.050671
O O10 0.971668 0.632871 0.695180
O O11 0.620651 0.663828 0.784905
O O12 0.569252 0.760789 0.913404
O O13 0.252621 0.952223 0.092515
#
# Coordination Sequence:
#
# PCOD9128485 Si02
#       8
#     4   4   2   2   4   2   4   4
#     4  12  25  47  75 106 152 201 265 319 391 468
#     4  11  23  48  70 111 152 200 271 321 388 476
#     4  12  28  50  78 108 158 202 254 336 384 456
#     4  11  25  48  72 116 148 200 266 312 386 486
#     4  11  24  45  73 109 155 206 259 325 402 467
#     4   9  23  46  68 112 154 196 270 320 386 484
#     4  12  27  49  75 115 152 204 264 319 395 475
#     4  10  24  44  73 108 158 210 249 329 398 462
#
# _framework density 23.858073000000001
#
# number of rings (size 3 to 8) (size 9 to 14) (size 15 to 20)
#    0.000    0.923    4.615    0.462    6.462    0.000 
#    2.769    0.000    0.000    0.000    0.000    0.000 
#    0.000    0.000    0.000    0.000    0.000    0.000 
#
# Total GULP energy -72438.022512 kJ/mol
# GULP energy per Si atom -5572.155578 kJ/mol
# Density = 2.380377 g / cm^3
# Si number density = 23.858073 Si / 1000 Ang^3
#
#
#
# Elastic Constant Matrix: (Units=GPa)
#
#
# Indices 1 2 3 4 5 6 
#
# 1 131.1925 41.8051 50.9982 0.0372 5.7095 -0.0175
# 2 41.8051 106.4658 27.8659 -0.0124 7.7545 0.0043
# 3 50.9982 27.8659 130.6915 0.1682 21.7878 -0.0821
# 4 0.0372 -0.0124 0.1682 -150.4977 0.0241 75.6329
# 5 5.7095 7.7545 21.7878 0.0241 35.8920 -0.0113
# 6 -0.0175 0.0043 -0.0821 75.6329 -0.0113 -5.3763
#
#
#
# Elastic Compliance Matrix: (Units=1/GPa)
#
#
# Indices 1 2 3 4 5 6 
#
# 1 0.009868 -0.003072 -0.003387 -0.000001 0.001150 0.000000
# 2 -0.003072 0.010934 -0.000913 -0.000002 -0.001320 0.000001
# 3 -0.003387 -0.000913 0.010064 0.000009 -0.005373 -0.000001
# 4 -0.000001 -0.000002 0.000009 0.001095 -0.000001 0.015400
# 5 0.001150 -0.001320 -0.005373 -0.000001 0.031225 0.000000
# 6 0.000000 0.000001 -0.000001 0.015400 0.000000 0.030644
#
#
# Mechanical properties :
#
#
# Convention : Reuss Voigt Hill
#
# Bulk Modulus (GPa) = 62.02805 67.74312 64.88559
# Shear Modulus (GPa) = 43.88000 -7.48437 18.19781
#
# Velocity S-wave (km/s) = 4.29325 -1.77309 2.76479
# Velocity P-wave (km/s) = 7.11556 4.92586 6.11945
#
# Compressibility (1/GPa) = 0.01612174
#
# Stress axis : x y z
#
# Youngs Moduli (GPa) = 101.33752 91.45865 99.36632
#
# Poissons Ratio (x) = 0.28096 0.33660
# Poissons Ratio (y) = 0.31130 0.09068
# Poissons Ratio (z) = 0.34327 0.08346
#
# Static dielectric constant tensor:
#      x y z
#    x 4.666800 0.000040 -1.408410 
#    y 0.000040 1.916210 -0.000020 
#    z -1.408410 -0.000020 2.657280 
# 
# From -- ./inp_files/68270.got.cif
#   From: 2010.05.17/outbox.cif.g08.bks.cpg/sg5_35_cif.got.tgz:68270.got - 2010.06.03 18:56:24.
