data_PCOD9128329
_publ_section_title
;
Structure prediction by ZEFSAII (Michael W. Deem and Ramdas Pophale) SiO2 
 PCOD9128329
Probable space group: C 2
;
_chemical_formula_sum "Si O2"
_cell_formula_units_Z 26
_cell_length_a 9.867400
_cell_length_b 15.205268
_cell_length_c 15.541002
_cell_angle_alpha 90.000000
_cell_angle_beta 143.514730
_cell_angle_gamma 90.000000
_cell_volume 1386.476452
_symmetry_space_group_name_H-M "C 2"
_symmetry_group_IT_number 5
_symmetry_cell_setting 'monoclinic'
loop_
_space_group_symop_operation_xyz
x,y,z
-x,y,-z
1/2+x,1/2+y,z
1/2-x,1/2+y,-z
loop_
_atom_site_type_symbol
_atom_site_label
_atom_site_fract_x
_atom_site_fract_y
_atom_site_fract_z
Si Si1 0.744867 0.230470 0.378434
Si Si2 0.912964 0.686780 0.052508
Si Si3 0.000000 0.401879 0.500000
Si Si4 0.998252 0.311489 0.101289
Si Si5 0.240627 0.008747 0.226933
Si Si6 0.597963 0.196487 0.645358
Si Si7 0.217964 0.491645 0.955661
O O1 0.603413 0.214429 0.219616
O O2 0.602807 0.196856 0.386779
O O3 0.000000 0.191060 0.500000
O O4 0.795860 0.334234 0.417454
O O5 0.850022 0.585431 0.039414
O O6 0.696045 0.749247 0.957426
O O7 0.000000 0.697137 0.000000
O O8 0.080479 0.459714 0.620865
O O9 0.933600 0.411727 0.087980
O O10 0.241767 0.281088 0.261471
O O11 0.000000 0.296261 0.000000
O O12 0.249435 0.111469 0.254920
O O13 0.298446 0.997841 0.156203
O O14 0.984726 0.974287 0.111446
O O15 0.500000 0.190379 0.500000
#
# Coordination Sequence:
#
# PCOD9128329 Si02
#       7
#     4   4   2   4   4   4   4
#     4  10  25  44  66  97 139 175 225 275 336 407
#     4  12  25  45  69 101 138 177 227 282 341 407
#     4  10  24  42  66  94 130 180 224 266 338 402
#     4  12  25  45  71 100 135 178 230 288 335 402
#     4  11  22  44  69  98 134 178 227 278 335 410
#     4  12  25  45  70  99 137 184 222 277 347 406
#     4  11  25  42  69 103 131 173 232 282 341 394
#
# _framework density 18.752573000000002
#
# number of rings (size 3 to 8) (size 9 to 14) (size 15 to 20)
#    0.462    0.308    5.385    1.385    8.615    0.000 
#    0.000    0.769    0.000    0.000    0.000    0.000 
#    0.000    0.000    0.000    0.000    0.000    0.000 
#
# Total GULP energy -72630.012471 kJ/mol
# GULP energy per Si atom -5586.924036 kJ/mol
# Density = 1.870989 g / cm^3
# Si number density = 18.752573 Si / 1000 Ang^3
#
#
#
# Elastic Constant Matrix: (Units=GPa)
#
#
# Indices 1 2 3 4 5 6 
#
# 1 112.6645 17.5591 67.0086 -0.0014 -12.9335 0.0000
# 2 17.5591 85.2161 14.0955 -0.0021 1.0572 -0.0003
# 3 67.0086 14.0955 106.1604 -0.0037 -11.8492 -0.0008
# 4 -0.0014 -0.0021 -0.0037 2.2100 -0.0006 33.8965
# 5 -12.9335 1.0572 -11.8492 -0.0006 33.8886 0.0000
# 6 0.0000 -0.0003 -0.0008 33.8965 0.0000 11.1174
#
#
#
# Elastic Compliance Matrix: (Units=1/GPa)
#
#
# Indices 1 2 3 4 5 6 
#
# 1 0.014607 -0.001599 -0.008720 0.000000 0.002576 0.000000
# 2 -0.001599 0.012204 -0.000751 0.000000 -0.001254 0.000001
# 3 -0.008720 -0.000751 0.015250 0.000000 0.002027 0.000001
# 4 0.000000 0.000000 0.000000 -0.009887 0.000000 0.030146
# 5 0.002576 -0.001254 0.002027 0.000000 0.031239 0.000001
# 6 0.000000 0.000001 0.000001 0.030146 0.000001 -0.001966
#
#
# Mechanical properties :
#
#
# Convention : Reuss Voigt Hill
#
# Bulk Modulus (GPa) = 50.19971 55.70749 52.95360
# Shear Modulus (GPa) = 55.41429 23.13507 39.27468
#
# Velocity S-wave (km/s) = 5.44191 3.51622 4.58139
# Velocity P-wave (km/s) = 8.14331 6.80119 7.50232
#
# Compressibility (1/GPa) = 0.01992043
#
# Stress axis : x y z
#
# Youngs Moduli (GPa) = 68.45838 81.93917 65.57377
#
# Poissons Ratio (x) = 0.13106 0.57183
# Poissons Ratio (y) = 0.10949 0.04923
# Poissons Ratio (z) = 0.59698 0.06152
#
# Static dielectric constant tensor:
#      x y z
#    x 1.615540 0.000000 0.015090 
#    y 0.000000 1.648800 0.000000 
#    z 0.015090 0.000000 1.636170 
# 
# From -- ./inp_files/51035.got.cif
#   From: 2010.05.17/outbox.cif.g08.bks.cpg/sg5_26_cif.got.tgz:51035.got - 2010.06.03 18:56:24.
