data_PCOD9128816
_publ_section_title
;
Structure prediction by ZEFSAII (Michael W. Deem and Ramdas Pophale) SiO2 
 PCOD9128816
Probable space group: C 2
;
_chemical_formula_sum "Si O2"
_cell_formula_units_Z 30
_cell_length_a 28.814699
_cell_length_b 5.219355
_cell_length_c 11.850551
_cell_angle_alpha 90.000000
_cell_angle_beta 50.174905
_cell_angle_gamma 90.000000
_cell_volume 1368.776165
_symmetry_space_group_name_H-M "C 2"
_symmetry_group_IT_number 5
_symmetry_cell_setting 'monoclinic'
loop_
_space_group_symop_operation_xyz
x,y,z
-x,y,-z
1/2+x,1/2+y,z
1/2-x,1/2+y,-z
loop_
_atom_site_type_symbol
_atom_site_label
_atom_site_fract_x
_atom_site_fract_y
_atom_site_fract_z
Si Si1 0.395706 0.293130 0.432779
Si Si2 0.790202 0.785302 0.415005
Si Si3 0.705722 0.194290 0.240424
Si Si4 0.306627 0.334357 0.992193
Si Si5 0.687018 0.974438 0.832719
Si Si6 0.589333 0.600903 0.032578
Si Si7 0.533924 0.791062 0.726030
Si Si8 0.000000 0.046396 0.000000
O O1 0.348920 0.309852 0.401451
O O2 0.357956 0.186330 0.597977
O O3 0.426494 0.571794 0.397667
O O4 0.444555 0.075972 0.329205
O O5 0.750056 0.539941 0.515374
O O6 0.809699 0.711656 0.257165
O O7 0.748936 0.333181 0.264093
O O8 0.744570 0.945932 0.142646
O O9 0.697157 0.340022 0.135426
O O10 0.317353 0.057138 0.029689
O O11 0.363989 0.479562 0.953912
O O12 0.631166 0.792066 0.894933
O O13 0.537309 0.749335 0.182382
O O14 0.549506 0.423917 0.007998
O O15 0.537291 0.718673 0.853640
#
# Coordination Sequence:
#
# PCOD9128816 Si02
#       8
#     4   4   4   4   4   4   4   2
#     4  12  25  43  68  99 145 179 218 282 356 413
#     4  12  25  40  63 103 142 172 219 276 357 427
#     4  11  24  43  66 101 134 182 226 286 350 407
#     4  11  23  42  72  95 134 176 242 282 341 405
#     4  11  23  40  67  96 134 173 230 284 337 413
#     4   9  23  41  67  99 125 179 231 280 333 399
#     4  10  25  43  68  97 135 184 225 275 342 408
#     4   8  20  44  66  96 140 170 240 276 338 404
#
# _framework density 21.917387999999999
#
# number of rings (size 3 to 8) (size 9 to 14) (size 15 to 20)
#    0.800    0.533    2.667    2.400    7.467    0.533 
#    0.000    0.667    0.000    0.000    0.000    0.000 
#    0.000    0.000    0.000    0.000    0.000    0.000 
#
# Total GULP energy -83663.547800 kJ/mol
# GULP energy per Si atom -5577.569853 kJ/mol
# Density = 2.186750 g / cm^3
# Si number density = 21.917388 Si / 1000 Ang^3
#
#
#
# Elastic Constant Matrix: (Units=GPa)
#
#
# Indices 1 2 3 4 5 6 
#
# 1 102.9644 30.0834 31.3289 0.0000 -4.8179 0.0000
# 2 30.0834 68.2271 -0.4981 0.0001 -7.8439 0.0001
# 3 31.3289 -0.4981 86.3544 0.0000 -0.1333 0.0000
# 4 0.0000 0.0001 0.0000 33.1998 0.0000 3.5860
# 5 -4.8179 -7.8439 -0.1333 0.0000 36.2948 0.0000
# 6 0.0000 0.0001 0.0000 3.5860 0.0000 19.9965
#
#
#
# Elastic Compliance Matrix: (Units=1/GPa)
#
#
# Indices 1 2 3 4 5 6 
#
# 1 0.012800 -0.005624 -0.004675 0.000000 0.000466 0.000000
# 2 -0.005624 0.017502 0.002146 0.000000 0.003044 0.000000
# 3 -0.004675 0.002146 0.013289 0.000000 -0.000108 0.000000
# 4 0.000000 0.000000 0.000000 0.030716 0.000000 -0.005508
# 5 0.000466 0.003044 -0.000108 0.000000 0.028272 0.000000
# 6 0.000000 0.000000 0.000000 -0.005508 0.000000 0.050996
#
#
# Mechanical properties :
#
#
# Convention : Reuss Voigt Hill
#
# Bulk Modulus (GPa) = 36.65197 42.15270 39.40234
# Shear Modulus (GPa) = 27.93667 31.00701 29.47184
#
# Velocity S-wave (km/s) = 3.57408 3.76536 3.67096
# Velocity P-wave (km/s) = 5.81301 6.17885 5.99872
#
# Compressibility (1/GPa) = 0.02728366
#
# Stress axis : x y z
#
# Youngs Moduli (GPa) = 78.12638 57.13476 75.25240
#
# Poissons Ratio (x) = 0.32134 0.35184
# Poissons Ratio (y) = 0.43941 -0.16150
# Poissons Ratio (z) = 0.36527 -0.12262
#
# Static dielectric constant tensor:
#      x y z
#    x 1.778050 0.000000 -0.016180 
#    y 0.000000 1.850540 0.000000 
#    z -0.016180 0.000000 1.831250 
# 
# From -- ./inp_files/48226.got.cif
#   From: 2010.05.17/outbox.cif.g08.bks.cpg/sg5_25_cif.got.tgz:48226.got - 2010.06.03 18:56:24.
