data_PCOD9128384
_publ_section_title
;
Structure prediction by ZEFSAII (Michael W. Deem and Ramdas Pophale) SiO2 
 PCOD9128384
Probable space group: C 2
;
_chemical_formula_sum "Si O2"
_cell_formula_units_Z 32
_cell_length_a 12.196418
_cell_length_b 8.309268
_cell_length_c 22.725786
_cell_angle_alpha 90.000000
_cell_angle_beta 37.613895
_cell_angle_gamma 90.000000
_cell_volume 1405.671638
_symmetry_space_group_name_H-M "C 2"
_symmetry_group_IT_number 5
_symmetry_cell_setting 'monoclinic'
loop_
_space_group_symop_operation_xyz
x,y,z
-x,y,-z
1/2+x,1/2+y,z
1/2-x,1/2+y,-z
loop_
_atom_site_type_symbol
_atom_site_label
_atom_site_fract_x
_atom_site_fract_y
_atom_site_fract_z
Si Si1 0.128829 0.676150 0.796909
Si Si2 0.206076 0.266032 0.615564
Si Si3 0.794018 0.346438 0.068095
Si Si4 0.132867 0.454619 0.284464
Si Si5 0.065723 0.983213 0.267177
Si Si6 0.172546 0.504792 0.133460
Si Si7 0.466171 0.270924 0.607890
Si Si8 0.647629 0.198446 0.989082
O O1 0.254931 0.823620 0.726255
O O2 0.254287 0.574359 0.787430
O O3 0.032165 0.563007 0.790887
O O4 0.964877 0.744028 0.905428
O O5 0.323141 0.331342 0.620254
O O6 0.354167 0.223589 0.503435
O O7 0.065022 0.387187 0.646105
O O8 0.082915 0.114411 0.687149
O O9 0.639704 0.370343 0.183860
O O10 0.787516 0.153811 0.059079
O O11 0.777384 0.516061 0.039134
O O12 0.000000 0.365051 0.000000
O O13 0.213814 0.481312 0.184834
O O14 0.120632 0.617195 0.324757
O O15 0.997127 0.892294 0.354391
O O16 0.206841 0.334150 0.087664
O O17 0.500000 0.207216 0.000000
#
# Coordination Sequence:
#
# PCOD9128384 Si02
#       8
#     4   4   4   4   4   4   4   4
#     4  11  25  41  62  97 128 179 229 272 339 399
#     4  10  24  43  66 100 133 168 222 280 338 412
#     4  11  23  40  66  95 133 180 230 276 326 404
#     4  11  23  44  65  93 137 169 217 283 334 403
#     4  11  21  43  66  90 135 171 218 282 333 394
#     4  12  25  41  65  95 134 181 228 279 338 400
#     4  11  23  41  71 100 126 175 222 268 354 412
#     4  11  21  44  61  88 139 181 223 291 331 380
#
# _framework density 22.764917000000001
#
# number of rings (size 3 to 8) (size 9 to 14) (size 15 to 20)
#    0.000    1.000    5.000    2.625    3.500    0.000 
#    0.000    0.000    0.000    6.000    0.000    0.000 
#    0.000    0.000    0.000    0.000    0.000    0.000 
#
# Total GULP energy -89326.822684 kJ/mol
# GULP energy per Si atom -5582.926418 kJ/mol
# Density = 2.271310 g / cm^3
# Si number density = 22.764917 Si / 1000 Ang^3
#
#
#
# Elastic Constant Matrix: (Units=GPa)
#
#
# Indices 1 2 3 4 5 6 
#
# 1 53.7544 8.3695 10.5555 0.0000 -11.9410 0.0000
# 2 8.3695 100.1177 13.2622 0.0000 -11.9697 0.0000
# 3 10.5555 13.2622 75.8672 0.0000 -2.2338 0.0000
# 4 0.0000 0.0000 0.0000 9.9027 0.0000 -31.8912
# 5 -11.9410 -11.9697 -2.2338 0.0000 31.0639 0.0000
# 6 0.0000 0.0000 0.0000 -31.8912 0.0000 1.0751
#
#
#
# Elastic Compliance Matrix: (Units=1/GPa)
#
#
# Indices 1 2 3 4 5 6 
#
# 1 0.020889 -0.000487 -0.002596 0.000000 0.007655 0.000000
# 2 -0.000487 0.010710 -0.001692 0.000000 0.003818 0.000000
# 3 -0.002596 -0.001692 0.013819 0.000000 -0.000656 0.000000
# 4 0.000000 0.000000 0.000000 -0.001068 0.000000 -0.031688
# 5 0.007655 0.003818 -0.000656 0.000000 0.036558 0.000000
# 6 0.000000 0.000000 0.000000 -0.031688 0.000000 -0.009840
#
#
# Mechanical properties :
#
#
# Convention : Reuss Voigt Hill
#
# Bulk Modulus (GPa) = 27.88032 32.67930 30.27981
# Shear Modulus (GPa) = 54.01122 21.57847 37.79485
#
# Velocity S-wave (km/s) = 4.87618 3.08211 4.07900
# Velocity P-wave (km/s) = 6.63148 5.20117 5.95939
#
# Compressibility (1/GPa) = 0.03586759
#
# Stress axis : x y z
#
# Youngs Moduli (GPa) = 47.87143 93.37485 72.36666
#
# Poissons Ratio (x) = 0.04549 0.18785
# Poissons Ratio (y) = 0.02332 0.12244
# Poissons Ratio (z) = 0.12426 0.15798
#
# Static dielectric constant tensor:
#      x y z
#    x 2.688490 0.000000 0.081550 
#    y 0.000000 1.856280 0.000000 
#    z 0.081550 0.000000 1.833290 
# 
# From -- ./inp_files/70604.got.cif
#   From: 2010.05.17/outbox.cif.g08.bks.cpg/sg5_36_cif.got.tgz:70604.got - 2010.06.03 18:56:24.
