data_PCOD9128779
_publ_section_title
;
Structure prediction by ZEFSAII (Michael W. Deem and Ramdas Pophale) SiO2 
 PCOD9128779
Probable space group: C 2
;
_chemical_formula_sum "Si O2"
_cell_formula_units_Z 16
_cell_length_a 7.253817
_cell_length_b 8.437606
_cell_length_c 9.395438
_cell_angle_alpha 90.000000
_cell_angle_beta 75.997604
_cell_angle_gamma 90.000000
_cell_volume 557.959219
_symmetry_space_group_name_H-M "C 2"
_symmetry_group_IT_number 5
_symmetry_cell_setting 'monoclinic'
loop_
_space_group_symop_operation_xyz
x,y,z
-x,y,-z
1/2+x,1/2+y,z
1/2-x,1/2+y,-z
loop_
_atom_site_type_symbol
_atom_site_label
_atom_site_fract_x
_atom_site_fract_y
_atom_site_fract_z
Si Si1 0.833066 0.020030 0.831568
Si Si2 0.311665 0.068771 0.617145
Si Si3 0.000000 0.287743 0.000000
Si Si4 0.500000 0.753405 0.500000
Si Si5 0.488300 0.209077 0.176182
O O1 0.920582 0.167210 0.897827
O O2 0.695154 0.104850 0.745000
O O3 0.674915 0.905225 0.934432
O O4 0.993735 0.889738 0.776379
O O5 0.500000 0.141608 0.500000
O O6 0.124068 0.146183 0.583747
O O7 0.340597 0.120022 0.775562
O O8 0.355587 0.883066 0.593662
O O9 0.500000 0.212004 0.000000
#
# Coordination Sequence:
#
# PCOD9128779 Si02
#       5
#     4   4   2   2   4
#     4  12  23  42  64  97 144 182 226 275 357 414
#     4  10  26  51  75 105 145 192 244 295 356 431
#     4  12  20  44  58  94 142 186 214 276 344 428
#     4  10  24  52  76 104 138 200 244 292 350 432
#     4  12  24  48  69 112 138 187 227 302 352 424
#
# _framework density 28.675930000000001
#
# number of rings (size 3 to 8) (size 9 to 14) (size 15 to 20)
#    0.750    0.000    5.000    1.500    1.750    0.000 
#   18.000    0.000    0.000    0.000    0.000    0.000 
#    0.000    0.000    0.000    0.000    0.000    0.000 
#
# Total GULP energy -44784.385676 kJ/mol
# GULP energy per Si atom -5598.048210 kJ/mol
# Density = 2.861066 g / cm^3
# Si number density = 28.675930 Si / 1000 Ang^3
#
#
#
# Elastic Constant Matrix: (Units=GPa)
#
#
# Indices 1 2 3 4 5 6 
#
# 1 234.4937 81.9337 78.0275 0.0000 32.7915 0.0000
# 2 81.9337 290.9729 86.4893 0.0000 28.4040 0.0000
# 3 78.0275 86.4893 149.2942 0.0000 40.0031 0.0000
# 4 0.0000 0.0000 0.0000 69.1008 0.0000 12.3460
# 5 32.7915 28.4040 40.0031 0.0000 75.9100 0.0000
# 6 0.0000 0.0000 0.0000 12.3460 0.0000 83.9375
#
#
#
# Elastic Compliance Matrix: (Units=1/GPa)
#
#
# Indices 1 2 3 4 5 6 
#
# 1 0.005370 -0.000799 -0.002099 0.000000 -0.000915 0.000000
# 2 -0.000799 0.004278 -0.002008 0.000000 -0.000197 0.000000
# 3 -0.002099 -0.002008 0.009914 0.000000 -0.003567 0.000000
# 4 0.000000 0.000000 0.000000 0.014862 0.000000 -0.002186
# 5 -0.000915 -0.000197 -0.003567 0.000000 0.015522 0.000000
# 6 0.000000 0.000000 0.000000 -0.002186 0.000000 0.012235
#
#
# Mechanical properties :
#
#
# Convention : Reuss Voigt Hill
#
# Bulk Modulus (GPa) = 102.55428 129.74020 116.14724
# Shear Modulus (GPa) = 66.45256 74.34366 70.39811
#
# Velocity S-wave (km/s) = 4.81912 5.09723 4.96013
# Velocity P-wave (km/s) = 8.17350 8.94338 8.56709
#
# Compressibility (1/GPa) = 0.00975093
#
# Stress axis : x y z
#
# Youngs Moduli (GPa) = 186.22329 233.76578 100.87024
#
# Poissons Ratio (x) = 0.18678 0.21168
# Poissons Ratio (y) = 0.14879 0.20252
# Poissons Ratio (z) = 0.39080 0.46933
#
# Static dielectric constant tensor:
#      x y z
#    x 2.491580 0.000000 -0.187330 
#    y 0.000000 2.135690 0.000000 
#    z -0.187330 0.000000 2.310010 
# 
# From -- ./inp_files/34582.got.cif
#   From: 2010.05.17/outbox.cif.g08.bks.cpg/sg5_18_cif.got.tgz:34582.got - 2010.06.03 18:56:24.
