data_PCOD9128905
_publ_section_title
;
Structure prediction by ZEFSAII (Michael W. Deem and Ramdas Pophale) SiO2 
 PCOD9128905
Probable space group: C 2
;
_chemical_formula_sum "Si O2"
_cell_formula_units_Z 12
_cell_length_a 13.671817
_cell_length_b 4.643705
_cell_length_c 9.053742
_cell_angle_alpha 90.000000
_cell_angle_beta 45.576003
_cell_angle_gamma 90.000000
_cell_volume 410.512515
_symmetry_space_group_name_H-M "C 2"
_symmetry_group_IT_number 5
_symmetry_cell_setting 'monoclinic'
loop_
_space_group_symop_operation_xyz
x,y,z
-x,y,-z
1/2+x,1/2+y,z
1/2-x,1/2+y,-z
loop_
_atom_site_type_symbol
_atom_site_label
_atom_site_fract_x
_atom_site_fract_y
_atom_site_fract_z
Si Si1 0.081660 0.162210 0.546621
Si Si2 0.830958 0.437767 0.973404
Si Si3 0.351122 0.491203 0.208265
O O1 0.206649 0.333469 0.343255
O O2 0.000000 0.009393 0.500000
O O3 0.137084 0.989681 0.626728
O O4 0.971780 0.367203 0.743026
O O5 0.839782 0.292902 0.127673
O O6 0.792994 0.764700 0.976589
O O7 0.500000 0.369049 0.000000
#
# Coordination Sequence:
#
# PCOD9128905 Si02
#       3
#     4   4   4
#     4  11  24  47  75 115 147 209 251 317 385 460
#     4  11  25  49  78 112 155 202 255 319 384 456
#     4  10  25  47  72 115 155 199 259 321 381 462
#
# _framework density 29.231748
#
# number of rings (size 3 to 8) (size 9 to 14) (size 15 to 20)
#    0.000    1.333    3.333    0.000    4.667    5.333 
#    0.000    8.333    0.000    0.000    0.000    0.000 
#    0.000    0.000    0.000    0.000    0.000    0.000 
#
# Total GULP energy -33642.397995 kJ/mol
# GULP energy per Si atom -5607.066333 kJ/mol
# Density = 2.916522 g / cm^3
# Si number density = 29.231748 Si / 1000 Ang^3
#
#
#
# Elastic Constant Matrix: (Units=GPa)
#
#
# Indices 1 2 3 4 5 6 
#
# 1 203.4952 12.2721 42.2399 -0.0015 26.8311 -0.0001
# 2 12.2721 70.7206 20.9214 -0.0102 -5.6418 0.0068
# 3 42.2399 20.9214 167.8093 -0.0015 17.6503 0.0016
# 4 -0.0015 -0.0102 -0.0015 29.1253 0.0005 -3.0186
# 5 26.8311 -5.6418 17.6503 0.0005 82.9036 0.0000
# 6 -0.0001 0.0068 0.0016 -3.0186 0.0000 40.4418
#
#
#
# Elastic Compliance Matrix: (Units=1/GPa)
#
#
# Indices 1 2 3 4 5 6 
#
# 1 0.005393 -0.000734 -0.001102 0.000000 -0.001561 0.000000
# 2 -0.000734 0.014947 -0.001852 0.000005 0.001649 -0.000002
# 3 -0.001102 -0.001852 0.006591 0.000000 -0.001173 0.000000
# 4 0.000000 0.000005 0.000000 0.034602 0.000000 0.002583
# 5 -0.001561 0.001649 -0.001173 0.000000 0.012929 0.000000
# 6 0.000000 -0.000002 0.000000 0.002583 0.000000 0.024920
#
#
# Mechanical properties :
#
#
# Convention : Reuss Voigt Hill
#
# Bulk Modulus (GPa) = 51.14002 65.87689 58.50846
# Shear Modulus (GPa) = 44.13986 54.93358 49.53672
#
# Velocity S-wave (km/s) = 3.89008 4.33973 4.12104
# Velocity P-wave (km/s) = 6.14082 6.90623 6.53474
#
# Compressibility (1/GPa) = 0.01955416
#
# Stress axis : x y z
#
# Youngs Moduli (GPa) = 185.42932 66.90278 151.72857
#
# Poissons Ratio (x) = 0.04913 0.16717
# Poissons Ratio (y) = 0.13618 0.28102
# Poissons Ratio (z) = 0.20429 0.12391
#
# Static dielectric constant tensor:
#      x y z
#    x 2.280710 0.000000 0.081120 
#    y 0.000000 2.350670 0.000000 
#    z 0.081120 0.000000 2.174990 
# 
# From -- ./inp_files/17682.got.cif
#   From: 2010.05.17/outbox.cif.g08.bks.cpg/sg5_9_cif.got.tgz:17682.got - 2010.06.03 18:56:24.
