data_PCOD9128961
_publ_section_title
;
Structure prediction by ZEFSAII (Michael W. Deem and Ramdas Pophale) SiO2 
 PCOD9128961
Probable space group: C 2
;
_chemical_formula_sum "Si O2"
_cell_formula_units_Z 20
_cell_length_a 17.114491
_cell_length_b 7.609880
_cell_length_c 11.199802
_cell_angle_alpha 90.000000
_cell_angle_beta 28.542479
_cell_angle_gamma 90.000000
_cell_volume 696.959499
_symmetry_space_group_name_H-M "C 2"
_symmetry_group_IT_number 5
_symmetry_cell_setting 'monoclinic'
loop_
_space_group_symop_operation_xyz
x,y,z
-x,y,-z
1/2+x,1/2+y,z
1/2-x,1/2+y,-z
loop_
_atom_site_type_symbol
_atom_site_label
_atom_site_fract_x
_atom_site_fract_y
_atom_site_fract_z
Si Si1 0.338844 0.829090 0.855391
Si Si2 0.095255 0.932274 0.982108
Si Si3 0.914464 0.027427 0.440857
Si Si4 0.910652 0.615446 0.448883
Si Si5 0.407706 0.966924 0.011558
O O1 0.446413 0.655050 0.693966
O O2 0.441513 0.005164 0.691723
O O3 0.321324 0.852063 0.022221
O O4 0.188478 0.835966 0.967637
O O5 0.955074 0.037394 0.245144
O O6 0.000000 0.844938 0.000000
O O7 0.241031 0.038353 0.723039
O O8 0.918676 0.820628 0.462728
O O9 0.738177 0.076948 0.729686
O O10 0.951350 0.566511 0.255203
O O11 0.500000 0.878269 0.000000
#
# Coordination Sequence:
#
# PCOD9128961 Si02
#       5
#     4   4   4   4   4
#     4  10  28  54  86 121 174 224 286 352 427 512
#     4  12  28  57  87 126 179 226 285 366 427 512
#     4  12  27  52  90 120 166 234 280 353 436 507
#     4  10  27  53  83 123 172 221 287 354 430 511
#     4  10  25  51  82 129 174 221 289 354 431 519
#
# _framework density 28.696072999999998
#
# number of rings (size 3 to 8) (size 9 to 14) (size 15 to 20)
#    1.200    0.000    0.000    3.000    5.600    6.400 
#    7.200    0.000    0.000    1.200    0.000    0.000 
#    0.000    0.000    0.000    0.000    0.000    0.000 
#
# Total GULP energy -55911.344425 kJ/mol
# GULP energy per Si atom -5591.134443 kJ/mol
# Density = 2.863076 g / cm^3
# Si number density = 28.696073 Si / 1000 Ang^3
#
#
#
# Elastic Constant Matrix: (Units=GPa)
#
#
# Indices 1 2 3 4 5 6 
#
# 1 290.4805 60.8353 102.0832 -0.0001 14.3327 -0.0001
# 2 60.8353 137.2762 47.0924 -0.0010 -8.3595 0.0002
# 3 102.0832 47.0924 269.2959 -0.0005 31.1587 0.0001
# 4 -0.0001 -0.0010 -0.0005 49.2229 0.0001 -0.1003
# 5 14.3327 -8.3595 31.1587 0.0001 56.9639 0.0001
# 6 -0.0001 0.0002 0.0001 -0.1003 0.0001 14.2769
#
#
#
# Elastic Compliance Matrix: (Units=1/GPa)
#
#
# Indices 1 2 3 4 5 6 
#
# 1 0.004229 -0.001471 -0.001279 0.000000 -0.000580 0.000000
# 2 -0.001471 0.008482 -0.001188 0.000000 0.002264 0.000000
# 3 -0.001279 -0.001188 0.004685 0.000000 -0.002415 0.000000
# 4 0.000000 0.000000 0.000000 0.020316 0.000000 0.000143
# 5 -0.000580 0.002264 -0.002415 0.000000 0.019354 0.000000
# 6 0.000000 0.000000 0.000000 0.000143 0.000000 0.070044
#
#
# Mechanical properties :
#
#
# Convention : Reuss Voigt Hill
#
# Bulk Modulus (GPa) = 105.02550 124.11938 114.57244
# Shear Modulus (GPa) = 36.19045 56.56219 46.37632
#
# Velocity S-wave (km/s) = 3.55514 4.44450 4.02446
# Velocity P-wave (km/s) = 7.31647 8.34776 7.84907
#
# Compressibility (1/GPa) = 0.00952150
#
# Stress axis : x y z
#
# Youngs Moduli (GPa) = 236.48805 117.90158 213.43613
#
# Poissons Ratio (x) = 0.17339 0.27290
# Poissons Ratio (y) = 0.34779 0.25350
# Poissons Ratio (z) = 0.30238 0.14003
#
# Static dielectric constant tensor:
#      x y z
#    x 2.173590 0.000000 0.042450 
#    y 0.000000 2.276760 0.000000 
#    z 0.042450 0.000000 2.247070 
# 
# From -- ./inp_files/44277.got.cif
#   From: 2010.05.17/outbox.cif.g08.bks.cpg/sg5_23_cif.got.tgz:44277.got - 2010.06.03 18:56:24.
