data_PCOD9128372
_publ_section_title
;
Structure prediction by ZEFSAII (Michael W. Deem and Ramdas Pophale) SiO2 
 PCOD9128372
Probable space group: C 2
;
_chemical_formula_sum "Si O2"
_cell_formula_units_Z 18
_cell_length_a 11.182216
_cell_length_b 9.013747
_cell_length_c 9.537535
_cell_angle_alpha 90.000000
_cell_angle_beta 59.378390
_cell_angle_gamma 90.000000
_cell_volume 827.266582
_symmetry_space_group_name_H-M "C 2"
_symmetry_group_IT_number 5
_symmetry_cell_setting 'monoclinic'
loop_
_space_group_symop_operation_xyz
x,y,z
-x,y,-z
1/2+x,1/2+y,z
1/2-x,1/2+y,-z
loop_
_atom_site_type_symbol
_atom_site_label
_atom_site_fract_x
_atom_site_fract_y
_atom_site_fract_z
Si Si1 0.919837 0.091440 0.690365
Si Si2 0.000000 0.647476 0.500000
Si Si3 0.816714 0.404965 0.750700
Si Si4 0.134715 0.552153 0.988592
Si Si5 0.533423 0.319746 0.768455
O O1 0.924928 0.268703 0.701811
O O2 0.000000 0.054465 0.500000
O O3 0.755315 0.057497 0.800674
O O4 0.982135 0.986961 0.772754
O O5 0.877239 0.538071 0.621639
O O6 0.955168 0.743687 0.392009
O O7 0.803463 0.469141 0.914427
O O8 0.678537 0.342046 0.761048
O O9 0.072697 0.708818 0.086520
O O10 0.000000 0.477216 0.000000
#
# Coordination Sequence:
#
# PCOD9128372 Si02
#       5
#     4   2   4   4   4
#     4  12  25  45  73 105 140 187 238 290 351 417
#     4  10  24  42  72 112 144 184 234 296 362 406
#     4  11  25  45  74 105 142 190 236 291 356 420
#     4  11  25  49  71 101 149 188 233 293 353 419
#     4  11  25  47  73 104 145 187 236 295 350 425
#
# _framework density 21.758402
#
# number of rings (size 3 to 8) (size 9 to 14) (size 15 to 20)
#    0.000    0.889    4.444    1.333    3.111    0.000 
#   12.000    0.000    0.000    0.000    0.000    0.000 
#    0.000    0.000    0.000    0.000    0.000    0.000 
#
# Total GULP energy -50211.768538 kJ/mol
# GULP energy per Si atom -5579.085393 kJ/mol
# Density = 2.170888 g / cm^3
# Si number density = 21.758402 Si / 1000 Ang^3
#
#
#
# Elastic Constant Matrix: (Units=GPa)
#
#
# Indices 1 2 3 4 5 6 
#
# 1 138.4354 61.2230 66.8400 0.0000 13.4191 0.0000
# 2 61.2230 120.1583 33.1977 0.0000 12.9498 0.0000
# 3 66.8400 33.1977 163.2340 0.0000 -7.3225 0.0000
# 4 0.0000 0.0000 0.0000 4.1991 0.0000 -8.5868
# 5 13.4191 12.9498 -7.3225 0.0000 27.0736 0.0000
# 6 0.0000 0.0000 0.0000 -8.5868 0.0000 35.5128
#
#
#
# Elastic Compliance Matrix: (Units=1/GPa)
#
#
# Indices 1 2 3 4 5 6 
#
# 1 0.011526 -0.004231 -0.004074 0.000000 -0.004791 0.000000
# 2 -0.004231 0.011022 -0.000660 0.000000 -0.003353 0.000000
# 3 -0.004074 -0.000660 0.008132 0.000000 0.004534 0.000000
# 4 0.000000 0.000000 0.000000 0.471071 0.000000 0.113903
# 5 -0.004791 -0.003353 0.004534 0.000000 0.042141 0.000000
# 6 0.000000 0.000000 0.000000 0.113903 0.000000 0.055700
#
#
# Mechanical properties :
#
#
# Convention : Reuss Voigt Hill
#
# Bulk Modulus (GPa) = 78.42666 82.70546 80.56606
# Shear Modulus (GPa) = 8.04154 30.72823 19.38488
#
# Velocity S-wave (km/s) = 1.92454 3.76206 2.98806
# Velocity P-wave (km/s) = 6.40789 7.54746 7.00090
#
# Compressibility (1/GPa) = 0.01275077
#
# Stress axis : x y z
#
# Youngs Moduli (GPa) = 86.75881 90.73044 122.97151
#
# Poissons Ratio (x) = 0.38387 0.50101
# Poissons Ratio (y) = 0.36706 0.08110
# Poissons Ratio (z) = 0.35347 0.05984
#
# Static dielectric constant tensor:
#      x y z
#    x 1.786990 0.000000 -0.009450 
#    y 0.000000 1.830390 0.000000 
#    z -0.009450 0.000000 1.831760 
# 
# From -- ./inp_files/18211.got.cif
#   From: 2010.05.17/outbox.cif.g08.bks.cpg/sg5_10_cif.got.tgz:18211.got - 2010.06.03 18:56:24.
