data_PCOD9128512
_publ_section_title
;
Structure prediction by ZEFSAII (Michael W. Deem and Ramdas Pophale) SiO2 
 PCOD9128512
Probable space group: C 2
;
_chemical_formula_sum "Si O2"
_cell_formula_units_Z 22
_cell_length_a 5.184838
_cell_length_b 15.502630
_cell_length_c 12.606521
_cell_angle_alpha 90.000000
_cell_angle_beta 67.629715
_cell_angle_gamma 90.000000
_cell_volume 937.037846
_symmetry_space_group_name_H-M "C 2"
_symmetry_group_IT_number 5
_symmetry_cell_setting 'monoclinic'
loop_
_space_group_symop_operation_xyz
x,y,z
-x,y,-z
1/2+x,1/2+y,z
1/2-x,1/2+y,-z
loop_
_atom_site_type_symbol
_atom_site_label
_atom_site_fract_x
_atom_site_fract_y
_atom_site_fract_z
Si Si1 0.810113 0.330940 0.431042
Si Si2 0.500000 0.671139 0.000000
Si Si3 0.654012 0.754409 0.189284
Si Si4 0.000000 0.999634 0.500000
Si Si5 0.954040 0.062811 0.734966
Si Si6 0.000000 0.865359 0.000000
Si Si7 0.352175 0.018948 0.871942
O O1 0.500000 0.292936 0.500000
O O2 0.754937 0.433346 0.442155
O O3 0.000000 0.305366 0.500000
O O4 0.960194 0.307486 0.298867
O O5 0.516226 0.731275 0.098755
O O6 0.241316 0.603812 0.046720
O O7 0.664503 0.659953 0.238691
O O8 0.936257 0.803887 0.111053
O O9 0.052941 0.049891 0.599642
O O10 0.676877 0.008816 0.801491
O O11 0.182407 0.036610 0.787877
O O12 0.249064 0.934243 0.949620
#
# Coordination Sequence:
#
# PCOD9128512 Si02
#       7
#     4   2   4   2   4   2   4
#     4  10  26  46  71 101 145 181 241 290 344 414
#     4   9  22  44  68 101 140 182 220 291 352 416
#     4  11  24  44  71 108 143 182 236 294 353 415
#     4  10  26  44  70  94 134 192 232 280 344 408
#     4  11  25  44  69  98 138 182 232 285 338 418
#     4  11  24  38  74 101 140 182 224 291 352 412
#     4  10  24  45  66 101 137 179 229 278 351 422
#
# _framework density 23.478241000000001
#
# number of rings (size 3 to 8) (size 9 to 14) (size 15 to 20)
#    0.545    1.091    0.000    2.182    6.364   13.091 
#    0.000    0.000    0.000    0.000    0.000    0.000 
#    0.000    0.000    0.000    0.000    0.000    0.000 
#
# Total GULP energy -61439.552074 kJ/mol
# GULP energy per Si atom -5585.413825 kJ/mol
# Density = 2.342480 g / cm^3
# Si number density = 23.478241 Si / 1000 Ang^3
#
#
#
# Elastic Constant Matrix: (Units=GPa)
#
#
# Indices 1 2 3 4 5 6 
#
# 1 97.1908 17.4983 45.9663 0.0000 11.3640 0.0000
# 2 17.4983 115.3415 73.6846 0.0000 -2.5489 0.0000
# 3 45.9663 73.6846 213.5741 0.0000 0.6446 0.0000
# 4 0.0000 0.0000 0.0000 57.8240 0.0000 -14.9219
# 5 11.3640 -2.5489 0.6446 0.0000 34.7453 0.0000
# 6 0.0000 0.0000 0.0000 -14.9219 0.0000 4.9700
#
#
#
# Elastic Compliance Matrix: (Units=1/GPa)
#
#
# Indices 1 2 3 4 5 6 
#
# 1 0.011962 -0.000338 -0.002446 0.000000 -0.003892 0.000000
# 2 -0.000338 0.011158 -0.003780 0.000000 0.000999 0.000000
# 3 -0.002446 -0.003780 0.006512 0.000000 0.000402 0.000000
# 4 0.000000 0.000000 0.000000 0.076791 0.000000 0.230557
# 5 -0.003892 0.000999 0.000402 0.000000 0.030120 0.000000
# 6 0.000000 0.000000 0.000000 0.230557 0.000000 0.893431
#
#
# Mechanical properties :
#
#
# Convention : Reuss Voigt Hill
#
# Bulk Modulus (GPa) = 60.59375 77.82275 69.20825
# Shear Modulus (GPa) = 4.76825 38.77167 21.76996
#
# Velocity S-wave (km/s) = 1.42665 4.06814 3.04836
# Velocity P-wave (km/s) = 5.34587 7.43539 6.47546
#
# Compressibility (1/GPa) = 0.01650335
#
# Stress axis : x y z
#
# Youngs Moduli (GPa) = 83.59934 89.62189 153.57360
#
# Poissons Ratio (x) = 0.03030 0.37566
# Poissons Ratio (y) = 0.02826 0.58048
# Poissons Ratio (z) = 0.20449 0.33876
#
# Static dielectric constant tensor:
#      x y z
#    x 1.920770 0.000000 -0.018090 
#    y 0.000000 1.944190 0.000000 
#    z -0.018090 0.000000 1.882630 
# 
# From -- ./inp_files/33508.got.cif
#   From: 2010.05.17/outbox.cif.g08.bks.cpg/sg5_17_cif.got.tgz:33508.got - 2010.06.03 18:56:24.
