data_PCOD9128805
_publ_section_title
;
Structure prediction by ZEFSAII (Michael W. Deem and Ramdas Pophale) SiO2 
 PCOD9128805
Probable space group: C 2
;
_chemical_formula_sum "Si O2"
_cell_formula_units_Z 24
_cell_length_a 26.472698
_cell_length_b 5.186254
_cell_length_c 19.657509
_cell_angle_alpha 90.000000
_cell_angle_beta 156.286516
_cell_angle_gamma 90.000000
_cell_volume 1085.382616
_symmetry_space_group_name_H-M "C 2"
_symmetry_group_IT_number 5
_symmetry_cell_setting 'monoclinic'
loop_
_space_group_symop_operation_xyz
x,y,z
-x,y,-z
1/2+x,1/2+y,z
1/2-x,1/2+y,-z
loop_
_atom_site_type_symbol
_atom_site_label
_atom_site_fract_x
_atom_site_fract_y
_atom_site_fract_z
Si Si1 0.219743 0.646920 0.339990
Si Si2 0.422054 0.102027 0.704097
Si Si3 0.423545 0.603979 0.065904
Si Si4 0.577186 0.301099 0.444644
Si Si5 0.321900 0.651622 0.791384
Si Si6 0.784975 0.741952 0.085192
O O1 0.194638 0.643321 0.389039
O O2 0.364355 0.583703 0.499077
O O3 0.149527 0.404099 0.218136
O O4 0.165793 0.899815 0.239134
O O5 0.521503 0.324739 0.847665
O O6 0.394911 0.149194 0.591570
O O7 0.480940 0.824746 0.791787
O O8 0.394415 0.628952 0.950524
O O9 0.295863 0.656513 0.949913
O O10 0.670857 0.186272 0.616498
O O11 0.431472 0.291716 0.279712
O O12 0.771587 0.504887 0.015787
#
# Coordination Sequence:
#
# PCOD9128805 Si02
#       6
#     4   4   4   4   4   4
#     4  10  25  42  68 101 135 181 218 281 338 397
#     4  12  25  41  73  97 138 175 235 268 337 407
#     4  12  25  44  69 104 129 184 222 281 339 408
#     4  10  26  43  70  94 136 175 226 282 326 408
#     4  10  25  43  66  99 142 170 228 271 352 398
#     4  12  24  45  70 100 131 173 230 288 336 396
#
# _framework density 22.112019
#
# number of rings (size 3 to 8) (size 9 to 14) (size 15 to 20)
#    1.000    0.000    3.333    2.000    7.000    4.667 
#    0.000    0.000    3.667    0.000    0.000    0.000 
#    0.000    0.000    0.000    0.000    0.000    0.000 
#
# Total GULP energy -67118.633572 kJ/mol
# GULP energy per Si atom -5593.219464 kJ/mol
# Density = 2.206169 g / cm^3
# Si number density = 22.112019 Si / 1000 Ang^3
#
#
#
# Elastic Constant Matrix: (Units=GPa)
#
#
# Indices 1 2 3 4 5 6 
#
# 1 55.5022 14.0914 21.7287 0.0001 16.2914 -0.0001
# 2 14.0914 119.8346 25.4321 0.0011 -9.4298 0.0001
# 3 21.7287 25.4321 109.2423 0.0005 4.6981 -0.0001
# 4 0.0001 0.0011 0.0005 8.9465 0.0001 1.4340
# 5 16.2914 -9.4298 4.6981 0.0001 53.9174 -0.0001
# 6 -0.0001 0.0001 -0.0001 1.4340 -0.0001 27.1286
#
#
#
# Elastic Compliance Matrix: (Units=1/GPa)
#
#
# Indices 1 2 3 4 5 6 
#
# 1 0.021981 -0.002366 -0.003531 0.000000 -0.006748 0.000000
# 2 -0.002366 0.009195 -0.001777 -0.000001 0.002478 0.000000
# 3 -0.003531 -0.001777 0.010276 0.000000 -0.000139 0.000000
# 4 0.000000 -0.000001 0.000000 0.112730 0.000000 -0.005959
# 5 -0.006748 0.002478 -0.000139 0.000000 0.021031 0.000000
# 6 0.000000 0.000000 0.000000 -0.005959 0.000000 0.037176
#
#
# Mechanical properties :
#
#
# Convention : Reuss Voigt Hill
#
# Bulk Modulus (GPa) = 38.30796 45.23150 41.76973
# Shear Modulus (GPa) = 21.14705 32.88696 27.01701
#
# Velocity S-wave (km/s) = 3.09586 3.86072 3.49925
# Velocity P-wave (km/s) = 5.49011 6.35402 5.93780
#
# Compressibility (1/GPa) = 0.02610423
#
# Stress axis : x y z
#
# Youngs Moduli (GPa) = 45.49348 108.75325 97.31531
#
# Poissons Ratio (x) = 0.25735 0.34362
# Poissons Ratio (y) = 0.10766 0.17289
# Poissons Ratio (z) = 0.16064 0.19321
#
# Static dielectric constant tensor:
#      x y z
#    x 1.792820 0.000000 0.043520 
#    y 0.000000 1.814840 0.000000 
#    z 0.043520 0.000000 1.812680 
# 
# From -- ./inp_files/63182.got.cif
#   From: 2010.05.17/outbox.cif.g08.bks.cpg/sg5_32_cif.got.tgz:63182.got - 2010.06.03 18:56:24.
