data_PCOD9128250
_publ_section_title
;
Structure prediction by ZEFSAII (Michael W. Deem and Ramdas Pophale) SiO2 
 PCOD9128250
Probable space group: C 2
;
_chemical_formula_sum "Si O2"
_cell_formula_units_Z 32
_cell_length_a 8.325492
_cell_length_b 11.136155
_cell_length_c 25.679031
_cell_angle_alpha 90.000000
_cell_angle_beta 143.537375
_cell_angle_gamma 90.000000
_cell_volume 1414.908279
_symmetry_space_group_name_H-M "C 2"
_symmetry_group_IT_number 5
_symmetry_cell_setting 'monoclinic'
loop_
_space_group_symop_operation_xyz
x,y,z
-x,y,-z
1/2+x,1/2+y,z
1/2-x,1/2+y,-z
loop_
_atom_site_type_symbol
_atom_site_label
_atom_site_fract_x
_atom_site_fract_y
_atom_site_fract_z
Si Si1 0.293995 0.187610 0.337535
Si Si2 0.417308 0.275231 0.673475
Si Si3 0.174320 0.550460 0.875857
Si Si4 0.728936 0.806367 0.828521
Si Si5 0.150081 0.803543 0.845551
Si Si6 0.947104 0.031953 0.322746
Si Si7 0.555690 0.056601 0.075614
Si Si8 0.894414 0.148623 0.526274
O O1 0.398996 0.171064 0.305191
O O2 0.139371 0.082913 0.327463
O O3 0.586644 0.192810 0.442129
O O4 0.062499 0.290908 0.275666
O O5 0.475790 0.290791 0.748404
O O6 0.515004 0.390930 0.668601
O O7 0.103144 0.258303 0.582780
O O8 0.305016 0.675947 0.890882
O O9 0.859148 0.562689 0.774066
O O10 0.170923 0.553209 0.937799
O O11 0.251414 0.421705 0.871967
O O12 0.962153 0.817050 0.846728
O O13 0.773028 0.677330 0.867690
O O14 0.312015 0.926023 0.881830
O O15 0.037878 0.079837 0.402710
O O16 0.500000 0.063011 0.000000
O O17 0.000000 0.084483 0.500000
#
# Coordination Sequence:
#
# PCOD9128250 Si02
#       8
#     4   4   4   4   4   4   4   4
#     4  11  21  38  65  90 131 182 227 276 344 391
#     4  11  22  41  64  94 133 179 233 287 345 412
#     4  11  23  42  71 101 136 176 235 284 344 422
#     4  11  23  44  70 103 138 183 232 286 350 421
#     4  11  22  43  70 104 133 179 230 285 348 424
#     4  12  21  43  64  90 133 182 229 286 345 411
#     4  11  25  47  71 101 141 179 225 287 354 425
#     4  10  24  40  59  96 135 176 240 290 337 401
#
# _framework density 22.616306999999999
#
# number of rings (size 3 to 8) (size 9 to 14) (size 15 to 20)
#    0.000    1.000    6.250    0.375    0.000    8.000 
#    0.000    3.125    0.000    0.000    0.000    0.000 
#    0.000    0.000    0.000    0.000    0.000    0.000 
#
# Total GULP energy -89250.564523 kJ/mol
# GULP energy per Si atom -5578.160283 kJ/mol
# Density = 2.256483 g / cm^3
# Si number density = 22.616307 Si / 1000 Ang^3
#
#
#
# Elastic Constant Matrix: (Units=GPa)
#
#
# Indices 1 2 3 4 5 6 
#
# 1 39.9452 42.2013 19.9698 0.0000 -16.5806 0.0000
# 2 42.2013 137.5464 28.6009 0.0000 -6.3999 0.0000
# 3 19.9698 28.6009 83.2664 0.0000 -28.4273 0.0000
# 4 0.0000 0.0000 0.0000 49.4296 0.0000 -18.7441
# 5 -16.5806 -6.3999 -28.4273 0.0000 41.2801 0.0000
# 6 0.0000 0.0000 0.0000 -18.7441 0.0000 45.0739
#
#
#
# Elastic Compliance Matrix: (Units=1/GPa)
#
#
# Indices 1 2 3 4 5 6 
#
# 1 0.045989 -0.013137 -0.001185 0.000000 0.015619 0.000000
# 2 -0.013137 0.011604 -0.002644 0.000000 -0.005298 0.000000
# 3 -0.001185 -0.002644 0.016864 0.000000 0.010728 0.000000
# 4 0.000000 0.000000 0.000000 0.024018 0.000000 0.009988
# 5 0.015619 -0.005298 0.010728 0.000000 0.037065 0.000000
# 6 0.000000 0.000000 0.000000 0.009988 0.000000 0.026339
#
#
# Mechanical properties :
#
#
# Convention : Reuss Voigt Hill
#
# Bulk Modulus (GPa) = 24.67546 49.14465 36.91006
# Shear Modulus (GPa) = 23.88684 38.48912 31.18798
#
# Velocity S-wave (km/s) = 3.25341 4.12980 3.71752
# Velocity P-wave (km/s) = 5.00471 6.67212 5.89764
#
# Compressibility (1/GPa) = 0.04052610
#
# Stress axis : x y z
#
# Youngs Moduli (GPa) = 21.74435 86.17589 59.29623
#
# Poissons Ratio (x) = 1.13209 0.07025
# Poissons Ratio (y) = 0.28566 0.15679
# Poissons Ratio (z) = 0.02576 0.22786
#
# Static dielectric constant tensor:
#      x y z
#    x 1.493510 0.000000 -0.355590 
#    y 0.000000 1.860400 0.000000 
#    z -0.355590 0.000000 1.492280 
# 
# From -- ./inp_files/67971.got.cif
#   From: 2010.05.17/outbox.cif.g08.bks.cpg/sg5_34_cif.got.tgz:67971.got - 2010.06.03 18:56:24.
