data_PCOD9128857
_publ_section_title
;
Structure prediction by ZEFSAII (Michael W. Deem and Ramdas Pophale) SiO2 
 PCOD9128857
Probable space group: C 2
;
_chemical_formula_sum "Si O2"
_cell_formula_units_Z 20
_cell_length_a 18.738125
_cell_length_b 4.804175
_cell_length_c 8.775951
_cell_angle_alpha 90.000000
_cell_angle_beta 112.244028
_cell_angle_gamma 90.000000
_cell_volume 731.228460
_symmetry_space_group_name_H-M "C 2"
_symmetry_group_IT_number 5
_symmetry_cell_setting 'monoclinic'
loop_
_space_group_symop_operation_xyz
x,y,z
-x,y,-z
1/2+x,1/2+y,z
1/2-x,1/2+y,-z
loop_
_atom_site_type_symbol
_atom_site_label
_atom_site_fract_x
_atom_site_fract_y
_atom_site_fract_z
Si Si1 0.437186 0.382910 0.237328
Si Si2 0.000000 0.610373 0.000000
Si Si3 0.769859 0.104087 0.113634
Si Si4 0.924933 0.525837 0.658991
Si Si5 0.000000 0.354194 0.500000
Si Si6 0.218358 0.863079 0.392236
O O1 0.349013 0.433104 0.200924
O O2 0.490833 0.131859 0.349135
O O3 0.482322 0.640214 0.340063
O O4 0.449979 0.304477 0.071245
O O5 0.946557 0.430818 0.844820
O O6 0.737217 0.244122 0.240518
O O7 0.716951 0.863325 0.992749
O O8 0.904283 0.384659 0.486153
O O9 0.869816 0.783764 0.644937
O O10 0.234529 0.183843 0.441994
#
# Coordination Sequence:
#
# PCOD9128857 Si02
#       6
#     4   2   4   4   2   4
#     4  10  25  45  70 101 141 186 244 290 360 425
#     4   8  22  42  68  92 144 174 240 290 352 418
#     4  12  28  48  76 107 151 193 245 302 374 435
#     4  10  25  45  70 102 143 186 245 291 362 427
#     4  12  24  38  80  98 140 182 252 296 350 426
#     4  12  28  47  76 108 152 193 243 303 376 434
#
# _framework density 27.351230999999999
#
# number of rings (size 3 to 8) (size 9 to 14) (size 15 to 20)
#    1.200    0.000    0.000    4.200   11.200    2.400 
#    0.000    0.000    0.000    0.000    0.000    0.000 
#    0.000    0.000    0.000    0.000    0.000    0.000 
#
# Total GULP energy -55733.419646 kJ/mol
# GULP energy per Si atom -5573.341965 kJ/mol
# Density = 2.728898 g / cm^3
# Si number density = 27.351231 Si / 1000 Ang^3
#
#
#
# Elastic Constant Matrix: (Units=GPa)
#
#
# Indices 1 2 3 4 5 6 
#
# 1 107.7866 7.6792 41.4680 0.0000 -26.8548 0.0000
# 2 7.6792 129.1685 21.7514 0.0000 -17.2109 0.0000
# 3 41.4680 21.7514 143.4438 0.0000 -38.3826 0.0000
# 4 0.0000 0.0000 0.0000 50.2156 0.0000 -12.5171
# 5 -26.8548 -17.2109 -38.3826 0.0000 45.4613 0.0000
# 6 0.0000 0.0000 0.0000 -12.5171 0.0000 18.7156
#
#
#
# Elastic Compliance Matrix: (Units=1/GPa)
#
#
# Indices 1 2 3 4 5 6 
#
# 1 0.011283 0.000343 -0.001932 0.000000 0.005164 0.000000
# 2 0.000343 0.008195 -0.000591 0.000000 0.002806 0.000000
# 3 -0.001932 -0.000591 0.009371 0.000000 0.006547 0.000000
# 4 0.000000 0.000000 0.000000 0.023898 0.000000 0.015983
# 5 0.005164 0.002806 0.006547 0.000000 0.031637 0.000000
# 6 0.000000 0.000000 0.000000 0.015983 0.000000 0.064121
#
#
# Mechanical properties :
#
#
# Convention : Reuss Voigt Hill
#
# Bulk Modulus (GPa) = 40.83557 58.02180 49.42869
# Shear Modulus (GPa) = 31.05032 43.51185 37.28109
#
# Velocity S-wave (km/s) = 3.37299 3.99288 3.69596
# Velocity P-wave (km/s) = 5.48926 6.52051 6.02698
#
# Compressibility (1/GPa) = 0.02448846
#
# Stress axis : x y z
#
# Youngs Moduli (GPa) = 88.62902 122.02818 106.70764
#
# Poissons Ratio (x) = -0.04180 0.20617
# Poissons Ratio (y) = -0.03036 0.06305
# Poissons Ratio (z) = 0.17124 0.07210
#
# Static dielectric constant tensor:
#      x y z
#    x 2.474870 0.000000 0.084040 
#    y 0.000000 2.207390 0.000000 
#    z 0.084040 0.000000 2.121220 
# 
# From -- ./inp_files/26018.got.cif
#   From: 2010.05.17/outbox.cif.g08.bks.cpg/sg5_14_cif.got.tgz:26018.got - 2010.06.03 18:56:24.
