data_PCOD9128985
_publ_section_title
;
Structure prediction by ZEFSAII (Michael W. Deem and Ramdas Pophale) SiO2 
 PCOD9128985
Probable space group: C 2
;
_chemical_formula_sum "Si O2"
_cell_formula_units_Z 30
_cell_length_a 13.495755
_cell_length_b 13.921694
_cell_length_c 9.391779
_cell_angle_alpha 90.000000
_cell_angle_beta 124.821104
_cell_angle_gamma 90.000000
_cell_volume 1448.598363
_symmetry_space_group_name_H-M "C 2"
_symmetry_group_IT_number 5
_symmetry_cell_setting 'monoclinic'
loop_
_space_group_symop_operation_xyz
x,y,z
-x,y,-z
1/2+x,1/2+y,z
1/2-x,1/2+y,-z
loop_
_atom_site_type_symbol
_atom_site_label
_atom_site_fract_x
_atom_site_fract_y
_atom_site_fract_z
Si Si1 0.180545 0.401710 0.070652
Si Si2 0.652797 0.017731 0.339757
Si Si3 0.000000 0.531270 0.500000
Si Si4 0.185122 0.590845 0.883064
Si Si5 0.433991 0.699949 0.090197
Si Si6 0.486252 0.213439 0.837333
Si Si7 0.564908 0.573017 0.399714
Si Si8 0.536189 0.379888 0.692908
O O1 0.145960 0.442336 0.201044
O O2 0.320267 0.369556 0.185327
O O3 0.171787 0.490329 0.954163
O O4 0.106405 0.310857 0.952328
O O5 0.596791 0.119584 0.241418
O O6 0.794315 0.043744 0.479171
O O7 0.577355 0.989695 0.423634
O O8 0.891353 0.585463 0.326946
O O9 0.117107 0.670164 0.918356
O O10 0.319535 0.629282 0.992950
O O11 0.526989 0.670075 0.289625
O O12 0.500000 0.679276 0.000000
O O13 0.462882 0.293470 0.702380
O O14 0.500000 0.262379 0.000000
O O15 0.500000 0.580162 0.500000
O O16 0.501367 0.481786 0.272351
O O17 0.500000 0.382623 0.500000
#
# Coordination Sequence:
#
# PCOD9128985 Si02
#       8
#     4   4   2   4   4   4   4   4
#     4  12  24  46  75 100 144 191 238 288 370 441
#     4  11  23  46  72 103 148 192 237 299 365 429
#     4  10  26  40  72  98 136 182 236 292 350 422
#     4  11  23  47  67 101 142 184 233 291 365 425
#     4  12  27  42  74 107 142 191 238 299 366 433
#     4  11  24  40  72 105 137 184 241 295 353 428
#     4  11  23  48  74 106 147 196 237 301 369 434
#     4  11  23  42  74 105 137 188 246 290 351 438
#
# _framework density 20.709674
#
# number of rings (size 3 to 8) (size 9 to 14) (size 15 to 20)
#    0.000    0.800    6.667    0.800    7.467    1.600 
#    3.600    0.000    0.000    0.000    0.000    0.000 
#    0.000    0.000    0.000    0.000    0.000    0.000 
#
# Total GULP energy -83580.116903 kJ/mol
# GULP energy per Si atom -5572.007794 kJ/mol
# Density = 2.066254 g / cm^3
# Si number density = 20.709674 Si / 1000 Ang^3
#
#
#
# Elastic Constant Matrix: (Units=GPa)
#
#
# Indices 1 2 3 4 5 6 
#
# 1 84.9844 48.6130 8.6668 0.0000 3.8912 0.0000
# 2 48.6130 109.0922 55.2461 0.0000 -8.5623 0.0000
# 3 8.6668 55.2461 59.6355 0.0000 -6.7887 0.0000
# 4 0.0000 0.0000 0.0000 32.6777 0.0000 2.7761
# 5 3.8912 -8.5623 -6.7887 0.0000 34.5345 0.0000
# 6 0.0000 0.0000 0.0000 2.7761 0.0000 28.2794
#
#
#
# Elastic Compliance Matrix: (Units=1/GPa)
#
#
# Indices 1 2 3 4 5 6 
#
# 1 0.018505 -0.013107 0.009049 0.000000 -0.003556 0.000000
# 2 -0.013107 0.026598 -0.022316 0.000000 0.003685 0.000000
# 3 0.009049 -0.022316 0.036191 0.000000 0.000562 0.000000
# 4 0.000000 0.000000 0.000000 0.030859 0.000000 -0.003029
# 5 -0.003556 0.003685 0.000562 0.000000 0.030381 0.000000
# 6 0.000000 0.000000 0.000000 -0.003029 0.000000 0.035659
#
#
# Mechanical properties :
#
#
# Convention : Reuss Voigt Hill
#
# Bulk Modulus (GPa) = 35.03367 53.19600 44.11484
# Shear Modulus (GPa) = 20.79388 28.51073 24.65230
#
# Velocity S-wave (km/s) = 3.17214 3.71440 3.45393
# Velocity P-wave (km/s) = 5.51089 6.64364 6.10360
#
# Compressibility (1/GPa) = 0.02854397
#
# Stress axis : x y z
#
# Youngs Moduli (GPa) = 54.04054 37.59746 27.63155
#
# Poissons Ratio (x) = 0.49280 -0.25003
# Poissons Ratio (y) = 0.70833 0.61661
# Poissons Ratio (z) = -0.48899 0.83901
#
# Static dielectric constant tensor:
#      x y z
#    x 1.878470 0.000000 -0.079670 
#    y 0.000000 1.802440 0.000000 
#    z -0.079670 0.000000 1.797930 
# 
# From -- ./inp_files/20741.got.cif
#   From: 2010.05.17/outbox.cif.g08.bks.cpg/sg5_11_cif.got.tgz:20741.got - 2010.06.03 18:56:24.
