data_PCOD9128729
_publ_section_title
;
Structure prediction by ZEFSAII (Michael W. Deem and Ramdas Pophale) SiO2 
 PCOD9128729
Probable space group: C 2
;
_chemical_formula_sum "Si O2"
_cell_formula_units_Z 28
_cell_length_a 26.677321
_cell_length_b 5.567726
_cell_length_c 8.917783
_cell_angle_alpha 90.000000
_cell_angle_beta 120.224786
_cell_angle_gamma 90.000000
_cell_volume 1144.509549
_symmetry_space_group_name_H-M "C 2"
_symmetry_group_IT_number 5
_symmetry_cell_setting 'monoclinic'
loop_
_space_group_symop_operation_xyz
x,y,z
-x,y,-z
1/2+x,1/2+y,z
1/2-x,1/2+y,-z
loop_
_atom_site_type_symbol
_atom_site_label
_atom_site_fract_x
_atom_site_fract_y
_atom_site_fract_z
Si Si1 0.685827 0.059620 0.586452
Si Si2 0.217328 0.392632 0.953602
Si Si3 0.379366 0.014812 0.971251
Si Si4 0.308563 0.388106 0.658302
Si Si5 0.403334 0.768182 0.735159
Si Si6 0.930840 0.562006 0.361848
Si Si7 0.939551 0.055265 0.495258
O O1 0.688203 0.019138 0.765536
O O2 0.695255 0.314597 0.522412
O O3 0.743835 0.921246 0.618034
O O4 0.628840 0.958654 0.419675
O O5 0.171369 0.366271 0.019278
O O6 0.239491 0.122275 0.945368
O O7 0.416457 0.113793 0.166626
O O8 0.342529 0.201842 0.816222
O O9 0.423419 0.890512 0.919247
O O10 0.349942 0.614621 0.717907
O O11 0.442052 0.617094 0.676680
O O12 0.912433 0.287445 0.372894
O O13 0.000000 0.547253 0.500000
O O14 0.909958 0.798272 0.422073
O O15 0.000000 0.030600 0.500000
#
# Coordination Sequence:
#
# PCOD9128729 Si02
#       7
#     4   4   4   4   4   4   4
#     4  11  23  40  63  96 144 198 234 288 349 439
#     4  12  27  41  64 101 146 196 242 293 352 432
#     4  11  26  43  68 108 147 187 252 304 364 441
#     4  11  23  41  64  98 149 190 242 292 356 434
#     4  11  25  42  72 101 144 194 242 301 371 433
#     4  10  24  49  78 102 139 185 240 309 374 437
#     4  10  24  48  77 103 137 185 245 302 375 446
#
# _framework density 24.464628000000001
#
# number of rings (size 3 to 8) (size 9 to 14) (size 15 to 20)
#    0.000    1.143    2.857    1.714   12.000    0.000 
#    0.000    2.857    0.000    0.000    0.000    0.000 
#    0.000    0.000    0.000    0.000    0.000    0.000 
#
# Total GULP energy -78045.814889 kJ/mol
# GULP energy per Si atom -5574.701064 kJ/mol
# Density = 2.440895 g / cm^3
# Si number density = 24.464628 Si / 1000 Ang^3
#
#
#
# Elastic Constant Matrix: (Units=GPa)
#
#
# Indices 1 2 3 4 5 6 
#
# 1 92.1677 16.3463 36.4319 0.0000 -30.2370 0.0000
# 2 16.3463 105.3741 19.5542 0.0000 -17.1109 0.0000
# 3 36.4319 19.5542 114.5003 0.0000 -39.8217 0.0000
# 4 0.0000 0.0000 0.0000 -51.9543 0.0000 42.9903
# 5 -30.2370 -17.1109 -39.8217 0.0000 49.6350 0.0000
# 6 0.0000 0.0000 0.0000 42.9903 0.0000 -7.9068
#
#
#
# Elastic Compliance Matrix: (Units=1/GPa)
#
#
# Indices 1 2 3 4 5 6 
#
# 1 0.013948 -0.000713 -0.002006 0.000000 0.006642 0.000000
# 2 -0.000713 0.010131 -0.000610 0.000000 0.002569 0.000000
# 3 -0.002006 -0.000610 0.012453 0.000000 0.008558 0.000000
# 4 0.000000 0.000000 0.000000 0.005501 0.000000 0.029909
# 5 0.006642 0.002569 0.008558 0.000000 0.031945 0.000000
# 6 0.000000 0.000000 0.000000 0.029909 0.000000 0.036145
#
#
# Mechanical properties :
#
#
# Convention : Reuss Voigt Hill
#
# Bulk Modulus (GPa) = 33.47499 50.74521 42.11010
# Shear Modulus (GPa) = 39.45130 13.93543 26.69337
#
# Velocity S-wave (km/s) = 4.02006 2.38925 3.30676
# Velocity P-wave (km/s) = 5.93806 5.32904 5.64177
#
# Compressibility (1/GPa) = 0.02987305
#
# Stress axis : x y z
#
# Youngs Moduli (GPa) = 71.69392 98.70789 80.30497
#
# Poissons Ratio (x) = 0.07037 0.16113
# Poissons Ratio (y) = 0.05111 0.04898
# Poissons Ratio (z) = 0.14385 0.06020
#
# Static dielectric constant tensor:
#      x y z
#    x 3.385560 0.000000 0.758400 
#    y 0.000000 2.022500 0.000000 
#    z 0.758400 0.000000 2.397430 
# 
# From -- ./inp_files/32198.got.cif
#   From: 2010.05.17/outbox.cif.g08.bks.cpg/sg5_17_cif.got.tgz:32198.got - 2010.06.03 18:56:24.
