data_PCOD9128180
_publ_section_title
;
Structure prediction by ZEFSAII (Michael W. Deem and Ramdas Pophale) SiO2 
 PCOD9128180
Probable space group: C 2
;
_chemical_formula_sum "Si O2"
_cell_formula_units_Z 24
_cell_length_a 18.480130
_cell_length_b 5.274117
_cell_length_c 19.106201
_cell_angle_alpha 90.000000
_cell_angle_beta 28.702863
_cell_angle_gamma 90.000000
_cell_volume 894.359586
_symmetry_space_group_name_H-M "C 2"
_symmetry_group_IT_number 5
_symmetry_cell_setting 'monoclinic'
loop_
_space_group_symop_operation_xyz
x,y,z
-x,y,-z
1/2+x,1/2+y,z
1/2-x,1/2+y,-z
loop_
_atom_site_type_symbol
_atom_site_label
_atom_site_fract_x
_atom_site_fract_y
_atom_site_fract_z
Si Si1 0.500000 0.577900 0.500000
Si Si2 0.499584 0.175496 0.398667
Si Si3 0.432538 0.497512 0.863619
Si Si4 0.671826 0.241977 0.582986
Si Si5 0.734146 0.964651 0.297200
Si Si6 0.169769 0.499940 0.979644
Si Si7 0.500000 0.740141 0.000000
O O1 0.545875 0.445845 0.388055
O O2 0.663425 0.700013 0.381020
O O3 0.457137 0.124102 0.356613
O O4 0.632052 0.998434 0.313428
O O5 0.351770 0.136593 0.572810
O O6 0.598245 0.382337 0.710948
O O7 0.421713 0.788787 0.896021
O O8 0.364442 0.293762 0.975648
O O9 0.336017 0.470932 0.873182
O O10 0.729243 0.490827 0.491026
O O11 0.896739 0.061797 0.137463
O O12 0.112547 0.413623 0.951566
#
# Coordination Sequence:
#
# PCOD9128180 Si02
#       7
#     2   4   4   4   4   4   2
#     4   8  18  42  66  84 132 178 202 274 328 406
#     4   9  21  43  63  91 128 176 215 263 341 394
#     4  10  23  49  67  94 139 183 219 267 353 401
#     4  12  27  39  69 101 128 175 225 277 316 400
#     4   9  21  40  65  92 132 167 212 276 337 396
#     4  10  24  46  71  95 136 180 222 281 331 408
#     4  12  24  40  68 106 128 170 232 286 328 386
#
# _framework density 26.834847
#
# number of rings (size 3 to 8) (size 9 to 14) (size 15 to 20)
#    0.000    2.333    0.000    2.000    9.333    0.667 
#   18.000    0.000    0.000    0.000    0.000    0.000 
#    0.000    0.000    0.000    0.000    0.000    0.000 
#
# Total GULP energy -66852.131723 kJ/mol
# GULP energy per Si atom -5571.010977 kJ/mol
# Density = 2.677377 g / cm^3
# Si number density = 26.834847 Si / 1000 Ang^3
#
#
#
# Elastic Constant Matrix: (Units=GPa)
#
#
# Indices 1 2 3 4 5 6 
#
# 1 106.7616 6.5303 -5.3075 0.0617 -9.1757 -0.1230
# 2 6.5303 79.5487 -12.7728 0.2031 -4.9692 -0.4323
# 3 -5.3075 -12.7728 72.4103 0.1491 -12.0671 -0.3112
# 4 0.0617 0.2031 0.1491 -6.9841 -0.0741 7.4389
# 5 -9.1757 -4.9692 -12.0671 -0.0741 28.5117 0.1504
# 6 -0.1230 -0.4323 -0.3112 7.4389 0.1504 -48.2003
#
#
#
# Elastic Compliance Matrix: (Units=1/GPa)
#
#
# Indices 1 2 3 4 5 6 
#
# 1 0.009762 -0.000376 0.001250 0.000053 0.003605 -0.000010
# 2 -0.000376 0.013277 0.002882 0.000328 0.003414 -0.000076
# 3 0.001250 0.002882 0.015665 0.000282 0.007536 -0.000063
# 4 0.000053 0.000328 0.000282 -0.171337 -0.000112 -0.026448
# 5 0.003605 0.003414 0.007536 -0.000112 0.040017 0.000019
# 6 -0.000010 -0.000076 -0.000063 -0.026448 0.000019 -0.024827
#
#
# Mechanical properties :
#
#
# Convention : Reuss Voigt Hill
#
# Bulk Modulus (GPa) = 21.63725 26.18006 23.90866
# Shear Modulus (GPa) = -45.64087 12.68352 -16.47867
#
# Velocity S-wave (km/s) = -4.12856 2.17641 -2.48075
# Velocity P-wave (km/s) = 3.82701 4.01159 0.85054
#
# Compressibility (1/GPa) = 0.04621659
#
# Stress axis : x y z
#
# Youngs Moduli (GPa) = 102.44240 75.32053 63.83578
#
# Poissons Ratio (x) = 0.02829 -0.07979
# Poissons Ratio (y) = 0.03848 -0.18400
# Poissons Ratio (z) = -0.12804 -0.21710
#
# Static dielectric constant tensor:
#      x y z
#    x 2.135600 0.000030 -0.014340 
#    y 0.000030 2.289380 -0.000210 
#    z -0.014340 -0.000210 2.311080 
# 
# From -- ./inp_files/66876.got.cif
#   From: 2010.05.17/outbox.cif.g08.bks.cpg/sg5_34_cif.got.tgz:66876.got - 2010.06.03 18:56:24.
