data_PCOD9128499
_publ_section_title
;
Structure prediction by ZEFSAII (Michael W. Deem and Ramdas Pophale) SiO2 
 PCOD9128499
Probable space group: C 2
;
_chemical_formula_sum "Si O2"
_cell_formula_units_Z 18
_cell_length_a 18.261065
_cell_length_b 8.397698
_cell_length_c 5.070594
_cell_angle_alpha 90.000000
_cell_angle_beta 120.056150
_cell_angle_gamma 90.000000
_cell_volume 673.022867
_symmetry_space_group_name_H-M "C 2"
_symmetry_group_IT_number 5
_symmetry_cell_setting 'monoclinic'
loop_
_space_group_symop_operation_xyz
x,y,z
-x,y,-z
1/2+x,1/2+y,z
1/2-x,1/2+y,-z
loop_
_atom_site_type_symbol
_atom_site_label
_atom_site_fract_x
_atom_site_fract_y
_atom_site_fract_z
Si Si1 0.900122 0.677590 0.793026
Si Si2 0.079711 0.127833 0.280205
Si Si3 0.152219 0.871055 0.794958
Si Si4 0.500000 0.885251 0.500000
Si Si5 0.836355 0.382684 0.912790
O O1 0.888738 0.748328 0.483792
O O2 0.836983 0.526689 0.704891
O O3 0.871613 0.812456 0.955749
O O4 0.000000 0.638007 0.000000
O O5 0.032658 0.276532 0.323641
O O6 0.143510 0.212613 0.190026
O O7 0.119085 0.034623 0.599323
O O8 0.000000 0.037546 0.000000
O O9 0.252395 0.869329 0.930429
O O10 0.586584 0.950456 0.770856
#
# Coordination Sequence:
#
# PCOD9128499 Si02
#       5
#     4   4   4   2   4
#     4  12  29  50  76 116 156 202 250 322 391 454
#     4  10  24  47  73 105 146 206 250 304 377 466
#     4  12  29  46  79 114 155 190 261 321 382 441
#     4  10  24  44  76  98 146 200 248 298 372 472
#     4  11  27  48  77 109 152 205 258 308 384 467
#
# _framework density 26.745007000000001
#
# number of rings (size 3 to 8) (size 9 to 14) (size 15 to 20)
#    0.000    0.889    0.000    4.667   21.778    0.000 
#    0.000    0.000    0.000    0.000    0.000    0.000 
#    0.000    0.000    0.000    0.000    0.000    0.000 
#
# Total GULP energy -50371.819610 kJ/mol
# GULP energy per Si atom -5596.868846 kJ/mol
# Density = 2.668413 g / cm^3
# Si number density = 26.745007 Si / 1000 Ang^3
#
#
#
# Elastic Constant Matrix: (Units=GPa)
#
#
# Indices 1 2 3 4 5 6 
#
# 1 168.1485 42.6272 23.1363 0.0000 9.9742 0.0000
# 2 42.6272 107.0404 17.2508 0.0000 -4.5363 0.0000
# 3 23.1363 17.2508 79.8990 0.0000 -5.7737 0.0000
# 4 0.0000 0.0000 0.0000 -1.1635 0.0000 -85.8184
# 5 9.9742 -4.5363 -5.7737 0.0000 45.2855 0.0000
# 6 0.0000 0.0000 0.0000 -85.8184 0.0000 -93.1572
#
#
#
# Elastic Compliance Matrix: (Units=1/GPa)
#
#
# Indices 1 2 3 4 5 6 
#
# 1 0.006942 -0.002592 -0.001594 0.000000 -0.001992 0.000000
# 2 -0.002592 0.010669 -0.001448 0.000000 0.001455 0.000000
# 3 -0.001594 -0.001448 0.013429 0.000000 0.001918 0.000000
# 4 0.000000 0.000000 0.000000 0.012838 0.000000 -0.011827
# 5 -0.001992 0.001455 0.001918 0.000000 0.022911 0.000000
# 6 0.000000 0.000000 0.000000 -0.011827 0.000000 0.000160
#
#
# Mechanical properties :
#
#
# Convention : Reuss Voigt Hill
#
# Bulk Modulus (GPa) = 50.57811 57.90182 54.23997
# Shear Modulus (GPa) = 58.95649 8.33123 33.64386
#
# Velocity S-wave (km/s) = 4.70019 1.76687 3.55061
# Velocity P-wave (km/s) = 6.95759 5.08518 6.09373
#
# Compressibility (1/GPa) = 0.01977140
#
# Stress axis : x y z
#
# Youngs Moduli (GPa) = 144.05630 93.72545 74.46719
#
# Poissons Ratio (x) = 0.24293 0.11873
# Poissons Ratio (y) = 0.37338 0.10782
# Poissons Ratio (z) = 0.22969 0.13571
#
# Static dielectric constant tensor:
#      x y z
#    x 2.050380 0.000000 -0.072280 
#    y 0.000000 2.235920 0.000000 
#    z -0.072280 0.000000 2.587420 
# 
# From -- ./inp_files/7976.got.cif
#   From: 2010.05.17/outbox.cif.g08.bks.cpg/sg5_4_cif.got.tgz:7976.got - 2010.06.03 18:56:24.
