data_PCOD9128458
_publ_section_title
;
Structure prediction by ZEFSAII (Michael W. Deem and Ramdas Pophale) SiO2 
 PCOD9128458
Probable space group: C 2
;
_chemical_formula_sum "Si O2"
_cell_formula_units_Z 26
_cell_length_a 9.155453
_cell_length_b 12.821401
_cell_length_c 15.642383
_cell_angle_alpha 90.000000
_cell_angle_beta 37.108538
_cell_angle_gamma 90.000000
_cell_volume 1107.824276
_symmetry_space_group_name_H-M "C 2"
_symmetry_group_IT_number 5
_symmetry_cell_setting 'monoclinic'
loop_
_space_group_symop_operation_xyz
x,y,z
-x,y,-z
1/2+x,1/2+y,z
1/2-x,1/2+y,-z
loop_
_atom_site_type_symbol
_atom_site_label
_atom_site_fract_x
_atom_site_fract_y
_atom_site_fract_z
Si Si1 0.442208 0.580920 0.428125
Si Si2 0.681052 0.751089 0.073671
Si Si3 0.242284 0.029820 0.140318
Si Si4 0.563282 0.433170 0.859566
Si Si5 0.500000 0.632712 0.000000
Si Si6 0.425762 0.915234 0.436481
Si Si7 0.762396 0.258767 0.397280
O O1 0.500000 0.590906 0.500000
O O2 0.667989 0.528707 0.273276
O O3 0.183279 0.529313 0.526712
O O4 0.418369 0.687918 0.388112
O O5 0.753750 0.646361 0.093107
O O6 0.656586 0.707078 0.988245
O O7 0.421393 0.778901 0.237956
O O8 0.865475 0.849758 0.987158
O O9 0.500000 0.980191 0.000000
O O10 0.035472 0.967652 0.186649
O O11 0.829350 0.387892 0.728343
O O12 0.606006 0.545026 0.886067
O O13 0.500000 0.896297 0.500000
O O14 0.216978 0.855483 0.481541
O O15 0.500000 0.213467 0.500000
#
# Coordination Sequence:
#
# PCOD9128458 Si02
#       7
#     4   4   4   4   2   4   4
#     4  11  25  47  72 106 148 193 246 305 369 453
#     4  10  25  45  70 103 147 186 249 307 369 449
#     4  10  24  44  70 104 144 192 243 309 376 443
#     4  11  24  45  73 105 147 193 244 312 380 443
#     4  10  24  44  70 106 138 200 244 300 376 442
#     4  12  25  46  74 107 144 194 243 306 379 449
#     4  11  26  46  72 104 146 193 244 309 374 444
#
# _framework density 23.469425999999999
#
# number of rings (size 3 to 8) (size 9 to 14) (size 15 to 20)
#    0.000    1.231    1.538    2.308   10.769    6.154 
#    0.000    0.000    0.000    0.000    0.000    0.000 
#    0.000    0.000    0.000    0.000    0.000    0.000 
#
# Total GULP energy -72442.870050 kJ/mol
# GULP energy per Si atom -5572.528465 kJ/mol
# Density = 2.341601 g / cm^3
# Si number density = 23.469426 Si / 1000 Ang^3
#
#
#
# Elastic Constant Matrix: (Units=GPa)
#
#
# Indices 1 2 3 4 5 6 
#
# 1 119.7807 20.0720 53.8506 -0.0020 21.7991 0.0007
# 2 20.0720 79.0240 20.1340 -0.0031 1.5473 0.0015
# 3 53.8506 20.1340 127.7224 -0.0039 -0.9363 0.0021
# 4 -0.0020 -0.0031 -0.0039 17.5658 0.0019 -6.4311
# 5 21.7991 1.5473 -0.9363 0.0019 37.1183 -0.0006
# 6 0.0007 0.0015 0.0021 -6.4311 -0.0006 26.5506
#
#
#
# Elastic Compliance Matrix: (Units=1/GPa)
#
#
# Indices 1 2 3 4 5 6 
#
# 1 0.012146 -0.001694 -0.004907 0.000001 -0.007187 0.000000
# 2 -0.001694 0.013434 -0.001400 0.000002 0.000400 0.000000
# 3 -0.004907 -0.001400 0.010142 0.000001 0.003196 0.000000
# 4 0.000001 0.000002 0.000001 0.062469 -0.000004 0.015131
# 5 -0.007187 0.000400 0.003196 -0.000004 0.031225 0.000000
# 6 0.000000 0.000000 0.000000 0.015131 0.000000 0.041329
#
#
# Mechanical properties :
#
#
# Convention : Reuss Voigt Hill
#
# Bulk Modulus (GPa) = 50.71088 57.18225 53.94656
# Shear Modulus (GPa) = 25.86364 31.74499 28.80431
#
# Velocity S-wave (km/s) = 3.32326 3.68177 3.50710
# Velocity P-wave (km/s) = 6.03155 6.51854 6.27977
#
# Compressibility (1/GPa) = 0.01971964
#
# Stress axis : x y z
#
# Youngs Moduli (GPa) = 82.32907 74.43972 98.59524
#
# Poissons Ratio (x) = 0.12612 0.48379
# Poissons Ratio (y) = 0.13949 0.13807
# Poissons Ratio (z) = 0.40397 0.10424
#
# Static dielectric constant tensor:
#      x y z
#    x 1.929930 0.000000 0.048320 
#    y 0.000000 1.990030 0.000000 
#    z 0.048320 0.000000 1.949750 
# 
# From -- ./inp_files/51074.got.cif
#   From: 2010.05.17/outbox.cif.g08.bks.cpg/sg5_26_cif.got.tgz:51074.got - 2010.06.03 18:56:24.
