data_PCOD9128325
_publ_section_title
;
Structure prediction by ZEFSAII (Michael W. Deem and Ramdas Pophale) SiO2 
 PCOD9128325
Probable space group: C 2
;
_chemical_formula_sum "Si O2"
_cell_formula_units_Z 32
_cell_length_a 9.355273
_cell_length_b 10.669641
_cell_length_c 31.888886
_cell_angle_alpha 90.000000
_cell_angle_beta 155.697642
_cell_angle_gamma 90.000000
_cell_volume 1309.996684
_symmetry_space_group_name_H-M "C 2"
_symmetry_group_IT_number 5
_symmetry_cell_setting 'monoclinic'
loop_
_space_group_symop_operation_xyz
x,y,z
-x,y,-z
1/2+x,1/2+y,z
1/2-x,1/2+y,-z
loop_
_atom_site_type_symbol
_atom_site_label
_atom_site_fract_x
_atom_site_fract_y
_atom_site_fract_z
Si Si1 0.360836 0.920780 0.579728
Si Si2 0.376557 0.218479 0.704017
Si Si3 0.179204 0.019750 0.443082
Si Si4 0.231842 0.637222 0.721542
Si Si5 0.966895 0.486323 0.782175
Si Si6 0.160292 0.760120 0.155885
Si Si7 0.235822 0.926448 0.890728
Si Si8 0.881524 0.503618 0.084885
O O1 0.711144 0.841374 0.679573
O O2 0.000000 0.865177 0.500000
O O3 0.310770 0.942314 0.517345
O O4 0.429956 0.051367 0.622094
O O5 0.600956 0.232008 0.722176
O O6 0.028707 0.141927 0.597370
O O7 0.553947 0.120888 0.783852
O O8 0.500000 0.053461 0.500000
O O9 0.883787 0.951022 0.336636
O O10 0.462346 0.694877 0.746010
O O11 0.487986 0.544110 0.815465
O O12 0.262887 0.383809 0.851461
O O13 0.902527 0.502504 0.814068
O O14 0.004489 0.813483 0.157010
O O15 0.905310 0.647076 0.073973
O O16 0.459860 0.913796 0.908002
O O17 0.500000 0.948533 0.000000
O O18 0.500000 0.475846 0.000000
#
# Coordination Sequence:
#
# PCOD9128325 Si02
#       8
#     4   4   4   4   4   4   4   4
#     4  12  25  48  72 107 147 196 255 305 376 433
#     4  10  24  44  74 105 147 199 244 315 365 438
#     4  10  24  42  66 105 143 190 249 299 363 433
#     4  11  26  46  71 112 141 196 248 309 375 450
#     4  10  24  48  69 108 150 197 249 306 373 448
#     4  11  25  47  75 104 153 190 247 307 375 446
#     4  11  24  49  77 103 150 192 242 317 371 448
#     4  11  26  45  77 113 146 198 250 302 379 458
#
# _framework density 24.427544000000001
#
# number of rings (size 3 to 8) (size 9 to 14) (size 15 to 20)
#    0.750    0.500    2.500    1.500    7.000    1.000 
#    0.000    7.500    0.000    0.000    0.000    0.000 
#    0.000    0.000    0.000    0.000    0.000    0.000 
#
# Total GULP energy -89373.890506 kJ/mol
# GULP energy per Si atom -5585.868157 kJ/mol
# Density = 2.437195 g / cm^3
# Si number density = 24.427544 Si / 1000 Ang^3
#
#
#
# Elastic Constant Matrix: (Units=GPa)
#
#
# Indices 1 2 3 4 5 6 
#
# 1 192.7209 51.3276 47.5477 0.0001 14.9479 0.0002
# 2 51.3276 87.3867 10.4781 0.0001 2.4815 0.0001
# 3 47.5477 10.4781 87.5680 -0.0002 -10.0349 0.0015
# 4 0.0001 0.0001 -0.0002 15.4424 0.0001 7.1199
# 5 14.9479 2.4815 -10.0349 0.0001 49.8380 0.0004
# 6 0.0002 0.0001 0.0015 7.1199 0.0004 47.5073
#
#
#
# Elastic Compliance Matrix: (Units=1/GPa)
#
#
# Indices 1 2 3 4 5 6 
#
# 1 0.007369 -0.003785 -0.003869 0.000000 -0.002801 0.000000
# 2 -0.003785 0.013591 0.000493 0.000000 0.000558 0.000000
# 3 -0.003869 0.000493 0.013913 0.000000 0.003937 -0.000001
# 4 0.000000 0.000000 0.000000 0.069564 0.000000 -0.010426
# 5 -0.002801 0.000558 0.003937 0.000000 0.021670 0.000000
# 6 0.000000 0.000000 -0.000001 -0.010426 0.000000 0.022612
#
#
# Mechanical properties :
#
#
# Convention : Reuss Voigt Hill
#
# Bulk Modulus (GPa) = 48.66052 65.15362 56.90707
# Shear Modulus (GPa) = 29.43064 39.77902 34.60483
#
# Velocity S-wave (km/s) = 3.47481 4.03978 3.76790
# Velocity P-wave (km/s) = 6.00522 6.96347 6.50202
#
# Compressibility (1/GPa) = 0.02055054
#
# Stress axis : x y z
#
# Youngs Moduli (GPa) = 135.71083 73.57585 71.87623
#
# Poissons Ratio (x) = 0.27845 0.27810
# Poissons Ratio (y) = 0.51361 -0.03540
# Poissons Ratio (z) = 0.52508 -0.03624
#
# Static dielectric constant tensor:
#      x y z
#    x 1.916030 0.000000 0.015210 
#    y 0.000000 2.030170 0.000000 
#    z 0.015210 0.000000 1.938120 
# 
# From -- ./inp_files/71598.got.cif
#   From: 2010.05.17/outbox.cif.g08.bks.cpg/sg5_36_cif.got.tgz:71598.got - 2010.06.03 18:56:24.
