data_PCOD9128768
_publ_section_title
;
Structure prediction by ZEFSAII (Michael W. Deem and Ramdas Pophale) SiO2 
 PCOD9128768
Probable space group: C 2
;
_chemical_formula_sum "Si O2"
_cell_formula_units_Z 20
_cell_length_a 9.942015
_cell_length_b 10.930119
_cell_length_c 13.803901
_cell_angle_alpha 90.000000
_cell_angle_beta 28.373266
_cell_angle_gamma 90.000000
_cell_volume 712.836793
_symmetry_space_group_name_H-M "C 2"
_symmetry_group_IT_number 5
_symmetry_cell_setting 'monoclinic'
loop_
_space_group_symop_operation_xyz
x,y,z
-x,y,-z
1/2+x,1/2+y,z
1/2-x,1/2+y,-z
loop_
_atom_site_type_symbol
_atom_site_label
_atom_site_fract_x
_atom_site_fract_y
_atom_site_fract_z
Si Si1 0.704699 0.216630 0.700657
Si Si2 0.500000 0.075695 0.500000
Si Si3 0.762626 0.798786 0.757221
Si Si4 0.000000 0.581644 0.000000
Si Si5 0.821388 0.471282 0.419837
Si Si6 0.785075 0.413017 0.965795
O O1 0.434964 0.306237 0.872009
O O2 0.709957 0.160761 0.804448
O O3 0.706496 0.100331 0.625437
O O4 0.000000 0.282733 0.500000
O O5 0.316374 0.165358 0.684293
O O6 0.319504 0.007790 0.534575
O O7 0.614102 0.867581 0.762176
O O8 0.048318 0.875587 0.594967
O O9 0.817343 0.513107 0.031413
O O10 0.164202 0.446020 0.178576
O O11 0.000000 0.298509 0.000000
#
# Coordination Sequence:
#
# PCOD9128768 Si02
#       6
#     4   2   4   2   4   4
#     4  11  26  50  88 124 164 224 282 343 423 495
#     4  12  28  56  88 120 178 220 280 354 414 504
#     4  12  25  52  89 120 170 226 276 350 426 500
#     4  10  24  50  86 116 168 220 268 352 418 486
#     4  11  26  53  88 127 171 223 282 346 428 500
#     4  11  23  50  90 118 166 222 277 338 425 498
#
# _framework density 28.056913000000002
#
# number of rings (size 3 to 8) (size 9 to 14) (size 15 to 20)
#    0.000    0.800    3.000    3.600    0.000    3.200 
#    7.200    8.000    4.400    9.600    0.000    0.000 
#    0.000    0.000    0.000    0.000    0.000    0.000 
#
# Total GULP energy -55719.703996 kJ/mol
# GULP energy per Si atom -5571.970400 kJ/mol
# Density = 2.799305 g / cm^3
# Si number density = 28.056913 Si / 1000 Ang^3
#
#
#
# Elastic Constant Matrix: (Units=GPa)
#
#
# Indices 1 2 3 4 5 6 
#
# 1 74.6611 43.4285 78.3051 -0.0091 -17.3196 0.0084
# 2 43.4285 113.2621 87.5314 -0.0127 -9.0164 0.0084
# 3 78.3051 87.5314 282.0804 -0.0346 -8.6207 0.0296
# 4 -0.0091 -0.0127 -0.0346 31.6780 0.0151 -9.2519
# 5 -17.3196 -9.0164 -8.6207 0.0151 36.8905 -0.0119
# 6 0.0084 0.0084 0.0296 -9.2519 -0.0119 47.3077
#
#
#
# Elastic Compliance Matrix: (Units=1/GPa)
#
#
# Indices 1 2 3 4 5 6 
#
# 1 0.022925 -0.004462 -0.004717 -0.000004 0.008570 0.000001
# 2 -0.004462 0.012633 -0.002670 0.000001 0.000369 0.000000
# 3 -0.004717 -0.002670 0.005636 0.000004 -0.001550 -0.000002
# 4 -0.000004 0.000001 0.000004 0.033480 -0.000012 0.006548
# 5 0.008570 0.000369 -0.001550 -0.000012 0.030859 0.000005
# 6 0.000001 0.000000 -0.000002 0.006548 0.000005 0.022419
#
#
# Mechanical properties :
#
#
# Convention : Reuss Voigt Hill
#
# Bulk Modulus (GPa) = 57.16159 98.72596 77.94377
# Shear Modulus (GPa) = 31.74960 40.55780 36.15370
#
# Velocity S-wave (km/s) = 3.36760 3.80617 3.59358
# Velocity P-wave (km/s) = 5.96143 7.38783 6.71262
#
# Compressibility (1/GPa) = 0.01749427
#
# Stress axis : x y z
#
# Youngs Moduli (GPa) = 43.62016 79.15826 177.43748
#
# Poissons Ratio (x) = 0.35323 0.83704
# Poissons Ratio (y) = 0.19465 0.47377
# Poissons Ratio (z) = 0.20577 0.21136
#
# Static dielectric constant tensor:
#      x y z
#    x 1.973660 0.000000 -0.360380 
#    y 0.000000 2.504570 0.000020 
#    z -0.360380 0.000020 1.726690 
# 
# From -- ./inp_files/18754.got.cif
#   From: 2010.05.17/outbox.cif.g08.bks.cpg/sg5_10_cif.got.tgz:18754.got - 2010.06.03 18:56:24.
