data_PCOD9128678
_publ_section_title
;
Structure prediction by ZEFSAII (Michael W. Deem and Ramdas Pophale) SiO2 
 PCOD9128678
Probable space group: C 2
;
_chemical_formula_sum "Si O2"
_cell_formula_units_Z 26
_cell_length_a 17.410637
_cell_length_b 10.812925
_cell_length_c 5.590734
_cell_angle_alpha 90.000000
_cell_angle_beta 92.341200
_cell_angle_gamma 90.000000
_cell_volume 1051.632538
_symmetry_space_group_name_H-M "C 2"
_symmetry_group_IT_number 5
_symmetry_cell_setting 'monoclinic'
loop_
_space_group_symop_operation_xyz
x,y,z
-x,y,-z
1/2+x,1/2+y,z
1/2-x,1/2+y,-z
loop_
_atom_site_type_symbol
_atom_site_label
_atom_site_fract_x
_atom_site_fract_y
_atom_site_fract_z
Si Si1 0.079624 0.971790 0.630694
Si Si2 0.096352 0.567054 0.131583
Si Si3 0.895684 0.686337 0.374982
Si Si4 0.729144 0.753064 0.213984
Si Si5 0.223965 0.033978 0.848678
Si Si6 0.500000 0.594589 0.000000
Si Si7 0.065664 0.313651 0.312438
O O1 0.083876 0.828363 0.591538
O O2 0.000000 0.012289 0.500000
O O3 0.164113 0.030901 0.616957
O O4 0.064319 0.004252 0.905126
O O5 0.072939 0.619974 0.385863
O O6 0.188109 0.570931 0.171008
O O7 0.071615 0.425105 0.125630
O O8 0.077740 0.633214 0.879106
O O9 0.802395 0.690138 0.349312
O O10 0.657253 0.792824 0.375812
O O11 0.763796 0.882703 0.099691
O O12 0.699886 0.647070 0.025094
O O13 0.536107 0.689081 0.190692
O O14 0.000000 0.343827 0.500000
#
# Coordination Sequence:
#
# PCOD9128678 Si02
#       7
#     4   4   4   4   4   2   4
#     4  11  25  45  68 104 147 195 238 303 369 449
#     4  10  24  47  76 108 141 190 251 309 370 433
#     4  10  24  47  76 108 141 190 251 309 370 433
#     4   9  19  44  73 105 139 191 248 313 366 440
#     4   9  19  44  73 105 139 191 248 313 366 440
#     4  12  26  44  62  98 148 188 246 284 370 444
#     4  11  25  45  68 104 147 195 238 303 369 449
#
# _framework density 24.723462000000001
#
# number of rings (size 3 to 8) (size 9 to 14) (size 15 to 20)
#    0.000    1.846    1.538    0.462    4.308    3.077 
#    0.000   12.308    0.000    0.000    0.000    0.000 
#    0.000    0.000    0.000    0.000    0.000    0.000 
#
# Total GULP energy -72396.282398 kJ/mol
# GULP energy per Si atom -5568.944800 kJ/mol
# Density = 2.466719 g / cm^3
# Si number density = 24.723462 Si / 1000 Ang^3
#
#
#
# Elastic Constant Matrix: (Units=GPa)
#
#
# Indices 1 2 3 4 5 6 
#
# 1 163.9094 14.0762 50.7017 0.0000 13.6706 0.0000
# 2 14.0762 78.4212 27.6838 0.0000 14.1529 0.0000
# 3 50.7017 27.6838 79.9228 0.0000 18.7884 0.0000
# 4 0.0000 0.0000 0.0000 35.5563 0.0000 -5.7408
# 5 13.6706 14.1529 18.7884 0.0000 50.4838 0.0000
# 6 0.0000 0.0000 0.0000 -5.7408 0.0000 36.1335
#
#
#
# Elastic Compliance Matrix: (Units=1/GPa)
#
#
# Indices 1 2 3 4 5 6 
#
# 1 0.007606 0.000425 -0.004888 0.000000 -0.000360 0.000000
# 2 0.000425 0.014825 -0.004823 0.000000 -0.002476 0.000000
# 3 -0.004888 -0.004823 0.018251 0.000000 -0.004117 0.000000
# 4 0.000000 0.000000 0.000000 0.028865 0.000000 0.004586
# 5 -0.000360 -0.002476 -0.004117 0.000000 0.022132 0.000000
# 6 0.000000 0.000000 0.000000 0.004586 0.000000 0.028404
#
#
# Mechanical properties :
#
#
# Convention : Reuss Voigt Hill
#
# Bulk Modulus (GPa) = 45.22556 56.35300 50.78928
# Shear Modulus (GPa) = 34.24080 39.75416 36.99748
#
# Velocity S-wave (km/s) = 3.72553 4.01428 3.87260
# Velocity P-wave (km/s) = 6.06946 6.65798 6.37052
#
# Compressibility (1/GPa) = 0.02211139
#
# Stress axis : x y z
#
# Youngs Moduli (GPa) = 131.46741 67.45496 54.79079
#
# Poissons Ratio (x) = -0.02868 0.26782
# Poissons Ratio (y) = -0.05590 0.26423
# Poissons Ratio (z) = 0.64263 0.32531
#
# Static dielectric constant tensor:
#      x y z
#    x 2.190680 0.000000 0.048910 
#    y 0.000000 1.893050 0.000000 
#    z 0.048910 0.000000 1.840840 
# 
# From -- ./inp_files/8301.got.cif
#   From: 2010.05.17/outbox.cif.g08.bks.cpg/sg5_5_cif.got.tgz:8301.got - 2010.06.03 18:56:24.
