data_PCOD9128055
_publ_section_title
;
Structure prediction by ZEFSAII (Michael W. Deem and Ramdas Pophale) SiO2 
 PCOD9128055
Probable space group: C 2
;
_chemical_formula_sum "Si O2"
_cell_formula_units_Z 20
_cell_length_a 10.636604
_cell_length_b 9.545783
_cell_length_c 9.611567
_cell_angle_alpha 90.000000
_cell_angle_beta 64.414246
_cell_angle_gamma 90.000000
_cell_volume 880.210127
_symmetry_space_group_name_H-M "C 2"
_symmetry_group_IT_number 5
_symmetry_cell_setting 'monoclinic'
loop_
_space_group_symop_operation_xyz
x,y,z
-x,y,-z
1/2+x,1/2+y,z
1/2-x,1/2+y,-z
loop_
_atom_site_type_symbol
_atom_site_label
_atom_site_fract_x
_atom_site_fract_y
_atom_site_fract_z
Si Si1 0.157700 0.143230 0.175795
Si Si2 0.401337 0.134171 0.277927
Si Si3 0.050240 0.365547 0.632089
Si Si4 0.850135 0.822330 0.884347
Si Si5 0.850348 0.806776 0.565182
O O1 0.258182 0.123963 0.262213
O O2 0.014181 0.218823 0.286838
O O3 0.142987 0.990281 0.115294
O O4 0.240042 0.250569 0.037552
O O5 0.497797 0.254461 0.166693
O O6 0.379407 0.176978 0.449308
O O7 0.488222 0.990147 0.242857
O O8 0.217359 0.374262 0.557119
O O9 0.000000 0.387754 0.500000
O O10 0.812505 0.780226 0.742697
O O11 0.000000 0.885855 0.500000
#
# Coordination Sequence:
#
# PCOD9128055 Si02
#       5
#     4   4   4   4   4
#     4  12  26  46  71 104 145 188 240 291 351 428
#     4  11  24  48  71 103 144 186 234 298 351 425
#     4  12  24  45  78 109 138 189 243 292 358 424
#     4  11  25  47  69 103 146 189 228 296 356 415
#     4  10  23  45  73 102 142 183 232 296 354 415
#
# _framework density 22.721848999999999
#
# number of rings (size 3 to 8) (size 9 to 14) (size 15 to 20)
#    0.000    0.800    4.000    3.600    0.000    6.400 
#   14.400    0.000    0.000    0.000    0.000    0.000 
#    0.000    0.000    0.000    0.000    0.000    0.000 
#
# Total GULP energy -55868.913565 kJ/mol
# GULP energy per Si atom -5586.891357 kJ/mol
# Density = 2.267013 g / cm^3
# Si number density = 22.721849 Si / 1000 Ang^3
#
#
#
# Elastic Constant Matrix: (Units=GPa)
#
#
# Indices 1 2 3 4 5 6 
#
# 1 141.8625 41.2401 32.8045 0.0000 -15.4323 0.0000
# 2 41.2401 173.5851 34.9924 0.0000 -15.7546 0.0000
# 3 32.8045 34.9924 71.9408 0.0000 5.8275 0.0000
# 4 0.0000 0.0000 0.0000 34.8320 0.0000 -3.2331
# 5 -15.4323 -15.7546 5.8275 0.0000 33.6629 0.0000
# 6 0.0000 0.0000 0.0000 -3.2331 0.0000 28.9197
#
#
#
# Elastic Compliance Matrix: (Units=1/GPa)
#
#
# Indices 1 2 3 4 5 6 
#
# 1 0.008660 -0.000898 -0.003854 0.000000 0.004217 0.000000
# 2 -0.000898 0.006935 -0.003239 0.000000 0.003395 0.000000
# 3 -0.003854 -0.003239 0.017748 0.000000 -0.006355 0.000000
# 4 0.000000 0.000000 0.000000 0.029010 0.000000 0.003243
# 5 0.004217 0.003395 -0.006355 0.000000 0.034328 0.000000
# 6 0.000000 0.000000 0.000000 0.003243 0.000000 0.034941
#
#
# Mechanical properties :
#
#
# Convention : Reuss Voigt Hill
#
# Bulk Modulus (GPa) = 57.59720 67.27362 62.43541
# Shear Modulus (GPa) = 32.59639 38.03967 35.31803
#
# Velocity S-wave (km/s) = 3.79170 4.09607 3.94682
# Velocity P-wave (km/s) = 6.67631 7.21402 6.95037
#
# Compressibility (1/GPa) = 0.01736196
#
# Stress axis : x y z
#
# Youngs Moduli (GPa) = 115.47374 144.19173 56.34493
#
# Poissons Ratio (x) = 0.12946 0.21714
# Poissons Ratio (y) = 0.10367 0.18250
# Poissons Ratio (z) = 0.44501 0.46703
#
# Static dielectric constant tensor:
#      x y z
#    x 1.851010 0.000000 -0.019090 
#    y 0.000000 1.905870 0.000000 
#    z -0.019090 0.000000 1.874630 
# 
# From -- ./inp_files/38159.got.cif
#   From: 2010.05.17/outbox.cif.g08.bks.cpg/sg5_20_cif.got.tgz:38159.got - 2010.06.03 18:56:24.
