data_PCOD9128243
_publ_section_title
;
Structure prediction by ZEFSAII (Michael W. Deem and Ramdas Pophale) SiO2 
 PCOD9128243
Probable space group: C 2
;
_chemical_formula_sum "Si O2"
_cell_formula_units_Z 20
_cell_length_a 19.553395
_cell_length_b 9.020868
_cell_length_c 5.077159
_cell_angle_alpha 90.000000
_cell_angle_beta 80.708580
_cell_angle_gamma 90.000000
_cell_volume 883.803205
_symmetry_space_group_name_H-M "C 2"
_symmetry_group_IT_number 5
_symmetry_cell_setting 'monoclinic'
loop_
_space_group_symop_operation_xyz
x,y,z
-x,y,-z
1/2+x,1/2+y,z
1/2-x,1/2+y,-z
loop_
_atom_site_type_symbol
_atom_site_label
_atom_site_fract_x
_atom_site_fract_y
_atom_site_fract_z
Si Si1 0.427004 0.731650 0.112004
Si Si2 0.143140 0.112022 0.337215
Si Si3 0.642930 0.290764 0.434511
Si Si4 0.064588 0.564075 0.791990
Si Si5 0.297168 0.179824 0.106547
O O1 0.378913 0.657365 0.358022
O O2 0.447336 0.889692 0.230458
O O3 0.500000 0.653868 0.000000
O O4 0.387812 0.724531 0.858182
O O5 0.225312 0.111944 0.240264
O O6 0.116182 0.943364 0.330777
O O7 0.583991 0.167294 0.531448
O O8 0.680543 0.306913 0.695545
O O9 0.699671 0.231970 0.193849
O O10 0.137453 0.570407 0.904028
O O11 0.000000 0.624099 0.000000
#
# Coordination Sequence:
#
# PCOD9128243 Si02
#       5
#     4   4   4   4   4
#     4  11  26  46  69 100 137 183 223 283 344 405
#     4  12  25  43  71  99 143 173 228 286 341 403
#     4  10  24  43  64 101 132 179 226 270 344 391
#     4   9  24  45  69  97 135 179 229 274 333 410
#     4  10  24  39  69  98 132 174 226 275 337 397
#
# _framework density 22.629470999999999
#
# number of rings (size 3 to 8) (size 9 to 14) (size 15 to 20)
#    1.200    0.400    0.000    3.000    8.400    1.600 
#    3.600    0.000    0.000    0.000    0.000    0.000 
#    0.000    0.000    0.000    0.000    0.000    0.000 
#
# Total GULP energy -55718.715197 kJ/mol
# GULP energy per Si atom -5571.871520 kJ/mol
# Density = 2.257796 g / cm^3
# Si number density = 22.629471 Si / 1000 Ang^3
#
#
#
# Elastic Constant Matrix: (Units=GPa)
#
#
# Indices 1 2 3 4 5 6 
#
# 1 85.0232 -11.1648 35.1065 0.0000 -25.5446 0.0000
# 2 -11.1648 71.4796 32.4734 0.0000 -14.8444 0.0000
# 3 35.1065 32.4734 164.3652 0.0000 -25.9748 0.0000
# 4 0.0000 0.0000 0.0000 16.5564 0.0000 -0.0342
# 5 -25.5446 -14.8444 -25.9748 0.0000 43.8384 0.0000
# 6 0.0000 0.0000 0.0000 -0.0342 0.0000 11.4938
#
#
#
# Elastic Compliance Matrix: (Units=1/GPa)
#
#
# Indices 1 2 3 4 5 6 
#
# 1 0.016940 0.006212 -0.003258 0.000000 0.010044 0.000000
# 2 0.006212 0.018230 -0.003730 0.000000 0.007582 0.000000
# 3 -0.003258 -0.003730 0.007742 0.000000 0.001426 0.000000
# 4 0.000000 0.000000 0.000000 0.060400 0.000000 0.000180
# 5 0.010044 0.007582 0.001426 0.000000 0.032076 0.000000
# 6 0.000000 0.000000 0.000000 0.000180 0.000000 0.087004
#
#
# Mechanical properties :
#
#
# Convention : Reuss Voigt Hill
#
# Bulk Modulus (GPa) = 24.17830 48.18868 36.18349
# Shear Modulus (GPa) = 21.03219 32.00792 26.52005
#
# Velocity S-wave (km/s) = 3.05194 3.76498 3.42705
# Velocity P-wave (km/s) = 4.80903 6.34358 5.62884
#
# Compressibility (1/GPa) = 0.04135940
#
# Stress axis : x y z
#
# Youngs Moduli (GPa) = 59.03102 54.85578 129.16214
#
# Poissons Ratio (x) = -0.34077 0.42085
# Poissons Ratio (y) = -0.36671 0.48180
# Poissons Ratio (z) = 0.19234 0.20462
#
# Static dielectric constant tensor:
#      x y z
#    x 1.859280 0.000000 0.015890 
#    y 0.000000 1.881980 0.000000 
#    z 0.015890 0.000000 1.799920 
# 
# From -- ./inp_files/9158.got.cif
#   From: 2010.05.17/outbox.cif.g08.bks.cpg/sg5_5_cif.got.tgz:9158.got - 2010.06.03 18:56:24.
