data_PCOD9128965
_publ_section_title
;
Structure prediction by ZEFSAII (Michael W. Deem and Ramdas Pophale) SiO2 
 PCOD9128965
Probable space group: C 2
;
_chemical_formula_sum "Si O2"
_cell_formula_units_Z 16
_cell_length_a 21.290148
_cell_length_b 4.791191
_cell_length_c 10.801975
_cell_angle_alpha 90.000000
_cell_angle_beta 143.575038
_cell_angle_gamma 90.000000
_cell_volume 654.249224
_symmetry_space_group_name_H-M "C 2"
_symmetry_group_IT_number 5
_symmetry_cell_setting 'monoclinic'
loop_
_space_group_symop_operation_xyz
x,y,z
-x,y,-z
1/2+x,1/2+y,z
1/2-x,1/2+y,-z
loop_
_atom_site_type_symbol
_atom_site_label
_atom_site_fract_x
_atom_site_fract_y
_atom_site_fract_z
Si Si1 0.168977 0.894150 0.121495
Si Si2 0.000000 0.628719 0.000000
Si Si3 0.000000 0.177621 0.500000
Si Si4 0.522022 0.738650 0.273305
Si Si5 0.186339 0.911514 0.669719
O O1 0.213875 0.606428 0.141702
O O2 0.266219 0.109667 0.282611
O O3 0.103925 0.814740 0.141675
O O4 0.076720 0.031393 0.896113
O O5 0.980315 0.439790 0.847548
O O6 0.995803 0.363016 0.617492
O O7 0.101054 0.974857 0.641078
O O8 0.627489 0.552039 0.458180
#
# Coordination Sequence:
#
# PCOD9128965 Si02
#       5
#     4   2   2   4   4
#     4  12  25  49  79 116 157 216 255 328 402 466
#     4  12  26  52  80 124 168 204 270 334 396 494
#     4   8  24  52  84 114 158 204 272 330 392 480
#     4  10  25  53  75 121 162 202 271 331 387 492
#     4  10  26  49  79 117 155 211 260 328 402 468
#
# _framework density 24.455514000000001
#
# number of rings (size 3 to 8) (size 9 to 14) (size 15 to 20)
#    1.500    0.000    2.500    0.750    3.500    3.000 
#   13.500    0.000    0.000    0.000    0.000    0.000 
#    0.000    0.000    0.000    0.000    0.000    0.000 
#
# Total GULP energy -44649.367967 kJ/mol
# GULP energy per Si atom -5581.170996 kJ/mol
# Density = 2.439985 g / cm^3
# Si number density = 24.455514 Si / 1000 Ang^3
#
#
#
# Elastic Constant Matrix: (Units=GPa)
#
#
# Indices 1 2 3 4 5 6 
#
# 1 132.7743 44.3051 11.7989 -0.0006 1.7894 0.0004
# 2 44.3051 102.3690 18.1608 0.0036 0.6523 -0.0016
# 3 11.7989 18.1608 58.3646 -0.0007 -0.1434 0.0004
# 4 -0.0006 0.0036 -0.0007 -19.4497 -0.0004 47.6972
# 5 1.7894 0.6523 -0.1434 -0.0004 66.3432 0.0001
# 6 0.0004 -0.0016 0.0004 47.6972 0.0001 22.1529
#
#
#
# Elastic Compliance Matrix: (Units=1/GPa)
#
#
# Indices 1 2 3 4 5 6 
#
# 1 0.008827 -0.003707 -0.000632 0.000000 -0.000203 0.000000
# 2 -0.003707 0.011897 -0.002952 0.000001 -0.000023 -0.000001
# 3 -0.000632 -0.002952 0.018180 0.000000 0.000085 0.000000
# 4 0.000000 0.000001 0.000000 -0.008187 0.000000 0.017627
# 5 -0.000203 -0.000023 0.000085 0.000000 0.015079 0.000000
# 6 0.000000 -0.000001 0.000000 0.017627 0.000000 0.007188
#
#
# Mechanical properties :
#
#
# Convention : Reuss Voigt Hill
#
# Bulk Modulus (GPa) = 41.11450 49.11527 45.11489
# Shear Modulus (GPa) = 66.07238 28.42548 47.24893
#
# Velocity S-wave (km/s) = 5.20346 3.41300 4.40026
# Velocity P-wave (km/s) = 7.27666 5.97148 6.65614
#
# Compressibility (1/GPa) = 0.02432232
#
# Stress axis : x y z
#
# Youngs Moduli (GPa) = 113.28269 84.05492 55.00474
#
# Poissons Ratio (x) = 0.31161 0.03474
# Poissons Ratio (y) = 0.41996 0.16240
# Poissons Ratio (z) = 0.07154 0.24817
#
# Static dielectric constant tensor:
#      x y z
#    x 2.010990 0.000000 0.009380 
#    y 0.000000 1.949030 0.000000 
#    z 0.009380 0.000000 1.990630 
# 
# From -- ./inp_files/40886.got.cif
#   From: 2010.05.17/outbox.cif.g08.bks.cpg/sg5_21_cif.got.tgz:40886.got - 2010.06.03 18:56:24.
