data_PCOD9128368
_publ_section_title
;
Structure prediction by ZEFSAII (Michael W. Deem and Ramdas Pophale) SiO2 
 PCOD9128368
Probable space group: C 2
;
_chemical_formula_sum "Si O2"
_cell_formula_units_Z 30
_cell_length_a 15.441017
_cell_length_b 18.523643
_cell_length_c 5.407279
_cell_angle_alpha 90.000000
_cell_angle_beta 109.331690
_cell_angle_gamma 90.000000
_cell_volume 1459.409938
_symmetry_space_group_name_H-M "C 2"
_symmetry_group_IT_number 5
_symmetry_cell_setting 'monoclinic'
loop_
_space_group_symop_operation_xyz
x,y,z
-x,y,-z
1/2+x,1/2+y,z
1/2-x,1/2+y,-z
loop_
_atom_site_type_symbol
_atom_site_label
_atom_site_fract_x
_atom_site_fract_y
_atom_site_fract_z
Si Si1 0.253491 0.657420 0.384276
Si Si2 0.902420 0.565001 0.511501
Si Si3 0.907635 0.068880 0.782974
Si Si4 0.500000 0.457288 0.500000
Si Si5 0.750145 0.033118 0.002122
Si Si6 0.821958 0.890171 0.182543
Si Si7 0.755079 0.327415 0.405684
Si Si8 0.942648 0.411914 0.701923
O O1 0.163426 0.626970 0.442003
O O2 0.345896 0.631133 0.607672
O O3 0.257297 0.742187 0.357588
O O4 0.252647 0.610107 0.135510
O O5 0.843002 0.528968 0.236804
O O6 0.918827 0.497424 0.709179
O O7 0.000000 0.590918 0.500000
O O8 0.837920 0.030934 0.905304
O O9 0.941065 0.010032 0.617798
O O10 0.000000 0.096049 0.000000
O O11 0.429245 0.409312 0.279106
O O12 0.765734 0.964193 0.187813
O O13 0.804738 0.840040 0.403170
O O14 0.784859 0.862885 0.883497
O O15 0.852995 0.363121 0.567844
O O16 0.000000 0.407756 0.500000
O O17 0.000000 0.389374 0.000000
#
# Coordination Sequence:
#
# PCOD9128368 Si02
#       8
#     4   4   4   2   4   4   4   4
#     4  11  26  44  68 104 142 193 232 295 370 434
#     4  10  24  42  71 101 130 182 245 304 332 422
#     4  11  21  40  70 109 138 178 237 306 357 424
#     4  12  24  42  76 112 136 180 252 306 356 424
#     4  11  22  42  74  99 138 187 248 287 360 418
#     4  12  25  46  72 104 140 194 237 296 355 433
#     4  12  28  47  70 101 157 187 232 293 373 438
#     4  11  24  44  72 105 133 182 241 293 350 416
#
# _framework density 20.556251
#
# number of rings (size 3 to 8) (size 9 to 14) (size 15 to 20)
#    0.000    0.800    4.000    2.400    9.333    0.533 
#    4.800    1.333    0.000    0.000    0.000    0.000 
#    0.000    0.000    0.000    0.000    0.000    0.000 
#
# Total GULP energy -83823.234836 kJ/mol
# GULP energy per Si atom -5588.215656 kJ/mol
# Density = 2.050946 g / cm^3
# Si number density = 20.556251 Si / 1000 Ang^3
#
#
#
# Elastic Constant Matrix: (Units=GPa)
#
#
# Indices 1 2 3 4 5 6 
#
# 1 135.6129 45.4269 65.4561 0.0000 22.8149 0.0000
# 2 45.4269 133.6761 51.4533 0.0000 11.3897 0.0000
# 3 65.4561 51.4533 139.7058 0.0000 18.9184 0.0000
# 4 0.0000 0.0000 0.0000 21.3920 0.0000 4.1142
# 5 22.8149 11.3897 18.9184 0.0000 40.2979 0.0000
# 6 0.0000 0.0000 0.0000 4.1142 0.0000 7.6308
#
#
#
# Elastic Compliance Matrix: (Units=1/GPa)
#
#
# Indices 1 2 3 4 5 6 
#
# 1 0.010374 -0.001788 -0.003711 0.000000 -0.003626 0.000000
# 2 -0.001788 0.009064 -0.002446 0.000000 -0.000401 0.000000
# 3 -0.003711 -0.002446 0.010059 0.000000 -0.001930 0.000000
# 4 0.000000 0.000000 0.000000 0.052154 0.000000 -0.028119
# 5 -0.003626 -0.000401 -0.001930 0.000000 0.027887 0.000000
# 6 0.000000 0.000000 0.000000 -0.028119 0.000000 0.146209
#
#
# Mechanical properties :
#
#
# Convention : Reuss Voigt Hill
#
# Bulk Modulus (GPa) = 73.49429 81.51860 77.50644
# Shear Modulus (GPa) = 18.10451 30.30803 24.20627
#
# Velocity S-wave (km/s) = 2.97093 3.84395 3.43529
# Velocity P-wave (km/s) = 6.89920 7.70998 7.31583
#
# Compressibility (1/GPa) = 0.01360650
#
# Stress axis : x y z
#
# Youngs Moduli (GPa) = 96.39426 110.32465 99.41446
#
# Poissons Ratio (x) = 0.19727 0.36893
# Poissons Ratio (y) = 0.17236 0.24319
# Poissons Ratio (z) = 0.35772 0.26988
#
# Static dielectric constant tensor:
#      x y z
#    x 1.762300 0.000000 -0.019080 
#    y 0.000000 1.705140 0.000000 
#    z -0.019080 0.000000 1.827980 
# 
# From -- ./inp_files/7321.got.cif
#   From: 2010.05.17/outbox.cif.g08.bks.cpg/sg5_4_cif.got.tgz:7321.got - 2010.06.03 18:56:24.
