data_PCOD9128667
_publ_section_title
;
Structure prediction by ZEFSAII (Michael W. Deem and Ramdas Pophale) SiO2 
 PCOD9128667
Probable space group: C 2
;
_chemical_formula_sum "Si O2"
_cell_formula_units_Z 24
_cell_length_a 5.295305
_cell_length_b 23.862006
_cell_length_c 7.766151
_cell_angle_alpha 90.000000
_cell_angle_beta 72.650183
_cell_angle_gamma 90.000000
_cell_volume 936.656926
_symmetry_space_group_name_H-M "C 2"
_symmetry_group_IT_number 5
_symmetry_cell_setting 'monoclinic'
loop_
_space_group_symop_operation_xyz
x,y,z
-x,y,-z
1/2+x,1/2+y,z
1/2-x,1/2+y,-z
loop_
_atom_site_type_symbol
_atom_site_label
_atom_site_fract_x
_atom_site_fract_y
_atom_site_fract_z
Si Si1 0.041135 0.231800 0.197304
Si Si2 0.940270 0.010594 0.312908
Si Si3 0.500000 0.435667 0.000000
Si Si4 0.500000 0.155054 0.000000
Si Si5 0.000000 0.439174 0.500000
Si Si6 0.271034 0.833030 0.371177
Si Si7 0.283509 0.123926 0.692135
Si Si8 0.500000 0.876306 0.000000
O O1 0.008536 0.287320 0.316867
O O2 0.826246 0.186547 0.302300
O O3 0.309965 0.197187 0.143676
O O4 0.000000 0.242662 0.000000
O O5 0.939745 0.076682 0.285738
O O6 0.000000 0.000063 0.500000
O O7 0.092638 0.975124 0.140393
O O8 0.649022 0.983602 0.348592
O O9 0.222847 0.402339 0.085218
O O10 0.371570 0.119324 0.873550
O O11 0.193248 0.393021 0.544743
O O12 0.281915 0.847363 0.167456
O O13 0.000000 0.808566 0.500000
O O14 0.500000 0.113609 0.500000
#
# Coordination Sequence:
#
# PCOD9128667 Si02
#       8
#     4   4   2   2   2   4   4   2
#     4  10  24  47  72 110 151 198 257 325 402 481
#     4  12  28  47  73 112 155 204 266 331 400 487
#     4  12  28  49  81 112 165 215 270 334 418 474
#     4  10  26  48  74 112 150 194 274 324 402 494
#     4  12  24  48  68 112 148 200 258 318 386 484
#     4  12  26  46  77 111 159 205 265 328 409 489
#     4  11  26  46  75 107 153 200 256 331 404 468
#     4  12  26  51  77 116 163 215 272 334 410 492
#
# _framework density 25.623042999999999
#
# number of rings (size 3 to 8) (size 9 to 14) (size 15 to 20)
#    0.000    0.667    3.333    3.000    5.833    5.333 
#    0.000    0.000    0.000    0.000    0.000    0.000 
#    0.000    0.000    0.000    0.000    0.000    0.000 
#
# Total GULP energy -66919.588210 kJ/mol
# GULP energy per Si atom -5576.632351 kJ/mol
# Density = 2.556472 g / cm^3
# Si number density = 25.623043 Si / 1000 Ang^3
#
#
#
# Elastic Constant Matrix: (Units=GPa)
#
#
# Indices 1 2 3 4 5 6 
#
# 1 66.8777 5.3416 20.4032 0.0000 -2.3538 0.0000
# 2 5.3416 99.5839 26.8119 0.0000 7.1909 0.0000
# 3 20.4032 26.8119 114.6661 0.0000 -5.5060 0.0000
# 4 0.0000 0.0000 0.0000 42.2673 0.0000 25.1098
# 5 -2.3538 7.1909 -5.5060 0.0000 42.2455 0.0000
# 6 0.0000 0.0000 0.0000 25.1098 0.0000 144.7024
#
#
#
# Elastic Compliance Matrix: (Units=1/GPa)
#
#
# Indices 1 2 3 4 5 6 
#
# 1 0.015824 -0.000147 -0.002755 0.000000 0.000548 0.000000
# 2 -0.000147 0.010918 -0.002633 0.000000 -0.002210 0.000000
# 3 -0.002755 -0.002633 0.009903 0.000000 0.001585 0.000000
# 4 0.000000 0.000000 0.000000 0.026378 0.000000 -0.004577
# 5 0.000548 -0.002210 0.001585 0.000000 0.024284 0.000000
# 6 0.000000 0.000000 0.000000 -0.004577 0.000000 0.007705
#
#
# Mechanical properties :
#
#
# Convention : Reuss Voigt Hill
#
# Bulk Modulus (GPa) = 39.09914 42.91566 41.00740
# Shear Modulus (GPa) = 43.62712 61.08111 52.35412
#
# Velocity S-wave (km/s) = 4.13080 4.88775 4.52513
# Velocity P-wave (km/s) = 6.16797 6.97414 6.58341
#
# Compressibility (1/GPa) = 0.02557601
#
# Stress axis : x y z
#
# Youngs Moduli (GPa) = 63.19440 91.59088 100.97957
#
# Poissons Ratio (x) = 0.01342 0.27821
# Poissons Ratio (y) = 0.00926 0.26588
# Poissons Ratio (z) = 0.17411 0.24116
#
# Static dielectric constant tensor:
#      x y z
#    x 2.164560 0.000000 -0.019900 
#    y 0.000000 1.976110 0.000000 
#    z -0.019900 0.000000 1.881250 
# 
# From -- ./inp_files/12805.got.cif
#   From: 2010.05.17/outbox.cif.g08.bks.cpg/sg5_7_cif.got.tgz:12805.got - 2010.06.03 18:56:24.
