data_PCOD9128592
_publ_section_title
;
Structure prediction by ZEFSAII (Michael W. Deem and Ramdas Pophale) SiO2 
 PCOD9128592
Probable space group: C 2
;
_chemical_formula_sum "Si O2"
_cell_formula_units_Z 30
_cell_length_a 13.440083
_cell_length_b 8.943482
_cell_length_c 11.739665
_cell_angle_alpha 90.000000
_cell_angle_beta 66.401426
_cell_angle_gamma 90.000000
_cell_volume 1293.112862
_symmetry_space_group_name_H-M "C 2"
_symmetry_group_IT_number 5
_symmetry_cell_setting 'monoclinic'
loop_
_space_group_symop_operation_xyz
x,y,z
-x,y,-z
1/2+x,1/2+y,z
1/2-x,1/2+y,-z
loop_
_atom_site_type_symbol
_atom_site_label
_atom_site_fract_x
_atom_site_fract_y
_atom_site_fract_z
Si Si1 0.232906 0.444470 0.126228
Si Si2 0.174303 0.903593 0.516063
Si Si3 0.000000 0.130475 0.500000
Si Si4 0.904402 0.513266 0.353659
Si Si5 0.459896 0.751986 0.743864
Si Si6 0.094596 0.937231 0.141720
Si Si7 0.113659 0.767211 0.789249
Si Si8 0.125671 0.695622 0.321996
O O1 0.118389 0.366869 0.156415
O O2 0.300347 0.316615 0.159046
O O3 0.210427 0.581971 0.222646
O O4 0.301601 0.475892 0.982342
O O5 0.149569 0.835549 0.650530
O O6 0.158705 0.772323 0.426975
O O7 0.287764 0.993683 0.465956
O O8 0.082413 0.024476 0.528501
O O9 0.931782 0.225453 0.622893
O O10 0.891786 0.594318 0.238337
O O11 0.930041 0.340562 0.318719
O O12 0.008935 0.600926 0.365256
O O13 0.459451 0.594108 0.803090
O O14 0.120169 0.840150 0.241859
O O15 0.003000 0.834631 0.126125
#
# Coordination Sequence:
#
# PCOD9128592 Si02
#       8
#     4   4   2   4   4   4   4   4
#     4  11  25  44  71  97 139 187 231 286 354 428
#     4  12  24  43  70 103 145 182 231 298 364 427
#     4  12  22  42  68 104 140 176 226 290 360 420
#     4  10  26  42  67 104 143 179 235 294 360 433
#     4  11  24  42  70 103 133 179 237 287 352 427
#     4  11  22  46  70  96 139 182 237 286 347 427
#     4  11  25  42  65 102 137 182 234 288 357 426
#     4  10  24  46  70 104 136 189 235 294 361 424
#
# _framework density 23.199833000000002
#
# number of rings (size 3 to 8) (size 9 to 14) (size 15 to 20)
#    0.000    1.067    2.667    2.800    7.467    1.067 
#    0.000    0.000    5.867    0.000    0.000    0.000 
#    0.000    0.000    0.000    0.000    0.000    0.000 
#
# Total GULP energy -83774.453686 kJ/mol
# GULP energy per Si atom -5584.963579 kJ/mol
# Density = 2.314703 g / cm^3
# Si number density = 23.199833 Si / 1000 Ang^3
#
#
#
# Elastic Constant Matrix: (Units=GPa)
#
#
# Indices 1 2 3 4 5 6 
#
# 1 49.5798 -0.2865 25.8161 0.0000 -14.0197 0.0000
# 2 -0.2865 109.6048 25.9667 0.0000 3.1043 0.0000
# 3 25.8161 25.9667 106.4774 0.0000 -18.2781 0.0000
# 4 0.0000 0.0000 0.0000 11.1990 0.0000 -6.7648
# 5 -14.0197 3.1043 -18.2781 0.0000 33.1561 0.0000
# 6 0.0000 0.0000 0.0000 -6.7648 0.0000 25.0583
#
#
#
# Elastic Compliance Matrix: (Units=1/GPa)
#
#
# Indices 1 2 3 4 5 6 
#
# 1 0.024946 0.001025 -0.004975 0.000000 0.007710 0.000000
# 2 0.001025 0.009907 -0.003037 0.000000 -0.002168 0.000000
# 3 -0.004975 -0.003037 0.012179 0.000000 0.004895 0.000000
# 4 0.000000 0.000000 0.000000 0.106692 0.000000 0.028803
# 5 0.007710 -0.002168 0.004895 0.000000 0.036321 0.000000
# 6 0.000000 0.000000 0.000000 0.028803 0.000000 0.047683
#
#
# Mechanical properties :
#
#
# Convention : Reuss Voigt Hill
#
# Bulk Modulus (GPa) = 30.24885 40.96162 35.60524
# Shear Modulus (GPa) = 19.03160 28.16038 23.59599
#
# Velocity S-wave (km/s) = 2.86725 3.48777 3.19262
# Velocity P-wave (km/s) = 4.90186 5.82355 5.38247
#
# Compressibility (1/GPa) = 0.03305910
#
# Stress axis : x y z
#
# Youngs Moduli (GPa) = 40.08673 100.93607 82.11064
#
# Poissons Ratio (x) = -0.10351 0.40850
# Poissons Ratio (y) = -0.04111 0.24936
# Poissons Ratio (z) = 0.19943 0.30653
#
# Static dielectric constant tensor:
#      x y z
#    x 1.941150 0.000000 -0.015680 
#    y 0.000000 1.894710 0.000000 
#    z -0.015680 0.000000 1.887120 
# 
# From -- ./inp_files/41920.got.cif
#   From: 2010.05.17/outbox.cif.g08.bks.cpg/sg5_21_cif.got.tgz:41920.got - 2010.06.03 18:56:24.
