data_PCOD9128294
_publ_section_title
;
Structure prediction by ZEFSAII (Michael W. Deem and Ramdas Pophale) SiO2 
 PCOD9128294
Probable space group: C 2
;
_chemical_formula_sum "Si O2"
_cell_formula_units_Z 32
_cell_length_a 11.888378
_cell_length_b 14.951245
_cell_length_c 8.625001
_cell_angle_alpha 90.000000
_cell_angle_beta 107.356535
_cell_angle_gamma 90.000000
_cell_volume 1463.254922
_symmetry_space_group_name_H-M "C 2"
_symmetry_group_IT_number 5
_symmetry_cell_setting 'monoclinic'
loop_
_space_group_symop_operation_xyz
x,y,z
-x,y,-z
1/2+x,1/2+y,z
1/2-x,1/2+y,-z
loop_
_atom_site_type_symbol
_atom_site_label
_atom_site_fract_x
_atom_site_fract_y
_atom_site_fract_z
Si Si1 0.488658 0.391140 0.808742
Si Si2 0.489241 0.900950 0.181548
Si Si3 0.255512 0.826256 0.218983
Si Si4 0.168414 0.734115 0.879002
Si Si5 0.884098 0.216816 0.743300
Si Si6 0.508847 0.096046 0.317622
Si Si7 0.739339 0.663366 0.607873
Si Si8 0.447405 0.579737 0.305320
O O1 0.349563 0.373705 0.731565
O O2 0.576697 0.312528 0.788395
O O3 0.523970 0.482232 0.741770
O O4 0.500000 0.400390 0.000000
O O5 0.353240 0.886465 0.178133
O O6 0.564646 0.815487 0.270768
O O7 0.528754 0.995640 0.266308
O O8 0.500000 0.901385 0.000000
O O9 0.315266 0.756924 0.358679
O O10 0.193717 0.762529 0.065456
O O11 0.295470 0.731163 0.849396
O O12 0.101576 0.642068 0.813736
O O13 0.802791 0.162786 0.586369
O O14 0.998427 0.151887 0.791915
O O15 0.500000 0.094335 0.500000
O O16 0.378399 0.157310 0.671114
O O17 0.688889 0.592344 0.709334
O O18 0.500000 0.595997 0.500000
#
# Coordination Sequence:
#
# PCOD9128294 Si02
#       8
#     4   4   4   4   4   4   4   4
#     4  10  24  41  66  98 129 171 224 272 332 401
#     4  12  28  45  69 105 139 182 230 285 349 409
#     4  11  24  44  70  95 136 181 221 282 340 397
#     4  11  24  46  66  97 138 180 230 274 340 410
#     4  11  24  46  66  97 138 180 230 274 340 410
#     4  12  28  45  69 105 139 182 230 285 349 409
#     4  11  24  44  70  95 136 181 221 282 340 397
#     4  10  24  41  66  98 129 171 224 272 332 401
#
# _framework density 21.869054999999999
#
# number of rings (size 3 to 8) (size 9 to 14) (size 15 to 20)
#    0.000    1.000    5.000    0.000    7.000    3.000 
#    0.000    0.000    0.000    0.000    0.000    0.000 
#    0.000    0.000    0.000    0.000    0.000    0.000 
#
# Total GULP energy -89281.913381 kJ/mol
# GULP energy per Si atom -5580.119586 kJ/mol
# Density = 2.181928 g / cm^3
# Si number density = 21.869055 Si / 1000 Ang^3
#
#
#
# Elastic Constant Matrix: (Units=GPa)
#
#
# Indices 1 2 3 4 5 6 
#
# 1 82.4394 22.0881 30.0806 0.0000 -21.0291 0.0000
# 2 22.0881 111.2521 19.9325 0.0000 -18.6491 0.0000
# 3 30.0806 19.9325 42.7470 0.0000 -19.6287 0.0000
# 4 0.0000 0.0000 0.0000 35.5605 0.0000 -13.0848
# 5 -21.0291 -18.6491 -19.6287 0.0000 33.5473 0.0000
# 6 0.0000 0.0000 0.0000 -13.0848 0.0000 43.6056
#
#
#
# Elastic Compliance Matrix: (Units=1/GPa)
#
#
# Indices 1 2 3 4 5 6 
#
# 1 0.016987 -0.000911 -0.009397 0.000000 0.004644 0.000000
# 2 -0.000911 0.010224 -0.002432 0.000000 0.003689 0.000000
# 3 -0.009397 -0.002432 0.038032 0.000000 0.015011 0.000000
# 4 0.000000 0.000000 0.000000 0.031611 0.000000 0.009486
# 5 0.004644 0.003689 0.015011 0.000000 0.043554 0.000000
# 6 0.000000 0.000000 0.000000 0.009486 0.000000 0.025779
#
#
# Mechanical properties :
#
#
# Convention : Reuss Voigt Hill
#
# Bulk Modulus (GPa) = 25.14809 42.29344 33.72077
# Shear Modulus (GPa) = 24.39953 33.49849 28.94901
#
# Velocity S-wave (km/s) = 3.34385 3.91804 3.64228
# Velocity P-wave (km/s) = 5.14128 6.31264 5.75683
#
# Compressibility (1/GPa) = 0.03976445
#
# Stress axis : x y z
#
# Youngs Moduli (GPa) = 58.86683 97.81272 26.29330
#
# Poissons Ratio (x) = 0.08907 0.24707
# Poissons Ratio (y) = 0.05361 0.06395
# Poissons Ratio (z) = 0.55315 0.23790
#
# Static dielectric constant tensor:
#      x y z
#    x 1.834230 0.000000 -0.007380 
#    y 0.000000 1.758570 0.000000 
#    z -0.007380 0.000000 1.765720 
# 
# From -- ./inp_files/20650.got.cif
#   From: 2010.05.17/outbox.cif.g08.bks.cpg/sg5_11_cif.got.tgz:20650.got - 2010.06.03 18:56:24.
