data_PCOD9128358
_publ_section_title
;
Structure prediction by ZEFSAII (Michael W. Deem and Ramdas Pophale) SiO2 
 PCOD9128358
Probable space group: C 2
;
_chemical_formula_sum "Si O2"
_cell_formula_units_Z 18
_cell_length_a 14.011878
_cell_length_b 11.550079
_cell_length_c 5.191681
_cell_angle_alpha 90.000000
_cell_angle_beta 119.679921
_cell_angle_gamma 90.000000
_cell_volume 729.981173
_symmetry_space_group_name_H-M "C 2"
_symmetry_group_IT_number 5
_symmetry_cell_setting 'monoclinic'
loop_
_space_group_symop_operation_xyz
x,y,z
-x,y,-z
1/2+x,1/2+y,z
1/2-x,1/2+y,-z
loop_
_atom_site_type_symbol
_atom_site_label
_atom_site_fract_x
_atom_site_fract_y
_atom_site_fract_z
Si Si1 0.930651 0.039020 0.146779
Si Si2 0.500000 0.757245 0.000000
Si Si3 0.633004 0.319588 0.704623
Si Si4 0.320080 0.921648 0.650329
Si Si5 0.872748 0.561924 0.241391
O O1 0.000000 0.054342 0.500000
O O2 0.915845 0.171080 0.035089
O O3 0.849506 0.936000 0.107434
O O4 0.000000 0.990858 0.000000
O O5 0.579329 0.835089 0.279165
O O6 0.500000 0.315265 0.500000
O O7 0.709265 0.349325 0.560839
O O8 0.662537 0.194752 0.856943
O O9 0.311929 0.015647 0.415896
O O10 0.357231 0.986455 0.963793
O O11 0.000000 0.562068 0.500000
#
# Coordination Sequence:
#
# PCOD9128358 Si02
#       5
#     4   2   4   4   4
#     4   9  22  40  69  94 136 175 231 280 339 399
#     4  10  24  42  70 102 140 176 238 284 344 416
#     4  10  26  47  71 103 145 187 233 289 349 425
#     4  12  26  43  75 104 139 189 232 292 352 414
#     4  11  25  48  70 104 144 184 235 288 357 415
#
# _framework density 24.658170999999999
#
# number of rings (size 3 to 8) (size 9 to 14) (size 15 to 20)
#    0.667    0.889    2.222    0.000    6.222   14.222 
#    0.000    0.000    0.000    0.000    0.000    0.000 
#    0.000    0.000    0.000    0.000    0.000    0.000 
#
# Total GULP energy -50170.123977 kJ/mol
# GULP energy per Si atom -5574.458220 kJ/mol
# Density = 2.460205 g / cm^3
# Si number density = 24.658171 Si / 1000 Ang^3
#
#
#
# Elastic Constant Matrix: (Units=GPa)
#
#
# Indices 1 2 3 4 5 6 
#
# 1 114.6772 25.6872 19.8489 0.0000 12.6169 0.0000
# 2 25.6872 155.4781 23.6746 0.0000 -1.2796 0.0000
# 3 19.8489 23.6746 97.8481 0.0000 -7.9869 0.0000
# 4 0.0000 0.0000 0.0000 1.5668 0.0000 -21.1387
# 5 12.6169 -1.2796 -7.9869 0.0000 36.6408 0.0000
# 6 0.0000 0.0000 0.0000 -21.1387 0.0000 29.3001
#
#
#
# Elastic Compliance Matrix: (Units=1/GPa)
#
#
# Indices 1 2 3 4 5 6 
#
# 1 0.009787 -0.001348 -0.001973 0.000000 -0.003847 0.000000
# 2 -0.001348 0.006864 -0.001354 0.000000 0.000409 0.000000
# 3 -0.001973 -0.001354 0.011199 0.000000 0.003073 0.000000
# 4 0.000000 0.000000 0.000000 -0.073079 0.000000 -0.052723
# 5 -0.003847 0.000409 0.003073 0.000000 0.029301 0.000000
# 6 0.000000 0.000000 0.000000 -0.052723 0.000000 -0.003908
#
#
# Mechanical properties :
#
#
# Convention : Reuss Voigt Hill
#
# Bulk Modulus (GPa) = 54.05667 56.26943 55.16305
# Shear Modulus (GPa) = -1157.53535 33.42104 -562.05716
#
# Velocity S-wave (km/s) = -21.68990 3.68553 -15.11404
# Velocity P-wave (km/s) = 24.60283 6.40158 16.79760
#
# Compressibility (1/GPa) = 0.01849910
#
# Stress axis : x y z
#
# Youngs Moduli (GPa) = 102.17734 145.68691 89.29662
#
# Poissons Ratio (x) = 0.19641 0.17620
# Poissons Ratio (y) = 0.13775 0.12090
# Poissons Ratio (z) = 0.20161 0.19725
#
# Static dielectric constant tensor:
#      x y z
#    x 2.090340 0.000000 0.024240 
#    y 0.000000 1.956380 0.000000 
#    z 0.024240 0.000000 1.926370 
# 
# From -- ./inp_files/6464.got.cif
#   From: 2010.05.17/outbox.cif.g08.bks.cpg/sg5_4_cif.got.tgz:6464.got - 2010.06.03 18:56:24.
