data_PCOD9128446
_publ_section_title
;
Structure prediction by ZEFSAII (Michael W. Deem and Ramdas Pophale) SiO2 
 PCOD9128446
Probable space group: C 2
;
_chemical_formula_sum "Si O2"
_cell_formula_units_Z 28
_cell_length_a 14.517521
_cell_length_b 10.289349
_cell_length_c 18.379562
_cell_angle_alpha 90.000000
_cell_angle_beta 154.005617
_cell_angle_gamma 90.000000
_cell_volume 1203.289634
_symmetry_space_group_name_H-M "C 2"
_symmetry_group_IT_number 5
_symmetry_cell_setting 'monoclinic'
loop_
_space_group_symop_operation_xyz
x,y,z
-x,y,-z
1/2+x,1/2+y,z
1/2-x,1/2+y,-z
loop_
_atom_site_type_symbol
_atom_site_label
_atom_site_fract_x
_atom_site_fract_y
_atom_site_fract_z
Si Si1 0.962986 0.490380 0.385638
Si Si2 0.865120 0.350112 0.733448
Si Si3 0.404862 0.585511 0.681297
Si Si4 0.319569 0.139013 0.698208
Si Si5 0.098825 0.207241 0.681139
Si Si6 0.746381 0.759775 0.195432
Si Si7 0.643755 0.346583 0.880993
O O1 0.191760 0.508916 0.511676
O O2 0.853965 0.359815 0.279138
O O3 0.000000 0.483520 0.500000
O O4 0.828959 0.615968 0.269998
O O5 0.824135 0.219729 0.659454
O O6 0.824379 0.492117 0.673565
O O7 0.737961 0.337537 0.718376
O O8 0.114161 0.347180 0.925921
O O9 0.558604 0.630909 0.726340
O O10 0.533626 0.483269 0.821955
O O11 0.126845 0.206476 0.519935
O O12 0.524434 0.224407 0.830530
O O13 0.264077 0.141942 0.744245
O O14 0.866685 0.824911 0.213642
O O15 0.500000 0.754954 0.000000
#
# Coordination Sequence:
#
# PCOD9128446 Si02
#       7
#     4   4   4   4   4   4   4
#     4  12  22  44  68 101 137 170 222 279 330 396
#     4  11  25  42  67 100 130 174 227 272 332 395
#     4  12  25  41  69  99 132 175 226 269 336 395
#     4  11  23  44  66  94 136 169 217 279 330 387
#     4  11  25  42  67  97 132 172 217 280 335 389
#     4  10  24  44  68  98 134 175 222 274 336 395
#     4  11  23  46  67  93 137 178 217 276 331 397
#
# _framework density 23.269544
#
# number of rings (size 3 to 8) (size 9 to 14) (size 15 to 20)
#    0.000    0.857    4.286    2.571    4.000    2.286 
#    0.000    3.571    0.000    0.000    0.000    0.000 
#    0.000    0.000    0.000    0.000    0.000    0.000 
#
# Total GULP energy -78361.401484 kJ/mol
# GULP energy per Si atom -5597.242963 kJ/mol
# Density = 2.321658 g / cm^3
# Si number density = 23.269544 Si / 1000 Ang^3
#
#
#
# Elastic Constant Matrix: (Units=GPa)
#
#
# Indices 1 2 3 4 5 6 
#
# 1 98.0541 20.7536 1.7097 0.0000 14.2912 0.0001
# 2 20.7536 156.4552 3.0003 0.0027 6.6759 0.0006
# 3 1.7097 3.0003 12.1444 0.0014 7.7109 0.0007
# 4 0.0000 0.0027 0.0014 22.0683 0.0002 8.2334
# 5 14.2912 6.6759 7.7109 0.0002 22.4165 0.0000
# 6 0.0001 0.0006 0.0007 8.2334 0.0000 32.6455
#
#
#
# Elastic Compliance Matrix: (Units=1/GPa)
#
#
# Indices 1 2 3 4 5 6 
#
# 1 0.011622 -0.001260 0.004019 0.000000 -0.008417 0.000000
# 2 -0.001260 0.006613 -0.000916 -0.000001 -0.000851 0.000000
# 3 0.004019 -0.000916 0.106777 -0.000006 -0.039019 -0.000001
# 4 0.000000 -0.000001 -0.000006 0.050021 0.000002 -0.012615
# 5 -0.008417 -0.000851 -0.039019 0.000002 0.063651 0.000000
# 6 0.000000 0.000000 -0.000001 -0.012615 0.000000 0.033814
#
#
# Mechanical properties :
#
#
# Convention : Reuss Voigt Hill
#
# Bulk Modulus (GPa) = 7.77011 35.28674 21.52843
# Shear Modulus (GPa) = 16.04064 31.50543 23.77303
#
# Velocity S-wave (km/s) = 2.62838 3.68358 3.19977
# Velocity P-wave (km/s) = 3.54367 5.76965 4.78782
#
# Compressibility (1/GPa) = 0.12869831
#
# Stress axis : x y z
#
# Youngs Moduli (GPa) = 86.04631 151.22715 9.36533
#
# Poissons Ratio (x) = 0.19048 -0.03764
# Poissons Ratio (y) = 0.10838 0.00858
# Poissons Ratio (z) = -0.34582 0.13850
#
# Static dielectric constant tensor:
#      x y z
#    x 1.921320 0.000000 -0.019220 
#    y 0.000000 1.832620 0.000000 
#    z -0.019220 0.000000 1.839530 
# 
# From -- ./inp_files/54290.got.cif
#   From: 2010.05.17/outbox.cif.g08.bks.cpg/sg5_28_cif.got.tgz:54290.got - 2010.06.03 18:56:24.
