data_PCOD9128701
_publ_section_title
;
Structure prediction by ZEFSAII (Michael W. Deem and Ramdas Pophale) SiO2 
 PCOD9128701
Probable space group: C 2
;
_chemical_formula_sum "Si O2"
_cell_formula_units_Z 28
_cell_length_a 10.796458
_cell_length_b 11.541986
_cell_length_c 11.053824
_cell_angle_alpha 90.000000
_cell_angle_beta 63.026902
_cell_angle_gamma 90.000000
_cell_volume 1227.606308
_symmetry_space_group_name_H-M "C 2"
_symmetry_group_IT_number 5
_symmetry_cell_setting 'monoclinic'
loop_
_space_group_symop_operation_xyz
x,y,z
-x,y,-z
1/2+x,1/2+y,z
1/2-x,1/2+y,-z
loop_
_atom_site_type_symbol
_atom_site_label
_atom_site_fract_x
_atom_site_fract_y
_atom_site_fract_z
Si Si1 0.102971 0.639870 0.716214
Si Si2 0.564682 0.460019 0.272611
Si Si3 0.747728 0.028873 0.441778
Si Si4 0.500000 0.012707 0.000000
Si Si5 0.836261 0.730102 0.695969
Si Si6 0.761640 0.332982 0.037885
Si Si7 0.000000 0.359512 0.500000
Si Si8 0.840520 0.223298 0.749140
O O1 0.198401 0.551393 0.599901
O O2 0.982153 0.678057 0.678527
O O3 0.211509 0.735238 0.713984
O O4 0.034964 0.588068 0.866946
O O5 0.402366 0.481409 0.360706
O O6 0.627612 0.365969 0.340242
O O7 0.632941 0.586638 0.245764
O O8 0.611915 0.394245 0.127527
O O9 0.633297 0.941335 0.441816
O O10 0.727795 0.150974 0.379013
O O11 0.627731 0.930246 0.976385
O O12 0.736472 0.735120 0.858113
O O13 0.796626 0.281970 0.893272
O O14 0.023731 0.279168 0.372471
#
# Coordination Sequence:
#
# PCOD9128701 Si02
#       8
#     4   4   4   2   4   4   2   4
#     4  12  23  47  77 106 149 202 247 327 387 460
#     4  10  26  49  74 115 151 202 250 329 383 473
#     4  12  25  50  77 112 157 201 261 325 388 469
#     4  12  24  48  76 104 154 198 254 318 394 472
#     4  10  24  48  71 118 147 202 257 314 390 461
#     4  10  26  46  74 112 145 207 252 324 388 469
#     4  12  26  46  68 114 146 202 256 324 376 474
#     4  12  25  49  75 110 151 197 268 314 401 460
#
# _framework density 22.808615
#
# number of rings (size 3 to 8) (size 9 to 14) (size 15 to 20)
#    0.857    0.000    2.857    3.429    2.000    0.000 
#   20.571    1.429    0.000    0.000    0.000    0.000 
#    0.000    0.000    0.000    0.000    0.000    0.000 
#
# Total GULP energy -78238.032835 kJ/mol
# GULP energy per Si atom -5588.430917 kJ/mol
# Density = 2.275670 g / cm^3
# Si number density = 22.808615 Si / 1000 Ang^3
#
#
#
# Elastic Constant Matrix: (Units=GPa)
#
#
# Indices 1 2 3 4 5 6 
#
# 1 59.5608 29.1895 21.5317 0.0000 -12.2412 0.0000
# 2 29.1895 121.8849 63.8747 0.0000 0.7065 0.0000
# 3 21.5317 63.8747 132.5110 0.0000 -15.1328 0.0000
# 4 0.0000 0.0000 0.0000 34.7445 0.0000 -1.8590
# 5 -12.2412 0.7065 -15.1328 0.0000 32.9255 0.0000
# 6 0.0000 0.0000 0.0000 -1.8590 0.0000 23.6627
#
#
#
# Elastic Compliance Matrix: (Units=1/GPa)
#
#
# Indices 1 2 3 4 5 6 
#
# 1 0.020881 -0.004999 -0.000089 0.000000 0.007830 0.000000
# 2 -0.004999 0.012427 -0.005721 0.000000 -0.004755 0.000000
# 3 -0.000089 -0.005721 0.010901 0.000000 0.005100 0.000000
# 4 0.000000 0.000000 0.000000 0.028903 0.000000 0.002271
# 5 0.007830 -0.004755 0.005100 0.000000 0.035729 0.000000
# 6 0.000000 0.000000 0.000000 0.002271 0.000000 0.042439
#
#
# Mechanical properties :
#
#
# Convention : Reuss Voigt Hill
#
# Bulk Modulus (GPa) = 44.26591 60.34983 52.30787
# Shear Modulus (GPa) = 27.71166 31.55726 29.63446
#
# Velocity S-wave (km/s) = 3.48942 3.72367 3.60844
# Velocity P-wave (km/s) = 5.97364 6.70852 6.35172
#
# Compressibility (1/GPa) = 0.02259075
#
# Stress axis : x y z
#
# Youngs Moduli (GPa) = 47.89039 80.46673 91.73331
#
# Poissons Ratio (x) = 0.40229 0.00815
# Poissons Ratio (y) = 0.23943 0.52482
# Poissons Ratio (z) = 0.00426 0.46036
#
# Static dielectric constant tensor:
#      x y z
#    x 1.876510 0.000000 0.003530 
#    y 0.000000 1.874430 0.000000 
#    z 0.003530 0.000000 1.898410 
# 
# From -- ./inp_files/54375.got.cif
#   From: 2010.05.17/outbox.cif.g08.bks.cpg/sg5_28_cif.got.tgz:54375.got - 2010.06.03 18:56:24.
