data_PCOD9128896
_publ_section_title
;
Structure prediction by ZEFSAII (Michael W. Deem and Ramdas Pophale) SiO2 
 PCOD9128896
Probable space group: C 2
;
_chemical_formula_sum "Si O2"
_cell_formula_units_Z 28
_cell_length_a 17.126183
_cell_length_b 6.063770
_cell_length_c 13.913902
_cell_angle_alpha 90.000000
_cell_angle_beta 124.112234
_cell_angle_gamma 90.000000
_cell_volume 1196.331184
_symmetry_space_group_name_H-M "C 2"
_symmetry_group_IT_number 5
_symmetry_cell_setting 'monoclinic'
loop_
_space_group_symop_operation_xyz
x,y,z
-x,y,-z
1/2+x,1/2+y,z
1/2-x,1/2+y,-z
loop_
_atom_site_type_symbol
_atom_site_label
_atom_site_fract_x
_atom_site_fract_y
_atom_site_fract_z
Si Si1 0.500000 0.045890 0.500000
Si Si2 0.863836 0.306014 0.868713
Si Si3 0.142168 0.605197 0.316291
Si Si4 0.819915 0.913123 0.176216
Si Si5 0.358490 0.129578 0.019918
Si Si6 0.500000 0.437429 0.000000
Si Si7 0.346397 0.778196 0.491757
Si Si8 0.017917 0.898779 0.349770
O O1 0.491070 0.203941 0.403341
O O2 0.408201 0.901550 0.455324
O O3 0.881229 0.487047 0.799231
O O4 0.749439 0.294589 0.794686
O O5 0.890475 0.394014 0.995295
O O6 0.926382 0.094513 0.892484
O O7 0.241816 0.729555 0.384121
O O8 0.151984 0.425607 0.409631
O O9 0.061852 0.777911 0.288683
O O10 0.919237 0.022281 0.270322
O O11 0.751199 0.105090 0.088717
O O12 0.848039 0.722098 0.119604
O O13 0.428098 0.296429 0.014338
O O14 0.400926 0.552383 0.552116
#
# Coordination Sequence:
#
# PCOD9128896 Si02
#       8
#     2   4   4   4   4   2   4   4
#     4  10  26  44  74 102 138 190 236 288 350 420
#     4  10  27  44  72 104 135 192 234 292 348 432
#     4  11  25  46  70 106 144 187 240 285 358 413
#     4  10  25  47  69 102 140 181 234 288 361 410
#     4  10  25  48  67 102 139 182 233 296 345 430
#     4  12  24  48  72  98 144 182 232 294 348 412
#     4  11  24  47  71 106 144 187 234 295 346 426
#     4  11  25  46  72 102 145 189 229 301 343 429
#
# _framework density 23.404892
#
# number of rings (size 3 to 8) (size 9 to 14) (size 15 to 20)
#    0.857    0.571    1.429    1.714   10.000    0.000 
#   15.429    0.000    0.000    0.000    0.000    0.000 
#    0.000    0.000    0.000    0.000    0.000    0.000 
#
# Total GULP energy -78138.162176 kJ/mol
# GULP energy per Si atom -5581.297298 kJ/mol
# Density = 2.335162 g / cm^3
# Si number density = 23.404892 Si / 1000 Ang^3
#
#
#
# Elastic Constant Matrix: (Units=GPa)
#
#
# Indices 1 2 3 4 5 6 
#
# 1 160.4190 51.3852 46.1461 0.0000 18.0690 0.0000
# 2 51.3852 57.5260 8.7246 0.0000 -3.9614 0.0000
# 3 46.1461 8.7246 48.8476 0.0000 16.2938 0.0000
# 4 0.0000 0.0000 0.0000 34.9939 0.0000 4.9834
# 5 18.0690 -3.9614 16.2938 0.0000 44.2292 0.0000
# 6 0.0000 0.0000 0.0000 4.9834 0.0000 42.6079
#
#
#
# Elastic Compliance Matrix: (Units=1/GPa)
#
#
# Indices 1 2 3 4 5 6 
#
# 1 0.012211 -0.009728 -0.008943 0.000000 -0.002566 0.000000
# 2 -0.009728 0.026015 0.002783 0.000000 0.005279 0.000000
# 3 -0.008943 0.002783 0.030921 0.000000 -0.007489 0.000000
# 4 0.000000 0.000000 0.000000 0.029060 0.000000 -0.003399
# 5 -0.002566 0.005279 -0.007489 0.000000 0.026889 0.000000
# 6 0.000000 0.000000 0.000000 -0.003399 0.000000 0.023867
#
#
# Mechanical properties :
#
#
# Convention : Reuss Voigt Hill
#
# Bulk Modulus (GPa) = 26.75893 53.25602 40.00748
# Shear Modulus (GPa) = 25.88046 35.06863 30.47454
#
# Velocity S-wave (km/s) = 3.32892 3.87505 3.61232
# Velocity P-wave (km/s) = 5.12186 6.54408 5.87616
#
# Compressibility (1/GPa) = 0.03737070
#
# Stress axis : x y z
#
# Youngs Moduli (GPa) = 81.89256 38.44004 32.34080
#
# Poissons Ratio (x) = 0.37395 0.28921
# Poissons Ratio (y) = 0.79665 -0.09000
# Poissons Ratio (z) = 0.73233 -0.10697
#
# Static dielectric constant tensor:
#      x y z
#    x 1.881580 0.000000 0.004820 
#    y 0.000000 1.876600 0.000000 
#    z 0.004820 0.000000 1.969930 
# 
# From -- ./inp_files/55521.got.cif
#   From: 2010.05.17/outbox.cif.g08.bks.cpg/sg5_28_cif.got.tgz:55521.got - 2010.06.03 18:56:24.
