data_PCOD9128783
_publ_section_title
;
Structure prediction by ZEFSAII (Michael W. Deem and Ramdas Pophale) SiO2 
 PCOD9128783
Probable space group: C 2
;
_chemical_formula_sum "Si O2"
_cell_formula_units_Z 16
_cell_length_a 10.565737
_cell_length_b 8.366336
_cell_length_c 7.259899
_cell_angle_alpha 90.000000
_cell_angle_beta 118.876553
_cell_angle_gamma 90.000000
_cell_volume 561.955975
_symmetry_space_group_name_H-M "C 2"
_symmetry_group_IT_number 5
_symmetry_cell_setting 'monoclinic'
loop_
_space_group_symop_operation_xyz
x,y,z
-x,y,-z
1/2+x,1/2+y,z
1/2-x,1/2+y,-z
loop_
_atom_site_type_symbol
_atom_site_label
_atom_site_fract_x
_atom_site_fract_y
_atom_site_fract_z
Si Si1 0.110271 0.195850 0.918947
Si Si2 0.329856 0.066100 0.326981
Si Si3 0.678916 0.266815 0.360267
Si Si4 0.500000 0.501701 0.500000
Si Si5 0.000000 0.514275 0.000000
O O1 0.228411 0.387567 0.694306
O O2 0.085320 0.112072 0.705840
O O3 0.271142 0.156923 0.106146
O O4 0.000000 0.123609 0.000000
O O5 0.500000 0.069529 0.500000
O O6 0.243580 0.165162 0.427016
O O7 0.424642 0.884729 0.084033
O O8 0.581989 0.381441 0.420233
O O9 0.598283 0.132700 0.186412
#
# Coordination Sequence:
#
# PCOD9128783 Si02
#       5
#     4   4   4   2   2
#     4  10  24  54  89 133 180 242 308 383 462 556
#     4  12  27  55  85 133 189 244 302 389 474 558
#     4  12  25  53  84 132 178 245 308 376 468 552
#     4  12  24  52  98 130 178 244 318 390 448 562
#     4  10  24  54  92 124 188 244 308 388 450 564
#
# _framework density 28.471982000000001
#
# number of rings (size 3 to 8) (size 9 to 14) (size 15 to 20)
#    0.750    0.000    3.750    3.000    0.000    1.000 
#   15.750    1.250    0.000    0.000    0.000    0.000 
#    0.000    0.000    0.000    0.000    0.000    0.000 
#
# Total GULP energy -44862.926383 kJ/mol
# GULP energy per Si atom -5607.865798 kJ/mol
# Density = 2.840718 g / cm^3
# Si number density = 28.471982 Si / 1000 Ang^3
#
#
#
# Elastic Constant Matrix: (Units=GPa)
#
#
# Indices 1 2 3 4 5 6 
#
# 1 145.4079 87.0036 76.5081 0.0000 -1.3678 0.0000
# 2 87.0036 290.3076 111.1786 0.0000 16.1576 0.0000
# 3 76.5081 111.1786 270.7741 0.0000 20.5214 0.0000
# 4 0.0000 0.0000 0.0000 67.0266 0.0000 1.6228
# 5 -1.3678 16.1576 20.5214 0.0000 68.4128 0.0000
# 6 0.0000 0.0000 0.0000 1.6228 0.0000 71.8033
#
#
#
# Elastic Compliance Matrix: (Units=1/GPa)
#
#
# Indices 1 2 3 4 5 6 
#
# 1 0.009094 -0.002105 -0.001798 0.000000 0.001218 0.000000
# 2 -0.002105 0.004589 -0.001232 0.000000 -0.000756 0.000000
# 3 -0.001798 -0.001232 0.004797 0.000000 -0.001184 0.000000
# 4 0.000000 0.000000 0.000000 0.014928 0.000000 -0.000337
# 5 0.001218 -0.000756 -0.001184 0.000000 0.015175 0.000000
# 6 0.000000 0.000000 0.000000 -0.000337 0.000000 0.013935
#
#
# Mechanical properties :
#
#
# Convention : Reuss Voigt Hill
#
# Bulk Modulus (GPa) = 121.79410 139.54113 130.66761
# Shear Modulus (GPa) = 66.20424 70.23516 68.21970
#
# Velocity S-wave (km/s) = 4.82731 4.97209 4.90024
# Velocity P-wave (km/s) = 8.59885 9.05973 8.83230
#
# Compressibility (1/GPa) = 0.00821058
#
# Stress axis : x y z
#
# Youngs Moduli (GPa) = 109.96429 217.89036 208.47381
#
# Poissons Ratio (x) = 0.45860 0.37476
# Poissons Ratio (y) = 0.23145 0.25692
# Poissons Ratio (z) = 0.19767 0.26853
#
# Static dielectric constant tensor:
#      x y z
#    x 2.470740 0.000000 -0.201670 
#    y 0.000000 2.183280 0.000000 
#    z -0.201670 0.000000 2.418300 
# 
# From -- ./inp_files/4483.got.cif
#   From: 2010.05.17/outbox.cif.g08.bks.cpg/sg5_3_cif.got.tgz:4483.got - 2010.06.03 18:56:24.
