data_PCOD9128827
_publ_section_title
;
Structure prediction by ZEFSAII (Michael W. Deem and Ramdas Pophale) SiO2 
 PCOD9128827
Probable space group: C 2
;
_chemical_formula_sum "Si O2"
_cell_formula_units_Z 30
_cell_length_a 12.109666
_cell_length_b 22.009735
_cell_length_c 9.610226
_cell_angle_alpha 90.000000
_cell_angle_beta 145.548150
_cell_angle_gamma 90.000000
_cell_volume 1449.029050
_symmetry_space_group_name_H-M "C 2"
_symmetry_group_IT_number 5
_symmetry_cell_setting 'monoclinic'
loop_
_space_group_symop_operation_xyz
x,y,z
-x,y,-z
1/2+x,1/2+y,z
1/2-x,1/2+y,-z
loop_
_atom_site_type_symbol
_atom_site_label
_atom_site_fract_x
_atom_site_fract_y
_atom_site_fract_z
Si Si1 0.544878 0.067140 0.894110
Si Si2 0.572114 0.881627 0.421281
Si Si3 0.408689 0.490082 0.259273
Si Si4 0.000000 0.212988 0.000000
Si Si5 0.775737 0.015546 0.629192
Si Si6 0.199794 0.618033 0.780716
Si Si7 0.704199 0.305637 0.554041
Si Si8 0.807223 0.856613 0.163687
O O1 0.344933 0.050350 0.613792
O O2 0.656946 0.106720 0.897391
O O3 0.500000 0.091126 0.000000
O O4 0.682756 0.007727 0.040865
O O5 0.500000 0.867087 0.500000
O O6 0.731283 0.836763 0.521442
O O7 0.669709 0.949499 0.531391
O O8 0.382707 0.868181 0.127020
O O9 0.500000 0.512727 0.500000
O O10 0.513563 0.510914 0.225961
O O11 0.428590 0.418053 0.273511
O O12 0.135386 0.168023 0.054515
O O13 0.150535 0.250475 0.254411
O O14 0.753270 0.057378 0.743829
O O15 0.000000 0.640027 0.500000
O O16 0.465893 0.302381 0.302099
O O17 0.749398 0.348633 0.734485
#
# Coordination Sequence:
#
# PCOD9128827 Si02
#       8
#     4   4   4   2   4   4   4   4
#     4  11  22  37  63  91 134 170 218 274 333 408
#     4  12  23  39  63  98 144 176 208 280 352 410
#     4  12  20  32  61  94 134 179 208 270 337 413
#     4  12  24  46  78  88 128 180 248 290 318 390
#     4  11  22  40  59  97 140 176 218 262 340 414
#     4  10  25  44  64  97 128 178 229 278 333 399
#     4  11  24  41  70  98 124 178 236 289 325 395
#     4  11  22  39  62  99 133 171 231 271 341 402
#
# _framework density 20.703519
#
# number of rings (size 3 to 8) (size 9 to 14) (size 15 to 20)
#    0.000    0.800    6.667    2.000    1.867    0.533 
#    0.000    0.000    5.867    0.000    0.000    0.000 
#    0.000    0.000    0.000    0.000    0.000    0.000 
#
# Total GULP energy -83581.232578 kJ/mol
# GULP energy per Si atom -5572.082172 kJ/mol
# Density = 2.065640 g / cm^3
# Si number density = 20.703519 Si / 1000 Ang^3
#
#
#
# Elastic Constant Matrix: (Units=GPa)
#
#
# Indices 1 2 3 4 5 6 
#
# 1 146.0905 30.0405 20.5975 0.0000 -17.4593 0.0000
# 2 30.0405 62.7941 11.7879 0.0000 2.4890 0.0000
# 3 20.5975 11.7879 73.3109 0.0000 2.3841 0.0000
# 4 0.0000 0.0000 0.0000 16.0116 0.0000 27.4422
# 5 -17.4593 2.4890 2.3841 0.0000 33.0451 0.0000
# 6 0.0000 0.0000 0.0000 27.4422 0.0000 17.2154
#
#
#
# Elastic Compliance Matrix: (Units=1/GPa)
#
#
# Indices 1 2 3 4 5 6 
#
# 1 0.008508 -0.003905 -0.001923 0.000000 0.004928 0.000000
# 2 -0.003905 0.018249 -0.001730 0.000000 -0.003313 0.000000
# 3 -0.001923 -0.001730 0.014522 0.000000 -0.001933 0.000000
# 4 0.000000 0.000000 0.000000 -0.036058 0.000000 0.057479
# 5 0.004928 -0.003313 -0.001933 0.000000 0.033254 0.000000
# 6 0.000000 0.000000 0.000000 0.057479 0.000000 -0.033537
#
#
# Mechanical properties :
#
#
# Convention : Reuss Voigt Hill
#
# Bulk Modulus (GPa) = 38.21928 45.22748 41.72338
# Shear Modulus (GPa) = 173.77331 27.90572 100.83951
#
# Velocity S-wave (km/s) = 9.17150 3.67532 6.98657
# Velocity P-wave (km/s) = 11.43047 6.31691 9.23469
#
# Compressibility (1/GPa) = 0.02616480
#
# Stress axis : x y z
#
# Youngs Moduli (GPa) = 117.53600 54.79753 68.86221
#
# Poissons Ratio (x) = 0.21396 0.13241
# Poissons Ratio (y) = 0.45893 0.11910
# Poissons Ratio (z) = 0.22600 0.09477
#
# Static dielectric constant tensor:
#      x y z
#    x 1.772980 0.000000 0.061460 
#    y 0.000000 1.780130 0.000000 
#    z 0.061460 0.000000 1.811860 
# 
# From -- ./inp_files/22152.got.cif
#   From: 2010.05.17/outbox.cif.g08.bks.cpg/sg5_12_cif.got.tgz:22152.got - 2010.06.03 18:56:24.
