data_PCOD9128683
_publ_section_title
;
Structure prediction by ZEFSAII (Michael W. Deem and Ramdas Pophale) SiO2 
 PCOD9128683
Probable space group: C 2
;
_chemical_formula_sum "Si O2"
_cell_formula_units_Z 18
_cell_length_a 5.353489
_cell_length_b 25.281018
_cell_length_c 5.315695
_cell_angle_alpha 90.000000
_cell_angle_beta 93.187728
_cell_angle_gamma 90.000000
_cell_volume 718.321758
_symmetry_space_group_name_H-M "C 2"
_symmetry_group_IT_number 5
_symmetry_cell_setting 'monoclinic'
loop_
_space_group_symop_operation_xyz
x,y,z
-x,y,-z
1/2+x,1/2+y,z
1/2-x,1/2+y,-z
loop_
_atom_site_type_symbol
_atom_site_label
_atom_site_fract_x
_atom_site_fract_y
_atom_site_fract_z
Si Si1 0.500000 0.101990 0.500000
Si Si2 0.233004 0.681873 0.842101
Si Si3 0.740086 0.408467 0.835454
Si Si4 0.160198 0.294780 0.266467
Si Si5 0.161232 0.028077 0.750677
O O1 0.714553 0.141970 0.608922
O O2 0.404515 0.063917 0.718875
O O3 0.175550 0.742811 0.764072
O O4 0.500000 0.679405 0.000000
O O5 0.000000 0.665996 0.000000
O O6 0.734907 0.353633 0.682610
O O7 0.727898 0.466166 0.713513
O O8 0.500000 0.405255 0.000000
O O9 0.000000 0.409078 0.000000
O O10 0.000000 0.281414 0.500000
O O11 0.000000 0.298576 0.000000
O O12 0.000000 0.042739 0.500000
O O13 0.000000 0.033874 0.000000
#
# Coordination Sequence:
#
# PCOD9128683 Si02
#       5
#     2   4   4   4   4
#     4  12  32  48  84 112 168 214 278 330 400 484
#     4  11  29  52  78 116 158 212 268 330 402 476
#     4  10  24  49  80 115 156 201 255 326 399 475
#     4  10  24  47  79 114 156 199 258 324 399 476
#     4  11  30  51  78 116 160 209 270 330 402 475
#
# _framework density 25.058409000000001
#
# number of rings (size 3 to 8) (size 9 to 14) (size 15 to 20)
#    0.000    1.333    0.000    0.667   20.222    3.556 
#    2.000    0.000    0.000    0.000    0.000    0.000 
#    0.000    0.000    0.000    0.000    0.000    0.000 
#
# Total GULP energy -50342.864411 kJ/mol
# GULP energy per Si atom -5593.651601 kJ/mol
# Density = 2.500137 g / cm^3
# Si number density = 25.058409 Si / 1000 Ang^3
#
#
#
# Elastic Constant Matrix: (Units=GPa)
#
#
# Indices 1 2 3 4 5 6 
#
# 1 119.3565 26.4786 33.9094 0.0000 1.7520 0.0000
# 2 26.4786 219.3304 31.7158 0.0000 -15.4575 0.0000
# 3 33.9094 31.7158 115.8884 0.0000 -5.1797 0.0000
# 4 0.0000 0.0000 0.0000 50.2119 0.0000 -6.3991
# 5 1.7520 -15.4575 -5.1797 0.0000 42.4167 0.0000
# 6 0.0000 0.0000 0.0000 -6.3991 0.0000 39.0846
#
#
#
# Elastic Compliance Matrix: (Units=1/GPa)
#
#
# Indices 1 2 3 4 5 6 
#
# 1 0.009297 -0.000825 -0.002539 0.000000 -0.000995 0.000000
# 2 -0.000825 0.004928 -0.001031 0.000000 0.001704 0.000000
# 3 -0.002539 -0.001031 0.009695 0.000000 0.000913 0.000000
# 4 0.000000 0.000000 0.000000 0.020340 0.000000 0.003330
# 5 -0.000995 0.001704 0.000913 0.000000 0.024349 0.000000
# 6 0.000000 0.000000 0.000000 0.003330 0.000000 0.026131
#
#
# Mechanical properties :
#
#
# Convention : Reuss Voigt Hill
#
# Bulk Modulus (GPa) = 66.09600 70.97587 68.53593
# Shear Modulus (GPa) = 46.05138 50.50741 48.27939
#
# Velocity S-wave (km/s) = 4.29156 4.49440 4.39415
# Velocity P-wave (km/s) = 7.14078 7.43764 7.29072
#
# Compressibility (1/GPa) = 0.01512951
#
# Stress axis : x y z
#
# Youngs Moduli (GPa) = 107.55803 202.91528 103.14709
#
# Poissons Ratio (x) = 0.16748 0.26189
# Poissons Ratio (y) = 0.08878 0.10635
# Poissons Ratio (z) = 0.27309 0.20921
#
# Static dielectric constant tensor:
#      x y z
#    x 1.949000 0.000000 -0.225610 
#    y 0.000000 1.996070 0.000000 
#    z -0.225610 0.000000 2.094140 
# 
# From -- ./inp_files/836.got.cif
#   From: 2010.05.17/outbox.cif.g08.bks.cpg/sg5_1_cif.got.tgz:836.got - 2010.06.03 18:56:24.
