data_PCOD9128360
_publ_section_title
;
Structure prediction by ZEFSAII (Michael W. Deem and Ramdas Pophale) SiO2 
 PCOD9128360
Probable space group: C 2
;
_chemical_formula_sum "Si O2"
_cell_formula_units_Z 20
_cell_length_a 8.367238
_cell_length_b 21.058601
_cell_length_c 7.935493
_cell_angle_alpha 90.000000
_cell_angle_beta 146.159441
_cell_angle_gamma 90.000000
_cell_volume 778.663958
_symmetry_space_group_name_H-M "C 2"
_symmetry_group_IT_number 5
_symmetry_cell_setting 'monoclinic'
loop_
_space_group_symop_operation_xyz
x,y,z
-x,y,-z
1/2+x,1/2+y,z
1/2-x,1/2+y,-z
loop_
_atom_site_type_symbol
_atom_site_label
_atom_site_fract_x
_atom_site_fract_y
_atom_site_fract_z
Si Si1 0.000000 0.360430 0.000000
Si Si2 0.000000 0.879464 0.000000
Si Si3 0.218881 0.570856 0.343805
Si Si4 0.504527 0.697377 0.304220
Si Si5 0.504666 0.278028 0.733375
Si Si6 0.963544 0.448747 0.270023
O O1 0.267637 0.320386 0.166183
O O2 0.094228 0.405054 0.238649
O O3 0.130615 0.928802 0.977280
O O4 0.123710 0.825397 0.236563
O O5 0.500000 0.541018 0.500000
O O6 0.362258 0.626720 0.581096
O O7 0.049839 0.519891 0.306051
O O8 0.000000 0.591611 0.000000
O O9 0.500000 0.710128 0.500000
O O10 0.731760 0.743718 0.415243
O O11 0.194494 0.718455 0.968283
O O12 0.000000 0.431492 0.500000
#
# Coordination Sequence:
#
# PCOD9128360 Si02
#       6
#     2   2   4   4   4   4
#     4  10  26  48  70 116 148 188 256 310 376 458
#     4  10  24  42  70 106 142 190 246 302 368 452
#     4  11  25  47  75 108 150 200 254 311 369 448
#     4  11  21  43  73 104 143 195 244 296 373 435
#     4  11  23  42  70 104 144 190 237 304 369 442
#     4  11  26  48  73 106 150 204 244 315 378 447
#
# _framework density 25.685020000000002
#
# number of rings (size 3 to 8) (size 9 to 14) (size 15 to 20)
#    0.000    1.200    3.000    2.400    8.400    0.800 
#    7.200    0.000    0.000    0.000    0.000    0.000 
#    0.000    0.000    0.000    0.000    0.000    0.000 
#
# Total GULP energy -55772.097417 kJ/mol
# GULP energy per Si atom -5577.209742 kJ/mol
# Density = 2.562656 g / cm^3
# Si number density = 25.685020 Si / 1000 Ang^3
#
#
#
# Elastic Constant Matrix: (Units=GPa)
#
#
# Indices 1 2 3 4 5 6 
#
# 1 93.0082 84.2879 12.8284 0.0000 -1.3744 0.0000
# 2 84.2879 178.1745 23.3353 0.0000 6.0676 0.0000
# 3 12.8284 23.3353 93.2064 0.0000 1.2219 0.0000
# 4 0.0000 0.0000 0.0000 8.1567 0.0000 31.7398
# 5 -1.3744 6.0676 1.2219 0.0000 50.2915 0.0000
# 6 0.0000 0.0000 0.0000 31.7398 0.0000 57.5424
#
#
#
# Elastic Compliance Matrix: (Units=1/GPa)
#
#
# Indices 1 2 3 4 5 6 
#
# 1 0.018962 -0.008975 -0.000384 0.000000 0.001610 0.000000
# 2 -0.008975 0.010073 -0.001268 0.000000 -0.001430 0.000000
# 3 -0.000384 -0.001268 0.011101 0.000000 -0.000127 0.000000
# 4 0.000000 0.000000 0.000000 -0.106944 0.000000 0.058989
# 5 0.001610 -0.001430 -0.000127 0.000000 0.020104 0.000000
# 6 0.000000 0.000000 0.000000 0.058989 0.000000 -0.015159
#
#
# Mechanical properties :
#
#
# Convention : Reuss Voigt Hill
#
# Bulk Modulus (GPa) = 52.95964 67.25470 60.10717
# Shear Modulus (GPa) = -145.70060 39.46061 -53.11999
#
# Velocity S-wave (km/s) = -7.53983 3.92385 -4.55260
# Velocity P-wave (km/s) = 7.42530 6.83887 2.04512
#
# Compressibility (1/GPa) = 0.01888230
#
# Stress axis : x y z
#
# Youngs Moduli (GPa) = 52.73794 99.27734 90.08338
#
# Poissons Ratio (x) = 0.89098 0.03459
# Poissons Ratio (y) = 0.47330 0.11421
# Poissons Ratio (z) = 0.02025 0.12587
#
# Static dielectric constant tensor:
#      x y z
#    x 3.798330 0.000000 2.712800 
#    y 0.000000 2.004230 0.000000 
#    z 2.712800 0.000000 6.431470 
# 
# From -- ./inp_files/16609.got.cif
#   From: 2010.05.17/outbox.cif.g08.bks.cpg/sg5_9_cif.got.tgz:16609.got - 2010.06.03 18:56:24.
