data_PCOD9128608
_publ_section_title
;
Structure prediction by ZEFSAII (Michael W. Deem and Ramdas Pophale) SiO2 
 PCOD9128608
Probable space group: C 2
;
_chemical_formula_sum "Si O2"
_cell_formula_units_Z 28
_cell_length_a 14.781020
_cell_length_b 11.454937
_cell_length_c 9.909011
_cell_angle_alpha 90.000000
_cell_angle_beta 53.103456
_cell_angle_gamma 90.000000
_cell_volume 1341.732229
_symmetry_space_group_name_H-M "C 2"
_symmetry_group_IT_number 5
_symmetry_cell_setting 'monoclinic'
loop_
_space_group_symop_operation_xyz
x,y,z
-x,y,-z
1/2+x,1/2+y,z
1/2-x,1/2+y,-z
loop_
_atom_site_type_symbol
_atom_site_label
_atom_site_fract_x
_atom_site_fract_y
_atom_site_fract_z
Si Si1 0.652683 0.526530 0.218943
Si Si2 0.375724 0.135518 0.626243
Si Si3 0.000000 0.200262 0.500000
Si Si4 0.884196 0.628770 0.934433
Si Si5 0.735680 0.850338 0.679820
Si Si6 0.812369 0.387420 0.586733
Si Si7 0.892650 0.888435 0.015860
Si Si8 0.000000 0.439553 0.000000
O O1 0.551184 0.613638 0.342349
O O2 0.766558 0.603206 0.114090
O O3 0.677663 0.431498 0.313030
O O4 0.637635 0.461712 0.090074
O O5 0.500000 0.190192 0.500000
O O6 0.279697 0.219280 0.655675
O O7 0.372787 0.011488 0.555671
O O8 0.359491 0.119673 0.799356
O O9 0.098793 0.283404 0.467553
O O10 0.923726 0.757826 0.937684
O O11 0.968546 0.527335 0.906282
O O12 0.732092 0.882066 0.526013
O O13 0.611413 0.868383 0.857642
O O14 0.712236 0.381511 0.786862
O O15 0.000000 0.937997 0.000000
#
# Coordination Sequence:
#
# PCOD9128608 Si02
#       8
#     4   4   2   4   4   4   4   2
#     4  11  26  47  73 105 147 192 236 304 361 424
#     4  12  26  44  73 102 146 185 241 298 359 440
#     4  12  28  48  74 104 152 188 244 298 372 426
#     4  11  22  45  71 102 141 193 238 288 364 436
#     4  11  28  44  74 108 143 184 246 297 368 421
#     4  12  28  48  72 107 142 194 237 301 367 431
#     4  12  26  45  73 106 143 191 244 295 359 432
#     4  10  24  46  72 102 150 192 234 294 368 438
#
# _framework density 20.868545000000001
#
# number of rings (size 3 to 8) (size 9 to 14) (size 15 to 20)
#    0.000    0.571    5.714    0.857    7.000    1.143 
#    1.286    0.000    0.000    0.000    0.000    0.000 
#    0.000    0.000    0.000    0.000    0.000    0.000 
#
# Total GULP energy -78321.638322 kJ/mol
# GULP energy per Si atom -5594.402737 kJ/mol
# Density = 2.082105 g / cm^3
# Si number density = 20.868545 Si / 1000 Ang^3
#
#
#
# Elastic Constant Matrix: (Units=GPa)
#
#
# Indices 1 2 3 4 5 6 
#
# 1 117.8197 49.4498 54.9043 0.0000 13.0779 0.0000
# 2 49.4498 97.2357 52.5831 0.0000 -2.9473 0.0000
# 3 54.9043 52.5831 102.7812 0.0000 15.7803 0.0000
# 4 0.0000 0.0000 0.0000 13.4092 0.0000 -17.6402
# 5 13.0779 -2.9473 15.7803 0.0000 52.5804 0.0000
# 6 0.0000 0.0000 0.0000 -17.6402 0.0000 14.8244
#
#
#
# Elastic Compliance Matrix: (Units=1/GPa)
#
#
# Indices 1 2 3 4 5 6 
#
# 1 0.012394 -0.004085 -0.004217 0.000000 -0.002046 0.000000
# 2 -0.004085 0.016071 -0.006640 0.000000 0.003910 0.000000
# 3 -0.004217 -0.006640 0.016013 0.000000 -0.004129 0.000000
# 4 0.000000 0.000000 0.000000 -0.131898 0.000000 -0.156951
# 5 -0.002046 0.003910 -0.004129 0.000000 0.020986 0.000000
# 6 0.000000 0.000000 0.000000 -0.156951 0.000000 -0.119307
#
#
# Mechanical properties :
#
#
# Convention : Reuss Voigt Hill
#
# Bulk Modulus (GPa) = 68.51843 70.19013 69.35428
# Shear Modulus (GPa) = -33.11434 26.88943 -3.11246
#
# Velocity S-wave (km/s) = -3.98780 3.59348 -1.22258
# Velocity P-wave (km/s) = 3.42071 7.13617 5.59581
#
# Compressibility (1/GPa) = 0.01459461
#
# Stress axis : x y z
#
# Youngs Moduli (GPa) = 80.68335 62.22395 62.44882
#
# Poissons Ratio (x) = 0.25417 0.26334
# Poissons Ratio (y) = 0.32957 0.41467
# Poissons Ratio (z) = 0.34023 0.41318
#
# Static dielectric constant tensor:
#      x y z
#    x 1.745520 0.000000 -0.040490 
#    y 0.000000 1.738300 0.000000 
#    z -0.040490 0.000000 1.761820 
# 
# From -- ./inp_files/23821.got.cif
#   From: 2010.05.17/outbox.cif.g08.bks.cpg/sg5_12_cif.got.tgz:23821.got - 2010.06.03 18:56:24.
