data_PCOD9128950
_publ_section_title
;
Structure prediction by ZEFSAII (Michael W. Deem and Ramdas Pophale) SiO2 
 PCOD9128950
Probable space group: C 2
;
_chemical_formula_sum "Si O2"
_cell_formula_units_Z 20
_cell_length_a 21.346325
_cell_length_b 5.080571
_cell_length_c 13.660122
_cell_angle_alpha 90.000000
_cell_angle_beta 151.563828
_cell_angle_gamma 90.000000
_cell_volume 705.441286
_symmetry_space_group_name_H-M "C 2"
_symmetry_group_IT_number 5
_symmetry_cell_setting 'monoclinic'
loop_
_space_group_symop_operation_xyz
x,y,z
-x,y,-z
1/2+x,1/2+y,z
1/2-x,1/2+y,-z
loop_
_atom_site_type_symbol
_atom_site_label
_atom_site_fract_x
_atom_site_fract_y
_atom_site_fract_z
Si Si1 0.548619 0.399070 0.671330
Si Si2 0.225370 0.007769 0.670547
Si Si3 0.253845 0.776428 0.107153
Si Si4 0.321184 0.845146 0.558512
Si Si5 0.072453 0.114328 0.008048
O O1 0.500000 0.291369 0.500000
O O2 0.414185 0.379594 0.546668
O O3 0.597240 0.706284 0.727131
O O4 0.664218 0.253238 0.887592
O O5 0.207626 0.288977 0.595039
O O6 0.240733 0.038520 0.807802
O O7 0.349620 0.831342 0.820868
O O8 0.173023 0.977292 0.067674
O O9 0.281099 0.131989 0.537077
O O10 0.464121 0.753623 0.790106
O O11 0.000000 0.957407 0.000000
#
# Coordination Sequence:
#
# PCOD9128950 Si02
#       5
#     4   4   4   4   4
#     4  10  25  50  70 112 151 210 276 339 417 490
#     4  11  26  49  74 117 161 215 278 342 419 501
#     4  11  26  49  77 111 160 210 279 342 419 498
#     4  12  27  50  81 121 171 224 277 346 424 512
#     4  12  26  49  81 118 161 221 271 347 422 511
#
# _framework density 28.351047000000001
#
# number of rings (size 3 to 8) (size 9 to 14) (size 15 to 20)
#    0.000    0.800    4.000    1.200    8.400    0.800 
#   10.800    0.000    0.000    0.000    0.000    0.000 
#    0.000    0.000    0.000    0.000    0.000    0.000 
#
# Total GULP energy -55762.929741 kJ/mol
# GULP energy per Si atom -5576.292974 kJ/mol
# Density = 2.828652 g / cm^3
# Si number density = 28.351047 Si / 1000 Ang^3
#
#
#
# Elastic Constant Matrix: (Units=GPa)
#
#
# Indices 1 2 3 4 5 6 
#
# 1 108.2235 28.6861 53.8495 -0.0003 -4.5393 -0.0003
# 2 28.6861 45.7963 32.6698 0.0022 11.4512 0.0007
# 3 53.8495 32.6698 214.8766 0.0001 -9.5857 0.0003
# 4 -0.0003 0.0022 0.0001 54.5508 0.0004 0.4192
# 5 -4.5393 11.4512 -9.5857 0.0004 63.8990 0.0000
# 6 -0.0003 0.0007 0.0003 0.4192 0.0000 27.5623
#
#
#
# Elastic Compliance Matrix: (Units=1/GPa)
#
#
# Indices 1 2 3 4 5 6 
#
# 1 0.012021 -0.006587 -0.001933 0.000000 0.001744 0.000000
# 2 -0.006587 0.029785 -0.003158 -0.000001 -0.006279 -0.000001
# 3 -0.001933 -0.003158 0.005676 0.000000 0.001280 0.000000
# 4 0.000000 -0.000001 0.000000 0.018334 0.000000 -0.000279
# 5 0.001744 -0.006279 0.001280 0.000000 0.017091 0.000000
# 6 0.000000 -0.000001 0.000000 -0.000279 0.000000 0.036286
#
#
# Mechanical properties :
#
#
# Convention : Reuss Voigt Hill
#
# Bulk Modulus (GPa) = 41.45035 66.58970 54.02003
# Shear Modulus (GPa) = 33.20284 46.11514 39.65899
#
# Velocity S-wave (km/s) = 3.42589 4.03746 3.74418
# Velocity P-wave (km/s) = 5.50465 6.72855 6.14713
#
# Compressibility (1/GPa) = 0.02412525
#
# Stress axis : x y z
#
# Youngs Moduli (GPa) = 83.18627 33.57441 176.19431
#
# Poissons Ratio (x) = 0.22115 0.34064
# Poissons Ratio (y) = 0.54794 0.55639
# Poissons Ratio (z) = 0.16082 0.10602
#
# Static dielectric constant tensor:
#      x y z
#    x 2.599920 0.000000 0.043940 
#    y 0.000000 2.258050 0.000000 
#    z 0.043940 0.000000 2.095900 
# 
# From -- ./inp_files/57413.got.cif
#   From: 2010.05.17/outbox.cif.g08.bks.cpg/sg5_29_cif.got.tgz:57413.got - 2010.06.03 18:56:24.
