data_PCOD9128401
_publ_section_title
;
Structure prediction by ZEFSAII (Michael W. Deem and Ramdas Pophale) SiO2 
 PCOD9128401
Probable space group: C 2
;
_chemical_formula_sum "Si O2"
_cell_formula_units_Z 24
_cell_length_a 11.288662
_cell_length_b 8.664888
_cell_length_c 23.893928
_cell_angle_alpha 90.000000
_cell_angle_beta 27.180225
_cell_angle_gamma 90.000000
_cell_volume 1067.604618
_symmetry_space_group_name_H-M "C 2"
_symmetry_group_IT_number 5
_symmetry_cell_setting 'monoclinic'
loop_
_space_group_symop_operation_xyz
x,y,z
-x,y,-z
1/2+x,1/2+y,z
1/2-x,1/2+y,-z
loop_
_atom_site_type_symbol
_atom_site_label
_atom_site_fract_x
_atom_site_fract_y
_atom_site_fract_z
Si Si1 0.467549 0.347160 0.781802
Si Si2 0.335817 0.778368 0.914718
Si Si3 0.515942 0.842940 0.370056
Si Si4 0.171113 0.107238 0.980380
Si Si5 0.234279 0.167949 0.173006
Si Si6 0.234927 0.641015 0.578475
O O1 0.737513 0.397225 0.696862
O O2 0.313484 0.254622 0.894185
O O3 0.307550 0.488760 0.823849
O O4 0.547684 0.227276 0.700322
O O5 0.406312 0.750316 0.820837
O O6 0.345418 0.960115 0.922715
O O7 0.469689 0.670884 0.905028
O O8 0.034165 0.721983 0.046675
O O9 0.613229 0.722723 0.282030
O O10 0.316779 0.757583 0.494807
O O11 0.390101 0.988149 0.393166
O O12 0.000000 0.049753 0.000000
O O13 0.500000 0.603128 0.500000
#
# Coordination Sequence:
#
# PCOD9128401 Si02
#       6
#     4   4   4   4   4   4
#     4  11  25  41  68  98 131 177 220 272 333 392
#     4  11  25  42  63  97 135 176 226 270 323 400
#     4  11  23  46  66  98 133 168 221 278 331 401
#     4  12  25  43  66  95 137 180 223 271 328 389
#     4  11  23  43  64  95 136 170 220 274 325 391
#     4  10  24  43  69  96 129 168 221 274 334 396
#
# _framework density 22.480232999999998
#
# number of rings (size 3 to 8) (size 9 to 14) (size 15 to 20)
#    0.000    1.000    3.333    3.000    4.667    1.333 
#    0.000    0.000    0.000    0.000    0.000    0.000 
#    0.000    0.000    0.000    0.000    0.000    0.000 
#
# Total GULP energy -67162.230527 kJ/mol
# GULP energy per Si atom -5596.852544 kJ/mol
# Density = 2.242907 g / cm^3
# Si number density = 22.480233 Si / 1000 Ang^3
#
#
#
# Elastic Constant Matrix: (Units=GPa)
#
#
# Indices 1 2 3 4 5 6 
#
# 1 115.5751 50.3959 23.4392 0.0008 19.1919 -0.0001
# 2 50.3959 119.8456 -3.3728 0.0008 -20.9334 0.0001
# 3 23.4392 -3.3728 31.5090 -0.0015 4.7861 0.0011
# 4 0.0008 0.0008 -0.0015 22.4642 0.0000 8.3834
# 5 19.1919 -20.9334 4.7861 0.0000 29.2303 -0.0001
# 6 -0.0001 0.0001 0.0011 8.3834 -0.0001 47.9581
#
#
#
# Elastic Compliance Matrix: (Units=1/GPa)
#
#
# Indices 1 2 3 4 5 6 
#
# 1 0.019851 -0.012136 -0.013092 -0.000001 -0.019581 0.000001
# 2 -0.012136 0.016957 0.007987 0.000000 0.018804 0.000000
# 3 -0.013092 0.007987 0.041180 0.000003 0.007573 -0.000002
# 4 -0.000001 0.000000 0.000003 0.047622 0.000000 -0.008325
# 5 -0.019581 0.018804 0.007573 0.000000 0.059295 0.000000
# 6 0.000001 0.000000 -0.000002 -0.008325 0.000000 0.022307
#
#
# Mechanical properties :
#
#
# Convention : Reuss Voigt Hill
#
# Bulk Modulus (GPa) = 22.98540 45.31714 34.15127
# Shear Modulus (GPa) = 19.51635 33.02835 26.27235
#
# Velocity S-wave (km/s) = 2.94965 3.83720 3.42231
# Velocity P-wave (km/s) = 4.67413 6.31146 5.55347
#
# Compressibility (1/GPa) = 0.04350588
#
# Stress axis : x y z
#
# Youngs Moduli (GPa) = 50.37533 58.97359 24.28344
#
# Poissons Ratio (x) = 0.71572 0.31791
# Poissons Ratio (y) = 0.61137 -0.19395
# Poissons Ratio (z) = 0.65950 -0.47101
#
# Static dielectric constant tensor:
#      x y z
#    x 1.901170 0.000000 -0.021420 
#    y 0.000000 1.792900 0.000000 
#    z -0.021420 0.000000 1.799100 
# 
# From -- ./inp_files/38275.got.cif
#   From: 2010.05.17/outbox.cif.g08.bks.cpg/sg5_20_cif.got.tgz:38275.got - 2010.06.03 18:56:24.
