data_PCOD9128486
_publ_section_title
;
Structure prediction by ZEFSAII (Michael W. Deem and Ramdas Pophale) SiO2 
 PCOD9128486
Probable space group: C 2
;
_chemical_formula_sum "Si O2"
_cell_formula_units_Z 28
_cell_length_a 5.494702
_cell_length_b 13.598223
_cell_length_c 18.608111
_cell_angle_alpha 90.000000
_cell_angle_beta 63.432689
_cell_angle_gamma 90.000000
_cell_volume 1243.555061
_symmetry_space_group_name_H-M "C 2"
_symmetry_group_IT_number 5
_symmetry_cell_setting 'monoclinic'
loop_
_space_group_symop_operation_xyz
x,y,z
-x,y,-z
1/2+x,1/2+y,z
1/2-x,1/2+y,-z
loop_
_atom_site_type_symbol
_atom_site_label
_atom_site_fract_x
_atom_site_fract_y
_atom_site_fract_z
Si Si1 0.383510 0.807640 0.169189
Si Si2 0.898725 0.098609 0.831445
Si Si3 0.902698 0.471389 0.754494
Si Si4 0.500000 0.755164 0.000000
Si Si5 0.000000 0.627325 0.000000
Si Si6 0.823852 0.929977 0.451147
Si Si7 0.332644 0.304150 0.316723
Si Si8 0.614069 0.597464 0.337846
O O1 0.578261 0.716526 0.163009
O O2 0.457265 0.905687 0.202319
O O3 0.398413 0.816649 0.081801
O O4 0.091250 0.771774 0.235834
O O5 0.649335 0.070002 0.915597
O O6 0.895977 0.083626 0.746654
O O7 0.165048 0.038009 0.819657
O O8 0.794830 0.392053 0.712070
O O9 0.102666 0.542145 0.683689
O O10 0.243013 0.689979 0.006314
O O11 0.500000 0.916208 0.500000
O O12 0.924733 0.849532 0.379998
O O13 0.000000 0.920755 0.500000
O O14 0.885067 0.037029 0.409047
O O15 0.135509 0.211828 0.352471
#
# Coordination Sequence:
#
# PCOD9128486 Si02
#       8
#     4   4   4   2   2   4   4   4
#     4  11  23  43  78 106 153 202 255 307 380 432
#     4  11  23  43  78 106 153 202 255 307 380 432
#     4  12  23  44  75 113 144 196 257 310 360 456
#     4  10  24  44  73 109 158 204 256 319 370 435
#     4  10  24  44  73 109 158 204 256 319 370 435
#     4  12  29  52  78 112 156 193 247 320 384 459
#     4  12  25  47  77 109 148 199 248 306 379 456
#     4  12  25  47  77 109 148 199 248 306 379 456
#
# _framework density 22.516093999999999
#
# number of rings (size 3 to 8) (size 9 to 14) (size 15 to 20)
#    0.000    0.571    5.714    1.714    4.000    0.571 
#    0.000    8.571    0.000    0.000    0.000    0.000 
#    0.000    0.000    0.000    0.000    0.000    0.000 
#
# Total GULP energy -78288.094458 kJ/mol
# GULP energy per Si atom -5592.006747 kJ/mol
# Density = 2.246485 g / cm^3
# Si number density = 22.516094 Si / 1000 Ang^3
#
#
#
# Elastic Constant Matrix: (Units=GPa)
#
#
# Indices 1 2 3 4 5 6 
#
# 1 81.9400 10.0468 31.9814 0.0000 9.0604 0.0001
# 2 10.0468 91.0632 15.7158 0.0000 8.4876 0.0000
# 3 31.9814 15.7158 112.5311 0.0000 17.9538 0.0000
# 4 0.0000 0.0000 0.0000 -150.7423 0.0000 -354.5637
# 5 9.0604 8.4876 17.9538 0.0000 47.8111 0.0000
# 6 0.0001 0.0000 0.0000 -354.5637 0.0000 -655.4895
#
#
#
# Elastic Compliance Matrix: (Units=1/GPa)
#
#
# Indices 1 2 3 4 5 6 
#
# 1 0.013848 -0.000795 -0.003647 0.000000 -0.001114 0.000000
# 2 -0.000795 0.011400 -0.001135 0.000000 -0.001447 0.000000
# 3 -0.003647 -0.001135 0.010572 0.000000 -0.003077 0.000000
# 4 0.000000 0.000000 0.000000 0.024363 0.000000 -0.013178
# 5 -0.001114 -0.001447 -0.003077 0.000000 0.022539 0.000000
# 6 0.000000 0.000000 0.000000 -0.013178 0.000000 0.005603
#
#
# Mechanical properties :
#
#
# Convention : Reuss Voigt Hill
#
# Bulk Modulus (GPa) = 40.54106 44.55806 42.54956
# Shear Modulus (GPa) = 46.42480 -136.49813 -45.03666
#
# Velocity S-wave (km/s) = 4.54569 -7.79449 -4.47721
# Velocity P-wave (km/s) = 6.75244 7.82132 2.79084
#
# Compressibility (1/GPa) = 0.02466635
#
# Stress axis : x y z
#
# Youngs Moduli (GPa) = 72.21236 87.72048 94.58542
#
# Poissons Ratio (x) = 0.06971 0.34495
# Poissons Ratio (y) = 0.05738 0.10739
# Poissons Ratio (z) = 0.26336 0.09960
#
# Static dielectric constant tensor:
#      x y z
#    x 2.198660 0.000000 0.155470 
#    y 0.000000 1.821490 0.000000 
#    z 0.155470 0.000000 1.909250 
# 
# From -- ./inp_files/58849.got.cif
#   From: 2010.05.17/outbox.cif.g08.bks.cpg/sg5_30_cif.got.tgz:58849.got - 2010.06.03 18:56:24.
