data_PCOD9128248
_publ_section_title
;
Structure prediction by ZEFSAII (Michael W. Deem and Ramdas Pophale) SiO2 
 PCOD9128248
Probable space group: C 2
;
_chemical_formula_sum "Si O2"
_cell_formula_units_Z 30
_cell_length_a 9.999494
_cell_length_b 30.332235
_cell_length_c 5.025531
_cell_angle_alpha 90.000000
_cell_angle_beta 100.259985
_cell_angle_gamma 90.000000
_cell_volume 1499.905024
_symmetry_space_group_name_H-M "C 2"
_symmetry_group_IT_number 5
_symmetry_cell_setting 'monoclinic'
loop_
_space_group_symop_operation_xyz
x,y,z
-x,y,-z
1/2+x,1/2+y,z
1/2-x,1/2+y,-z
loop_
_atom_site_type_symbol
_atom_site_label
_atom_site_fract_x
_atom_site_fract_y
_atom_site_fract_z
Si Si1 0.762254 0.899070 0.608982
Si Si2 0.335467 0.048865 0.923512
Si Si3 0.834299 0.600058 0.420004
Si Si4 0.405750 0.187109 0.214259
Si Si5 0.355345 0.805629 0.351621
Si Si6 0.500000 0.351183 0.000000
Si Si7 0.203174 0.782483 0.804985
Si Si8 0.664050 0.947940 0.067291
O O1 0.661340 0.857829 0.613525
O O2 0.740927 0.915890 0.301796
O O3 0.905285 0.880402 0.771854
O O4 0.716709 0.937534 0.791713
O O5 0.286731 0.084609 0.691142
O O6 0.305419 0.998441 0.845004
O O7 0.500000 0.051152 0.000000
O O8 0.286880 0.063471 0.195100
O O9 0.808362 0.647996 0.283896
O O10 0.000000 0.599526 0.500000
O O11 0.500000 0.197234 0.500000
O O12 0.337755 0.233417 0.124831
O O13 0.500000 0.172021 0.000000
O O14 0.500000 0.789770 0.500000
O O15 0.240997 0.785335 0.508370
O O16 0.329248 0.795440 0.036056
O O17 0.408605 0.318613 0.149319
O O18 0.500000 0.941507 0.000000
#
# Coordination Sequence:
#
# PCOD9128248 Si02
#       8
#     4   4   4   4   4   2   4   4
#     4  11  23  36  56  77 111 147 193 232 278 332
#     4   9  17  29  47  72 108 140 174 217 283 341
#     4   9  16  28  46  73 108 145 168 214 275 345
#     4  11  20  32  52  80 117 149 186 220 276 358
#     4  11  23  39  57  79 109 149 195 239 283 330
#     4  10  24  40  56  84 116 158 194 242 290 332
#     4  11  23  37  58  80 115 153 189 238 287 335
#     4  11  21  35  55  81 111 147 187 233 283 339
#
# _framework density 20.001268
#
# number of rings (size 3 to 8) (size 9 to 14) (size 15 to 20)
#    0.000    1.600    0.667    6.800    1.867    4.800 
#    0.000    0.000    0.000    0.000    0.000    0.000 
#   40.000    0.000    0.000    0.000    0.000    0.000 
#
# Total GULP energy -83711.268362 kJ/mol
# GULP energy per Si atom -5580.751224 kJ/mol
# Density = 1.995574 g / cm^3
# Si number density = 20.001268 Si / 1000 Ang^3
#
#
#
# Elastic Constant Matrix: (Units=GPa)
#
#
# Indices 1 2 3 4 5 6 
#
# 1 48.9645 8.4202 1.1107 0.0000 9.3462 0.0000
# 2 8.4202 101.3867 10.4913 0.0000 6.3719 0.0000
# 3 1.1107 10.4913 80.6244 0.0000 -0.2220 0.0000
# 4 0.0000 0.0000 0.0000 37.3133 0.0000 -1.2983
# 5 9.3462 6.3719 -0.2220 0.0000 23.3912 0.0000
# 6 0.0000 0.0000 0.0000 -1.2983 0.0000 4.4718
#
#
#
# Elastic Compliance Matrix: (Units=1/GPa)
#
#
# Indices 1 2 3 4 5 6 
#
# 1 0.022282 -0.001296 -0.000162 0.000000 -0.008551 0.000000
# 2 -0.001296 0.010251 -0.001322 0.000000 -0.002287 0.000000
# 3 -0.000162 -0.001322 0.012579 0.000000 0.000544 0.000000
# 4 0.000000 0.000000 0.000000 0.027074 0.000000 0.007860
# 5 -0.008551 -0.002287 0.000544 0.000000 0.046796 0.000000
# 6 0.000000 0.000000 0.000000 0.007860 0.000000 0.225903
#
#
# Mechanical properties :
#
#
# Convention : Reuss Voigt Hill
#
# Bulk Modulus (GPa) = 25.28369 30.11332 27.69851
# Shear Modulus (GPa) = 13.75023 27.09882 20.42453
#
# Velocity S-wave (km/s) = 2.62481 3.68483 3.19903
# Velocity P-wave (km/s) = 4.67489 5.76128 5.24628
#
# Compressibility (1/GPa) = 0.03955118
#
# Stress axis : x y z
#
# Youngs Moduli (GPa) = 44.87962 97.54695 79.49754
#
# Poissons Ratio (x) = 0.12645 0.01286
# Poissons Ratio (y) = 0.05818 0.10513
# Poissons Ratio (z) = 0.00726 0.12900
#
# Static dielectric constant tensor:
#      x y z
#    x 1.719460 0.000000 0.000050 
#    y 0.000000 1.735050 0.000000 
#    z 0.000050 0.000000 1.716870 
# 
# From -- ./inp_files/3811.got.cif
#   From: 2010.05.17/outbox.cif.g08.bks.cpg/sg5_2_cif.got.tgz:3811.got - 2010.06.03 18:56:24.
