data_PCOD9128616
_publ_section_title
;
Structure prediction by ZEFSAII (Michael W. Deem and Ramdas Pophale) SiO2 
 PCOD9128616
Probable space group: C 2
;
_chemical_formula_sum "Si O2"
_cell_formula_units_Z 22
_cell_length_a 21.307018
_cell_length_b 6.456533
_cell_length_c 6.924256
_cell_angle_alpha 90.000000
_cell_angle_beta 80.990510
_cell_angle_gamma 90.000000
_cell_volume 940.813827
_symmetry_space_group_name_H-M "C 2"
_symmetry_group_IT_number 5
_symmetry_cell_setting 'monoclinic'
loop_
_space_group_symop_operation_xyz
x,y,z
-x,y,-z
1/2+x,1/2+y,z
1/2-x,1/2+y,-z
loop_
_atom_site_type_symbol
_atom_site_label
_atom_site_fract_x
_atom_site_fract_y
_atom_site_fract_z
Si Si1 0.662689 0.340020 0.400231
Si Si2 0.572378 0.787736 0.928986
Si Si3 0.500000 0.387001 0.000000
Si Si4 0.317969 0.029731 0.930979
Si Si5 0.258702 0.708725 0.683829
Si Si6 0.452925 0.102584 0.359070
O O1 0.664737 0.241033 0.186200
O O2 0.676729 0.583280 0.387398
O O3 0.719681 0.257342 0.510666
O O4 0.598611 0.258301 0.526487
O O5 0.583317 0.908624 0.722606
O O6 0.500000 0.855824 0.000000
O O7 0.621769 0.885445 0.052751
O O8 0.561617 0.541126 0.955658
O O9 0.493253 0.242997 0.189734
O O10 0.273798 0.911166 0.800447
O O11 0.283004 0.070102 0.149316
O O12 0.500000 0.022069 0.500000
#
# Coordination Sequence:
#
# PCOD9128616 Si02
#       6
#     4   4   2   4   4   4
#     4  12  27  43  72 105 144 179 239 288 341 421
#     4  10  24  46  72  97 141 182 230 282 353 405
#     4  10  26  46  66 106 138 178 236 282 352 410
#     4  12  25  46  73 101 144 186 228 294 348 410
#     4  12  26  45  71 105 140 187 232 286 350 408
#     4  12  26  45  74 104 140 184 232 289 353 410
#
# _framework density 23.384011999999998
#
# number of rings (size 3 to 8) (size 9 to 14) (size 15 to 20)
#    0.545    0.000    6.364    1.091    2.545    5.091 
#    0.000    0.000    0.000    0.000    0.000    0.000 
#    0.000    0.000    0.000    0.000    0.000    0.000 
#
# Total GULP energy -61447.642936 kJ/mol
# GULP energy per Si atom -5586.149358 kJ/mol
# Density = 2.333079 g / cm^3
# Si number density = 23.384012 Si / 1000 Ang^3
#
#
#
# Elastic Constant Matrix: (Units=GPa)
#
#
# Indices 1 2 3 4 5 6 
#
# 1 48.7884 -3.3913 19.7292 0.0000 9.8053 0.0000
# 2 -3.3913 68.4227 28.4082 0.0000 0.2490 0.0000
# 3 19.7292 28.4082 102.9039 0.0000 14.4138 0.0000
# 4 0.0000 0.0000 0.0000 30.2828 0.0000 -4.0365
# 5 9.8053 0.2490 14.4138 0.0000 46.3360 0.0000
# 6 0.0000 0.0000 0.0000 -4.0365 0.0000 21.2242
#
#
#
# Elastic Compliance Matrix: (Units=1/GPa)
#
#
# Indices 1 2 3 4 5 6 
#
# 1 0.023387 0.003200 -0.004884 0.000000 -0.003447 0.000000
# 2 0.003200 0.017031 -0.005445 0.000000 0.000925 0.000000
# 3 -0.004884 -0.005445 0.012556 0.000000 -0.002843 0.000000
# 4 0.000000 0.000000 0.000000 0.033881 0.000000 0.006444
# 5 -0.003447 0.000925 -0.002843 0.000000 0.023190 0.000000
# 6 0.000000 0.000000 0.000000 0.006444 0.000000 0.048342
#
#
# Mechanical properties :
#
#
# Convention : Reuss Voigt Hill
#
# Bulk Modulus (GPa) = 25.83010 34.40080 30.11545
# Shear Modulus (GPa) = 26.94697 31.25986 29.10341
#
# Velocity S-wave (km/s) = 3.39834 3.66020 3.53170
# Velocity P-wave (km/s) = 5.14473 5.71016 5.43481
#
# Compressibility (1/GPa) = 0.03871452
#
# Stress axis : x y z
#
# Youngs Moduli (GPa) = 42.75890 58.71715 79.64614
#
# Poissons Ratio (x) = -0.18787 0.38902
# Poissons Ratio (y) = -0.13681 0.43364
# Poissons Ratio (z) = 0.20885 0.31969
#
# Static dielectric constant tensor:
#      x y z
#    x 1.893020 0.000000 -0.071030 
#    y 0.000000 1.918730 0.000000 
#    z -0.071030 0.000000 1.940030 
# 
# From -- ./inp_files/9286.got.cif
#   From: 2010.05.17/outbox.cif.g08.bks.cpg/sg5_5_cif.got.tgz:9286.got - 2010.06.03 18:56:24.
