data_PCOD9128125
_publ_section_title
;
Structure prediction by ZEFSAII (Michael W. Deem and Ramdas Pophale) SiO2 
 PCOD9128125
Probable space group: C 2
;
_chemical_formula_sum "Si O2"
_cell_formula_units_Z 22
_cell_length_a 22.189230
_cell_length_b 6.934379
_cell_length_c 13.494153
_cell_angle_alpha 90.000000
_cell_angle_beta 154.665650
_cell_angle_gamma 90.000000
_cell_volume 888.459269
_symmetry_space_group_name_H-M "C 2"
_symmetry_group_IT_number 5
_symmetry_cell_setting 'monoclinic'
loop_
_space_group_symop_operation_xyz
x,y,z
-x,y,-z
1/2+x,1/2+y,z
1/2-x,1/2+y,-z
loop_
_atom_site_type_symbol
_atom_site_label
_atom_site_fract_x
_atom_site_fract_y
_atom_site_fract_z
Si Si1 0.436294 0.410350 0.308478
Si Si2 0.650245 0.001489 0.197897
Si Si3 0.359242 0.895333 0.043410
Si Si4 0.121343 0.953623 0.986345
Si Si5 0.374116 0.759347 0.471721
Si Si6 0.500000 0.624654 0.000000
O O1 0.500000 0.300673 0.500000
O O2 0.533857 0.599673 0.447639
O O3 0.272816 0.453929 0.086892
O O4 0.440174 0.337900 0.199840
O O5 0.782701 0.136883 0.416873
O O6 0.500000 0.093790 0.000000
O O7 0.653330 0.983077 0.083767
O O8 0.629687 0.780467 0.205033
O O9 0.515698 0.908862 0.319013
O O10 0.345506 0.665244 0.006445
O O11 0.263883 0.863066 0.238085
O O12 0.025552 0.999698 0.939991
#
# Coordination Sequence:
#
# PCOD9128125 Si02
#       6
#     4   4   4   4   4   2
#     4  11  24  45  71  99 152 188 233 299 362 418
#     4   9  20  44  69  97 150 185 228 287 360 421
#     4  10  23  47  64 101 144 187 235 290 355 421
#     4  10  24  44  73 107 140 185 247 291 351 432
#     4  11  24  45  72 106 135 190 236 294 353 418
#     4   8  20  46  68 108 150 180 240 286 356 434
#
# _framework density 24.761969000000001
#
# number of rings (size 3 to 8) (size 9 to 14) (size 15 to 20)
#    0.545    1.455    1.818    0.000    6.364    0.000 
#   19.636    0.000    0.000    0.000    0.000    0.000 
#    0.000    0.000    0.000    0.000    0.000    0.000 
#
# Total GULP energy -61390.025140 kJ/mol
# GULP energy per Si atom -5580.911376 kJ/mol
# Density = 2.470561 g / cm^3
# Si number density = 24.761969 Si / 1000 Ang^3
#
#
#
# Elastic Constant Matrix: (Units=GPa)
#
#
# Indices 1 2 3 4 5 6 
#
# 1 177.4603 39.0730 77.7861 0.0000 13.5846 0.0000
# 2 39.0730 74.7253 49.9271 0.0000 -2.5970 0.0000
# 3 77.7861 49.9271 156.4580 0.0000 -12.9054 0.0000
# 4 0.0000 0.0000 0.0000 47.7851 0.0000 13.6769
# 5 13.5846 -2.5970 -12.9054 0.0000 51.4804 0.0000
# 6 0.0000 0.0000 0.0000 13.6769 0.0000 19.3333
#
#
#
# Elastic Compliance Matrix: (Units=1/GPa)
#
#
# Indices 1 2 3 4 5 6 
#
# 1 0.007832 -0.001819 -0.003565 0.000000 -0.003052 0.000000
# 2 -0.001819 0.017445 -0.004646 0.000000 0.000195 0.000000
# 3 -0.003565 -0.004646 0.009910 0.000000 0.003191 0.000000
# 4 0.000000 0.000000 0.000000 0.026240 0.000000 -0.018563
# 5 -0.003052 0.000195 0.003191 0.000000 0.021040 0.000000
# 6 0.000000 0.000000 0.000000 -0.018563 0.000000 0.064856
#
#
# Mechanical properties :
#
#
# Convention : Reuss Voigt Hill
#
# Bulk Modulus (GPa) = 66.11395 82.46846 74.29121
# Shear Modulus (GPa) = 28.99805 39.84358 34.42082
#
# Velocity S-wave (km/s) = 3.42581 4.01567 3.73241
# Velocity P-wave (km/s) = 6.51199 7.40794 6.97436
#
# Compressibility (1/GPa) = 0.01512540
#
# Stress axis : x y z
#
# Youngs Moduli (GPa) = 127.68256 57.32387 100.91155
#
# Poissons Ratio (x) = 0.10429 0.35975
# Poissons Ratio (y) = 0.23231 0.46885
# Poissons Ratio (z) = 0.45518 0.26633
#
# Static dielectric constant tensor:
#      x y z
#    x 2.004020 0.000000 -0.040060 
#    y 0.000000 2.051830 0.000000 
#    z -0.040060 0.000000 2.032720 
# 
# From -- ./inp_files/57657.got.cif
#   From: 2010.05.17/outbox.cif.g08.bks.cpg/sg5_29_cif.got.tgz:57657.got - 2010.06.03 18:56:24.
