data_PCOD9128907
_publ_section_title
;
Structure prediction by ZEFSAII (Michael W. Deem and Ramdas Pophale) SiO2 
 PCOD9128907
Probable space group: C 2
;
_chemical_formula_sum "Si O2"
_cell_formula_units_Z 18
_cell_length_a 7.593861
_cell_length_b 5.222684
_cell_length_c 20.821357
_cell_angle_alpha 90.000000
_cell_angle_beta 129.909228
_cell_angle_gamma 90.000000
_cell_volume 633.425869
_symmetry_space_group_name_H-M "C 2"
_symmetry_group_IT_number 5
_symmetry_cell_setting 'monoclinic'
loop_
_space_group_symop_operation_xyz
x,y,z
-x,y,-z
1/2+x,1/2+y,z
1/2-x,1/2+y,-z
loop_
_atom_site_type_symbol
_atom_site_label
_atom_site_fract_x
_atom_site_fract_y
_atom_site_fract_z
Si Si1 0.500000 0.593451 0.000000
Si Si2 0.997104 0.730998 0.110898
Si Si3 0.090232 0.939963 0.775674
Si Si4 0.274744 0.345084 0.328686
Si Si5 0.822397 0.165660 0.555186
O O1 0.728149 0.736836 0.032119
O O2 0.593920 0.418261 0.079817
O O3 0.144684 0.474098 0.141931
O O4 0.029219 0.806542 0.192595
O O5 0.976050 0.223819 0.744980
O O6 0.090384 0.791858 0.707498
O O7 0.401623 0.618152 0.371870
O O8 0.294612 0.214232 0.403288
O O9 0.731005 0.907640 0.501332
#
# Coordination Sequence:
#
# PCOD9128907 Si02
#       5
#     2   4   4   4   4
#     4  12  24  40  66 100 138 184 236 296 362 436
#     4  12  24  43  68 100 140 184 238 296 364 430
#     4  11  24  45  70 101 141 188 240 300 365 441
#     4  10  25  47  74 106 145 192 246 304 373 442
#     4  11  26  48  77 111 150 197 252 313 376 447
#
# _framework density 28.416900999999999
#
# number of rings (size 3 to 8) (size 9 to 14) (size 15 to 20)
#    0.000    0.889    0.000    6.000    0.000   10.667 
#    0.000    0.000    0.000    0.000    0.000    0.000 
#    0.000    0.000    0.000    0.000    0.000    0.000 
#
# Total GULP energy -50301.989221 kJ/mol
# GULP energy per Si atom -5589.109913 kJ/mol
# Density = 2.835222 g / cm^3
# Si number density = 28.416901 Si / 1000 Ang^3
#
#
#
# Elastic Constant Matrix: (Units=GPa)
#
#
# Indices 1 2 3 4 5 6 
#
# 1 162.6150 48.5962 60.6319 0.0000 -7.5683 0.0000
# 2 48.5962 103.1763 51.7783 0.0000 -23.8808 0.0000
# 3 60.6319 51.7783 156.1135 0.0000 -29.5965 0.0000
# 4 0.0000 0.0000 0.0000 39.7771 0.0000 -1.1830
# 5 -7.5683 -23.8808 -29.5965 0.0000 64.6376 0.0000
# 6 0.0000 0.0000 0.0000 -1.1830 0.0000 60.5284
#
#
#
# Elastic Compliance Matrix: (Units=1/GPa)
#
#
# Indices 1 2 3 4 5 6 
#
# 1 0.007792 -0.002774 -0.002330 0.000000 -0.001179 0.000000
# 2 -0.002774 0.013086 -0.002637 0.000000 0.003303 0.000000
# 3 -0.002330 -0.002637 0.008704 0.000000 0.002739 0.000000
# 4 0.000000 0.000000 0.000000 0.025155 0.000000 0.000492
# 5 -0.001179 0.003303 0.002739 0.000000 0.017807 0.000000
# 6 0.000000 0.000000 0.000000 0.000492 0.000000 0.016531
#
#
# Mechanical properties :
#
#
# Convention : Reuss Voigt Hill
#
# Bulk Modulus (GPa) = 70.91458 82.65750 76.78604
# Shear Modulus (GPa) = 45.76353 50.38186 48.07270
#
# Velocity S-wave (km/s) = 4.01737 4.21521 4.11748
# Velocity P-wave (km/s) = 6.82117 7.26920 7.04874
#
# Compressibility (1/GPa) = 0.01410147
#
# Stress axis : x y z
#
# Youngs Moduli (GPa) = 128.33185 76.41534 114.88599
#
# Poissons Ratio (x) = 0.21197 0.26768
# Poissons Ratio (y) = 0.35597 0.30294
# Poissons Ratio (z) = 0.29901 0.20150
#
# Static dielectric constant tensor:
#      x y z
#    x 2.169410 0.000000 0.129590 
#    y 0.000000 2.195970 0.000000 
#    z 0.129590 0.000000 2.238070 
# 
# From -- ./inp_files/59183.got.cif
#   From: 2010.05.17/outbox.cif.g08.bks.cpg/sg5_30_cif.got.tgz:59183.got - 2010.06.03 18:56:24.
