data_PCOD9128529
_publ_section_title
;
Structure prediction by ZEFSAII (Michael W. Deem and Ramdas Pophale) SiO2 
 PCOD9128529
Probable space group: C 2
;
_chemical_formula_sum "Si O2"
_cell_formula_units_Z 28
_cell_length_a 19.521441
_cell_length_b 6.413069
_cell_length_c 15.837912
_cell_angle_alpha 90.000000
_cell_angle_beta 143.240389
_cell_angle_gamma 90.000000
_cell_volume 1186.615758
_symmetry_space_group_name_H-M "C 2"
_symmetry_group_IT_number 5
_symmetry_cell_setting 'monoclinic'
loop_
_space_group_symop_operation_xyz
x,y,z
-x,y,-z
1/2+x,1/2+y,z
1/2-x,1/2+y,-z
loop_
_atom_site_type_symbol
_atom_site_label
_atom_site_fract_x
_atom_site_fract_y
_atom_site_fract_z
Si Si1 0.896260 0.381160 0.745604
Si Si2 0.142431 0.595314 0.817499
Si Si3 0.540461 0.399966 0.454335
Si Si4 0.271692 0.075636 0.337753
Si Si5 0.049709 0.314425 0.388904
Si Si6 0.364178 0.211052 0.853515
Si Si7 0.843985 0.408334 0.983032
O O1 0.816185 0.184264 0.684680
O O2 0.910817 0.412212 0.660755
O O3 0.853173 0.584550 0.753979
O O4 0.025686 0.335148 0.904037
O O5 0.154136 0.548731 0.929544
O O6 0.083736 0.376818 0.729247
O O7 0.047265 0.750191 0.682523
O O8 0.259579 0.712549 0.909360
O O9 0.500000 0.514477 0.500000
O O10 0.643470 0.266360 0.596210
O O11 0.568920 0.569877 0.412563
O O12 0.364015 0.910296 0.460031
O O13 0.194489 0.936066 0.200837
O O14 0.500000 0.236577 0.000000
O O15 0.315462 0.058067 0.876970
#
# Coordination Sequence:
#
# PCOD9128529 Si02
#       7
#     4   4   4   4   4   4   4
#     4  10  24  45  69 106 143 186 241 300 366 429
#     4  10  25  46  71 108 138 196 234 300 364 432
#     4  11  27  49  71 107 145 188 250 302 364 435
#     4  11  25  43  74 104 137 194 236 302 365 427
#     4  10  25  46  72 102 147 190 241 302 361 433
#     4  10  24  47  70 109 148 185 241 305 367 437
#     4  10  24  48  73 105 150 185 245 303 365 440
#
# _framework density 23.596518
#
# number of rings (size 3 to 8) (size 9 to 14) (size 15 to 20)
#    0.000    1.714    0.000    0.857   12.000    8.571 
#    0.000    0.000    0.000    0.000    0.000    0.000 
#    0.000    0.000    0.000    0.000    0.000    0.000 
#
# Total GULP energy -78076.639393 kJ/mol
# GULP energy per Si atom -5576.902814 kJ/mol
# Density = 2.354281 g / cm^3
# Si number density = 23.596518 Si / 1000 Ang^3
#
#
#
# Elastic Constant Matrix: (Units=GPa)
#
#
# Indices 1 2 3 4 5 6 
#
# 1 83.5183 35.5458 33.2716 0.0000 -3.3190 0.0000
# 2 35.5458 78.1438 36.0244 0.0000 -2.6073 0.0000
# 3 33.2716 36.0244 77.9499 0.0000 5.2802 0.0000
# 4 0.0000 0.0000 0.0000 36.2822 0.0000 2.9069
# 5 -3.3190 -2.6073 5.2802 0.0000 28.7626 0.0000
# 6 0.0000 0.0000 0.0000 2.9069 0.0000 36.5276
#
#
#
# Elastic Compliance Matrix: (Units=1/GPa)
#
#
# Indices 1 2 3 4 5 6 
#
# 1 0.016089 -0.005092 -0.004667 0.000000 0.002252 0.000000
# 2 -0.005092 0.018114 -0.006348 0.000000 0.002220 0.000000
# 3 -0.004667 -0.006348 0.018054 0.000000 -0.004428 0.000000
# 4 0.000000 0.000000 0.000000 0.027739 0.000000 -0.002207
# 5 0.002252 0.002220 -0.004428 0.000000 0.036041 0.000000
# 6 0.000000 0.000000 0.000000 -0.002207 0.000000 0.027552
#
#
# Mechanical properties :
#
#
# Convention : Reuss Voigt Hill
#
# Bulk Modulus (GPa) = 49.89126 49.92173 49.90649
# Shear Modulus (GPa) = 27.39961 29.29918 28.34940
#
# Velocity S-wave (km/s) = 3.41129 3.52756 3.46992
# Velocity P-wave (km/s) = 6.05849 6.14768 6.10325
#
# Compressibility (1/GPa) = 0.02004359
#
# Stress axis : x y z
#
# Youngs Moduli (GPa) = 62.15348 55.20656 55.38840
#
# Poissons Ratio (x) = 0.28112 0.25847
# Poissons Ratio (y) = 0.31650 0.35161
# Poissons Ratio (z) = 0.29004 0.35046
#
# Static dielectric constant tensor:
#      x y z
#    x 1.947100 0.000000 0.020270 
#    y 0.000000 1.863950 0.000000 
#    z 0.020270 0.000000 1.905950 
# 
# From -- ./inp_files/62608.got.cif
#   From: 2010.05.17/outbox.cif.g08.bks.cpg/sg5_32_cif.got.tgz:62608.got - 2010.06.03 18:56:24.
