data_PCOD9128211
_publ_section_title
;
Structure prediction by ZEFSAII (Michael W. Deem and Ramdas Pophale) SiO2 
 PCOD9128211
Probable space group: C 2
;
_chemical_formula_sum "Si O2"
_cell_formula_units_Z 22
_cell_length_a 20.567880
_cell_length_b 5.644103
_cell_length_c 8.835332
_cell_angle_alpha 90.000000
_cell_angle_beta 45.408229
_cell_angle_gamma 90.000000
_cell_volume 730.406645
_symmetry_space_group_name_H-M "C 2"
_symmetry_group_IT_number 5
_symmetry_cell_setting 'monoclinic'
loop_
_space_group_symop_operation_xyz
x,y,z
-x,y,-z
1/2+x,1/2+y,z
1/2-x,1/2+y,-z
loop_
_atom_site_type_symbol
_atom_site_label
_atom_site_fract_x
_atom_site_fract_y
_atom_site_fract_z
Si Si1 0.893301 0.866630 0.137060
Si Si2 0.328306 0.865717 0.215587
Si Si3 0.000000 0.792530 0.500000
Si Si4 0.483541 0.866500 0.707799
Si Si5 0.139310 0.070099 0.429576
Si Si6 0.231303 0.870669 0.946004
O O1 0.862118 0.604386 0.244619
O O2 0.853792 0.865615 0.029392
O O3 0.844382 0.113021 0.267532
O O4 0.000000 0.875593 0.000000
O O5 0.222769 0.911374 0.349968
O O6 0.393342 0.856498 0.957920
O O7 0.005183 0.642172 0.647357
O O8 0.903535 0.928130 0.644930
O O9 0.500000 0.814137 0.500000
O O10 0.549584 0.663658 0.662106
O O11 0.314820 0.818295 0.692149
O O12 0.243263 0.622010 0.019621
#
# Coordination Sequence:
#
# PCOD9128211 Si02
#       6
#     4   4   2   4   4   4
#     4  11  26  49  76 112 151 205 265 313 383 488
#     4  11  27  45  77 104 146 211 260 316 397 458
#     4  10  24  36  58  98 156 190 244 302 398 454
#     4  10  26  39  59 109 149 196 248 318 384 468
#     4  11  25  40  65 105 160 196 253 315 401 462
#     4  11  26  39  71 113 144 195 256 317 390 456
#
# _framework density 30.120207000000001
#
# number of rings (size 3 to 8) (size 9 to 14) (size 15 to 20)
#    0.545    0.727    0.909    2.727   22.909    0.000 
#    0.000    0.000    0.000   13.091    0.000    0.000 
#    0.000    0.000    0.000    0.000    0.000    0.000 
#
# Total GULP energy -61376.894065 kJ/mol
# GULP energy per Si atom -5579.717642 kJ/mol
# Density = 3.005165 g / cm^3
# Si number density = 30.120207 Si / 1000 Ang^3
#
#
#
# Elastic Constant Matrix: (Units=GPa)
#
#
# Indices 1 2 3 4 5 6 
#
# 1 201.3453 78.8652 92.2463 -0.0001 -50.5301 0.0000
# 2 78.8652 262.4392 72.2957 -0.0008 -37.7244 0.0007
# 3 92.2463 72.2957 158.0227 0.0001 -30.0480 0.0001
# 4 -0.0001 -0.0008 0.0001 62.2126 0.0000 -20.1228
# 5 -50.5301 -37.7244 -30.0480 0.0000 75.1255 0.0000
# 6 0.0000 0.0007 0.0001 -20.1228 0.0000 31.1470
#
#
#
# Elastic Compliance Matrix: (Units=1/GPa)
#
#
# Indices 1 2 3 4 5 6 
#
# 1 0.007756 -0.000886 -0.003479 0.000000 0.003380 0.000000
# 2 -0.000886 0.004625 -0.001375 0.000000 0.001176 0.000000
# 3 -0.003479 -0.001375 0.009104 0.000000 0.000611 0.000000
# 4 0.000000 0.000000 0.000000 0.020320 0.000000 0.013128
# 5 0.003380 0.001176 0.000611 0.000000 0.016420 0.000000
# 6 0.000000 0.000000 0.000000 0.013128 0.000000 0.040587
#
#
# Mechanical properties :
#
#
# Convention : Reuss Voigt Hill
#
# Bulk Modulus (GPa) = 99.95866 123.18018 111.56942
# Shear Modulus (GPa) = 44.00330 58.92368 51.46349
#
# Velocity S-wave (km/s) = 3.82635 4.42779 4.13801
# Velocity P-wave (km/s) = 7.26498 8.19301 7.74291
#
# Compressibility (1/GPa) = 0.01000414
#
# Stress axis : x y z
#
# Youngs Moduli (GPa) = 128.92962 216.23800 109.83706
#
# Poissons Ratio (x) = 0.19168 0.38217
# Poissons Ratio (y) = 0.11429 0.15099
# Poissons Ratio (z) = 0.44860 0.29725
#
# Static dielectric constant tensor:
#      x y z
#    x 2.473120 0.000000 0.147740 
#    y 0.000000 2.625880 0.000000 
#    z 0.147740 0.000000 2.510930 
# 
# From -- ./inp_files/55169.got.cif
#   From: 2010.05.17/outbox.cif.g08.bks.cpg/sg5_28_cif.got.tgz:55169.got - 2010.06.03 18:56:24.
