data_PCOD9128624
_publ_section_title
;
Structure prediction by ZEFSAII (Michael W. Deem and Ramdas Pophale) SiO2 
 PCOD9128624
Probable space group: C 2
;
_chemical_formula_sum "Si O2"
_cell_formula_units_Z 26
_cell_length_a 12.547227
_cell_length_b 8.191230
_cell_length_c 20.208825
_cell_angle_alpha 90.000000
_cell_angle_beta 148.856580
_cell_angle_gamma 90.000000
_cell_volume 1074.190744
_symmetry_space_group_name_H-M "C 2"
_symmetry_group_IT_number 5
_symmetry_cell_setting 'monoclinic'
loop_
_space_group_symop_operation_xyz
x,y,z
-x,y,-z
1/2+x,1/2+y,z
1/2-x,1/2+y,-z
loop_
_atom_site_type_symbol
_atom_site_label
_atom_site_fract_x
_atom_site_fract_y
_atom_site_fract_z
Si Si1 0.009250 0.054050 0.861123
Si Si2 0.876556 0.691712 0.790585
Si Si3 0.656343 0.676122 0.802966
Si Si4 0.311491 0.045985 0.134204
Si Si5 0.573616 0.163690 0.669035
Si Si6 0.167285 0.003261 0.461134
Si Si7 0.500000 0.669512 0.500000
O O1 0.780126 0.132628 0.736682
O O2 0.142704 0.102726 0.868652
O O3 0.001254 0.858430 0.859752
O O4 0.116287 0.096856 0.987257
O O5 0.822340 0.631192 0.835065
O O6 0.674365 0.743113 0.640534
O O7 0.998873 0.554921 0.815993
O O8 0.449637 0.614454 0.655485
O O9 0.692498 0.868211 0.834614
O O10 0.354226 0.166700 0.216744
O O11 0.441984 0.328295 0.591963
O O12 0.408403 0.016579 0.572623
O O13 0.134137 0.073734 0.516869
#
# Coordination Sequence:
#
# PCOD9128624 Si02
#       7
#     4   4   4   4   4   4   2
#     4  12  28  46  78 111 155 207 258 310 385 463
#     4  11  25  49  78 108 156 203 253 322 379 453
#     4  11  27  47  76 116 146 206 258 308 391 450
#     4  12  25  50  75 108 162 206 254 318 377 459
#     4  12  26  46  78 112 151 204 255 322 390 460
#     4  11  26  46  77 111 150 195 260 323 391 459
#     4  10  24  46  74 102 146 192 248 324 380 442
#
# _framework density 24.204267000000002
#
# number of rings (size 3 to 8) (size 9 to 14) (size 15 to 20)
#    0.000    0.615    3.077    3.231    6.462    2.462 
#    0.000    0.000    6.769    0.000    0.000    0.000 
#    0.000    0.000    0.000    0.000    0.000    0.000 
#
# Total GULP energy -72698.354930 kJ/mol
# GULP energy per Si atom -5592.181148 kJ/mol
# Density = 2.414918 g / cm^3
# Si number density = 24.204267 Si / 1000 Ang^3
#
#
#
# Elastic Constant Matrix: (Units=GPa)
#
#
# Indices 1 2 3 4 5 6 
#
# 1 121.8078 15.5936 5.5834 0.0000 -8.9766 0.0000
# 2 15.5936 34.8548 19.7233 0.0000 2.4501 0.0000
# 3 5.5834 19.7233 67.0282 0.0000 1.5216 0.0000
# 4 0.0000 0.0000 0.0000 21.2139 0.0001 -7.0046
# 5 -8.9766 2.4501 1.5216 0.0001 42.4188 0.0001
# 6 0.0000 0.0000 0.0000 -7.0046 0.0001 31.6564
#
#
#
# Elastic Compliance Matrix: (Units=1/GPa)
#
#
# Indices 1 2 3 4 5 6 
#
# 1 0.008909 -0.004425 0.000512 0.000000 0.002123 0.000000
# 2 -0.004425 0.036732 -0.010379 0.000000 -0.002686 0.000000
# 3 0.000512 -0.010379 0.017929 0.000000 0.000065 0.000000
# 4 0.000000 0.000000 0.000000 0.050854 0.000000 0.011253
# 5 0.002123 -0.002686 0.000065 0.000000 0.024176 0.000000
# 6 0.000000 0.000000 0.000000 0.011253 0.000000 0.034079
#
#
# Mechanical properties :
#
#
# Convention : Reuss Voigt Hill
#
# Bulk Modulus (GPa) = 28.58265 33.94348 31.26307
# Shear Modulus (GPa) = 23.48238 31.24386 27.36312
#
# Velocity S-wave (km/s) = 3.11814 3.59673 3.36595
# Velocity P-wave (km/s) = 4.97979 5.59489 5.29628
#
# Compressibility (1/GPa) = 0.03498626
#
# Stress axis : x y z
#
# Youngs Moduli (GPa) = 112.24551 27.22431 55.77532
#
# Poissons Ratio (x) = 0.12045 -0.02854
# Poissons Ratio (y) = 0.49663 0.57889
# Poissons Ratio (z) = -0.05743 0.28256
#
# Static dielectric constant tensor:
#      x y z
#    x 1.922620 0.000000 0.067810 
#    y 0.000000 1.913930 0.000000 
#    z 0.067810 0.000000 1.978620 
# 
# From -- ./inp_files/65923.got.cif
#   From: 2010.05.17/outbox.cif.g08.bks.cpg/sg5_33_cif.got.tgz:65923.got - 2010.06.03 18:56:24.
