data_PCOD9128699
_publ_section_title
;
Structure prediction by ZEFSAII (Michael W. Deem and Ramdas Pophale) SiO2 
 PCOD9128699
Probable space group: C 2
;
_chemical_formula_sum "Si O2"
_cell_formula_units_Z 16
_cell_length_a 7.541961
_cell_length_b 17.278907
_cell_length_c 7.759532
_cell_angle_alpha 90.000000
_cell_angle_beta 37.629216
_cell_angle_gamma 90.000000
_cell_volume 617.385838
_symmetry_space_group_name_H-M "C 2"
_symmetry_group_IT_number 5
_symmetry_cell_setting 'monoclinic'
loop_
_space_group_symop_operation_xyz
x,y,z
-x,y,-z
1/2+x,1/2+y,z
1/2-x,1/2+y,-z
loop_
_atom_site_type_symbol
_atom_site_label
_atom_site_fract_x
_atom_site_fract_y
_atom_site_fract_z
Si Si1 0.500000 0.011300 0.000000
Si Si2 0.258915 0.392827 0.031886
Si Si3 0.726613 0.113468 0.505356
Si Si4 0.784267 0.716216 0.002417
Si Si5 0.500000 0.981331 0.500000
O O1 0.352137 0.065148 0.259437
O O2 0.747173 0.955047 0.888917
O O3 0.225668 0.305128 0.000461
O O4 0.985216 0.423739 0.351791
O O5 0.500000 0.399181 0.000000
O O6 0.745676 0.046241 0.346179
O O7 0.005415 0.167701 0.276245
O O8 0.451196 0.171793 0.722688
O O9 0.000000 0.721174 0.000000
#
# Coordination Sequence:
#
# PCOD9128699 Si02
#       5
#     2   4   4   4   2
#     4  10  24  48  70 104 136 182 228 284 340 406
#     4  10  25  44  70  99 140 181 226 282 344 406
#     4  11  25  44  70 102 135 182 230 280 340 406
#     4  11  25  43  71  99 137 181 228 279 343 407
#     4  10  26  42  70 100 140 178 230 286 340 404
#
# _framework density 25.915721000000001
#
# number of rings (size 3 to 8) (size 9 to 14) (size 15 to 20)
#    0.000    1.500    1.250    0.750   14.000    2.000 
#    0.000    0.000    0.000    0.000    0.000    0.000 
#    0.000    0.000    0.000    0.000    0.000    0.000 
#
# Total GULP energy -44657.830335 kJ/mol
# GULP energy per Si atom -5582.228792 kJ/mol
# Density = 2.585674 g / cm^3
# Si number density = 25.915721 Si / 1000 Ang^3
#
#
#
# Elastic Constant Matrix: (Units=GPa)
#
#
# Indices 1 2 3 4 5 6 
#
# 1 88.9769 65.0791 26.6293 0.0000 -7.3392 0.0000
# 2 65.0791 257.6254 77.7511 0.0000 -8.4151 0.0000
# 3 26.6293 77.7511 134.4392 0.0000 -5.4787 0.0000
# 4 0.0000 0.0000 0.0000 15.7846 0.0000 -21.7787
# 5 -7.3392 -8.4151 -5.4787 0.0000 43.6138 0.0000
# 6 0.0000 0.0000 0.0000 -21.7787 0.0000 26.6434
#
#
#
# Elastic Compliance Matrix: (Units=1/GPa)
#
#
# Indices 1 2 3 4 5 6 
#
# 1 0.013984 -0.003227 -0.000838 0.000000 0.001625 0.000000
# 2 -0.003227 0.005461 -0.002511 0.000000 0.000195 0.000000
# 3 -0.000838 -0.002511 0.009078 0.000000 0.000515 0.000000
# 4 0.000000 0.000000 0.000000 -0.495661 0.000000 -0.405160
# 5 0.001625 0.000195 0.000515 0.000000 0.023304 0.000000
# 6 0.000000 0.000000 0.000000 -0.405160 0.000000 -0.293650
#
#
# Mechanical properties :
#
#
# Convention : Reuss Voigt Hill
#
# Bulk Modulus (GPa) = 65.05588 91.10672 78.08130
# Shear Modulus (GPa) = -6.95207 37.98049 15.51421
#
# Velocity S-wave (km/s) = -1.63963 3.83239 2.44937
# Velocity P-wave (km/s) = 4.64466 7.40367 6.18009
#
# Compressibility (1/GPa) = 0.01537140
#
# Stress axis : x y z
#
# Youngs Moduli (GPa) = 71.51260 183.11935 110.16243
#
# Poissons Ratio (x) = 0.59084 0.09227
# Poissons Ratio (y) = 0.23074 0.27664
# Poissons Ratio (z) = 0.05990 0.45985
#
# Static dielectric constant tensor:
#      x y z
#    x 2.268050 0.000000 -0.001710 
#    y 0.000000 1.943440 0.000000 
#    z -0.001710 0.000000 2.175590 
# 
# From -- ./inp_files/15989.got.cif
#   From: 2010.05.17/outbox.cif.g08.bks.cpg/sg5_8_cif.got.tgz:15989.got - 2010.06.03 18:56:24.
