data_PCOD9128336
_publ_section_title
;
Structure prediction by ZEFSAII (Michael W. Deem and Ramdas Pophale) SiO2 
 PCOD9128336
Probable space group: C 2
;
_chemical_formula_sum "Si O2"
_cell_formula_units_Z 30
_cell_length_a 15.856134
_cell_length_b 11.920296
_cell_length_c 14.300754
_cell_angle_alpha 90.000000
_cell_angle_beta 31.586163
_cell_angle_gamma 90.000000
_cell_volume 1415.768868
_symmetry_space_group_name_H-M "C 2"
_symmetry_group_IT_number 5
_symmetry_cell_setting 'monoclinic'
loop_
_space_group_symop_operation_xyz
x,y,z
-x,y,-z
1/2+x,1/2+y,z
1/2-x,1/2+y,-z
loop_
_atom_site_type_symbol
_atom_site_label
_atom_site_fract_x
_atom_site_fract_y
_atom_site_fract_z
Si Si1 0.069530 0.528810 0.838433
Si Si2 0.917631 0.315191 0.936517
Si Si3 0.057492 0.044431 0.542326
Si Si4 0.702947 0.116348 0.181942
Si Si5 0.911806 0.281005 0.423653
Si Si6 0.034815 0.720503 0.734931
Si Si7 0.863224 0.940681 0.887509
Si Si8 0.000000 0.461422 0.500000
O O1 0.254655 0.546817 0.647876
O O2 0.996303 0.607624 0.828212
O O3 0.048806 0.395237 0.857299
O O4 0.000000 0.573243 0.000000
O O5 0.986467 0.290507 0.767988
O O6 0.843746 0.209207 0.059090
O O7 0.771268 0.401384 0.058719
O O8 0.010836 0.174456 0.596622
O O9 0.000000 0.990752 0.500000
O O10 0.004098 0.988989 0.689275
O O11 0.547253 0.184920 0.286855
O O12 0.639682 0.042461 0.327660
O O13 0.783525 0.027813 0.033375
O O14 0.724471 0.254816 0.568822
O O15 0.935524 0.385248 0.473203
O O16 0.932730 0.827108 0.867435
#
# Coordination Sequence:
#
# PCOD9128336 Si02
#       8
#     4   4   4   4   4   4   4   2
#     4  11  23  41  65  96 133 173 231 289 337 411
#     4  11  22  44  67  93 134 189 222 279 349 433
#     4  11  23  38  66 101 130 174 229 287 336 415
#     4  11  24  44  72  96 145 182 231 285 362 418
#     4  11  22  41  73  98 139 176 234 280 360 410
#     4  10  24  42  67 101 134 184 223 289 350 436
#     4  11  21  40  68  95 131 180 228 275 355 418
#     4  12  24  46  72 112 140 186 236 310 342 422
#
# _framework density 21.189899
#
# number of rings (size 3 to 8) (size 9 to 14) (size 15 to 20)
#    0.000    1.067    4.667    1.600    0.000    3.200 
#   12.000    0.000    0.000    0.000    0.000    0.000 
#    0.000    0.000    0.000    0.000    0.000    0.000 
#
# Total GULP energy -83550.910639 kJ/mol
# GULP energy per Si atom -5570.060709 kJ/mol
# Density = 2.114167 g / cm^3
# Si number density = 21.189899 Si / 1000 Ang^3
#
#
#
# Elastic Constant Matrix: (Units=GPa)
#
#
# Indices 1 2 3 4 5 6 
#
# 1 26.4415 3.1367 8.9727 0.0000 6.6352 0.0000
# 2 3.1367 95.2115 22.3545 0.0000 7.7867 0.0000
# 3 8.9727 22.3545 113.7339 0.0000 19.4951 0.0000
# 4 0.0000 0.0000 0.0000 32.6537 0.0000 -6.0938
# 5 6.6352 7.7867 19.4951 0.0000 22.7743 0.0000
# 6 0.0000 0.0000 0.0000 -6.0938 0.0000 8.8628
#
#
#
# Elastic Compliance Matrix: (Units=1/GPa)
#
#
# Indices 1 2 3 4 5 6 
#
# 1 0.040991 -0.000153 -0.001366 0.000000 -0.010721 0.000000
# 2 -0.000153 0.011110 -0.001791 0.000000 -0.002221 0.000000
# 3 -0.001366 -0.001791 0.010640 0.000000 -0.008098 0.000000
# 4 0.000000 0.000000 0.000000 0.035132 0.000000 0.024156
# 5 -0.010721 -0.002221 -0.008098 0.000000 0.054724 0.000000
# 6 0.000000 0.000000 0.000000 0.024156 0.000000 0.129441
#
#
# Mechanical properties :
#
#
# Convention : Reuss Voigt Hill
#
# Bulk Modulus (GPa) = 17.81839 33.81274 25.81557
# Shear Modulus (GPa) = 16.26724 26.25303 21.26013
#
# Velocity S-wave (km/s) = 2.77372 3.52368 3.17095
# Velocity P-wave (km/s) = 4.32264 5.70497 5.06122
#
# Compressibility (1/GPa) = 0.05612180
#
# Stress axis : x y z
#
# Youngs Moduli (GPa) = 24.39536 90.00824 93.98230
#
# Poissons Ratio (x) = 0.01376 0.12840
# Poissons Ratio (y) = 0.00373 0.16832
# Poissons Ratio (z) = 0.03333 0.16120
#
# Static dielectric constant tensor:
#      x y z
#    x 1.922450 0.000000 0.019250 
#    y 0.000000 1.782670 0.000000 
#    z 0.019250 0.000000 1.736640 
# 
# From -- ./inp_files/55963.got.cif
#   From: 2010.05.17/outbox.cif.g08.bks.cpg/sg5_28_cif.got.tgz:55963.got - 2010.06.03 18:56:24.
