data_PCOD9128734
_publ_section_title
;
Structure prediction by ZEFSAII (Michael W. Deem and Ramdas Pophale) SiO2 
 PCOD9128734
Probable space group: C 2
;
_chemical_formula_sum "Si O2"
_cell_formula_units_Z 14
_cell_length_a 12.868548
_cell_length_b 8.408762
_cell_length_c 14.151436
_cell_angle_alpha 90.000000
_cell_angle_beta 158.140517
_cell_angle_gamma 90.000000
_cell_volume 570.153737
_symmetry_space_group_name_H-M "C 2"
_symmetry_group_IT_number 5
_symmetry_cell_setting 'monoclinic'
loop_
_space_group_symop_operation_xyz
x,y,z
-x,y,-z
1/2+x,1/2+y,z
1/2-x,1/2+y,-z
loop_
_atom_site_type_symbol
_atom_site_label
_atom_site_fract_x
_atom_site_fract_y
_atom_site_fract_z
Si Si1 0.375469 0.520920 0.994037
Si Si2 0.500000 0.429281 0.500000
Si Si3 0.269332 0.235899 0.680044
Si Si4 0.192544 0.685222 0.504036
O O1 0.455389 0.336023 0.068691
O O2 0.549235 0.609799 0.222122
O O3 0.500000 0.580389 0.000000
O O4 0.053778 0.560061 0.724019
O O5 0.753216 0.558259 0.709375
O O6 0.552021 0.320025 0.452339
O O7 0.223091 0.234253 0.529448
O O8 0.000000 0.321199 0.500000
#
# Coordination Sequence:
#
# PCOD9128734 Si02
#       4
#     4   2   4   4
#     4  12  25  49  78 111 161 208 258 325 404 466
#     4  10  24  48  78 114 154 202 270 314 394 464
#     4  10  26  49  80 116 162 202 272 321 400 466
#     4  12  25  51  79 116 158 210 260 330 394 474
#
# _framework density 24.554780999999998
#
# number of rings (size 3 to 8) (size 9 to 14) (size 15 to 20)
#    0.857    0.000    2.857    3.429    0.000    6.857 
#    5.143    0.000    0.000    0.000    0.000    0.000 
#    0.000    0.000    0.000    0.000    0.000    0.000 
#
# Total GULP energy -39176.986206 kJ/mol
# GULP energy per Si atom -5596.712315 kJ/mol
# Density = 2.449889 g / cm^3
# Si number density = 24.554781 Si / 1000 Ang^3
#
#
#
# Elastic Constant Matrix: (Units=GPa)
#
#
# Indices 1 2 3 4 5 6 
#
# 1 184.0433 38.4934 38.0468 0.0019 -19.7962 0.0023
# 2 38.4934 144.2665 44.5796 0.0058 7.9351 0.0022
# 3 38.0468 44.5796 105.0435 0.0047 -13.1791 0.0044
# 4 0.0019 0.0058 0.0047 34.9775 0.0037 11.3319
# 5 -19.7962 7.9351 -13.1791 0.0037 33.9845 0.0017
# 6 0.0023 0.0022 0.0044 11.3319 0.0017 10.3957
#
#
#
# Elastic Compliance Matrix: (Units=1/GPa)
#
#
# Indices 1 2 3 4 5 6 
#
# 1 0.006393 -0.001529 -0.001213 0.000000 0.003610 -0.000001
# 2 -0.001529 0.008721 -0.003694 -0.000001 -0.004360 0.000002
# 3 -0.001213 -0.003694 0.012137 0.000000 0.004863 -0.000005
# 4 0.000000 -0.000001 0.000000 0.044199 -0.000002 -0.048180
# 5 0.003610 -0.004360 0.004863 -0.000002 0.034432 -0.000006
# 6 -0.000001 0.000002 -0.000005 -0.048180 -0.000006 0.148713
#
#
# Mechanical properties :
#
#
# Convention : Reuss Voigt Hill
#
# Bulk Modulus (GPa) = 69.55571 75.06587 72.31079
# Shear Modulus (GPa) = 18.36477 36.68711 27.52594
#
# Velocity S-wave (km/s) = 2.73776 3.86954 3.35177
# Velocity P-wave (km/s) = 6.19532 7.11348 6.67022
#
# Compressibility (1/GPa) = 0.01437697
#
# Stress axis : x y z
#
# Youngs Moduli (GPa) = 156.43257 114.66583 82.39119
#
# Poissons Ratio (x) = 0.17536 0.09997
# Poissons Ratio (y) = 0.23923 0.30437
# Poissons Ratio (z) = 0.18982 0.42360
#
# Static dielectric constant tensor:
#      x y z
#    x 1.945320 0.000000 0.001830 
#    y 0.000000 2.000650 0.000000 
#    z 0.001830 0.000000 2.012990 
# 
# From -- ./inp_files/6283.got.cif
#   From: 2010.05.17/outbox.cif.g08.bks.cpg/sg5_4_cif.got.tgz:6283.got - 2010.06.03 18:56:24.
