data_PCOD9128033
_publ_section_title
;
Structure prediction by ZEFSAII (Michael W. Deem and Ramdas Pophale) SiO2 
 PCOD9128033
Probable space group: C 2
;
_chemical_formula_sum "Si O2"
_cell_formula_units_Z 24
_cell_length_a 8.370891
_cell_length_b 18.638225
_cell_length_c 8.871655
_cell_angle_alpha 90.000000
_cell_angle_beta 47.727488
_cell_angle_gamma 90.000000
_cell_volume 1024.201813
_symmetry_space_group_name_H-M "C 2"
_symmetry_group_IT_number 5
_symmetry_cell_setting 'monoclinic'
loop_
_space_group_symop_operation_xyz
x,y,z
-x,y,-z
1/2+x,1/2+y,z
1/2-x,1/2+y,-z
loop_
_atom_site_type_symbol
_atom_site_label
_atom_site_fract_x
_atom_site_fract_y
_atom_site_fract_z
Si Si1 0.412511 0.113870 0.396168
Si Si2 0.500000 0.322258 0.000000
Si Si3 0.760181 0.896752 0.659958
Si Si4 0.207762 0.428119 0.028893
Si Si5 0.000000 0.094777 0.500000
Si Si6 0.220622 0.583654 0.948678
Si Si7 0.733701 0.766589 0.437970
O O1 0.500000 0.088083 0.500000
O O2 0.216580 0.067243 0.448514
O O3 0.297130 0.191636 0.475446
O O4 0.625575 0.120960 0.156153
O O5 0.307850 0.376973 0.087624
O O6 0.415619 0.277598 0.194193
O O7 0.540490 0.939662 0.769657
O O8 0.750732 0.829256 0.552562
O O9 0.000000 0.929847 0.500000
O O10 0.734252 0.884310 0.855878
O O11 0.314001 0.505850 0.935686
O O12 0.128567 0.123581 0.267540
O O13 0.000000 0.566768 0.000000
O O14 0.500000 0.765342 0.500000
#
# Coordination Sequence:
#
# PCOD9128033 Si02
#       7
#     4   2   4   4   2   4   4
#     4  11  26  46  68 102 138 189 237 292 349 422
#     4  12  26  40  66 104 140 178 232 292 348 420
#     4  11  22  41  65  97 137 181 226 274 360 413
#     4  11  24  42  67 106 135 181 232 289 353 425
#     4  10  24  44  72  98 134 186 234 292 360 406
#     4  10  23  45  70 103 139 181 238 287 356 421
#     4  12  25  44  67 100 140 184 233 289 351 420
#
# _framework density 23.432881999999999
#
# number of rings (size 3 to 8) (size 9 to 14) (size 15 to 20)
#    0.000    1.000    5.833    0.500    4.667    2.000 
#    3.000    0.000    0.000    0.000    0.000    0.000 
#    0.000    0.000    0.000    0.000    0.000    0.000 
#
# Total GULP energy -66809.879126 kJ/mol
# GULP energy per Si atom -5567.489927 kJ/mol
# Density = 2.337955 g / cm^3
# Si number density = 23.432882 Si / 1000 Ang^3
#
#
#
# Elastic Constant Matrix: (Units=GPa)
#
#
# Indices 1 2 3 4 5 6 
#
# 1 113.7865 18.4787 39.2185 0.0000 -9.9760 0.0000
# 2 18.4787 66.3492 34.3725 0.0000 3.2876 0.0000
# 3 39.2185 34.3725 158.8545 0.0000 -21.5769 0.0000
# 4 0.0000 0.0000 0.0000 29.8161 0.0000 -6.2842
# 5 -9.9760 3.2876 -21.5769 0.0000 39.2001 0.0000
# 6 0.0000 0.0000 0.0000 -6.2842 0.0000 15.7266
#
#
#
# Elastic Compliance Matrix: (Units=1/GPa)
#
#
# Indices 1 2 3 4 5 6 
#
# 1 0.009863 -0.001900 -0.001796 0.000000 0.001681 0.000000
# 2 -0.001900 0.017859 -0.003960 0.000000 -0.004161 0.000000
# 3 -0.001796 -0.003960 0.008191 0.000000 0.004384 0.000000
# 4 0.000000 0.000000 0.000000 0.036623 0.000000 0.014634
# 5 0.001681 -0.004161 0.004384 0.000000 0.028700 0.000000
# 6 0.000000 0.000000 0.000000 0.014634 0.000000 0.069434
#
#
# Mechanical properties :
#
#
# Convention : Reuss Voigt Hill
#
# Bulk Modulus (GPa) = 48.54194 58.12551 53.33372
# Shear Modulus (GPa) = 25.92700 33.40994 29.66847
#
# Velocity S-wave (km/s) = 3.32992 3.78004 3.56210
# Velocity P-wave (km/s) = 5.96195 6.62650 6.30299
#
# Compressibility (1/GPa) = 0.02060074
#
# Stress axis : x y z
#
# Youngs Moduli (GPa) = 101.38671 55.99471 122.08938
#
# Poissons Ratio (x) = 0.10639 0.21922
# Poissons Ratio (y) = 0.19264 0.48352
# Poissons Ratio (z) = 0.18205 0.22176
#
# Static dielectric constant tensor:
#      x y z
#    x 1.932080 0.000000 -0.025030 
#    y 0.000000 1.935390 0.000000 
#    z -0.025030 0.000000 1.895460 
# 
# From -- ./inp_files/16740.got.cif
#   From: 2010.05.17/outbox.cif.g08.bks.cpg/sg5_9_cif.got.tgz:16740.got - 2010.06.03 18:56:24.
