data_PCOD9128607
_publ_section_title
;
Structure prediction by ZEFSAII (Michael W. Deem and Ramdas Pophale) SiO2 
 PCOD9128607
Probable space group: C 2
;
_chemical_formula_sum "Si O2"
_cell_formula_units_Z 22
_cell_length_a 12.203161
_cell_length_b 13.259730
_cell_length_c 5.667636
_cell_angle_alpha 90.000000
_cell_angle_beta 76.853704
_cell_angle_gamma 90.000000
_cell_volume 893.049234
_symmetry_space_group_name_H-M "C 2"
_symmetry_group_IT_number 5
_symmetry_cell_setting 'monoclinic'
loop_
_space_group_symop_operation_xyz
x,y,z
-x,y,-z
1/2+x,1/2+y,z
1/2-x,1/2+y,-z
loop_
_atom_site_type_symbol
_atom_site_label
_atom_site_fract_x
_atom_site_fract_y
_atom_site_fract_z
Si Si1 0.500000 0.651760 0.500000
Si Si2 0.633325 0.307375 0.436152
Si Si3 0.322752 0.822891 0.673073
Si Si4 0.105885 0.637614 0.088258
Si Si5 0.500000 0.978821 0.500000
Si Si6 0.270351 0.467185 0.912196
Si Si7 0.500000 0.537989 0.000000
O O1 0.397551 0.724374 0.621792
O O2 0.519069 0.593559 0.737678
O O3 0.500000 0.308989 0.500000
O O4 0.700964 0.288928 0.640826
O O5 0.661268 0.220550 0.231490
O O6 0.678491 0.416819 0.342461
O O7 0.396263 0.904999 0.486284
O O8 0.306951 0.882373 0.924896
O O9 0.201420 0.570282 0.915703
O O10 0.041942 0.553343 0.277544
O O11 0.000000 0.683703 0.000000
O O12 0.381422 0.481708 0.018762
#
# Coordination Sequence:
#
# PCOD9128607 Si02
#       7
#     2   4   4   4   2   4   2
#     4  11  28  48  79 104 148 190 253 296 361 432
#     4  12  26  42  70 102 142 182 235 294 362 427
#     4  10  24  46  72 100 139 187 242 297 354 427
#     4  11  24  43  69  99 135 179 231 287 352 424
#     4   9  20  46  67 100 128 180 229 292 345 420
#     4  11  27  44  72 101 143 188 240 295 361 428
#     4  12  28  50  70 112 146 196 236 306 368 430
#
# _framework density 24.634702000000001
#
# number of rings (size 3 to 8) (size 9 to 14) (size 15 to 20)
#    0.000    1.091    0.909    3.273   12.727    0.000 
#    3.273    0.000    0.000    0.000    0.000    0.000 
#    0.000    0.000    0.000    0.000    0.000    0.000 
#
# Total GULP energy -61474.194558 kJ/mol
# GULP energy per Si atom -5588.563142 kJ/mol
# Density = 2.457863 g / cm^3
# Si number density = 24.634702 Si / 1000 Ang^3
#
#
#
# Elastic Constant Matrix: (Units=GPa)
#
#
# Indices 1 2 3 4 5 6 
#
# 1 119.0678 24.1279 3.7534 0.0000 -4.0669 0.0000
# 2 24.1279 62.3218 33.2151 0.0000 -18.5298 0.0000
# 3 3.7534 33.2151 52.2714 0.0000 -3.7464 0.0000
# 4 0.0000 0.0000 0.0000 48.9930 0.0000 -19.5819
# 5 -4.0669 -18.5298 -3.7464 0.0000 39.5371 0.0000
# 6 0.0000 0.0000 0.0000 -19.5819 0.0000 -23.9369
#
#
#
# Elastic Compliance Matrix: (Units=1/GPa)
#
#
# Indices 1 2 3 4 5 6 
#
# 1 0.009376 -0.005473 0.002708 0.000000 -0.001344 0.000000
# 2 -0.005473 0.032118 -0.019107 0.000000 0.012679 0.000000
# 3 0.002708 -0.019107 0.030664 0.000000 -0.005771 0.000000
# 4 0.000000 0.000000 0.000000 0.015382 0.000000 -0.012583
# 5 -0.001344 0.012679 -0.005771 0.000000 0.030550 0.000000
# 6 0.000000 0.000000 0.000000 -0.012583 0.000000 -0.031483
#
#
# Mechanical properties :
#
#
# Convention : Reuss Voigt Hill
#
# Bulk Modulus (GPa) = 35.19331 39.53931 37.36631
# Shear Modulus (GPa) = 35.75963 24.42295 30.09129
#
# Velocity S-wave (km/s) = 3.81411 3.15207 3.49879
# Velocity P-wave (km/s) = 5.80635 5.41595 5.61454
#
# Compressibility (1/GPa) = 0.02841449
#
# Stress axis : x y z
#
# Youngs Moduli (GPa) = 106.65136 31.13545 32.61134
#
# Poissons Ratio (x) = 0.17040 -0.08832
# Poissons Ratio (y) = 0.58370 0.62311
# Poissons Ratio (z) = -0.28882 0.59491
#
# Static dielectric constant tensor:
#      x y z
#    x 2.033850 0.000000 0.093110 
#    y 0.000000 1.939170 0.000000 
#    z 0.093110 0.000000 2.137490 
# 
# From -- ./inp_files/4776.got.cif
#   From: 2010.05.17/outbox.cif.g08.bks.cpg/sg5_3_cif.got.tgz:4776.got - 2010.06.03 18:56:24.
