data_PCOD9128189
_publ_section_title
;
Structure prediction by ZEFSAII (Michael W. Deem and Ramdas Pophale) SiO2 
 PCOD9128189
Probable space group: C 2
;
_chemical_formula_sum "Si O2"
_cell_formula_units_Z 28
_cell_length_a 26.409985
_cell_length_b 6.935717
_cell_length_c 9.672144
_cell_angle_alpha 90.000000
_cell_angle_beta 41.230775
_cell_angle_gamma 90.000000
_cell_volume 1167.694689
_symmetry_space_group_name_H-M "C 2"
_symmetry_group_IT_number 5
_symmetry_cell_setting 'monoclinic'
loop_
_space_group_symop_operation_xyz
x,y,z
-x,y,-z
1/2+x,1/2+y,z
1/2-x,1/2+y,-z
loop_
_atom_site_type_symbol
_atom_site_label
_atom_site_fract_x
_atom_site_fract_y
_atom_site_fract_z
Si Si1 0.174506 0.128290 0.732573
Si Si2 0.887031 0.908870 0.584841
Si Si3 0.354374 0.736597 0.808004
Si Si4 0.257778 0.007465 0.288431
Si Si5 0.262105 0.409599 0.164129
Si Si6 0.525245 0.355655 0.100097
Si Si7 0.075472 0.602511 0.256683
O O1 0.188026 0.350749 0.748069
O O2 0.199273 0.092225 0.524617
O O3 0.240614 0.016672 0.684523
O O4 0.092804 0.020731 0.939123
O O5 0.913888 0.104222 0.605777
O O6 0.944253 0.904752 0.338692
O O7 0.799988 0.915982 0.706449
O O8 0.889188 0.747099 0.699747
O O9 0.309998 0.851238 0.779085
O O10 0.382659 0.900242 0.850114
O O11 0.307227 0.570380 0.983350
O O12 0.293630 0.196706 0.140966
O O13 0.553887 0.206161 0.158151
O O14 0.500000 0.283872 0.000000
O O15 0.000000 0.544566 0.500000
#
# Coordination Sequence:
#
# PCOD9128189 Si02
#       7
#     4   4   4   4   4   4   4
#     4  12  24  43  75 107 155 198 262 314 392 460
#     4  10  23  49  74 107 155 200 262 322 394 463
#     4  11  26  45  75 107 149 198 263 324 387 456
#     4  11  24  46  73 110 153 209 250 321 391 465
#     4  11  27  43  72 112 149 194 258 327 382 462
#     4  11  24  46  81 119 156 207 257 326 387 478
#     4  10  24  47  77 107 149 206 256 319 386 463
#
# _framework density 23.978871999999999
#
# number of rings (size 3 to 8) (size 9 to 14) (size 15 to 20)
#    0.000    1.143    2.857    1.714    8.000    2.857 
#    0.000    2.857    3.143    2.571    0.000    0.000 
#    0.000    0.000    0.000    0.000    0.000    0.000 
#
# Total GULP energy -78072.771475 kJ/mol
# GULP energy per Si atom -5576.626534 kJ/mol
# Density = 2.392429 g / cm^3
# Si number density = 23.978872 Si / 1000 Ang^3
#
#
#
# Elastic Constant Matrix: (Units=GPa)
#
#
# Indices 1 2 3 4 5 6 
#
# 1 95.5255 37.1442 33.7989 0.0000 24.4224 0.0000
# 2 37.1442 132.5464 37.6004 0.0000 7.4659 0.0000
# 3 33.7989 37.6004 114.6120 0.0000 31.7939 0.0000
# 4 0.0000 0.0000 0.0000 24.7173 0.0000 11.5655
# 5 24.4224 7.4659 31.7939 0.0000 44.7032 0.0000
# 6 0.0000 0.0000 0.0000 11.5655 0.0000 22.3642
#
#
#
# Elastic Compliance Matrix: (Units=1/GPa)
#
#
# Indices 1 2 3 4 5 6 
#
# 1 0.013692 -0.003116 -0.001352 0.000000 -0.005999 0.000000
# 2 -0.003116 0.009045 -0.002618 0.000000 0.002054 0.000000
# 3 -0.001352 -0.002618 0.012030 0.000000 -0.007380 0.000000
# 4 0.000000 0.000000 0.000000 0.053372 0.000000 -0.027601
# 5 -0.005999 0.002054 -0.007380 0.000000 0.030553 0.000000
# 6 0.000000 0.000000 0.000000 -0.027601 0.000000 0.058988
#
#
# Mechanical properties :
#
#
# Convention : Reuss Voigt Hill
#
# Bulk Modulus (GPa) = 48.55388 62.19680 55.37534
# Shear Modulus (GPa) = 25.16163 33.96631 29.56397
#
# Velocity S-wave (km/s) = 3.24284 3.76774 3.51510
# Velocity P-wave (km/s) = 5.85781 6.70241 6.29429
#
# Compressibility (1/GPa) = 0.02059568
#
# Stress axis : x y z
#
# Youngs Moduli (GPa) = 73.03703 110.56225 83.12608
#
# Poissons Ratio (x) = 0.34447 0.11235
# Poissons Ratio (y) = 0.22756 0.21764
# Poissons Ratio (z) = 0.09871 0.28947
#
# Static dielectric constant tensor:
#      x y z
#    x 1.960220 0.000000 -0.082880 
#    y 0.000000 1.943190 0.000000 
#    z -0.082880 0.000000 2.066010 
# 
# From -- ./inp_files/32477.got.cif
#   From: 2010.05.17/outbox.cif.g08.bks.cpg/sg5_17_cif.got.tgz:32477.got - 2010.06.03 18:56:24.
