data_PCOD9128164
_publ_section_title
;
Structure prediction by ZEFSAII (Michael W. Deem and Ramdas Pophale) SiO2 
 PCOD9128164
Probable space group: C 2
;
_chemical_formula_sum "Si O2"
_cell_formula_units_Z 20
_cell_length_a 7.974593
_cell_length_b 22.581023
_cell_length_c 4.757482
_cell_angle_alpha 90.000000
_cell_angle_beta 120.761136
_cell_angle_gamma 90.000000
_cell_volume 736.169218
_symmetry_space_group_name_H-M "C 2"
_symmetry_group_IT_number 5
_symmetry_cell_setting 'monoclinic'
loop_
_space_group_symop_operation_xyz
x,y,z
-x,y,-z
1/2+x,1/2+y,z
1/2-x,1/2+y,-z
loop_
_atom_site_type_symbol
_atom_site_label
_atom_site_fract_x
_atom_site_fract_y
_atom_site_fract_z
Si Si1 0.500000 0.896410 0.500000
Si Si2 0.828590 0.476245 0.063641
Si Si3 0.218730 0.856030 0.715724
Si Si4 0.692117 0.147006 0.348199
Si Si5 0.500000 0.548435 0.500000
Si Si6 0.284350 0.726583 0.929150
O O1 0.342554 0.959184 0.405058
O O2 0.351028 0.853004 0.551086
O O3 0.833194 0.402910 0.015984
O O4 0.632489 0.509344 0.820274
O O5 0.000000 0.498599 0.000000
O O6 0.194635 0.791569 0.828903
O O7 0.000000 0.880021 0.500000
O O8 0.687372 0.176922 0.648310
O O9 0.841950 0.092873 0.502074
O O10 0.500000 0.129888 0.000000
O O11 0.775635 0.200269 0.229720
O O12 0.500000 0.732867 0.000000
#
# Coordination Sequence:
#
# PCOD9128164 Si02
#       6
#     2   4   4   4   2   4
#     4  10  24  45  74 110 149 196 252 308 398 456
#     4  10  23  48  70 112 148 192 251 314 381 456
#     4  11  24  45  74 112 152 194 252 319 386 461
#     4  12  27  50  75 112 150 202 258 314 381 456
#     4  12  24  51  74 104 159 192 260 306 376 468
#     4  12  25  50  76 111 153 199 257 317 384 460
#
# _framework density 27.167665
#
# number of rings (size 3 to 8) (size 9 to 14) (size 15 to 20)
#    0.000    0.800    3.000    4.200    5.600    0.800 
#   18.000    0.000    0.000    0.000    0.000    0.000 
#    0.000    0.000    0.000    0.000    0.000    0.000 
#
# Total GULP energy -55670.150860 kJ/mol
# GULP energy per Si atom -5567.015086 kJ/mol
# Density = 2.710583 g / cm^3
# Si number density = 27.167665 Si / 1000 Ang^3
#
#
#
# Elastic Constant Matrix: (Units=GPa)
#
#
# Indices 1 2 3 4 5 6 
#
# 1 104.9948 7.1336 27.3342 0.0000 18.5774 0.0000
# 2 7.1336 143.6242 15.7883 0.0000 4.2553 0.0000
# 3 27.3342 15.7883 69.6905 0.0000 -9.4298 0.0000
# 4 0.0000 0.0000 0.0000 45.2679 0.0000 29.6876
# 5 18.5774 4.2553 -9.4298 0.0000 57.1748 0.0000
# 6 0.0000 0.0000 0.0000 29.6876 0.0000 26.4838
#
#
#
# Elastic Compliance Matrix: (Units=1/GPa)
#
#
# Indices 1 2 3 4 5 6 
#
# 1 0.011713 0.000135 -0.005258 0.000000 -0.004683 0.000000
# 2 0.000135 0.007179 -0.001798 0.000000 -0.000875 0.000000
# 3 -0.005258 -0.001798 0.017458 0.000000 0.004722 0.000000
# 4 0.000000 0.000000 0.000000 0.083410 0.000000 -0.093501
# 5 -0.004683 -0.000875 0.004722 0.000000 0.019856 0.000000
# 6 0.000000 0.000000 0.000000 -0.093501 0.000000 0.142570
#
#
# Mechanical properties :
#
#
# Convention : Reuss Voigt Hill
#
# Bulk Modulus (GPa) = 44.42903 46.53574 45.48238
# Shear Modulus (GPa) = 16.47280 43.65554 30.06417
#
# Velocity S-wave (km/s) = 2.46507 4.01296 3.33019
# Velocity P-wave (km/s) = 4.94886 6.21595 5.61824
#
# Compressibility (1/GPa) = 0.02250781
#
# Stress axis : x y z
#
# Youngs Moduli (GPa) = 85.37807 139.28639 57.28129
#
# Poissons Ratio (x) = -0.01881 0.30120
# Poissons Ratio (y) = -0.01153 0.10298
# Poissons Ratio (z) = 0.44893 0.25041
#
# Static dielectric constant tensor:
#      x y z
#    x 2.054380 0.000000 0.688040 
#    y 0.000000 2.088330 0.000000 
#    z 0.688040 0.000000 1.758070 
# 
# From -- ./inp_files/3106.got.cif
#   From: 2010.05.17/outbox.cif.g08.bks.cpg/sg5_2_cif.got.tgz:3106.got - 2010.06.03 18:56:24.
