data_PCOD9128422
_publ_section_title
;
Structure prediction by ZEFSAII (Michael W. Deem and Ramdas Pophale) SiO2 
 PCOD9128422
Probable space group: C 2
;
_chemical_formula_sum "Si O2"
_cell_formula_units_Z 22
_cell_length_a 16.034077
_cell_length_b 7.336881
_cell_length_c 11.539551
_cell_angle_alpha 90.000000
_cell_angle_beta 48.647474
_cell_angle_gamma 90.000000
_cell_volume 1019.029855
_symmetry_space_group_name_H-M "C 2"
_symmetry_group_IT_number 5
_symmetry_cell_setting 'monoclinic'
loop_
_space_group_symop_operation_xyz
x,y,z
-x,y,-z
1/2+x,1/2+y,z
1/2-x,1/2+y,-z
loop_
_atom_site_type_symbol
_atom_site_label
_atom_site_fract_x
_atom_site_fract_y
_atom_site_fract_z
Si Si1 0.874499 0.303450 0.128522
Si Si2 0.569336 0.274860 0.207805
Si Si3 0.000000 0.969431 0.500000
Si Si4 0.902821 0.910666 0.185798
Si Si5 0.279469 0.606197 0.987512
Si Si6 0.717150 0.645123 0.286381
O O1 0.828257 0.225050 0.048395
O O2 0.795033 0.468250 0.235269
O O3 0.883604 0.128738 0.205778
O O4 0.000000 0.374113 0.000000
O O5 0.550315 0.340213 0.355341
O O6 0.454279 0.305142 0.248115
O O7 0.645658 0.096178 0.127750
O O8 0.653584 0.418007 0.069536
O O9 0.900463 0.098711 0.548193
O O10 0.786642 0.818051 0.262226
O O11 0.000000 0.884404 0.000000
O O12 0.302586 0.663175 0.833673
#
# Coordination Sequence:
#
# PCOD9128422 Si02
#       6
#     4   4   2   4   4   4
#     4  11  21  35  62  99 124 154 211 274 307 356
#     4  11  22  40  65  92 129 162 213 265 312 373
#     4  10  24  44  60  88 136 172 196 260 330 380
#     4  11  21  39  64  98 124 157 218 270 299 372
#     4  11  18  36  64  88 120 165 209 255 303 369
#     4  11  23  40  64  89 129 171 207 253 327 371
#
# _framework density 21.589162000000002
#
# number of rings (size 3 to 8) (size 9 to 14) (size 15 to 20)
#    0.000    1.091    9.091    0.545    0.000    0.000 
#    3.273    0.909    4.000    0.000    0.000    0.000 
#    0.000    0.000    0.000    0.000    0.000    0.000 
#
# Total GULP energy -61379.467972 kJ/mol
# GULP energy per Si atom -5579.951634 kJ/mol
# Density = 2.154002 g / cm^3
# Si number density = 21.589162 Si / 1000 Ang^3
#
#
#
# Elastic Constant Matrix: (Units=GPa)
#
#
# Indices 1 2 3 4 5 6 
#
# 1 88.9702 -1.8740 -1.5211 -0.0001 -17.9308 0.0001
# 2 -1.8740 57.0715 22.4721 -0.0002 -21.3756 0.0002
# 3 -1.5211 22.4721 62.9007 0.0000 -21.1881 0.0001
# 4 -0.0001 -0.0002 0.0000 23.9881 0.0000 -15.2190
# 5 -17.9308 -21.3756 -21.1881 0.0000 38.4689 0.0000
# 6 0.0001 0.0002 0.0001 -15.2190 0.0000 39.0320
#
#
#
# Elastic Compliance Matrix: (Units=1/GPa)
#
#
# Indices 1 2 3 4 5 6 
#
# 1 0.013159 0.002897 0.002322 0.000000 0.009022 0.000000
# 2 0.002897 0.023915 -0.004350 0.000000 0.012243 0.000000
# 3 0.002322 -0.004350 0.020945 0.000000 0.010201 0.000000
# 4 0.000000 0.000000 0.000000 0.055389 0.000000 0.021597
# 5 0.009022 0.012243 0.010201 0.000000 0.042622 0.000000
# 6 0.000000 0.000000 0.000000 0.021597 0.000000 0.034041
#
#
# Mechanical properties :
#
#
# Convention : Reuss Voigt Hill
#
# Bulk Modulus (GPa) = 16.73433 27.45516 22.09475
# Shear Modulus (GPa) = 24.00943 32.95551 28.48247
#
# Velocity S-wave (km/s) = 3.33844 3.91126 3.63615
# Velocity P-wave (km/s) = 4.75693 5.75691 5.28064
#
# Compressibility (1/GPa) = 0.05975739
#
# Stress axis : x y z
#
# Youngs Moduli (GPa) = 75.99502 41.81414 47.74486
#
# Poissons Ratio (x) = -0.12113 -0.11088
# Poissons Ratio (y) = -0.22014 0.20769
# Poissons Ratio (z) = -0.17649 0.18189
#
# Static dielectric constant tensor:
#      x y z
#    x 1.870290 0.000000 -0.003680 
#    y 0.000000 1.913620 0.000000 
#    z -0.003680 0.000000 1.763060 
# 
# From -- ./inp_files/41416.got.cif
#   From: 2010.05.17/outbox.cif.g08.bks.cpg/sg5_21_cif.got.tgz:41416.got - 2010.06.03 18:56:24.
