data_PCOD9128124
_publ_section_title
;
Structure prediction by ZEFSAII (Michael W. Deem and Ramdas Pophale) SiO2 
 PCOD9128124
Probable space group: C 2
;
_chemical_formula_sum "Si O2"
_cell_formula_units_Z 14
_cell_length_a 12.226310
_cell_length_b 5.967482
_cell_length_c 7.425026
_cell_angle_alpha 90.000000
_cell_angle_beta 115.541854
_cell_angle_gamma 90.000000
_cell_volume 488.788846
_symmetry_space_group_name_H-M "C 2"
_symmetry_group_IT_number 5
_symmetry_cell_setting 'monoclinic'
loop_
_space_group_symop_operation_xyz
x,y,z
-x,y,-z
1/2+x,1/2+y,z
1/2-x,1/2+y,-z
loop_
_atom_site_type_symbol
_atom_site_label
_atom_site_fract_x
_atom_site_fract_y
_atom_site_fract_z
Si Si1 0.543462 0.987690 0.736036
Si Si2 0.143932 0.912252 0.649035
Si Si3 0.500000 0.634240 0.000000
Si Si4 0.823535 0.772685 0.717013
O O1 0.500000 0.938504 0.500000
O O2 0.554003 0.777579 0.874414
O O3 0.433198 0.105501 0.761425
O O4 0.639101 0.193913 0.775362
O O5 0.216440 0.140796 0.739859
O O6 0.000000 0.946145 0.500000
O O7 0.210614 0.842338 0.510263
O O8 0.611455 0.481360 0.144549
#
# Coordination Sequence:
#
# PCOD9128124 Si02
#       4
#     4   4   2   4
#     4   9  23  49  85 121 168 224 279 345 424 501
#     4   9  22  50  86 121 162 229 288 332 429 503
#     4  12  24  46  90 130 172 212 282 356 424 494
#     4  10  23  46  85 126 166 225 274 356 415 505
#
# _framework density 28.642223000000001
#
# number of rings (size 3 to 8) (size 9 to 14) (size 15 to 20)
#    0.000    2.857    0.000    0.857    4.000    4.571 
#   10.286    0.000   37.714   48.000    0.000    0.000 
#    0.000    0.000    0.000    0.000    0.000    0.000 
#
# Total GULP energy -39202.507910 kJ/mol
# GULP energy per Si atom -5600.358273 kJ/mol
# Density = 2.857703 g / cm^3
# Si number density = 28.642223 Si / 1000 Ang^3
#
#
#
# Elastic Constant Matrix: (Units=GPa)
#
#
# Indices 1 2 3 4 5 6 
#
# 1 202.1255 137.9413 96.9193 0.0000 -35.2126 0.0000
# 2 137.9413 214.5157 111.0269 0.0000 -22.5107 0.0000
# 3 96.9193 111.0269 161.1533 0.0000 -33.2388 0.0000
# 4 0.0000 0.0000 0.0000 59.2379 0.0000 -2.7426
# 5 -35.2126 -22.5107 -33.2388 0.0000 40.4903 0.0000
# 6 0.0000 0.0000 0.0000 -2.7426 0.0000 66.2310
#
#
#
# Elastic Compliance Matrix: (Units=1/GPa)
#
#
# Indices 1 2 3 4 5 6 
#
# 1 0.009993 -0.005166 -0.001506 0.000000 0.004583 0.000000
# 2 -0.005166 0.009916 -0.004231 0.000000 -0.002453 0.000000
# 3 -0.001506 -0.004231 0.011160 0.000000 0.005500 0.000000
# 4 0.000000 0.000000 0.000000 0.016913 0.000000 0.000700
# 5 0.004583 -0.002453 0.005500 0.000000 0.031834 0.000000
# 6 0.000000 0.000000 0.000000 0.000700 0.000000 0.015128
#
#
# Mechanical properties :
#
#
# Convention : Reuss Voigt Hill
#
# Bulk Modulus (GPa) = 107.94003 141.06328 124.50166
# Shear Modulus (GPa) = 41.72367 48.65232 45.18800
#
# Velocity S-wave (km/s) = 3.82084 4.12591 3.97630
# Velocity P-wave (km/s) = 7.56522 8.48849 8.04012
#
# Compressibility (1/GPa) = 0.00926440
#
# Stress axis : x y z
#
# Youngs Moduli (GPa) = 100.06826 100.85103 89.60616
#
# Poissons Ratio (x) = 0.52096 0.13494
# Poissons Ratio (y) = 0.51692 0.37908
# Poissons Ratio (z) = 0.15070 0.42666
#
# Static dielectric constant tensor:
#      x y z
#    x 2.177300 0.000000 0.042790 
#    y 0.000000 2.413900 0.000000 
#    z 0.042790 0.000000 2.326290 
# 
# From -- ./inp_files/17820.got.cif
#   From: 2010.05.17/outbox.cif.g08.bks.cpg/sg5_9_cif.got.tgz:17820.got - 2010.06.03 18:56:24.
