data_PCOD9128604
_publ_section_title
;
Structure prediction by ZEFSAII (Michael W. Deem and Ramdas Pophale) SiO2 
 PCOD9128604
Probable space group: C 2
;
_chemical_formula_sum "Si O2"
_cell_formula_units_Z 28
_cell_length_a 5.688297
_cell_length_b 12.567324
_cell_length_c 19.470103
_cell_angle_alpha 90.000000
_cell_angle_beta 53.608220
_cell_angle_gamma 90.000000
_cell_volume 1120.412215
_symmetry_space_group_name_H-M "C 2"
_symmetry_group_IT_number 5
_symmetry_cell_setting 'monoclinic'
loop_
_space_group_symop_operation_xyz
x,y,z
-x,y,-z
1/2+x,1/2+y,z
1/2-x,1/2+y,-z
loop_
_atom_site_type_symbol
_atom_site_label
_atom_site_fract_x
_atom_site_fract_y
_atom_site_fract_z
Si Si1 0.678980 0.044190 0.656251
Si Si2 0.500000 0.705407 0.500000
Si Si3 0.917495 0.906831 0.731074
Si Si4 0.888229 0.188355 0.262075
Si Si5 0.926642 0.322643 0.389369
Si Si6 0.323134 0.656820 0.921468
Si Si7 0.933658 0.369181 0.089898
Si Si8 0.500000 0.483686 0.000000
O O1 0.839267 0.130442 0.581502
O O2 0.352596 0.095387 0.710542
O O3 0.808631 0.010925 0.708394
O O4 0.718617 0.929807 0.612732
O O5 0.312837 0.780617 0.482306
O O6 0.725467 0.803765 0.744636
O O7 0.848772 0.915902 0.824000
O O8 0.242128 0.867212 0.658634
O O9 0.931861 0.225349 0.333556
O O10 0.152593 0.157923 0.165367
O O11 0.560198 0.742957 0.904634
O O12 0.399050 0.555323 0.953720
O O13 0.000000 0.690082 0.000000
O O14 0.225660 0.415641 0.074535
O O15 0.000000 0.392623 0.000000
#
# Coordination Sequence:
#
# PCOD9128604 Si02
#       8
#     4   2   4   4   4   4   4   2
#     4  11  26  47  74 104 143 193 236 305 372 445
#     4  12  28  48  72 108 140 180 242 298 376 436
#     4  10  24  47  70 107 143 191 245 292 369 438
#     4  10  24  46  71 105 144 190 241 302 367 434
#     4  11  27  45  75 105 141 187 240 307 363 451
#     4  11  24  42  70 102 141 190 243 291 355 428
#     4  11  24  42  70 101 146 187 239 299 347 417
#     4  12  24  42  64 102 136 196 240 292 348 422
#
# _framework density 24.990801000000001
#
# number of rings (size 3 to 8) (size 9 to 14) (size 15 to 20)
#    0.000    1.143    2.857    1.286    6.000    4.000 
#    0.000    0.000    0.000    0.000    0.000    0.000 
#    0.000    0.000    0.000    0.000    0.000    0.000 
#
# Total GULP energy -78174.301432 kJ/mol
# GULP energy per Si atom -5583.878674 kJ/mol
# Density = 2.493392 g / cm^3
# Si number density = 24.990801 Si / 1000 Ang^3
#
#
#
# Elastic Constant Matrix: (Units=GPa)
#
#
# Indices 1 2 3 4 5 6 
#
# 1 41.6240 8.2706 34.0316 0.0003 16.7207 0.0017
# 2 8.2706 137.8105 21.9765 -0.0005 17.5889 0.0003
# 3 34.0316 21.9765 119.8102 0.0012 28.4658 0.0035
# 4 0.0003 -0.0005 0.0012 26.3452 -0.0007 -7.0977
# 5 16.7207 17.5889 28.4658 -0.0007 44.8304 -0.0022
# 6 0.0017 0.0003 0.0035 -7.0977 -0.0022 44.8440
#
#
#
# Elastic Compliance Matrix: (Units=1/GPa)
#
#
# Indices 1 2 3 4 5 6 
#
# 1 0.033340 0.000200 -0.007694 0.000000 -0.007628 -0.000001
# 2 0.000200 0.007708 -0.000865 0.000000 -0.002549 0.000000
# 3 -0.007694 -0.000865 0.011692 -0.000001 -0.004215 -0.000001
# 4 0.000000 0.000000 -0.000001 0.039648 0.000002 0.006275
# 5 -0.007628 -0.002549 -0.004215 0.000002 0.028828 0.000002
# 6 -0.000001 0.000000 -0.000001 0.006275 0.000002 0.023293
#
#
# Mechanical properties :
#
#
# Convention : Reuss Voigt Hill
#
# Bulk Modulus (GPa) = 27.76186 47.53357 37.64772
# Shear Modulus (GPa) = 28.86258 38.86833 33.86545
#
# Velocity S-wave (km/s) = 3.40211 3.94801 3.68518
# Velocity P-wave (km/s) = 5.15417 6.31222 5.76236
#
# Compressibility (1/GPa) = 0.03602064
#
# Stress axis : x y z
#
# Youngs Moduli (GPa) = 29.99404 129.74131 85.52719
#
# Poissons Ratio (x) = -0.02591 0.65808
# Poissons Ratio (y) = -0.00599 0.07396
# Poissons Ratio (z) = 0.23079 0.11220
#
# Static dielectric constant tensor:
#      x y z
#    x 2.296120 0.000000 0.054100 
#    y 0.000000 1.961930 0.000000 
#    z 0.054100 0.000000 1.995700 
# 
# From -- ./inp_files/58854.got.cif
#   From: 2010.05.17/outbox.cif.g08.bks.cpg/sg5_30_cif.got.tgz:58854.got - 2010.06.03 18:56:24.
