data_PCOD9128766
_publ_section_title
;
Structure prediction by ZEFSAII (Michael W. Deem and Ramdas Pophale) SiO2 
 PCOD9128766
Probable space group: C 2
;
_chemical_formula_sum "Si O2"
_cell_formula_units_Z 14
_cell_length_a 7.434570
_cell_length_b 15.242128
_cell_length_c 5.183054
_cell_angle_alpha 90.000000
_cell_angle_beta 111.513678
_cell_angle_gamma 90.000000
_cell_volume 546.417048
_symmetry_space_group_name_H-M "C 2"
_symmetry_group_IT_number 5
_symmetry_cell_setting 'monoclinic'
loop_
_space_group_symop_operation_xyz
x,y,z
-x,y,-z
1/2+x,1/2+y,z
1/2-x,1/2+y,-z
loop_
_atom_site_type_symbol
_atom_site_label
_atom_site_fract_x
_atom_site_fract_y
_atom_site_fract_z
Si Si1 0.708395 0.275470 0.500251
Si Si2 0.367384 0.589851 0.676460
Si Si3 0.190318 0.445298 0.236423
Si Si4 0.000000 0.872843 0.000000
O O1 0.500000 0.301629 0.500000
O O2 0.740045 0.177543 0.606245
O O3 0.854175 0.347162 0.688990
O O4 0.666963 0.305285 0.186815
O O5 0.500000 0.607446 0.500000
O O6 0.249283 0.504155 0.515893
O O7 0.500000 0.590327 0.000000
O O8 0.372463 0.433654 0.132549
O O9 0.000000 0.483216 0.000000
#
# Coordination Sequence:
#
# PCOD9128766 Si02
#       4
#     4   4   4   2
#     4  10  25  48  78 111 162 201 267 323 400 468
#     4  12  30  50  77 119 162 204 266 330 398 473
#     4  11  27  50  83 114 160 210 268 324 400 476
#     4  10  24  50  80 118 154 214 256 338 388 480
#
# _framework density 25.621455999999998
#
# number of rings (size 3 to 8) (size 9 to 14) (size 15 to 20)
#    0.000    1.143    0.000    3.429   22.000    0.000 
#    0.000    0.000    0.000    0.000    0.000    0.000 
#    0.000    0.000    0.000    0.000    0.000    0.000 
#
# Total GULP energy -39036.300007 kJ/mol
# GULP energy per Si atom -5576.614287 kJ/mol
# Density = 2.556314 g / cm^3
# Si number density = 25.621456 Si / 1000 Ang^3
#
#
#
# Elastic Constant Matrix: (Units=GPa)
#
#
# Indices 1 2 3 4 5 6 
#
# 1 75.7190 18.2355 45.9201 0.0000 11.6378 0.0000
# 2 18.2355 148.8461 77.6181 0.0000 20.2191 0.0000
# 3 45.9201 77.6181 237.0584 0.0000 28.8654 0.0000
# 4 0.0000 0.0000 0.0000 149.7724 0.0000 -20.3906
# 5 11.6378 20.2191 28.8654 0.0000 40.3029 0.0000
# 6 0.0000 0.0000 0.0000 -20.3906 0.0000 34.7504
#
#
#
# Elastic Compliance Matrix: (Units=1/GPa)
#
#
# Indices 1 2 3 4 5 6 
#
# 1 0.015195 -0.000181 -0.002586 0.000000 -0.002444 0.000000
# 2 -0.000181 0.008316 -0.002395 0.000000 -0.002404 0.000000
# 3 -0.002586 -0.002395 0.005769 0.000000 -0.002184 0.000000
# 4 0.000000 0.000000 0.000000 0.007256 0.000000 0.004258
# 5 -0.002444 -0.002404 -0.002184 0.000000 0.028288 0.000000
# 6 0.000000 0.000000 0.000000 0.004258 0.000000 0.031275
#
#
# Mechanical properties :
#
#
# Convention : Reuss Voigt Hill
#
# Bulk Modulus (GPa) = 52.75504 82.79676 67.77590
# Shear Modulus (GPa) = 44.34866 66.28845 55.31856
#
# Velocity S-wave (km/s) = 4.16494 5.09199 4.65162
# Velocity P-wave (km/s) = 6.61543 8.18271 7.44045
#
# Compressibility (1/GPa) = 0.01895553
#
# Stress axis : x y z
#
# Youngs Moduli (GPa) = 65.81313 120.24945 173.32533
#
# Poissons Ratio (x) = 0.02173 0.44830
# Poissons Ratio (y) = 0.01189 0.41513
# Poissons Ratio (z) = 0.17022 0.28801
#
# Static dielectric constant tensor:
#      x y z
#    x 1.780630 0.000000 -0.303730 
#    y 0.000000 2.141550 0.000000 
#    z -0.303730 0.000000 2.511680 
# 
# From -- ./inp_files/1815.got.cif
#   From: 2010.05.17/outbox.cif.g08.bks.cpg/sg5_1_cif.got.tgz:1815.got - 2010.06.03 18:56:24.
