data_PCOD9128953
_publ_section_title
;
Structure prediction by ZEFSAII (Michael W. Deem and Ramdas Pophale) SiO2 
 PCOD9128953
Probable space group: C 2
;
_chemical_formula_sum "Si O2"
_cell_formula_units_Z 28
_cell_length_a 12.456309
_cell_length_b 7.107585
_cell_length_c 23.324216
_cell_angle_alpha 90.000000
_cell_angle_beta 28.550987
_cell_angle_gamma 90.000000
_cell_volume 986.943827
_symmetry_space_group_name_H-M "C 2"
_symmetry_group_IT_number 5
_symmetry_cell_setting 'monoclinic'
loop_
_space_group_symop_operation_xyz
x,y,z
-x,y,-z
1/2+x,1/2+y,z
1/2-x,1/2+y,-z
loop_
_atom_site_type_symbol
_atom_site_label
_atom_site_fract_x
_atom_site_fract_y
_atom_site_fract_z
Si Si1 0.422222 0.441830 0.916342
Si Si2 0.537794 0.899433 0.541343
Si Si3 0.578399 0.285581 0.382282
Si Si4 0.998273 0.555925 0.180843
Si Si5 0.385847 0.720912 0.376958
Si Si6 0.245791 0.601673 0.878700
Si Si7 0.795242 0.705098 0.798859
O O1 0.864826 0.577925 0.618827
O O2 0.346769 0.534371 0.891513
O O3 0.594135 0.572617 0.870924
O O4 0.197492 0.432481 0.059838
O O5 0.500000 0.792327 0.500000
O O6 0.770958 0.015717 0.434444
O O7 0.015073 0.738362 0.854321
O O8 0.486062 0.780921 0.390701
O O9 0.342670 0.343539 0.521699
O O10 0.573099 0.722904 0.241025
O O11 0.774469 0.434326 0.290248
O O12 0.076565 0.628150 0.206135
O O13 0.953247 0.723459 0.669266
O O14 0.209078 0.411357 0.857854
O O15 0.000000 0.691360 0.000000
#
# Coordination Sequence:
#
# PCOD9128953 Si02
#       7
#     4   4   4   4   4   4   4
#     4  11  25  48  83 126 173 230 287 350 423 516
#     4  10  25  52  82 118 158 211 280 355 422 507
#     4  10  25  50  78 120 164 217 285 353 423 506
#     4  11  24  51  80 119 179 224 282 356 431 503
#     4  10  25  53  82 117 166 217 280 353 431 494
#     4  11  24  49  87 119 182 226 279 356 417 509
#     4  11  24  51  81 124 174 222 287 351 425 513
#
# _framework density 28.370412000000002
#
# number of rings (size 3 to 8) (size 9 to 14) (size 15 to 20)
#    0.857    0.571    0.000    4.714    2.000    1.143 
#   12.857    9.286    0.000    0.000    0.000    0.000 
#    0.000    0.000    0.000    0.000    0.000    0.000 
#
# Total GULP energy -78642.915014 kJ/mol
# GULP energy per Si atom -5617.351072 kJ/mol
# Density = 2.830584 g / cm^3
# Si number density = 28.370412 Si / 1000 Ang^3
#
#
#
# Elastic Constant Matrix: (Units=GPa)
#
#
# Indices 1 2 3 4 5 6 
#
# 1 170.0756 75.4744 85.4526 -0.0001 19.7135 0.0003
# 2 75.4744 132.6298 69.0402 0.0000 -14.2828 0.0008
# 3 85.4526 69.0402 259.2817 -0.0027 -10.4997 0.0005
# 4 -0.0001 0.0000 -0.0027 57.0977 0.0004 -4.8861
# 5 19.7135 -14.2828 -10.4997 0.0004 56.0909 0.0001
# 6 0.0003 0.0008 0.0005 -4.8861 0.0001 55.5113
#
#
#
# Elastic Compliance Matrix: (Units=1/GPa)
#
#
# Indices 1 2 3 4 5 6 
#
# 1 0.009736 -0.005004 -0.002082 0.000000 -0.005086 0.000000
# 2 -0.005004 0.011511 -0.001235 0.000000 0.004459 0.000000
# 3 -0.002082 -0.001235 0.004926 0.000000 0.001339 0.000000
# 4 0.000000 0.000000 0.000000 0.017647 0.000000 0.001553
# 5 -0.005086 0.004459 0.001339 0.000000 0.021002 0.000000
# 6 0.000000 0.000000 0.000000 0.001553 0.000000 0.018151
#
#
# Mechanical properties :
#
#
# Convention : Reuss Voigt Hill
#
# Bulk Modulus (GPa) = 104.93549 113.54685 109.24117
# Shear Modulus (GPa) = 48.64169 55.87464 52.25817
#
# Velocity S-wave (km/s) = 4.14517 4.44268 4.29650
# Velocity P-wave (km/s) = 7.74454 8.15024 7.94998
#
# Compressibility (1/GPa) = 0.00952966
#
# Stress axis : x y z
#
# Youngs Moduli (GPa) = 102.70960 86.87627 202.99644
#
# Poissons Ratio (x) = 0.43475 0.42269
# Poissons Ratio (y) = 0.51399 0.25073
# Poissons Ratio (z) = 0.21387 0.10731
#
# Static dielectric constant tensor:
#      x y z
#    x 2.212220 0.000000 -0.009630 
#    y 0.000000 2.227780 0.000000 
#    z -0.009630 0.000000 2.190030 
# 
# From -- ./inp_files/65279.got.cif
#   From: 2010.05.17/outbox.cif.g08.bks.cpg/sg5_33_cif.got.tgz:65279.got - 2010.06.03 18:56:24.
