data_PCOD9128059
_publ_section_title
;
Structure prediction by ZEFSAII (Michael W. Deem and Ramdas Pophale) SiO2 
 PCOD9128059
Probable space group: C 2
;
_chemical_formula_sum "Si O2"
_cell_formula_units_Z 26
_cell_length_a 14.503307
_cell_length_b 5.765900
_cell_length_c 13.481050
_cell_angle_alpha 90.000000
_cell_angle_beta 79.240700
_cell_angle_gamma 90.000000
_cell_volume 1107.529005
_symmetry_space_group_name_H-M "C 2"
_symmetry_group_IT_number 5
_symmetry_cell_setting 'monoclinic'
loop_
_space_group_symop_operation_xyz
x,y,z
-x,y,-z
1/2+x,1/2+y,z
1/2-x,1/2+y,-z
loop_
_atom_site_type_symbol
_atom_site_label
_atom_site_fract_x
_atom_site_fract_y
_atom_site_fract_z
Si Si1 0.073817 0.496040 0.331750
Si Si2 0.790763 0.163279 0.607990
Si Si3 0.199667 0.620172 0.125193
Si Si4 0.630589 0.531355 0.617714
Si Si5 0.377650 0.935712 0.273861
Si Si6 0.000000 0.785890 0.500000
Si Si7 0.689965 0.119646 0.902877
O O1 0.123567 0.249994 0.342142
O O2 0.126392 0.608465 0.229210
O O3 0.081564 0.631979 0.434467
O O4 0.962799 0.496402 0.331069
O O5 0.707898 0.348045 0.631137
O O6 0.824377 0.153401 0.488636
O O7 0.729190 0.951753 0.662185
O O8 0.251351 0.873192 0.119061
O O9 0.258575 0.372600 0.120576
O O10 0.156022 0.615095 0.023226
O O11 0.607641 0.660736 0.724585
O O12 0.539161 0.433715 0.582262
O O13 0.382742 0.076782 0.171889
#
# Coordination Sequence:
#
# PCOD9128059 Si02
#       7
#     4   4   4   4   4   2   4
#     4  12  25  43  67 101 143 189 238 302 372 437
#     4  12  23  42  63  92 136 185 233 288 365 428
#     4  10  23  45  75 104 140 192 238 305 381 433
#     4  12  24  42  65  95 139 187 239 300 362 439
#     4  12  25  42  66 100 136 185 244 305 359 450
#     4  12  26  42  66 108 148 186 252 300 364 468
#     4  10  23  46  74 105 140 184 250 305 368 450
#
# _framework density 23.475684999999999
#
# number of rings (size 3 to 8) (size 9 to 14) (size 15 to 20)
#    0.000    0.615    4.615    3.692    2.154    1.846 
#    0.000    0.000    0.000    5.538    0.000    0.000 
#    0.000    0.000    0.000    0.000    0.000    0.000 
#
# Total GULP energy -72423.621653 kJ/mol
# GULP energy per Si atom -5571.047819 kJ/mol
# Density = 2.342225 g / cm^3
# Si number density = 23.475685 Si / 1000 Ang^3
#
#
#
# Elastic Constant Matrix: (Units=GPa)
#
#
# Indices 1 2 3 4 5 6 
#
# 1 87.2830 22.4608 19.8328 0.0000 11.1492 0.0000
# 2 22.4608 71.5815 10.2100 0.0000 3.5501 0.0000
# 3 19.8328 10.2100 110.5172 0.0000 -3.7015 0.0000
# 4 0.0000 0.0000 0.0000 42.1339 0.0000 7.3028
# 5 11.1492 3.5501 -3.7015 0.0000 40.5882 0.0000
# 6 0.0000 0.0000 0.0000 7.3028 0.0000 29.8296
#
#
#
# Elastic Compliance Matrix: (Units=1/GPa)
#
#
# Indices 1 2 3 4 5 6 
#
# 1 0.013357 -0.003705 -0.002173 0.000000 -0.003543 0.000000
# 2 -0.003705 0.015260 -0.000758 0.000000 -0.000386 0.000000
# 3 -0.002173 -0.000758 0.009560 0.000000 0.001535 0.000000
# 4 0.000000 0.000000 0.000000 0.024786 0.000000 -0.006068
# 5 -0.003543 -0.000386 0.001535 0.000000 0.025785 0.000000
# 6 0.000000 0.000000 0.000000 -0.006068 0.000000 0.035009
#
#
# Mechanical properties :
#
#
# Convention : Reuss Voigt Hill
#
# Bulk Modulus (GPa) = 40.15458 41.59877 40.87668
# Shear Modulus (GPa) = 34.40435 36.96889 35.68662
#
# Velocity S-wave (km/s) = 3.83238 3.97265 3.90314
# Velocity P-wave (km/s) = 6.06009 6.22904 6.14515
#
# Compressibility (1/GPa) = 0.02490376
#
# Stress axis : x y z
#
# Youngs Moduli (GPa) = 74.86758 65.53084 104.60482
#
# Poissons Ratio (x) = 0.24282 0.22734
# Poissons Ratio (y) = 0.27742 0.07926
# Poissons Ratio (z) = 0.16271 0.04966
#
# Static dielectric constant tensor:
#      x y z
#    x 1.982870 0.000000 -0.052190 
#    y 0.000000 2.139750 0.000000 
#    z -0.052190 0.000000 1.950020 
# 
# From -- ./inp_files/53797.got.cif
#   From: 2010.05.17/outbox.cif.g08.bks.cpg/sg5_27_cif.got.tgz:53797.got - 2010.06.03 18:56:24.
