data_PCOD9128690
_publ_section_title
;
Structure prediction by ZEFSAII (Michael W. Deem and Ramdas Pophale) SiO2 
 PCOD9128690
Probable space group: C 2
;
_chemical_formula_sum "Si O2"
_cell_formula_units_Z 20
_cell_length_a 10.874158
_cell_length_b 9.738143
_cell_length_c 11.571526
_cell_angle_alpha 90.000000
_cell_angle_beta 37.929727
_cell_angle_gamma 90.000000
_cell_volume 753.219863
_symmetry_space_group_name_H-M "C 2"
_symmetry_group_IT_number 5
_symmetry_cell_setting 'monoclinic'
loop_
_space_group_symop_operation_xyz
x,y,z
-x,y,-z
1/2+x,1/2+y,z
1/2-x,1/2+y,-z
loop_
_atom_site_type_symbol
_atom_site_label
_atom_site_fract_x
_atom_site_fract_y
_atom_site_fract_z
Si Si1 0.377018 0.071470 0.197552
Si Si2 0.858453 0.373854 0.859826
Si Si3 0.736922 0.012867 0.293806
Si Si4 0.312160 0.297079 0.769883
Si Si5 0.733104 0.297007 0.550477
O O1 0.258024 0.183080 0.356609
O O2 0.541256 0.011624 0.163466
O O3 0.255360 0.940184 0.238708
O O4 0.500000 0.132093 0.000000
O O5 0.731311 0.420931 0.844217
O O6 0.052400 0.295522 0.668115
O O7 0.755014 0.303950 0.045736
O O8 0.500000 0.005299 0.500000
O O9 0.823297 0.940859 0.343665
O O10 0.550543 0.275259 0.598231
O O11 0.213768 0.167368 0.779037
#
# Coordination Sequence:
#
# PCOD9128690 Si02
#       5
#     4   4   4   4   4
#     4  10  24  48  70 104 145 177 237 292 336 422
#     4  10  24  48  68 108 140 178 240 288 334 430
#     4  10  24  48  70 104 145 177 237 292 336 422
#     4  11  25  49  73 100 145 186 227 292 352 404
#     4  11  25  49  73 100 145 186 227 292 352 404
#
# _framework density 26.552672999999999
#
# number of rings (size 3 to 8) (size 9 to 14) (size 15 to 20)
#    0.000    1.600    2.000    0.000    5.600    0.000 
#   28.800    0.000    0.000    0.000    0.000    0.000 
#    0.000    0.000    0.000    0.000    0.000    0.000 
#
# Total GULP energy -56089.041262 kJ/mol
# GULP energy per Si atom -5608.904126 kJ/mol
# Density = 2.649224 g / cm^3
# Si number density = 26.552673 Si / 1000 Ang^3
#
#
#
# Elastic Constant Matrix: (Units=GPa)
#
#
# Indices 1 2 3 4 5 6 
#
# 1 106.7721 37.5890 22.6858 0.0000 5.2459 0.0000
# 2 37.5890 143.3157 56.0129 0.0000 12.8930 0.0000
# 3 22.6858 56.0129 149.1955 0.0000 13.1018 0.0000
# 4 0.0000 0.0000 0.0000 31.8641 0.0000 -2.6630
# 5 5.2459 12.8930 13.1018 0.0000 40.7424 0.0000
# 6 0.0000 0.0000 0.0000 -2.6630 0.0000 26.8899
#
#
#
# Elastic Compliance Matrix: (Units=1/GPa)
#
#
# Indices 1 2 3 4 5 6 
#
# 1 0.010377 -0.002444 -0.000629 0.000000 -0.000361 0.000000
# 2 -0.002444 0.008862 -0.002816 0.000000 -0.001584 0.000000
# 3 -0.000629 -0.002816 0.007996 0.000000 -0.001599 0.000000
# 4 0.000000 0.000000 0.000000 0.031645 0.000000 0.003134
# 5 -0.000361 -0.001584 -0.001599 0.000000 0.025606 0.000000
# 6 0.000000 0.000000 0.000000 0.003134 0.000000 0.037499
#
#
# Mechanical properties :
#
#
# Convention : Reuss Voigt Hill
#
# Bulk Modulus (GPa) = 64.69313 70.20650 67.44981
# Shear Modulus (GPa) = 35.99308 38.76567 37.37938
#
# Velocity S-wave (km/s) = 3.68575 3.82508 3.75606
# Velocity P-wave (km/s) = 6.52150 6.78278 6.65343
#
# Compressibility (1/GPa) = 0.01545759
#
# Stress axis : x y z
#
# Youngs Moduli (GPa) = 96.36393 112.84489 125.06244
#
# Poissons Ratio (x) = 0.27574 0.07865
# Poissons Ratio (y) = 0.23547 0.35222
# Poissons Ratio (z) = 0.06060 0.31781
#
# Static dielectric constant tensor:
#      x y z
#    x 2.076590 0.000000 0.040650 
#    y 0.000000 2.107820 0.000000 
#    z 0.040650 0.000000 2.089970 
# 
# From -- ./inp_files/15873.got.cif
#   From: 2010.05.17/outbox.cif.g08.bks.cpg/sg5_8_cif.got.tgz:15873.got - 2010.06.03 18:56:24.
