data_PCOD9128842
_publ_section_title
;
Structure prediction by ZEFSAII (Michael W. Deem and Ramdas Pophale) SiO2 
 PCOD9128842
Probable space group: C 2
;
_chemical_formula_sum "Si O2"
_cell_formula_units_Z 18
_cell_length_a 8.613886
_cell_length_b 12.039899
_cell_length_c 7.256168
_cell_angle_alpha 90.000000
_cell_angle_beta 81.991824
_cell_angle_gamma 90.000000
_cell_volume 745.200871
_symmetry_space_group_name_H-M "C 2"
_symmetry_group_IT_number 5
_symmetry_cell_setting 'monoclinic'
loop_
_space_group_symop_operation_xyz
x,y,z
-x,y,-z
1/2+x,1/2+y,z
1/2-x,1/2+y,-z
loop_
_atom_site_type_symbol
_atom_site_label
_atom_site_fract_x
_atom_site_fract_y
_atom_site_fract_z
Si Si1 0.974136 0.704860 0.294426
Si Si2 0.820123 0.346742 0.777813
Si Si3 0.500000 0.993111 0.500000
Si Si4 0.238911 0.569881 0.056057
Si Si5 0.483875 0.627117 0.721066
O O1 0.931582 0.578244 0.360601
O O2 0.119546 0.669440 0.136604
O O3 0.000000 0.752717 0.500000
O O4 0.843117 0.781918 0.224558
O O5 0.861172 0.416091 0.589131
O O6 0.959041 0.257523 0.769846
O O7 0.823948 0.444314 0.926447
O O8 0.368292 0.578994 0.196491
O O9 0.332004 0.580567 0.850984
O O10 0.500000 0.612451 0.500000
#
# Coordination Sequence:
#
# PCOD9128842 Si02
#       5
#     4   4   2   4   4
#     4   9  20  40  66 102 139 171 230 283 330 411
#     4  11  21  42  71  93 140 184 214 284 349 387
#     4   8  20  36  62 102 134 170 230 276 322 416
#     4  10  25  45  63 105 142 169 238 283 321 420
#     4  11  24  45  73  97 140 183 227 280 342 407
#
# _framework density 24.154561999999999
#
# number of rings (size 3 to 8) (size 9 to 14) (size 15 to 20)
#    0.667    1.333    1.111    1.333    0.000    5.333 
#    0.000   13.333    0.000    0.000    0.000    0.000 
#    0.000    0.000    0.000    0.000    0.000    0.000 
#
# Total GULP energy -50129.721676 kJ/mol
# GULP energy per Si atom -5569.969075 kJ/mol
# Density = 2.409959 g / cm^3
# Si number density = 24.154562 Si / 1000 Ang^3
#
#
#
# Elastic Constant Matrix: (Units=GPa)
#
#
# Indices 1 2 3 4 5 6 
#
# 1 106.0580 36.0411 55.8742 0.0000 -7.6050 0.0000
# 2 36.0411 98.0895 46.4021 0.0000 -14.3796 0.0000
# 3 55.8742 46.4021 175.1066 0.0000 -30.1001 0.0000
# 4 0.0000 0.0000 0.0000 10.3165 0.0000 -16.2643
# 5 -7.6050 -14.3796 -30.1001 0.0000 47.8747 0.0000
# 6 0.0000 0.0000 0.0000 -16.2643 0.0000 48.7721
#
#
#
# Elastic Compliance Matrix: (Units=1/GPa)
#
#
# Indices 1 2 3 4 5 6 
#
# 1 0.012096 -0.003071 -0.003223 0.000000 -0.001027 0.000000
# 2 -0.003071 0.012567 -0.002002 0.000000 0.002028 0.000000
# 3 -0.003223 -0.002002 0.007936 0.000000 0.003876 0.000000
# 4 0.000000 0.000000 0.000000 0.204383 0.000000 0.068157
# 5 -0.001027 0.002028 0.003876 0.000000 0.023771 0.000000
# 6 0.000000 0.000000 0.000000 0.068157 0.000000 0.043232
#
#
# Mechanical properties :
#
#
# Convention : Reuss Voigt Hill
#
# Bulk Modulus (GPa) = 62.46283 72.87653 67.66968
# Shear Modulus (GPa) = 15.34156 37.45512 26.39834
#
# Velocity S-wave (km/s) = 2.52294 3.94209 3.30948
# Velocity P-wave (km/s) = 5.86538 7.13839 6.53297
#
# Compressibility (1/GPa) = 0.01600952
#
# Stress axis : x y z
#
# Youngs Moduli (GPa) = 82.66918 79.57140 126.00980
#
# Poissons Ratio (x) = 0.24434 0.40608
# Poissons Ratio (y) = 0.25385 0.25225
# Poissons Ratio (z) = 0.26641 0.15929
#
# Static dielectric constant tensor:
#      x y z
#    x 1.978490 0.000000 -0.033410 
#    y 0.000000 1.954670 0.000000 
#    z -0.033410 0.000000 2.030360 
# 
# From -- ./inp_files/14249.got.cif
#   From: 2010.05.17/outbox.cif.g08.bks.cpg/sg5_8_cif.got.tgz:14249.got - 2010.06.03 18:56:24.
