data_PCOD9128136
_publ_section_title
;
Structure prediction by ZEFSAII (Michael W. Deem and Ramdas Pophale) SiO2 
 PCOD9128136
Probable space group: C 2
;
_chemical_formula_sum "Si O2"
_cell_formula_units_Z 14
_cell_length_a 17.167208
_cell_length_b 8.542447
_cell_length_c 7.329769
_cell_angle_alpha 90.000000
_cell_angle_beta 33.965334
_cell_angle_gamma 90.000000
_cell_volume 600.542965
_symmetry_space_group_name_H-M "C 2"
_symmetry_group_IT_number 5
_symmetry_cell_setting 'monoclinic'
loop_
_space_group_symop_operation_xyz
x,y,z
-x,y,-z
1/2+x,1/2+y,z
1/2-x,1/2+y,-z
loop_
_atom_site_type_symbol
_atom_site_label
_atom_site_fract_x
_atom_site_fract_y
_atom_site_fract_z
Si Si1 0.500000 0.273800 0.000000
Si Si2 0.148596 0.933962 0.980608
Si Si3 0.152117 0.286729 0.121670
Si Si4 0.848522 0.463183 0.247590
O O1 0.498012 0.375114 0.818807
O O2 0.377545 0.148663 0.199277
O O3 0.226000 0.819310 0.969928
O O4 0.240595 0.938868 0.618050
O O5 0.144074 0.106188 0.075388
O O6 0.000000 0.330440 0.500000
O O7 0.183725 0.395335 0.886325
O O8 0.000000 0.388893 0.000000
#
# Coordination Sequence:
#
# PCOD9128136 Si02
#       4
#     2   4   4   4
#     4  10  24  42  66 100 134 176 222 276 336 398
#     4  12  26  44  71 103 138 178 229 279 341 407
#     4  12  26  45  71 103 137 181 228 282 339 404
#     4  10  23  47  71  92 140 179 225 278 338 394
#
# _framework density 23.312237
#
# number of rings (size 3 to 8) (size 9 to 14) (size 15 to 20)
#    0.857    0.000    2.857    3.429    2.000    6.857 
#    0.000    0.000    0.000    0.000    0.000    0.000 
#    0.000    0.000    0.000    0.000    0.000    0.000 
#
# Total GULP energy -39099.425023 kJ/mol
# GULP energy per Si atom -5585.632146 kJ/mol
# Density = 2.325918 g / cm^3
# Si number density = 23.312237 Si / 1000 Ang^3
#
#
#
# Elastic Constant Matrix: (Units=GPa)
#
#
# Indices 1 2 3 4 5 6 
#
# 1 205.2163 79.2850 36.4402 0.0000 38.4472 0.0000
# 2 79.2850 158.2488 22.8648 0.0000 24.7949 0.0000
# 3 36.4402 22.8648 132.8968 0.0000 14.2131 0.0000
# 4 0.0000 0.0000 0.0000 4.1468 0.0000 10.5431
# 5 38.4472 24.7949 14.2131 0.0000 35.8642 0.0000
# 6 0.0000 0.0000 0.0000 10.5431 0.0000 50.8850
#
#
#
# Elastic Compliance Matrix: (Units=1/GPa)
#
#
# Indices 1 2 3 4 5 6 
#
# 1 0.007032 -0.002542 -0.000911 0.000000 -0.005420 0.000000
# 2 -0.002542 0.008074 -0.000404 0.000000 -0.002696 0.000000
# 3 -0.000911 -0.000404 0.008051 0.000000 -0.001935 0.000000
# 4 0.000000 0.000000 0.000000 0.509611 0.000000 -0.105589
# 5 -0.005420 -0.002696 -0.001935 0.000000 0.036324 0.000000
# 6 0.000000 0.000000 0.000000 -0.105589 0.000000 0.041530
#
#
# Mechanical properties :
#
#
# Convention : Reuss Voigt Hill
#
# Bulk Modulus (GPa) = 64.75611 85.94912 75.35261
# Shear Modulus (GPa) = 8.01945 42.03064 25.02505
#
# Velocity S-wave (km/s) = 1.85674 4.25071 3.27994
# Velocity P-wave (km/s) = 5.69515 7.81282 6.83648
#
# Compressibility (1/GPa) = 0.01544256
#
# Stress axis : x y z
#
# Youngs Moduli (GPa) = 142.19829 123.85813 124.21071
#
# Poissons Ratio (x) = 0.31491 0.11318
# Poissons Ratio (y) = 0.36153 0.05013
# Poissons Ratio (z) = 0.12957 0.04999
#
# Static dielectric constant tensor:
#      x y z
#    x 1.915640 0.000000 -0.093180 
#    y 0.000000 1.887190 0.000000 
#    z -0.093180 0.000000 1.908880 
# 
# From -- ./inp_files/4127.got.cif
#   From: 2010.05.17/outbox.cif.g08.bks.cpg/sg5_3_cif.got.tgz:4127.got - 2010.06.03 18:56:24.
