data_PCOD9128955
_publ_section_title
;
Structure prediction by ZEFSAII (Michael W. Deem and Ramdas Pophale) SiO2 
 PCOD9128955
Probable space group: C 2
;
_chemical_formula_sum "Si O2"
_cell_formula_units_Z 16
_cell_length_a 19.671344
_cell_length_b 5.008347
_cell_length_c 10.614219
_cell_angle_alpha 90.000000
_cell_angle_beta 37.099757
_cell_angle_gamma 90.000000
_cell_volume 630.784680
_symmetry_space_group_name_H-M "C 2"
_symmetry_group_IT_number 5
_symmetry_cell_setting 'monoclinic'
loop_
_space_group_symop_operation_xyz
x,y,z
-x,y,-z
1/2+x,1/2+y,z
1/2-x,1/2+y,-z
loop_
_atom_site_type_symbol
_atom_site_label
_atom_site_fract_x
_atom_site_fract_y
_atom_site_fract_z
Si Si1 0.262419 0.272570 0.904650
Si Si2 0.481653 0.808275 0.790570
Si Si3 0.000000 0.000608 0.500000
Si Si4 0.674381 0.115538 0.620925
Si Si5 0.500000 0.424736 0.000000
O O1 0.385067 0.329520 0.668434
O O2 0.349654 0.873287 0.999201
O O3 0.255705 0.460852 0.039435
O O4 0.496890 0.678250 0.630919
O O5 0.506022 0.604062 0.867588
O O6 0.573476 0.039156 0.674777
O O7 0.756167 0.349006 0.452864
O O8 0.609612 0.239518 0.835276
#
# Coordination Sequence:
#
# PCOD9128955 Si02
#       5
#     4   4   2   4   2
#     4  10  25  50  79 116 156 204 259 325 395 469
#     4  11  27  54  82 117 161 207 269 328 396 471
#     4  10  26  54  82 116 154 208 262 326 398 466
#     4  12  28  52  80 122 160 217 266 328 401 478
#     4  12  28  54  78 120 166 212 264 336 396 474
#
# _framework density 25.365231999999999
#
# number of rings (size 3 to 8) (size 9 to 14) (size 15 to 20)
#    0.000    1.000    2.500    0.750    7.000   10.000 
#    9.000    0.000    0.000    0.000    0.000    0.000 
#    0.000    0.000    0.000    0.000    0.000    0.000 
#
# Total GULP energy -44814.073946 kJ/mol
# GULP energy per Si atom -5601.759243 kJ/mol
# Density = 2.530750 g / cm^3
# Si number density = 25.365232 Si / 1000 Ang^3
#
#
#
# Elastic Constant Matrix: (Units=GPa)
#
#
# Indices 1 2 3 4 5 6 
#
# 1 129.0586 54.5323 72.4458 0.0570 -27.0347 -0.0463
# 2 54.5323 129.8601 56.3691 -0.3401 -8.5382 0.2737
# 3 72.4458 56.3691 159.2822 -0.1505 -24.2299 0.1198
# 4 0.0570 -0.3401 -0.1505 2718.1049 -0.0137-2166.9684
# 5 -27.0347 -8.5382 -24.2299 -0.0137 76.7229 0.0137
# 6 -0.0463 0.2737 0.1198-2166.9684 0.0137 1779.6936
#
#
#
# Elastic Compliance Matrix: (Units=1/GPa)
#
#
# Indices 1 2 3 4 5 6 
#
# 1 0.011765 -0.003094 -0.003864 -0.000001 0.002581 0.000000
# 2 -0.003094 0.009912 -0.002205 0.000001 -0.000683 -0.000001
# 3 -0.003864 -0.002205 0.009004 0.000000 0.001237 0.000000
# 4 -0.000001 0.000001 0.000000 0.012565 -0.000001 0.015299
# 5 0.002581 -0.000683 0.001237 -0.000001 0.014258 -0.000001
# 6 0.000000 -0.000001 0.000000 0.015299 -0.000001 0.019190
#
#
# Mechanical properties :
#
#
# Convention : Reuss Voigt Hill
#
# Bulk Modulus (GPa) = 80.92660 87.21059 84.06859
# Shear Modulus (GPa) = 50.43575 930.56122 490.49848
#
# Velocity S-wave (km/s) = 4.46396 19.17450 13.92100
# Velocity P-wave (km/s) = 7.65135 22.90571 17.07651
#
# Compressibility (1/GPa) = 0.01235688
#
# Stress axis : x y z
#
# Youngs Moduli (GPa) = 84.99689 100.89016 111.06506
#
# Poissons Ratio (x) = 0.31213 0.42911
# Poissons Ratio (y) = 0.26296 0.24485
# Poissons Ratio (z) = 0.32839 0.22242
#
# Static dielectric constant tensor:
#      x y z
#    x 1.729270 -0.000030 -1.406000 
#    y -0.000030 2.031480 -0.000100 
#    z -1.406000 -0.000100 -4.487060 
# 
# From -- ./inp_files/25905.got.cif
#   From: 2010.05.17/outbox.cif.g08.bks.cpg/sg5_13_cif.got.tgz:25905.got - 2010.06.03 18:56:24.
