data_PCOD9128662
_publ_section_title
;
Structure prediction by ZEFSAII (Michael W. Deem and Ramdas Pophale) SiO2 
 PCOD9128662
Probable space group: C 2
;
_chemical_formula_sum "Si O2"
_cell_formula_units_Z 24
_cell_length_a 27.092788
_cell_length_b 5.281694
_cell_length_c 14.325577
_cell_angle_alpha 90.000000
_cell_angle_beta 26.522674
_cell_angle_gamma 90.000000
_cell_volume 915.400267
_symmetry_space_group_name_H-M "C 2"
_symmetry_group_IT_number 5
_symmetry_cell_setting 'monoclinic'
loop_
_space_group_symop_operation_xyz
x,y,z
-x,y,-z
1/2+x,1/2+y,z
1/2-x,1/2+y,-z
loop_
_atom_site_type_symbol
_atom_site_label
_atom_site_fract_x
_atom_site_fract_y
_atom_site_fract_z
Si Si1 0.969752 0.315800 0.783536
Si Si2 0.838304 0.601929 0.437398
Si Si3 0.611745 0.327754 0.829965
Si Si4 0.417733 0.569641 0.564798
Si Si5 0.215839 0.441631 0.784619
Si Si6 0.823111 0.444778 0.868674
O O1 0.906694 0.485951 0.813231
O O2 0.079672 0.446013 0.635660
O O3 0.009369 0.089173 0.651626
O O4 0.881470 0.257154 0.013982
O O5 0.722831 0.468017 0.613827
O O6 0.901513 0.632032 0.233433
O O7 0.793768 0.845656 0.569206
O O8 0.647006 0.184842 0.864959
O O9 0.500000 0.485534 0.000000
O O10 0.500000 0.439226 0.500000
O O11 0.300517 0.475795 0.726195
O O12 0.384856 0.837081 0.671681
O O13 0.751666 0.697290 0.978646
#
# Coordination Sequence:
#
# PCOD9128662 Si02
#       6
#     4   4   4   4   4   4
#     4  11  25  45  73 111 144 198 252 313 376 464
#     4  12  27  45  72 108 142 196 250 316 386 459
#     4  12  26  46  72 105 145 187 251 316 389 457
#     4  10  24  47  71 113 152 193 251 313 379 458
#     4  12  25  47  76 106 147 197 254 313 382 465
#     4  11  25  47  77 112 159 208 257 318 387 458
#
# _framework density 26.218040999999999
#
# number of rings (size 3 to 8) (size 9 to 14) (size 15 to 20)
#    0.000    0.667    6.667    0.000    2.333    6.000 
#    0.000    4.167    0.000    0.000    0.000    0.000 
#    0.000    0.000    0.000    0.000    0.000    0.000 
#
# Total GULP energy -67043.825508 kJ/mol
# GULP energy per Si atom -5586.985459 kJ/mol
# Density = 2.615837 g / cm^3
# Si number density = 26.218041 Si / 1000 Ang^3
#
#
#
# Elastic Constant Matrix: (Units=GPa)
#
#
# Indices 1 2 3 4 5 6 
#
# 1 145.4450 36.8096 41.7478 -0.0002 -42.8667 -0.0001
# 2 36.8096 65.8289 10.2867 -0.0009 -6.8080 -0.0004
# 3 41.7478 10.2867 129.3317 -0.0004 -19.5961 -0.0001
# 4 -0.0002 -0.0009 -0.0004 28.2653 0.0000 -0.3764
# 5 -42.8667 -6.8080 -19.5961 0.0000 62.5075 0.0000
# 6 -0.0001 -0.0004 -0.0001 -0.3764 0.0000 23.6613
#
#
#
# Elastic Compliance Matrix: (Units=1/GPa)
#
#
# Indices 1 2 3 4 5 6 
#
# 1 0.010488 -0.004918 -0.002085 0.000000 0.006003 0.000000
# 2 -0.004918 0.017798 -0.000048 0.000001 -0.001449 0.000000
# 3 -0.002085 -0.000048 0.008600 0.000000 0.001261 0.000000
# 4 0.000000 0.000001 0.000000 0.035387 0.000000 0.000563
# 5 0.006003 -0.001449 0.001261 0.000000 0.020353 0.000000
# 6 0.000000 0.000000 0.000000 0.000563 0.000000 0.042272
#
#
# Mechanical properties :
#
#
# Convention : Reuss Voigt Hill
#
# Bulk Modulus (GPa) = 43.88747 57.58820 50.73783
# Shear Modulus (GPa) = 31.92993 39.67091 35.80042
#
# Velocity S-wave (km/s) = 3.49357 3.89410 3.69926
# Velocity P-wave (km/s) = 5.74884 6.49857 6.13517
#
# Compressibility (1/GPa) = 0.02278555
#
# Stress axis : x y z
#
# Youngs Moduli (GPa) = 95.34933 56.18482 116.28080
#
# Poissons Ratio (x) = 0.27631 0.24241
# Poissons Ratio (y) = 0.46891 0.00555
# Poissons Ratio (z) = 0.19877 0.00268
#
# Static dielectric constant tensor:
#      x y z
#    x 2.075950 0.000000 0.057650 
#    y 0.000000 2.119550 0.000000 
#    z 0.057650 0.000000 2.143100 
# 
# From -- ./inp_files/57970.got.cif
#   From: 2010.05.17/outbox.cif.g08.bks.cpg/sg5_29_cif.got.tgz:57970.got - 2010.06.03 18:56:24.
