data_PCOD9128118
_publ_section_title
;
Structure prediction by ZEFSAII (Michael W. Deem and Ramdas Pophale) SiO2 
 PCOD9128118
Probable space group: C 2
;
_chemical_formula_sum "Si O2"
_cell_formula_units_Z 16
_cell_length_a 8.619277
_cell_length_b 16.394545
_cell_length_c 8.016407
_cell_angle_alpha 90.000000
_cell_angle_beta 148.231833
_cell_angle_gamma 90.000000
_cell_volume 596.396035
_symmetry_space_group_name_H-M "C 2"
_symmetry_group_IT_number 5
_symmetry_cell_setting 'monoclinic'
loop_
_space_group_symop_operation_xyz
x,y,z
-x,y,-z
1/2+x,1/2+y,z
1/2-x,1/2+y,-z
loop_
_atom_site_type_symbol
_atom_site_label
_atom_site_fract_x
_atom_site_fract_y
_atom_site_fract_z
Si Si1 0.459452 0.433680 0.160843
Si Si2 0.775261 0.292561 0.655925
Si Si3 0.040546 0.544042 0.339155
Si Si4 0.724737 0.685161 0.844074
O O1 0.596532 0.359348 0.386617
O O2 0.624074 0.516754 0.367552
O O3 0.500000 0.421108 0.000000
O O4 0.124072 0.460968 0.867550
O O5 0.500000 0.248117 0.500000
O O6 0.999999 0.238861 0.749998
O O7 0.000000 0.325931 0.000000
O O8 0.000000 0.556614 0.500000
O O9 0.903462 0.618374 0.113378
O O10 0.500000 0.651791 0.500000
O O11 0.000000 0.729604 0.000000
#
# Coordination Sequence:
#
# PCOD9128118 Si02
#       4
#     4   4   4   4
#     4  10  23  46  75 108 147 192 245 307 374 441
#     4  12  28  48  74 109 153 199 248 307 370 445
#     4  10  23  46  75 108 147 192 245 307 374 441
#     4  12  28  48  74 109 153 199 248 307 370 445
#
# _framework density 26.827812999999999
#
# number of rings (size 3 to 8) (size 9 to 14) (size 15 to 20)
#    0.000    1.000    0.000    4.500    0.000   18.000 
#    0.000    0.000    0.000    0.000    0.000    0.000 
#    0.000    0.000    0.000    0.000    0.000    0.000 
#
# Total GULP energy -44753.303433 kJ/mol
# GULP energy per Si atom -5594.162929 kJ/mol
# Density = 2.676675 g / cm^3
# Si number density = 26.827813 Si / 1000 Ang^3
#
#
#
# Elastic Constant Matrix: (Units=GPa)
#
#
# Indices 1 2 3 4 5 6 
#
# 1 153.0305 79.8348 83.6376 0.0004 15.2270 0.0001
# 2 79.8348 121.1920 56.8325 -0.0001 -24.0344 -0.0001
# 3 83.6376 56.8325 197.9596 0.0023 -13.1703 0.0004
# 4 0.0004 -0.0001 0.0023 54.7202 0.0007 -5.5088
# 5 15.2270 -24.0344 -13.1703 0.0007 83.3137 0.0002
# 6 0.0001 -0.0001 0.0004 -5.5088 0.0002 34.4759
#
#
#
# Elastic Compliance Matrix: (Units=1/GPa)
#
#
# Indices 1 2 3 4 5 6 
#
# 1 0.013283 -0.008101 -0.003641 0.000000 -0.005340 0.000000
# 2 -0.008101 0.014951 -0.000489 0.000000 0.005716 0.000000
# 3 -0.003641 -0.000489 0.006837 0.000000 0.001605 0.000000
# 4 0.000000 0.000000 0.000000 0.018574 0.000000 0.002968
# 5 -0.005340 0.005716 0.001605 0.000000 0.014882 0.000000
# 6 0.000000 0.000000 0.000000 0.002968 0.000000 0.029480
#
#
# Mechanical properties :
#
#
# Convention : Reuss Voigt Hill
#
# Bulk Modulus (GPa) = 94.27571 101.42134 97.84852
# Shear Modulus (GPa) = 39.68074 51.29378 45.48726
#
# Velocity S-wave (km/s) = 3.85007 4.37734 4.12214
# Velocity P-wave (km/s) = 7.41494 7.96460 7.69468
#
# Compressibility (1/GPa) = 0.01060719
#
# Stress axis : x y z
#
# Youngs Moduli (GPa) = 75.28678 66.88439 146.25776
#
# Poissons Ratio (x) = 0.54185 0.53257
# Poissons Ratio (y) = 0.60992 0.07156
# Poissons Ratio (z) = 0.27414 0.03272
#
# Static dielectric constant tensor:
#      x y z
#    x 2.176170 0.000000 0.003800 
#    y 0.000000 2.112650 0.000000 
#    z 0.003800 0.000000 1.962370 
# 
# From -- ./inp_files/15965.got.cif
#   From: 2010.05.17/outbox.cif.g08.bks.cpg/sg5_8_cif.got.tgz:15965.got - 2010.06.03 18:56:24.
