data_PCOD9128934
_publ_section_title
;
Structure prediction by ZEFSAII (Michael W. Deem and Ramdas Pophale) SiO2 
 PCOD9128934
Probable space group: C 2
;
_chemical_formula_sum "Si O2"
_cell_formula_units_Z 16
_cell_length_a 19.465694
_cell_length_b 5.031255
_cell_length_c 12.638554
_cell_angle_alpha 90.000000
_cell_angle_beta 149.318915
_cell_angle_gamma 90.000000
_cell_volume 631.588636
_symmetry_space_group_name_H-M "C 2"
_symmetry_group_IT_number 5
_symmetry_cell_setting 'monoclinic'
loop_
_space_group_symop_operation_xyz
x,y,z
-x,y,-z
1/2+x,1/2+y,z
1/2-x,1/2+y,-z
loop_
_atom_site_type_symbol
_atom_site_label
_atom_site_fract_x
_atom_site_fract_y
_atom_site_fract_z
Si Si1 0.663377 0.721370 0.398005
Si Si2 0.803123 0.652603 0.129011
Si Si3 0.500000 0.443867 0.500000
Si Si4 0.785154 0.334050 0.309300
Si Si5 0.500000 0.462059 0.000000
O O1 0.737444 0.441208 0.520677
O O2 0.635396 0.851823 0.474619
O O3 0.549439 0.641948 0.163870
O O4 0.952997 0.768834 0.338373
O O5 0.772907 0.576189 0.210610
O O6 0.785695 0.387724 0.037569
O O7 0.372752 0.622505 0.361261
O O8 0.629594 0.290703 0.136339
#
# Coordination Sequence:
#
# PCOD9128934 Si02
#       5
#     4   4   2   4   2
#     4  10  25  48  77 117 159 205 261 330 400 472
#     4  12  28  50  79 122 160 214 265 329 402 474
#     4  12  28  50  80 118 168 210 266 332 396 474
#     4  11  27  52  80 120 159 210 269 332 393 477
#     4  10  26  50  82 118 158 212 262 330 404 472
#
# _framework density 25.332944000000001
#
# number of rings (size 3 to 8) (size 9 to 14) (size 15 to 20)
#    0.000    1.000    2.500    0.750   10.500    4.000 
#    0.000    0.000    0.000    0.000    0.000    0.000 
#    0.000    0.000    0.000    0.000    0.000    0.000 
#
# Total GULP energy -44701.448486 kJ/mol
# GULP energy per Si atom -5587.681061 kJ/mol
# Density = 2.527529 g / cm^3
# Si number density = 25.332944 Si / 1000 Ang^3
#
#
#
# Elastic Constant Matrix: (Units=GPa)
#
#
# Indices 1 2 3 4 5 6 
#
# 1 119.4132 61.9902 77.2767 0.0000 0.4778 0.0001
# 2 61.9902 156.8448 88.1351 0.0002 2.3418 0.0006
# 3 77.2767 88.1351 224.3573 0.0001 -25.3902 0.0001
# 4 0.0000 0.0002 0.0001 40.4321 0.0000 18.7270
# 5 0.4778 2.3418 -25.3902 0.0000 55.5784 0.0000
# 6 0.0001 0.0006 0.0001 18.7270 0.0000 3.4693
#
#
#
# Elastic Compliance Matrix: (Units=1/GPa)
#
#
# Indices 1 2 3 4 5 6 
#
# 1 0.011919 -0.002944 -0.003107 0.000000 -0.001398 0.000000
# 2 -0.002944 0.009106 -0.002746 0.000000 -0.001613 0.000001
# 3 -0.003107 -0.002746 0.006983 0.000000 0.003333 0.000000
# 4 0.000000 0.000000 0.000000 -0.016487 0.000000 0.088994
# 5 -0.001398 -0.001613 0.003333 0.000000 0.019595 0.000000
# 6 0.000000 0.000001 0.000000 0.088994 0.000000 -0.192141
#
#
# Mechanical properties :
#
#
# Convention : Reuss Voigt Hill
#
# Bulk Modulus (GPa) = 96.01718 106.15771 101.08744
# Shear Modulus (GPa) = -35.72450 38.11019 1.19284
#
# Velocity S-wave (km/s) = -3.75934 3.88283 0.68694
# Velocity P-wave (km/s) = 4.37503 7.88022 6.37333
#
# Compressibility (1/GPa) = 0.01041480
#
# Stress axis : x y z
#
# Youngs Moduli (GPa) = 83.90132 109.81449 143.20308
#
# Poissons Ratio (x) = 0.32329 0.44493
# Poissons Ratio (y) = 0.24700 0.39320
# Poissons Ratio (z) = 0.26068 0.30152
#
# Static dielectric constant tensor:
#      x y z
#    x 2.104030 0.000000 0.006680 
#    y 0.000000 2.058780 0.000000 
#    z 0.006680 0.000000 1.997190 
# 
# From -- ./inp_files/45575.got.cif
#   From: 2010.05.17/outbox.cif.g08.bks.cpg/sg5_23_cif.got.tgz:45575.got - 2010.06.03 18:56:24.
