data_PCOD9128921
_publ_section_title
;
Structure prediction by ZEFSAII (Michael W. Deem and Ramdas Pophale) SiO2 
 PCOD9128921
Probable space group: C 2
;
_chemical_formula_sum "Si O2"
_cell_formula_units_Z 30
_cell_length_a 11.579706
_cell_length_b 9.026767
_cell_length_c 15.515949
_cell_angle_alpha 90.000000
_cell_angle_beta 60.706130
_cell_angle_gamma 90.000000
_cell_volume 1414.442069
_symmetry_space_group_name_H-M "C 2"
_symmetry_group_IT_number 5
_symmetry_cell_setting 'monoclinic'
loop_
_space_group_symop_operation_xyz
x,y,z
-x,y,-z
1/2+x,1/2+y,z
1/2-x,1/2+y,-z
loop_
_atom_site_type_symbol
_atom_site_label
_atom_site_fract_x
_atom_site_fract_y
_atom_site_fract_z
Si Si1 0.792448 0.995090 0.389333
Si Si2 0.010769 0.769841 0.760602
Si Si3 0.906125 0.273093 0.451796
Si Si4 0.612716 0.156014 0.889118
Si Si5 0.081556 0.539398 0.323715
Si Si6 0.255293 0.422748 0.933467
Si Si7 0.000000 0.228414 0.000000
Si Si8 0.188931 0.993076 0.893660
O O1 0.722373 0.866048 0.470791
O O2 0.895544 0.910724 0.289217
O O3 0.862027 0.126126 0.417163
O O4 0.671766 0.057059 0.375272
O O5 0.993257 0.688265 0.675888
O O6 0.875265 0.822007 0.856092
O O7 0.072392 0.650915 0.804638
O O8 0.000000 0.235878 0.500000
O O9 0.991300 0.394484 0.367561
O O10 0.641705 0.327591 0.894012
O O11 0.730522 0.047655 0.870785
O O12 0.500000 0.118347 0.000000
O O13 0.180250 0.516755 0.207960
O O14 0.119808 0.327603 0.992543
O O15 0.286266 0.498845 0.013018
O O16 0.079071 0.115106 0.909154
#
# Coordination Sequence:
#
# PCOD9128921 Si02
#       8
#     4   4   4   4   4   4   2   4
#     4  11  25  46  73  99 130 169 212 273 340 403
#     4  12  25  42  64 100 134 174 222 271 324 388
#     4  10  25  48  73 100 129 167 213 272 340 407
#     4  12  23  42  62  89 137 180 219 272 315 372
#     4  11  25  43  66 101 133 170 219 274 327 391
#     4  12  26  39  63  94 132 184 230 264 317 379
#     4  12  24  40  60  90 128 182 230 264 320 366
#     4  12  23  43  64  90 137 178 221 273 320 377
#
# _framework density 21.209776999999999
#
# number of rings (size 3 to 8) (size 9 to 14) (size 15 to 20)
#    0.000    0.533    5.333    2.400    1.867    3.200 
#    0.000    0.000    0.000    0.000    0.000    0.000 
#    0.000    0.000    0.000    0.000    0.000    0.000 
#
# Total GULP energy -83827.166450 kJ/mol
# GULP energy per Si atom -5588.477763 kJ/mol
# Density = 2.116150 g / cm^3
# Si number density = 21.209777 Si / 1000 Ang^3
#
#
#
# Elastic Constant Matrix: (Units=GPa)
#
#
# Indices 1 2 3 4 5 6 
#
# 1 95.4293 44.3309 39.2721 0.0000 1.7453 0.0000
# 2 44.3309 93.3301 30.2695 0.0000 10.1668 0.0000
# 3 39.2721 30.2695 85.4946 0.0000 -4.6393 0.0000
# 4 0.0000 0.0000 0.0000 -67.9597 0.0000 21.2527
# 5 1.7453 10.1668 -4.6393 0.0000 36.4730 0.0000
# 6 0.0000 0.0000 0.0000 21.2527 0.0000 43.7500
#
#
#
# Elastic Compliance Matrix: (Units=1/GPa)
#
#
# Indices 1 2 3 4 5 6 
#
# 1 0.015111 -0.005595 -0.004949 0.000000 0.000207 0.000000
# 2 -0.005595 0.014768 -0.002887 0.000000 -0.004216 0.000000
# 3 -0.004949 -0.002887 0.015153 0.000000 0.002969 0.000000
# 4 0.000000 0.000000 0.000000 -0.012774 0.000000 0.006205
# 5 0.000207 -0.004216 0.002969 0.000000 0.028961 0.000000
# 6 0.000000 0.000000 0.000000 0.006205 0.000000 0.019843
#
#
# Mechanical properties :
#
#
# Convention : Reuss Voigt Hill
#
# Bulk Modulus (GPa) = 55.03736 55.77768 55.40752
# Shear Modulus (GPa) = 43.86698 13.14476 28.50587
#
# Velocity S-wave (km/s) = 4.55273 2.49218 3.67003
# Velocity P-wave (km/s) = 7.32406 5.88527 6.64373
#
# Compressibility (1/GPa) = 0.01816948
#
# Stress axis : x y z
#
# Youngs Moduli (GPa) = 66.17692 67.71425 65.99175
#
# Poissons Ratio (x) = 0.37886 0.32660
# Poissons Ratio (y) = 0.37026 0.19054
# Poissons Ratio (z) = 0.32752 0.19551
#
# Static dielectric constant tensor:
#      x y z
#    x 1.924200 0.000000 -0.054170 
#    y 0.000000 1.775640 0.000000 
#    z -0.054170 0.000000 1.813750 
# 
# From -- ./inp_files/52260.got.cif
#   From: 2010.05.17/outbox.cif.g08.bks.cpg/sg5_27_cif.got.tgz:52260.got - 2010.06.03 18:56:24.
