data_PCOD9128105
_publ_section_title
;
Structure prediction by ZEFSAII (Michael W. Deem and Ramdas Pophale) SiO2 
 PCOD9128105
Probable space group: C 2
;
_chemical_formula_sum "Si O2"
_cell_formula_units_Z 28
_cell_length_a 17.833041
_cell_length_b 5.155570
_cell_length_c 15.080604
_cell_angle_alpha 90.000000
_cell_angle_beta 54.637304
_cell_angle_gamma 90.000000
_cell_volume 1130.699872
_symmetry_space_group_name_H-M "C 2"
_symmetry_group_IT_number 5
_symmetry_cell_setting 'monoclinic'
loop_
_space_group_symop_operation_xyz
x,y,z
-x,y,-z
1/2+x,1/2+y,z
1/2-x,1/2+y,-z
loop_
_atom_site_type_symbol
_atom_site_label
_atom_site_fract_x
_atom_site_fract_y
_atom_site_fract_z
Si Si1 0.372068 0.774470 0.742949
Si Si2 0.344690 0.567822 0.368049
Si Si3 0.500000 0.618035 0.000000
Si Si4 0.000000 0.334659 0.500000
Si Si5 0.334337 0.289381 0.187513
Si Si6 0.127015 0.580284 0.558228
Si Si7 0.139949 0.428222 0.974973
Si Si8 0.657771 0.266401 0.127744
O O1 0.438008 0.697889 0.616973
O O2 0.270682 0.821447 0.771393
O O3 0.369850 0.547787 0.817601
O O4 0.390845 0.047439 0.778561
O O5 0.345010 0.399702 0.278249
O O6 0.236180 0.587871 0.463959
O O7 0.384023 0.856203 0.358439
O O8 0.396118 0.372260 0.399059
O O9 0.414243 0.446906 0.085032
O O10 0.457264 0.789502 0.950542
O O11 0.071417 0.498541 0.509876
O O12 0.351731 0.001991 0.135325
O O13 0.230835 0.266296 0.937120
O O14 0.140987 0.676600 0.038825
#
# Coordination Sequence:
#
# PCOD9128105 Si02
#       8
#     4   4   2   2   4   4   4   4
#     4  11  26  46  78 108 151 200 246 317 385 443
#     4  10  23  46  72 104 142 194 228 300 370 435
#     4  12  26  44  74 110 146 198 260 306 376 452
#     4  12  26  52  74 120 140 196 260 314 366 466
#     4  11  24  47  72 107 150 201 241 309 379 456
#     4  10  24  44  74 104 143 182 244 298 362 436
#     4  11  25  47  74 109 152 203 255 312 375 463
#     4  11  25  47  76 105 152 203 251 307 389 441
#
# _framework density 24.763424000000001
#
# number of rings (size 3 to 8) (size 9 to 14) (size 15 to 20)
#    0.000    1.143    2.857    2.143    4.000    4.571 
#    5.143    0.000    0.000    0.000    0.000    0.000 
#    0.000    0.000    0.000    0.000    0.000    0.000 
#
# Total GULP energy -78223.067637 kJ/mol
# GULP energy per Si atom -5587.361974 kJ/mol
# Density = 2.470706 g / cm^3
# Si number density = 24.763424 Si / 1000 Ang^3
#
#
#
# Elastic Constant Matrix: (Units=GPa)
#
#
# Indices 1 2 3 4 5 6 
#
# 1 86.7564 38.1825 10.2893 -0.0043 -14.7443 -0.0042
# 2 38.1825 97.6303 24.0726 -0.0882 -9.1530 -0.0547
# 3 10.2893 24.0726 100.8528 -0.0071 -7.5793 -0.0116
# 4 -0.0043 -0.0882 -0.0071 3.0895 -0.0163 -3.3523
# 5 -14.7443 -9.1530 -7.5793 -0.0163 25.2544 -0.0028
# 6 -0.0042 -0.0547 -0.0116 -3.3523 -0.0028 31.0312
#
#
#
# Elastic Compliance Matrix: (Units=1/GPa)
#
#
# Indices 1 2 3 4 5 6 
#
# 1 0.014995 -0.005278 0.000250 -0.000113 0.006917 -0.000019
# 2 -0.005278 0.013006 -0.002500 0.000437 0.000883 0.000069
# 3 0.000250 -0.002500 0.010670 -0.000038 0.002442 -0.000004
# 4 -0.000113 0.000437 -0.000038 0.366675 0.000322 0.039612
# 5 0.006917 0.000883 0.002442 0.000322 0.044688 0.000042
# 6 -0.000019 0.000069 -0.000004 0.039612 0.000042 0.036505
#
#
# Mechanical properties :
#
#
# Convention : Reuss Voigt Hill
#
# Bulk Modulus (GPa) = 42.34371 47.81425 45.07898
# Shear Modulus (GPa) = 9.81416 26.05469 17.93443
#
# Velocity S-wave (km/s) = 1.99293 3.24720 2.69407
# Velocity P-wave (km/s) = 4.73626 5.78008 5.28401
#
# Compressibility (1/GPa) = 0.02361626
#
# Stress axis : x y z
#
# Youngs Moduli (GPa) = 66.68799 76.88564 93.71946
#
# Poissons Ratio (x) = 0.40578 -0.02340
# Poissons Ratio (y) = 0.35196 0.23427
# Poissons Ratio (z) = -0.01665 0.19219
#
# Static dielectric constant tensor:
#      x y z
#    x 1.922570 0.000000 0.007250 
#    y 0.000000 1.993000 0.000000 
#    z 0.007250 0.000000 1.996620 
# 
# From -- ./inp_files/55429.got.cif
#   From: 2010.05.17/outbox.cif.g08.bks.cpg/sg5_28_cif.got.tgz:55429.got - 2010.06.03 18:56:24.
