data_PCOD9128995
_publ_section_title
;
Structure prediction by ZEFSAII (Michael W. Deem and Ramdas Pophale) SiO2 
 PCOD9128995
Probable space group: C 2
;
_chemical_formula_sum "Si O2"
_cell_formula_units_Z 14
_cell_length_a 7.192767
_cell_length_b 7.258284
_cell_length_c 12.446137
_cell_angle_alpha 90.000000
_cell_angle_beta 110.002149
_cell_angle_gamma 90.000000
_cell_volume 610.582586
_symmetry_space_group_name_H-M "C 2"
_symmetry_group_IT_number 5
_symmetry_cell_setting 'monoclinic'
loop_
_space_group_symop_operation_xyz
x,y,z
-x,y,-z
1/2+x,1/2+y,z
1/2-x,1/2+y,-z
loop_
_atom_site_type_symbol
_atom_site_label
_atom_site_fract_x
_atom_site_fract_y
_atom_site_fract_z
Si Si1 0.500000 0.946410 0.000000
Si Si2 0.189184 0.804728 0.099259
Si Si3 0.221449 0.845071 0.544890
Si Si4 0.155198 0.459766 0.652345
O O1 0.628665 0.829448 0.944533
O O2 0.365663 0.088821 0.903789
O O3 0.231087 0.906222 0.218075
O O4 0.000000 0.886990 0.000000
O O5 0.420144 0.943384 0.626082
O O6 0.277079 0.823433 0.430054
O O7 0.000000 0.930388 0.500000
O O8 0.199973 0.659359 0.610403
#
# Coordination Sequence:
#
# PCOD9128995 Si02
#       4
#     2   4   4   4
#     4  10  26  42  70 100 140 176 236 262 356 386
#     4  10  27  46  71 104 136 185 223 291 333 417
#     4  11  25  46  66 107 133 186 222 286 335 412
#     4  11  27  44  75  99 145 174 237 273 355 398
#
# _framework density 22.928920999999999
#
# number of rings (size 3 to 8) (size 9 to 14) (size 15 to 20)
#    0.857    0.571    2.857    0.000   14.000    2.286 
#    0.000    0.000    0.000    0.000    0.000    0.000 
#    0.000    0.000    0.000    0.000    0.000    0.000 
#
# Total GULP energy -39082.390850 kJ/mol
# GULP energy per Si atom -5583.198693 kJ/mol
# Density = 2.287673 g / cm^3
# Si number density = 22.928921 Si / 1000 Ang^3
#
#
#
# Elastic Constant Matrix: (Units=GPa)
#
#
# Indices 1 2 3 4 5 6 
#
# 1 165.9599 47.8755 33.9460 0.0000 3.0697 0.0000
# 2 47.8755 67.0298 -15.9479 0.0000 3.0016 0.0000
# 3 33.9460 -15.9479 120.7960 0.0000 17.3740 0.0000
# 4 0.0000 0.0000 0.0000 -17.6897 0.0000 -30.2723
# 5 3.0697 3.0016 17.3740 0.0000 29.7124 0.0000
# 6 0.0000 0.0000 0.0000 -30.2723 0.0000 30.3347
#
#
#
# Elastic Compliance Matrix: (Units=1/GPa)
#
#
# Indices 1 2 3 4 5 6 
#
# 1 0.008864 -0.007312 -0.003746 0.000000 0.002013 0.000000
# 2 -0.007312 0.021683 0.005595 0.000000 -0.004706 0.000000
# 3 -0.003746 0.005595 0.011022 0.000000 -0.006623 0.000000
# 4 0.000000 0.000000 0.000000 -0.020877 0.000000 -0.020834
# 5 0.002013 -0.004706 -0.006623 0.000000 0.037796 0.000000
# 6 0.000000 0.000000 0.000000 -0.020834 0.000000 0.012174
#
#
# Mechanical properties :
#
#
# Convention : Reuss Voigt Hill
#
# Bulk Modulus (GPa) = 32.63476 53.94809 43.29143
# Shear Modulus (GPa) = 54.46310 27.66562 41.06436
#
# Velocity S-wave (km/s) = 4.87899 3.47736 4.23654
# Velocity P-wave (km/s) = 6.78258 6.30097 6.54620
#
# Compressibility (1/GPa) = 0.03064217
#
# Stress axis : x y z
#
# Youngs Moduli (GPa) = 112.81609 46.11817 90.72467
#
# Poissons Ratio (x) = 0.33724 0.33985
# Poissons Ratio (y) = 0.82496 -0.50757
# Poissons Ratio (z) = 0.42260 -0.25801
#
# Static dielectric constant tensor:
#      x y z
#    x 1.863370 0.000000 0.056620 
#    y 0.000000 1.916150 0.000000 
#    z 0.056620 0.000000 1.828740 
# 
# From -- ./inp_files/32765.got.cif
#   From: 2010.05.17/outbox.cif.g08.bks.cpg/sg5_17_cif.got.tgz:32765.got - 2010.06.03 18:56:24.
