data_PCOD9128834
_publ_section_title
;
Structure prediction by ZEFSAII (Michael W. Deem and Ramdas Pophale) SiO2 
 PCOD9128834
Probable space group: C 2
;
_chemical_formula_sum "Si O2"
_cell_formula_units_Z 26
_cell_length_a 14.114608
_cell_length_b 22.153821
_cell_length_c 8.688874
_cell_angle_alpha 90.000000
_cell_angle_beta 150.668810
_cell_angle_gamma 90.000000
_cell_volume 1330.915170
_symmetry_space_group_name_H-M "C 2"
_symmetry_group_IT_number 5
_symmetry_cell_setting 'monoclinic'
loop_
_space_group_symop_operation_xyz
x,y,z
-x,y,-z
1/2+x,1/2+y,z
1/2-x,1/2+y,-z
loop_
_atom_site_type_symbol
_atom_site_label
_atom_site_fract_x
_atom_site_fract_y
_atom_site_fract_z
Si Si1 0.000000 0.058331 0.500000
Si Si2 0.186115 0.751150 0.369527
Si Si3 0.844439 0.365721 0.143641
Si Si4 0.968546 0.176533 0.286104
Si Si5 0.683768 0.963531 0.157230
Si Si6 0.790120 0.758223 0.236810
Si Si7 0.941776 0.884548 0.756333
O O1 0.025435 0.104999 0.678481
O O2 0.817182 0.017075 0.281105
O O3 0.361022 0.708773 0.564091
O O4 0.198858 0.742718 0.570187
O O5 0.175532 0.824764 0.352899
O O6 0.000000 0.733965 0.000000
O O7 0.000000 0.361623 0.500000
O O8 0.871205 0.422954 0.069094
O O9 0.849232 0.309159 0.031943
O O10 0.636936 0.367917 0.938215
O O11 0.000000 0.203005 0.500000
O O12 0.765807 0.198252 0.933224
O O13 0.813225 0.922847 0.456699
O O14 0.500000 0.982662 0.000000
O O15 0.000000 0.782943 0.500000
O O16 0.000000 0.916183 0.000000
#
# Coordination Sequence:
#
# PCOD9128834 Si02
#       7
#     2   4   4   4   4   4   4
#     4  10  26  52  72  96 150 194 246 290 342 424
#     4  11  23  39  68 104 139 180 229 289 365 423
#     4  12  24  41  70 109 149 184 227 295 372 427
#     4  10  25  44  68  95 136 191 230 289 343 419
#     4  12  24  47  76 104 140 192 241 292 358 427
#     4  12  22  40  66 107 140 178 224 292 364 416
#     4  11  23  40  66 110 146 178 229 300 358 432
#
# _framework density 19.535430000000002
#
# number of rings (size 3 to 8) (size 9 to 14) (size 15 to 20)
#    0.462    0.308    4.615    2.769    8.615    0.615 
#    0.000    2.308    0.000    0.000    0.000    0.000 
#    0.000    0.000    0.000    0.000    0.000    0.000 
#
# Total GULP energy -72429.921158 kJ/mol
# GULP energy per Si atom -5571.532397 kJ/mol
# Density = 1.949097 g / cm^3
# Si number density = 19.535430 Si / 1000 Ang^3
#
#
#
# Elastic Constant Matrix: (Units=GPa)
#
#
# Indices 1 2 3 4 5 6 
#
# 1 136.4752 36.8643 43.9802 0.0000 -8.6275 0.0000
# 2 36.8643 100.9246 42.4516 0.0000 6.3406 0.0000
# 3 43.9802 42.4516 131.0025 0.0000 -19.9216 0.0000
# 4 0.0000 0.0000 0.0000 29.0337 0.0000 -0.7315
# 5 -8.6275 6.3406 -19.9216 0.0000 49.5416 0.0000
# 6 0.0000 0.0000 0.0000 -0.7315 0.0000 31.9538
#
#
#
# Elastic Compliance Matrix: (Units=1/GPa)
#
#
# Indices 1 2 3 4 5 6 
#
# 1 0.008679 -0.002401 -0.001980 0.000000 0.001023 0.000000
# 2 -0.002401 0.012619 -0.003826 0.000000 -0.003572 0.000000
# 3 -0.001980 -0.003826 0.010183 0.000000 0.004240 0.000000
# 4 0.000000 0.000000 0.000000 0.034463 0.000000 0.000789
# 5 0.001023 -0.003572 0.004240 0.000000 0.022525 0.000000
# 6 0.000000 0.000000 0.000000 0.000789 0.000000 0.031313
#
#
# Mechanical properties :
#
#
# Convention : Reuss Voigt Hill
#
# Bulk Modulus (GPa) = 66.37675 68.33270 67.35472
# Shear Modulus (GPa) = 35.40596 38.44622 36.92609
#
# Velocity S-wave (km/s) = 4.26184 4.44106 4.35237
# Velocity P-wave (km/s) = 7.63342 7.83276 7.73373
#
# Compressibility (1/GPa) = 0.01506552
#
# Stress axis : x y z
#
# Youngs Moduli (GPa) = 115.22460 79.24298 98.20497
#
# Poissons Ratio (x) = 0.19030 0.19444
# Poissons Ratio (y) = 0.27671 0.37576
# Poissons Ratio (z) = 0.22813 0.30321
#
# Static dielectric constant tensor:
#      x y z
#    x 1.700510 0.000000 0.020680 
#    y 0.000000 1.686200 0.000000 
#    z 0.020680 0.000000 1.744350 
# 
# From -- ./inp_files/25457.got.cif
#   From: 2010.05.17/outbox.cif.g08.bks.cpg/sg5_13_cif.got.tgz:25457.got - 2010.06.03 18:56:24.
