data_PCOD9128266
_publ_section_title
;
Structure prediction by ZEFSAII (Michael W. Deem and Ramdas Pophale) SiO2 
 PCOD9128266
Probable space group: C 2
;
_chemical_formula_sum "Si O2"
_cell_formula_units_Z 28
_cell_length_a 18.831224
_cell_length_b 5.056337
_cell_length_c 14.053478
_cell_angle_alpha 90.000000
_cell_angle_beta 114.762005
_cell_angle_gamma 90.000000
_cell_volume 1215.096418
_symmetry_space_group_name_H-M "C 2"
_symmetry_group_IT_number 5
_symmetry_cell_setting 'monoclinic'
loop_
_space_group_symop_operation_xyz
x,y,z
-x,y,-z
1/2+x,1/2+y,z
1/2-x,1/2+y,-z
loop_
_atom_site_type_symbol
_atom_site_label
_atom_site_fract_x
_atom_site_fract_y
_atom_site_fract_z
Si Si1 0.500000 0.637141 0.000000
Si Si2 0.240263 0.971955 0.729852
Si Si3 0.080749 0.448660 0.219187
Si Si4 0.223953 0.808351 0.936872
Si Si5 0.864071 0.475895 0.369767
Si Si6 0.939393 0.834154 0.129432
Si Si7 0.500000 0.292521 0.500000
Si Si8 0.017907 0.200032 0.685596
O O1 0.452578 0.800434 0.893956
O O2 0.557372 0.449673 0.973826
O O3 0.182256 0.199058 0.656846
O O4 0.328377 0.007810 0.742486
O O5 0.241620 0.942162 0.845217
O O6 0.201883 0.694550 0.679073
O O7 0.060796 0.285786 0.304154
O O8 0.022117 0.695542 0.193335
O O9 0.138584 0.671526 0.898736
O O10 0.276973 0.557705 0.991948
O O11 0.925294 0.602405 0.479257
O O12 0.928356 0.438131 0.322066
O O13 0.933331 0.062440 0.203727
O O14 0.509509 0.493203 0.594419
#
# Coordination Sequence:
#
# PCOD9128266 Si02
#       8
#     2   4   4   4   4   4   2   4
#     4  10  24  40  68 102 150 210 254 296 342 448
#     4  12  27  46  73 112 151 197 238 319 377 426
#     4  11  26  44  74 106 159 199 252 298 376 442
#     4  12  26  40  68 104 148 194 257 305 350 426
#     4  12  25  49  79 107 145 186 250 309 374 450
#     4  11  24  44  68 106 147 202 249 299 371 436
#     4  12  24  48  86 112 130 196 254 310 374 466
#     4  11  24  47  79 105 140 196 245 307 365 462
#
# _framework density 23.043441000000001
#
# number of rings (size 3 to 8) (size 9 to 14) (size 15 to 20)
#    0.000    0.571    2.857    4.286   12.000    0.000 
#    0.000    0.000    9.429    0.000    0.000    0.000 
#    0.000    0.000    0.000    0.000    0.000    0.000 
#
# Total GULP energy -78176.300345 kJ/mol
# GULP energy per Si atom -5584.021453 kJ/mol
# Density = 2.299099 g / cm^3
# Si number density = 23.043441 Si / 1000 Ang^3
#
#
#
# Elastic Constant Matrix: (Units=GPa)
#
#
# Indices 1 2 3 4 5 6 
#
# 1 170.9579 32.3300 41.5745 0.0000 30.9481 0.0000
# 2 32.3300 111.7923 19.9952 -0.0001 6.2389 0.0001
# 3 41.5745 19.9952 51.9718 0.0000 2.7936 0.0000
# 4 0.0000 -0.0001 0.0000 39.3038 0.0000 5.6710
# 5 30.9481 6.2389 2.7936 0.0000 28.5001 0.0000
# 6 0.0000 0.0001 0.0000 5.6710 0.0000 35.5231
#
#
#
# Elastic Compliance Matrix: (Units=1/GPa)
#
#
# Indices 1 2 3 4 5 6 
#
# 1 0.009309 -0.001002 -0.006564 0.000000 -0.009246 0.000000
# 2 -0.001002 0.009802 -0.002928 0.000000 -0.000771 0.000000
# 3 -0.006564 -0.002928 0.025335 0.000000 0.005286 0.000000
# 4 0.000000 0.000000 0.000000 0.026043 0.000000 -0.004158
# 5 -0.009246 -0.000771 0.005286 0.000000 0.044778 0.000000
# 6 0.000000 0.000000 0.000000 -0.004158 0.000000 0.028814
#
#
# Mechanical properties :
#
#
# Convention : Reuss Voigt Hill
#
# Bulk Modulus (GPa) = 42.63163 58.05792 50.34478
# Shear Modulus (GPa) = 28.92053 36.72022 32.82037
#
# Velocity S-wave (km/s) = 3.54650 3.99622 3.77806
# Velocity P-wave (km/s) = 5.94230 6.82223 6.39741
#
# Compressibility (1/GPa) = 0.02345676
#
# Stress axis : x y z
#
# Youngs Moduli (GPa) = 107.42363 102.02354 39.47183
#
# Poissons Ratio (x) = 0.10224 0.25910
# Poissons Ratio (y) = 0.10765 0.11557
# Poissons Ratio (z) = 0.70514 0.29872
#
# Static dielectric constant tensor:
#      x y z
#    x 1.872810 0.000000 0.057410 
#    y 0.000000 1.968380 0.000000 
#    z 0.057410 0.000000 1.979120 
# 
# From -- ./inp_files/55381.got.cif
#   From: 2010.05.17/outbox.cif.g08.bks.cpg/sg5_28_cif.got.tgz:55381.got - 2010.06.03 18:56:24.
