data_PCOD9128002
_publ_section_title
;
Structure prediction by ZEFSAII (Michael W. Deem and Ramdas Pophale) SiO2 
 PCOD9128002
Probable space group: C 2
;
_chemical_formula_sum "Si O2"
_cell_formula_units_Z 16
_cell_length_a 8.270959
_cell_length_b 17.826891
_cell_length_c 5.532440
_cell_angle_alpha 90.000000
_cell_angle_beta 57.428417
_cell_angle_gamma 90.000000
_cell_volume 687.434362
_symmetry_space_group_name_H-M "C 2"
_symmetry_group_IT_number 5
_symmetry_cell_setting 'monoclinic'
loop_
_space_group_symop_operation_xyz
x,y,z
-x,y,-z
1/2+x,1/2+y,z
1/2-x,1/2+y,-z
loop_
_atom_site_type_symbol
_atom_site_label
_atom_site_fract_x
_atom_site_fract_y
_atom_site_fract_z
Si Si1 0.157866 0.427360 0.062752
Si Si2 0.000000 0.293846 0.500000
Si Si3 0.383010 0.206288 0.353209
Si Si4 0.197324 0.056932 0.707972
Si Si5 0.500000 0.448160 0.500000
O O1 0.079808 0.352198 0.241706
O O2 0.196578 0.499818 0.196990
O O3 0.362120 0.404622 0.786861
O O4 0.000000 0.451495 0.000000
O O5 0.181184 0.248130 0.458557
O O6 0.500000 0.235145 0.500000
O O7 0.317009 0.123889 0.497486
O O8 0.500000 0.205035 0.000000
O O9 0.132108 0.002314 0.548335
O O10 0.000000 0.084266 0.000000
#
# Coordination Sequence:
#
# PCOD9128002 Si02
#       5
#     4   2   4   4   2
#     4  11  26  47  81 114 163 205 268 334 413 470
#     4  12  31  56  76 118 167 218 270 342 407 494
#     4  12  33  53  85 119 168 222 275 331 417 488
#     4  10  25  49  80 121 156 208 271 339 401 486
#     4  10  23  44  76 122 151 202 268 338 399 482
#
# _framework density 23.274947999999998
#
# number of rings (size 3 to 8) (size 9 to 14) (size 15 to 20)
#    0.000    1.000    0.000    2.250   19.250    5.000 
#    2.250    0.000    0.000    0.000    0.000    0.000 
#    0.000    0.000    0.000    0.000    0.000    0.000 
#
# Total GULP energy -44735.084700 kJ/mol
# GULP energy per Si atom -5591.885587 kJ/mol
# Density = 2.322197 g / cm^3
# Si number density = 23.274948 Si / 1000 Ang^3
#
#
#
# Elastic Constant Matrix: (Units=GPa)
#
#
# Indices 1 2 3 4 5 6 
#
# 1 229.3388 104.9806 73.8384 0.0000 14.6510 0.0000
# 2 104.9806 129.7816 94.6877 0.0000 -9.2730 0.0000
# 3 73.8384 94.6877 189.8455 0.0000 -21.6010 0.0000
# 4 0.0000 0.0000 0.0000 76.8806 0.0000 16.7757
# 5 14.6510 -9.2730 -21.6010 0.0000 44.5900 0.0000
# 6 0.0000 0.0000 0.0000 16.7757 0.0000 54.0846
#
#
#
# Elastic Compliance Matrix: (Units=1/GPa)
#
#
# Indices 1 2 3 4 5 6 
#
# 1 0.007516 -0.006134 -0.000307 0.000000 -0.003894 0.000000
# 2 -0.006134 0.017127 -0.005844 0.000000 0.002746 0.000000
# 3 -0.000307 -0.005844 0.008652 0.000000 0.003077 0.000000
# 4 0.000000 0.000000 0.000000 0.013951 0.000000 -0.004327
# 5 -0.003894 0.002746 0.003077 0.000000 0.025767 0.000000
# 6 0.000000 0.000000 0.000000 -0.004327 0.000000 0.019832
#
#
# Mechanical properties :
#
#
# Convention : Reuss Voigt Hill
#
# Bulk Modulus (GPa) = 114.61691 121.77551 118.19621
# Shear Modulus (GPa) = 41.55493 53.47498 47.51495
#
# Velocity S-wave (km/s) = 4.22997 4.79846 4.52316
# Velocity P-wave (km/s) = 8.55620 9.11780 8.84146
#
# Compressibility (1/GPa) = 0.00872472
#
# Stress axis : x y z
#
# Youngs Moduli (GPa) = 133.05578 58.38772 115.58407
#
# Poissons Ratio (x) = 0.35813 0.03547
# Poissons Ratio (y) = 0.81613 0.67549
# Poissons Ratio (z) = 0.04083 0.34123
#
# Static dielectric constant tensor:
#      x y z
#    x 1.838180 0.000000 0.000890 
#    y 0.000000 1.835920 0.000000 
#    z 0.000890 0.000000 1.935440 
# 
# From -- ./inp_files/2240.got.cif
#   From: 2010.05.17/outbox.cif.g08.bks.cpg/sg5_2_cif.got.tgz:2240.got - 2010.06.03 18:56:24.
