data_PCOD9128686
_publ_section_title
;
Structure prediction by ZEFSAII (Michael W. Deem and Ramdas Pophale) SiO2 
 PCOD9128686
Probable space group: C 2
;
_chemical_formula_sum "Si O2"
_cell_formula_units_Z 14
_cell_length_a 15.301027
_cell_length_b 7.526471
_cell_length_c 15.190169
_cell_angle_alpha 90.000000
_cell_angle_beta 18.480785
_cell_angle_gamma 90.000000
_cell_volume 554.517797
_symmetry_space_group_name_H-M "C 2"
_symmetry_group_IT_number 5
_symmetry_cell_setting 'monoclinic'
loop_
_space_group_symop_operation_xyz
x,y,z
-x,y,-z
1/2+x,1/2+y,z
1/2-x,1/2+y,-z
loop_
_atom_site_type_symbol
_atom_site_label
_atom_site_fract_x
_atom_site_fract_y
_atom_site_fract_z
Si Si1 0.843338 0.751960 0.419798
Si Si2 0.209176 0.072700 0.731303
Si Si3 0.000000 0.723982 0.000000
Si Si4 0.167715 0.107063 0.163189
O O1 0.737778 0.663975 0.611231
O O2 0.558490 0.761179 0.636969
O O3 0.001985 0.930075 0.296391
O O4 0.071190 0.635745 0.150198
O O5 0.500000 0.068011 0.500000
O O6 0.102652 0.869203 0.830123
O O7 0.000000 0.164545 0.000000
O O8 0.222623 0.612700 0.841336
#
# Coordination Sequence:
#
# PCOD9128686 Si02
#       4
#     4   4   2   4
#     4  12  27  51  80 118 158 210 260 324 393 474
#     4  10  24  47  84 105 156 201 265 312 390 454
#     4  10  28  50  82 116 154 210 260 326 388 468
#     4  12  28  49  83 115 162 203 268 319 397 466
#
# _framework density 25.247160000000001
#
# number of rings (size 3 to 8) (size 9 to 14) (size 15 to 20)
#    0.857    0.000    0.000    5.143   12.000    0.000 
#   12.857    0.000    6.286    0.000    0.000    0.000 
#    0.000    0.000    0.000    0.000    0.000    0.000 
#
# Total GULP energy -39191.110651 kJ/mol
# GULP energy per Si atom -5598.730093 kJ/mol
# Density = 2.518970 g / cm^3
# Si number density = 25.247160 Si / 1000 Ang^3
#
#
#
# Elastic Constant Matrix: (Units=GPa)
#
#
# Indices 1 2 3 4 5 6 
#
# 1 140.7985 60.9893 46.9460 0.0050 -18.6029 0.0040
# 2 60.9893 89.8289 31.7660 -0.0410 -0.5011 0.0057
# 3 46.9460 31.7660 173.6200 -0.0334 10.0637 0.0136
# 4 0.0050 -0.0410 -0.0334 49.0034 0.0109 -4.6431
# 5 -18.6029 -0.5011 10.0637 0.0109 69.2893 0.0012
# 6 0.0040 0.0057 0.0136 -4.6431 0.0012 56.1634
#
#
#
# Elastic Compliance Matrix: (Units=1/GPa)
#
#
# Indices 1 2 3 4 5 6 
#
# 1 0.011151 -0.006865 -0.001946 -0.000009 0.003227 0.000000
# 2 -0.006865 0.016140 -0.001005 0.000014 -0.001580 0.000000
# 3 -0.001946 -0.001005 0.006556 0.000004 -0.001482 -0.000001
# 4 -0.000009 0.000014 0.000004 0.020568 -0.000006 0.001700
# 5 0.003227 -0.001580 -0.001482 -0.000006 0.015502 -0.000001
# 6 0.000000 0.000000 -0.000001 0.001700 -0.000001 0.017946
#
#
# Mechanical properties :
#
#
# Convention : Reuss Voigt Hill
#
# Bulk Modulus (GPa) = 70.35196 75.96110 73.15653
# Shear Modulus (GPa) = 44.54988 52.52764 48.53876
#
# Velocity S-wave (km/s) = 4.20521 4.56624 4.38944
# Velocity P-wave (km/s) = 7.17664 7.61269 7.39788
#
# Compressibility (1/GPa) = 0.01421425
#
# Stress axis : x y z
#
# Youngs Moduli (GPa) = 89.67556 61.95844 152.53718
#
# Poissons Ratio (x) = 0.42534 0.29688
# Poissons Ratio (y) = 0.61562 0.15332
# Poissons Ratio (z) = 0.17453 0.06228
#
# Static dielectric constant tensor:
#      x y z
#    x 1.989390 -0.000010 0.060430 
#    y -0.000010 2.106850 0.000000 
#    z 0.060430 0.000000 1.945660 
# 
# From -- ./inp_files/53996.got.cif
#   From: 2010.05.17/outbox.cif.g08.bks.cpg/sg5_27_cif.got.tgz:53996.got - 2010.06.03 18:56:24.
