data_PCOD9128845
_publ_section_title
;
Structure prediction by ZEFSAII (Michael W. Deem and Ramdas Pophale) SiO2 
 PCOD9128845
Probable space group: C 2
;
_chemical_formula_sum "Si O2"
_cell_formula_units_Z 24
_cell_length_a 7.385740
_cell_length_b 22.275543
_cell_length_c 10.597399
_cell_angle_alpha 90.000000
_cell_angle_beta 44.623264
_cell_angle_gamma 90.000000
_cell_volume 1224.706814
_symmetry_space_group_name_H-M "C 2"
_symmetry_group_IT_number 5
_symmetry_cell_setting 'monoclinic'
loop_
_space_group_symop_operation_xyz
x,y,z
-x,y,-z
1/2+x,1/2+y,z
1/2-x,1/2+y,-z
loop_
_atom_site_type_symbol
_atom_site_label
_atom_site_fract_x
_atom_site_fract_y
_atom_site_fract_z
Si Si1 0.822174 0.053460 0.210792
Si Si2 0.596580 0.635627 0.254555
Si Si3 0.103020 0.650548 0.652112
Si Si4 0.241698 0.229670 0.970418
Si Si5 0.296783 0.916528 0.707496
Si Si6 0.712897 0.870637 0.005479
O O1 0.010095 0.075791 0.227351
O O2 0.608990 0.105351 0.297335
O O3 0.703824 0.988819 0.293432
O O4 0.000000 0.050043 0.000000
O O5 0.333278 0.662643 0.442304
O O6 0.778247 0.620893 0.281266
O O7 0.716174 0.683600 0.098983
O O8 0.982026 0.711548 0.764772
O O9 0.240319 0.298762 0.008188
O O10 0.000000 0.217800 0.000000
O O11 0.500000 0.895087 0.500000
O O12 0.361073 0.896377 0.819542
O O13 0.999578 0.895701 0.831029
O O14 0.500000 0.881762 0.000000
#
# Coordination Sequence:
#
# PCOD9128845 Si02
#       6
#     4   4   4   4   4   4
#     4  12  22  43  67  92 129 169 206 265 328 382
#     4  11  23  37  61  96 128 163 205 256 319 382
#     4  11  23  37  61  96 128 163 205 256 319 382
#     4  11  22  40  63  88 128 173 205 257 317 378
#     4  11  25  46  71  95 128 177 227 274 320 389
#     4  10  25  45  65  95 133 173 224 270 329 385
#
# _framework density 19.596526999999998
#
# number of rings (size 3 to 8) (size 9 to 14) (size 15 to 20)
#    0.000    1.000    5.000    2.000    4.667    3.333 
#    0.000    3.333    0.000    0.000    0.000    0.000 
#    0.000    0.000    0.000    0.000    0.000    0.000 
#
# Total GULP energy -67017.255346 kJ/mol
# GULP energy per Si atom -5584.771279 kJ/mol
# Density = 1.955192 g / cm^3
# Si number density = 19.596527 Si / 1000 Ang^3
#
#
#
# Elastic Constant Matrix: (Units=GPa)
#
#
# Indices 1 2 3 4 5 6 
#
# 1 116.1508 30.4399 35.4436 0.0000 7.4110 0.0000
# 2 30.4399 88.3181 19.3089 0.0000 11.8561 0.0000
# 3 35.4436 19.3089 138.4899 0.0000 8.3147 0.0000
# 4 0.0000 0.0000 0.0000 -2.5464 0.0000 -13.9365
# 5 7.4110 11.8561 8.3147 0.0000 23.2167 0.0000
# 6 0.0000 0.0000 0.0000 -13.9365 0.0000 -2.9787
#
#
#
# Elastic Compliance Matrix: (Units=1/GPa)
#
#
# Indices 1 2 3 4 5 6 
#
# 1 0.010072 -0.002876 -0.002118 0.000000 -0.000988 0.000000
# 2 -0.002876 0.013230 -0.000775 0.000000 -0.005561 0.000000
# 3 -0.002118 -0.000775 0.007978 0.000000 -0.001786 0.000000
# 4 0.000000 0.000000 0.000000 0.015960 0.000000 -0.074670
# 5 -0.000988 -0.005561 -0.001786 0.000000 0.046867 0.000000
# 6 0.000000 0.000000 0.000000 -0.074670 0.000000 0.013643
#
#
# Mechanical properties :
#
#
# Convention : Reuss Voigt Hill
#
# Bulk Modulus (GPa) = 50.64889 57.03818 53.84353
# Shear Modulus (GPa) = 39.72433 20.72276 30.22354
#
# Velocity S-wave (km/s) = 4.50723 3.25541 3.93146
# Velocity P-wave (km/s) = 7.27934 6.58025 6.93860
#
# Compressibility (1/GPa) = 0.01974377
#
# Stress axis : x y z
#
# Youngs Moduli (GPa) = 99.28098 75.58708 125.34640
#
# Poissons Ratio (x) = 0.21739 0.26542
# Poissons Ratio (y) = 0.28553 0.09710
# Poissons Ratio (z) = 0.21023 0.05856
#
# Static dielectric constant tensor:
#      x y z
#    x 1.715580 0.000000 -0.008730 
#    y 0.000000 1.666080 0.000000 
#    z -0.008730 0.000000 1.717560 
# 
# From -- ./inp_files/37119.got.cif
#   From: 2010.05.17/outbox.cif.g08.bks.cpg/sg5_19_cif.got.tgz:37119.got - 2010.06.03 18:56:24.
