data_PCOD9128644
_publ_section_title
;
Structure prediction by ZEFSAII (Michael W. Deem and Ramdas Pophale) SiO2 
 PCOD9128644
Probable space group: C 2
;
_chemical_formula_sum "Si O2"
_cell_formula_units_Z 16
_cell_length_a 5.220767
_cell_length_b 23.421085
_cell_length_c 5.164833
_cell_angle_alpha 90.000000
_cell_angle_beta 89.762040
_cell_angle_gamma 90.000000
_cell_volume 631.529816
_symmetry_space_group_name_H-M "C 2"
_symmetry_group_IT_number 5
_symmetry_cell_setting 'monoclinic'
loop_
_space_group_symop_operation_xyz
x,y,z
-x,y,-z
1/2+x,1/2+y,z
1/2-x,1/2+y,-z
loop_
_atom_site_type_symbol
_atom_site_label
_atom_site_fract_x
_atom_site_fract_y
_atom_site_fract_z
Si Si1 0.500000 0.506740 0.000000
Si Si2 0.757878 0.173275 0.828051
Si Si3 0.677791 0.301188 0.748912
Si Si4 0.000000 0.088128 0.500000
Si Si5 0.231801 0.425691 0.333270
O O1 0.500598 0.546305 0.253254
O O2 0.277765 0.462218 0.076028
O O3 0.807563 0.239532 0.759206
O O4 0.773984 0.132599 0.577528
O O5 0.500000 0.168717 0.000000
O O6 0.000000 0.155790 0.000000
O O7 0.500000 0.298802 0.500000
O O8 0.832462 0.359869 0.732366
O O9 0.500000 0.306116 0.000000
O O10 0.500000 0.425754 0.500000
O O11 0.000000 0.450452 0.500000
#
# Coordination Sequence:
#
# PCOD9128644 Si02
#       5
#     2   4   4   2   4
#     4  12  26  54  74 114 150 204 254 308 370 454
#     4  11  28  50  77 115 152 200 252 311 379 446
#     4  10  24  46  77 114 155 192 248 313 380 449
#     4  12  28  50  80 106 158 200 256 306 372 452
#     4  11  26  49  78 113 151 198 250 312 379 444
#
# _framework density 25.335305000000002
#
# number of rings (size 3 to 8) (size 9 to 14) (size 15 to 20)
#    0.000    1.000    3.750    0.000    8.750    7.000 
#    0.000    0.000    0.000    0.000    0.000    0.000 
#    0.000    0.000    0.000    0.000    0.000    0.000 
#
# Total GULP energy -44746.479340 kJ/mol
# GULP energy per Si atom -5593.309917 kJ/mol
# Density = 2.527764 g / cm^3
# Si number density = 25.335305 Si / 1000 Ang^3
#
#
#
# Elastic Constant Matrix: (Units=GPa)
#
#
# Indices 1 2 3 4 5 6 
#
# 1 128.1350 25.6716 57.4655 0.0000 -22.3767 0.0000
# 2 25.6716 211.4976 73.9164 0.0000 -27.1304 0.0000
# 3 57.4655 73.9164 211.5423 0.0000 -30.8873 0.0000
# 4 0.0000 0.0000 0.0000 50.1210 0.0000 -23.9493
# 5 -22.3767 -27.1304 -30.8873 0.0000 55.5457 0.0000
# 6 0.0000 0.0000 0.0000 -23.9493 0.0000 7.6293
#
#
#
# Elastic Compliance Matrix: (Units=1/GPa)
#
#
# Indices 1 2 3 4 5 6 
#
# 1 0.009201 -0.000057 -0.002114 0.000000 0.002503 0.000000
# 2 -0.000057 0.005542 -0.001664 0.000000 0.001759 0.000000
# 3 -0.002114 -0.001664 0.006138 0.000000 0.001749 0.000000
# 4 0.000000 0.000000 0.000000 -0.039906 0.000000 -0.125270
# 5 0.002503 0.001759 0.001749 0.000000 0.020843 0.000000
# 6 0.000000 0.000000 0.000000 -0.125270 0.000000 -0.262164
#
#
# Mechanical properties :
#
#
# Convention : Reuss Voigt Hill
#
# Bulk Modulus (GPa) = 75.69394 96.14244 85.91819
# Shear Modulus (GPa) = -20.13925 48.93395 14.39735
#
# Velocity S-wave (km/s) = -2.82247 4.39960 2.38643
# Velocity P-wave (km/s) = 4.39544 7.98993 6.44821
#
# Compressibility (1/GPa) = 0.01321110
#
# Stress axis : x y z
#
# Youngs Moduli (GPa) = 108.68467 180.42841 162.90973
#
# Poissons Ratio (x) = 0.01026 0.34440
# Poissons Ratio (y) = 0.00618 0.27114
# Poissons Ratio (z) = 0.22977 0.30030
#
# Static dielectric constant tensor:
#      x y z
#    x 1.986690 0.000000 0.068240 
#    y 0.000000 2.046470 0.000000 
#    z 0.068240 0.000000 2.048300 
# 
# From -- ./inp_files/852.got.cif
#   From: 2010.05.17/outbox.cif.g08.bks.cpg/sg5_1_cif.got.tgz:852.got - 2010.06.03 18:56:24.
