data_PCOD9128383
_publ_section_title
;
Structure prediction by ZEFSAII (Michael W. Deem and Ramdas Pophale) SiO2 
 PCOD9128383
Probable space group: C 2
;
_chemical_formula_sum "Si O2"
_cell_formula_units_Z 22
_cell_length_a 14.597307
_cell_length_b 13.570612
_cell_length_c 10.311870
_cell_angle_alpha 90.000000
_cell_angle_beta 32.376223
_cell_angle_gamma 90.000000
_cell_volume 1093.830202
_symmetry_space_group_name_H-M "C 2"
_symmetry_group_IT_number 5
_symmetry_cell_setting 'monoclinic'
loop_
_space_group_symop_operation_xyz
x,y,z
-x,y,-z
1/2+x,1/2+y,z
1/2-x,1/2+y,-z
loop_
_atom_site_type_symbol
_atom_site_label
_atom_site_fract_x
_atom_site_fract_y
_atom_site_fract_z
Si Si1 0.303506 0.926770 0.436423
Si Si2 0.182372 0.117946 0.709164
Si Si3 0.275481 0.207730 0.105781
Si Si4 0.553023 0.286486 0.576982
Si Si5 0.919048 0.241086 0.415039
Si Si6 0.500000 0.057178 0.000000
O O1 0.156953 0.861208 0.544486
O O2 0.442162 0.847552 0.321929
O O3 0.240200 0.005157 0.619432
O O4 0.381297 0.990108 0.228864
O O5 0.327348 0.190071 0.595063
O O6 0.159211 0.166266 0.594697
O O7 0.000000 0.124708 0.000000
O O8 0.213796 0.263792 0.309896
O O9 0.091909 0.190739 0.258612
O O10 0.392087 0.256608 0.857398
O O11 0.386403 0.120670 0.035915
O O12 0.500000 0.327683 0.500000
#
# Coordination Sequence:
#
# PCOD9128383 Si02
#       6
#     4   4   4   4   4   2
#     4  11  25  41  67  97 127 167 219 261 320 375
#     4  11  23  43  66  94 134 167 213 263 322 374
#     4  11  22  46  66  87 134 171 214 256 325 376
#     4  11  25  43  65  95 130 174 208 267 319 378
#     4  10  24  43  65  97 129 174 205 270 316 380
#     4  12  22  44  70  92 124 170 220 266 310 386
#
# _framework density 20.112812000000002
#
# number of rings (size 3 to 8) (size 9 to 14) (size 15 to 20)
#    0.000    1.091    3.636    2.182   10.182    1.455 
#    3.273    0.000    0.000    0.000    0.000    0.000 
#    0.000    0.000    0.000    0.000    0.000    0.000 
#
# Total GULP energy -61339.310063 kJ/mol
# GULP energy per Si atom -5576.300915 kJ/mol
# Density = 2.006703 g / cm^3
# Si number density = 20.112812 Si / 1000 Ang^3
#
#
#
# Elastic Constant Matrix: (Units=GPa)
#
#
# Indices 1 2 3 4 5 6 
#
# 1 59.3923 0.6125 -3.9763 0.0000 -3.6326 0.0000
# 2 0.6125 67.2952 1.8985 0.0000 -12.8544 0.0000
# 3 -3.9763 1.8985 106.0029 -0.0001 9.3765 0.0000
# 4 0.0000 0.0000 -0.0001 25.4206 0.0000 4.4808
# 5 -3.6326 -12.8544 9.3765 0.0000 32.1616 0.0000
# 6 0.0000 0.0000 0.0000 4.4808 0.0000 8.8950
#
#
#
# Elastic Compliance Matrix: (Units=1/GPa)
#
#
# Indices 1 2 3 4 5 6 
#
# 1 0.016980 0.000187 0.000469 0.000000 0.001856 0.000000
# 2 0.000187 0.016170 -0.000879 0.000000 0.006740 0.000000
# 3 0.000469 -0.000879 0.009745 0.000000 -0.003139 0.000000
# 4 0.000000 0.000000 0.000000 0.043172 0.000000 -0.021747
# 5 0.001856 0.006740 -0.003139 0.000000 0.034912 0.000000
# 6 0.000000 0.000000 0.000000 -0.021747 0.000000 0.123378
#
#
# Mechanical properties :
#
#
# Convention : Reuss Voigt Hill
#
# Bulk Modulus (GPa) = 23.55710 25.52885 24.54298
# Shear Modulus (GPa) = 19.30861 28.90581 24.10721
#
# Velocity S-wave (km/s) = 3.10177 3.79513 3.46584
# Velocity P-wave (km/s) = 4.95640 5.65017 5.31462
#
# Compressibility (1/GPa) = 0.04245005
#
# Stress axis : x y z
#
# Youngs Moduli (GPa) = 58.89207 61.84103 102.61945
#
# Poissons Ratio (x) = -0.01154 -0.04818
# Poissons Ratio (y) = -0.01099 0.09019
# Poissons Ratio (z) = -0.02765 0.05435
#
# Static dielectric constant tensor:
#      x y z
#    x 1.647120 0.000000 0.019290 
#    y 0.000000 1.707960 0.000000 
#    z 0.019290 0.000000 1.717840 
# 
# From -- ./inp_files/42646.got.cif
#   From: 2010.05.17/outbox.cif.g08.bks.cpg/sg5_22_cif.got.tgz:42646.got - 2010.06.03 18:56:24.
