data_PCOD9128914
_publ_section_title
;
Structure prediction by ZEFSAII (Michael W. Deem and Ramdas Pophale) SiO2 
 PCOD9128914
Probable space group: C 2
;
_chemical_formula_sum "Si O2"
_cell_formula_units_Z 18
_cell_length_a 5.372100
_cell_length_b 24.966807
_cell_length_c 5.332337
_cell_angle_alpha 90.000000
_cell_angle_beta 87.964845
_cell_angle_gamma 90.000000
_cell_volume 714.744221
_symmetry_space_group_name_H-M "C 2"
_symmetry_group_IT_number 5
_symmetry_cell_setting 'monoclinic'
loop_
_space_group_symop_operation_xyz
x,y,z
-x,y,-z
1/2+x,1/2+y,z
1/2-x,1/2+y,-z
loop_
_atom_site_type_symbol
_atom_site_label
_atom_site_fract_x
_atom_site_fract_y
_atom_site_fract_z
Si Si1 0.327612 0.018810 0.757072
Si Si2 0.763778 0.784401 0.342887
Si Si3 0.500000 0.600112 0.500000
Si Si4 0.833496 0.400349 0.758014
Si Si5 0.748859 0.671414 0.136817
O O1 0.500000 0.021074 0.500000
O O2 0.112434 0.061292 0.708341
O O3 0.210403 0.958773 0.771045
O O4 0.500000 0.025919 0.000000
O O5 0.500000 0.784665 0.500000
O O6 0.813585 0.844614 0.245883
O O7 0.747286 0.735746 0.152045
O O8 0.000000 0.769400 0.500000
O O9 0.713580 0.640474 0.398108
O O10 0.000000 0.400725 0.500000
O O11 0.000000 0.396912 0.000000
O O12 0.500000 0.657295 0.000000
O O13 0.000000 0.653447 0.000000
#
# Coordination Sequence:
#
# PCOD9128914 Si02
#       5
#     4   4   2   4   4
#     4  10  25  47  76 113 158 208 269 329 403 476
#     4  11  23  45  76 111 155 199 258 325 399 473
#     4  12  30  46  78 112 164 210 276 328 396 484
#     4   9  20  43  74 110 152 201 254 325 396 475
#     4  12  29  49  78 114 154 213 268 328 401 474
#
# _framework density 25.183835999999999
#
# number of rings (size 3 to 8) (size 9 to 14) (size 15 to 20)
#    0.000    1.333    1.111    2.000    7.778    1.778 
#    0.000    0.000    0.000    0.000    0.000    0.000 
#    0.000    0.000    0.000    0.000    0.000    0.000 
#
# Total GULP energy -50388.610601 kJ/mol
# GULP energy per Si atom -5598.734511 kJ/mol
# Density = 2.512652 g / cm^3
# Si number density = 25.183836 Si / 1000 Ang^3
#
#
#
# Elastic Constant Matrix: (Units=GPa)
#
#
# Indices 1 2 3 4 5 6 
#
# 1 134.8865 31.5285 46.6619 0.0000 -6.3960 0.0000
# 2 31.5285 192.5325 28.0710 0.0000 -0.3588 0.0000
# 3 46.6619 28.0710 131.8618 0.0000 -0.2597 0.0000
# 4 0.0000 0.0000 0.0000 337.0869 0.0000 24.5009
# 5 -6.3960 -0.3588 -0.2597 0.0000 51.6501 0.0000
# 6 0.0000 0.0000 0.0000 24.5009 0.0000 7.5956
#
#
#
# Elastic Compliance Matrix: (Units=1/GPa)
#
#
# Indices 1 2 3 4 5 6 
#
# 1 0.008687 -0.001004 -0.002858 0.000000 0.001054 0.000000
# 2 -0.001004 0.005476 -0.000811 0.000000 -0.000090 0.000000
# 3 -0.002858 -0.000811 0.008767 0.000000 -0.000316 0.000000
# 4 0.000000 0.000000 0.000000 0.003875 0.000000 -0.012500
# 5 0.001054 -0.000090 -0.000316 0.000000 0.019489 0.000000
# 6 0.000000 0.000000 0.000000 -0.012500 0.000000 0.171975
#
#
# Mechanical properties :
#
#
# Convention : Reuss Voigt Hill
#
# Bulk Modulus (GPa) = 73.61222 74.64486 74.12854
# Shear Modulus (GPa) = 21.53830 102.80114 62.16972
#
# Velocity S-wave (km/s) = 2.92763 6.39601 4.97393
# Velocity P-wave (km/s) = 6.38133 9.17875 7.90478
#
# Compressibility (1/GPa) = 0.01358470
#
# Stress axis : x y z
#
# Youngs Moduli (GPa) = 115.11353 182.60318 114.06224
#
# Poissons Ratio (x) = 0.18331 0.32603
# Poissons Ratio (y) = 0.11556 0.09248
# Poissons Ratio (z) = 0.32903 0.14805
#
# Static dielectric constant tensor:
#      x y z
#    x 1.056270 0.000000 -0.658400 
#    y 0.000000 1.982430 0.000000 
#    z -0.658400 0.000000 1.552490 
# 
# From -- ./inp_files/924.got.cif
#   From: 2010.05.17/outbox.cif.g08.bks.cpg/sg5_1_cif.got.tgz:924.got - 2010.06.03 18:56:24.
