data_PCOD9128803
_publ_section_title
;
Structure prediction by ZEFSAII (Michael W. Deem and Ramdas Pophale) SiO2 
 PCOD9128803
Probable space group: C 2
;
_chemical_formula_sum "Si O2"
_cell_formula_units_Z 32
_cell_length_a 7.851280
_cell_length_b 15.364678
_cell_length_c 21.374073
_cell_angle_alpha 90.000000
_cell_angle_beta 33.636411
_cell_angle_gamma 90.000000
_cell_volume 1428.232309
_symmetry_space_group_name_H-M "C 2"
_symmetry_group_IT_number 5
_symmetry_cell_setting 'monoclinic'
loop_
_space_group_symop_operation_xyz
x,y,z
-x,y,-z
1/2+x,1/2+y,z
1/2-x,1/2+y,-z
loop_
_atom_site_type_symbol
_atom_site_label
_atom_site_fract_x
_atom_site_fract_y
_atom_site_fract_z
Si Si1 0.259717 0.629270 0.976629
Si Si2 0.905445 0.891501 0.717178
Si Si3 0.682544 0.704364 0.750319
Si Si4 0.207134 0.194580 0.497841
Si Si5 0.770440 0.010103 0.470865
Si Si6 0.976766 0.365523 0.630999
Si Si7 0.093307 0.781354 0.862386
Si Si8 0.349640 0.933917 0.976422
O O1 0.572751 0.653989 0.845142
O O2 0.281087 0.530390 0.991679
O O3 0.000000 0.629446 0.000000
O O4 0.154361 0.700847 0.060473
O O5 0.836605 0.793430 0.722416
O O6 0.628311 0.925232 0.843422
O O7 0.966885 0.948816 0.638227
O O8 0.219241 0.885855 0.658594
O O9 0.378044 0.734144 0.808095
O O10 0.944889 0.664906 0.626353
O O11 0.000000 0.210835 0.500000
O O12 0.181228 0.282086 0.546989
O O13 0.089563 0.106004 0.564652
O O14 0.500000 0.017091 0.500000
O O15 0.662330 0.956973 0.566703
O O16 0.766609 0.331480 0.752724
O O17 0.902041 0.858156 0.954636
O O18 0.500000 0.923775 0.000000
#
# Coordination Sequence:
#
# PCOD9128803 Si02
#       8
#     4   4   4   4   4   4   4   4
#     4   9  22  40  62  96 131 167 212 260 328 384
#     4  11  21  44  68  88 135 174 208 267 325 384
#     4  11  23  43  66  91 137 169 209 274 326 375
#     4  12  25  44  68  94 129 176 215 265 329 384
#     4  10  25  42  65  97 129 170 219 267 325 388
#     4  11  23  43  65  96 129 171 220 260 326 384
#     4  11  24  38  68  99 127 169 222 267 314 389
#     4  11  22  40  69  96 126 174 216 261 324 390
#
# _framework density 22.405318999999999
#
# number of rings (size 3 to 8) (size 9 to 14) (size 15 to 20)
#    0.000    1.250    5.000    0.375    5.250    3.000 
#    0.000    0.000    5.500    0.000    0.000    0.000 
#    0.000    0.000    0.000    0.000    0.000    0.000 
#
# Total GULP energy -89202.737695 kJ/mol
# GULP energy per Si atom -5575.171106 kJ/mol
# Density = 2.235432 g / cm^3
# Si number density = 22.405319 Si / 1000 Ang^3
#
#
#
# Elastic Constant Matrix: (Units=GPa)
#
#
# Indices 1 2 3 4 5 6 
#
# 1 27.3107 -12.8904 3.5001 -0.0381 1.5198 -0.0063
# 2 -12.8904 107.9005 13.8940 -0.1338 6.6789 -0.0967
# 3 3.5001 13.8940 96.7222 -0.4310 -5.2152 -0.2971
# 4 -0.0381 -0.1338 -0.4310 -20.6936 0.1070 -47.8358
# 5 1.5198 6.6789 -5.2152 0.1070 19.2349 0.0740
# 6 -0.0063 -0.0967 -0.2971 -47.8358 0.0740 -16.8139
#
#
#
# Elastic Compliance Matrix: (Units=1/GPa)
#
#
# Indices 1 2 3 4 5 6 
#
# 1 0.039825 0.005438 -0.002531 0.000004 -0.005721 -0.000039
# 2 0.005438 0.010452 -0.001946 -0.000009 -0.004586 -0.000022
# 3 -0.002531 -0.001946 0.010916 -0.000034 0.003836 -0.000068
# 4 0.000004 -0.000009 -0.000034 0.008666 0.000040 -0.024653
# 5 -0.005721 -0.004586 0.003836 0.000040 0.055073 0.000089
# 6 -0.000039 -0.000022 -0.000068 -0.024653 0.000089 0.010666
#
#
# Mechanical properties :
#
#
# Convention : Reuss Voigt Hill
#
# Bulk Modulus (GPa) = 15.84391 26.77120 21.30756
# Shear Modulus (GPa) = 32.31785 11.50747 21.91266
#
# Velocity S-wave (km/s) = 3.80204 2.26874 3.13071
# Velocity P-wave (km/s) = 5.13428 4.34021 4.75386
#
# Compressibility (1/GPa) = 0.06311572
#
# Stress axis : x y z
#
# Youngs Moduli (GPa) = 25.10988 95.67758 91.60517
#
# Poissons Ratio (x) = -0.52026 0.23184
# Poissons Ratio (y) = -0.13654 0.17822
# Poissons Ratio (z) = 0.06355 0.18615
#
# Static dielectric constant tensor:
#      x y z
#    x 2.039640 -0.000030 0.416670 
#    y -0.000030 1.844240 -0.000020 
#    z 0.416670 -0.000020 2.769540 
# 
# From -- ./inp_files/68032.got.cif
#   From: 2010.05.17/outbox.cif.g08.bks.cpg/sg5_35_cif.got.tgz:68032.got - 2010.06.03 18:56:24.
