data_PCOD9128161
_publ_section_title
;
Structure prediction by ZEFSAII (Michael W. Deem and Ramdas Pophale) SiO2 
 PCOD9128161
Probable space group: C 2
;
_chemical_formula_sum "Si O2"
_cell_formula_units_Z 26
_cell_length_a 18.116814
_cell_length_b 11.359547
_cell_length_c 10.778984
_cell_angle_alpha 90.000000
_cell_angle_beta 33.724670
_cell_angle_gamma 90.000000
_cell_volume 1231.607007
_symmetry_space_group_name_H-M "C 2"
_symmetry_group_IT_number 5
_symmetry_cell_setting 'monoclinic'
loop_
_space_group_symop_operation_xyz
x,y,z
-x,y,-z
1/2+x,1/2+y,z
1/2-x,1/2+y,-z
loop_
_atom_site_type_symbol
_atom_site_label
_atom_site_fract_x
_atom_site_fract_y
_atom_site_fract_z
Si Si1 0.989648 0.025230 0.367693
Si Si2 0.158670 0.811821 0.009351
Si Si3 0.702294 0.689436 0.965823
Si Si4 0.570030 0.997891 0.751606
Si Si5 0.500000 0.207415 0.000000
Si Si6 0.861912 0.481873 0.625661
Si Si7 0.701140 0.917073 0.791929
O O1 0.000000 0.040909 0.500000
O O2 0.077040 0.913650 0.196836
O O3 0.056366 0.141348 0.211609
O O4 0.836431 0.984848 0.569403
O O5 0.203455 0.713816 0.046356
O O6 0.076371 0.776943 0.001437
O O7 0.297292 0.863448 0.766739
O O8 0.763129 0.584239 0.802592
O O9 0.713516 0.803167 0.861392
O O10 0.621614 0.984463 0.543530
O O11 0.630724 0.898589 0.756942
O O12 0.596688 0.121100 0.784797
O O13 0.409770 0.991306 0.977854
O O14 0.000000 0.502554 0.500000
#
# Coordination Sequence:
#
# PCOD9128161 Si02
#       7
#     4   4   4   4   2   4   4
#     4  11  25  42  71 103 137 182 239 289 340 434
#     4  11  25  43  65 103 136 181 235 292 351 415
#     4  11  25  43  71 103 135 187 234 286 356 413
#     4  10  25  46  67  97 140 180 233 288 351 431
#     4  10  24  42  66  94 134 184 226 278 356 416
#     4  11  25  43  68  98 135 177 239 286 344 431
#     4  10  23  48  65 100 140 178 226 290 350 408
#
# _framework density 21.11063
#
# number of rings (size 3 to 8) (size 9 to 14) (size 15 to 20)
#    0.000    1.538    1.538    1.846   12.923    1.846 
#    5.538    0.000    0.000    0.000    0.000    0.000 
#    0.000    0.000    0.000    0.000    0.000    0.000 
#
# Total GULP energy -72493.290265 kJ/mol
# GULP energy per Si atom -5576.406943 kJ/mol
# Density = 2.106258 g / cm^3
# Si number density = 21.110630 Si / 1000 Ang^3
#
#
#
# Elastic Constant Matrix: (Units=GPa)
#
#
# Indices 1 2 3 4 5 6 
#
# 1 100.9684 30.5140 52.8350 0.0000 29.2372 0.0000
# 2 30.5140 34.9090 15.6690 0.0000 0.6054 0.0000
# 3 52.8350 15.6690 136.3366 0.0000 7.7288 0.0000
# 4 0.0000 0.0000 0.0000 16.6101 0.0000 4.9699
# 5 29.2372 0.6054 7.7288 0.0000 42.1332 0.0000
# 6 0.0000 0.0000 0.0000 4.9699 0.0000 29.8803
#
#
#
# Elastic Compliance Matrix: (Units=1/GPa)
#
#
# Indices 1 2 3 4 5 6 
#
# 1 0.021897 -0.016284 -0.005827 0.000000 -0.013892 0.000000
# 2 -0.016284 0.042316 0.000850 0.000000 0.010536 0.000000
# 3 -0.005827 0.000850 0.009364 0.000000 0.002313 0.000000
# 4 0.000000 0.000000 0.000000 0.063357 0.000000 -0.010538
# 5 -0.013892 0.010536 0.002313 0.000000 0.032799 0.000000
# 6 0.000000 0.000000 0.000000 -0.010538 0.000000 0.035220
#
#
# Mechanical properties :
#
#
# Convention : Reuss Voigt Hill
#
# Bulk Modulus (GPa) = 32.20083 52.25001 42.22542
# Shear Modulus (GPa) = 19.39296 29.27111 24.33204
#
# Velocity S-wave (km/s) = 3.03419 3.72769 3.39867
# Velocity P-wave (km/s) = 5.24991 6.58270 5.95371
#
# Compressibility (1/GPa) = 0.03105510
#
# Stress axis : x y z
#
# Youngs Moduli (GPa) = 45.66808 23.63200 106.79156
#
# Poissons Ratio (x) = 0.38482 0.62226
# Poissons Ratio (y) = 0.74366 -0.09078
# Poissons Ratio (z) = 0.26610 -0.02009
#
# Static dielectric constant tensor:
#      x y z
#    x 1.789510 0.000000 -0.045250 
#    y 0.000000 1.850500 0.000000 
#    z -0.045250 0.000000 1.779130 
# 
# From -- ./inp_files/44659.got.cif
#   From: 2010.05.17/outbox.cif.g08.bks.cpg/sg5_23_cif.got.tgz:44659.got - 2010.06.03 18:56:24.
