data_PCOD9128495
_publ_section_title
;
Structure prediction by ZEFSAII (Michael W. Deem and Ramdas Pophale) SiO2 
 PCOD9128495
Probable space group: C 2
;
_chemical_formula_sum "Si O2"
_cell_formula_units_Z 18
_cell_length_a 7.880829
_cell_length_b 7.235868
_cell_length_c 11.557532
_cell_angle_alpha 90.000000
_cell_angle_beta 78.885574
_cell_angle_gamma 90.000000
_cell_volume 646.702782
_symmetry_space_group_name_H-M "C 2"
_symmetry_group_IT_number 5
_symmetry_cell_setting 'monoclinic'
loop_
_space_group_symop_operation_xyz
x,y,z
-x,y,-z
1/2+x,1/2+y,z
1/2-x,1/2+y,-z
loop_
_atom_site_type_symbol
_atom_site_label
_atom_site_fract_x
_atom_site_fract_y
_atom_site_fract_z
Si Si1 0.953101 0.458110 0.790019
Si Si2 0.149374 0.540864 0.567105
Si Si3 0.000000 0.577951 0.000000
Si Si4 0.099191 0.070978 0.103261
Si Si5 0.373482 0.450106 0.338772
O O1 0.120595 0.425136 0.687437
O O2 0.199888 0.530825 0.937098
O O3 0.788295 0.458919 0.728544
O O4 0.933513 0.293039 0.884715
O O5 0.318273 0.549963 0.465865
O O6 0.102805 0.742905 0.619245
O O7 0.000000 0.476107 0.500000
O O8 0.952635 0.637957 0.872760
O O9 0.029440 0.016828 0.239399
O O10 0.000000 0.001429 0.000000
#
# Coordination Sequence:
#
# PCOD9128495 Si02
#       5
#     4   4   2   4   4
#     4  11  24  46  71 107 149 192 248 303 367 443
#     4  10  24  44  75 111 146 193 249 311 368 447
#     4  12  26  44  72 110 152 196 248 304 362 444
#     4  12  26  46  74 109 149 202 245 301 371 441
#     4  11  24  47  74 109 150 195 249 306 375 441
#
# _framework density 27.833496
#
# number of rings (size 3 to 8) (size 9 to 14) (size 15 to 20)
#    0.000    0.889    3.333    2.667    0.000   10.667 
#    2.000    0.000    0.000    1.333    0.000    0.000 
#    0.000    0.000    0.000    0.000    0.000    0.000 
#
# Total GULP energy -50239.768046 kJ/mol
# GULP energy per Si atom -5582.196450 kJ/mol
# Density = 2.777015 g / cm^3
# Si number density = 27.833496 Si / 1000 Ang^3
#
#
#
# Elastic Constant Matrix: (Units=GPa)
#
#
# Indices 1 2 3 4 5 6 
#
# 1 196.2400 17.4593 95.3479 0.0000 -37.4744 0.0000
# 2 17.4593 58.7392 42.0905 0.0000 -34.1328 0.0000
# 3 95.3479 42.0905 259.2740 0.0000 -71.5502 0.0000
# 4 0.0000 0.0000 0.0000 69.0522 0.0000 -5.6975
# 5 -37.4744 -34.1328 -71.5502 0.0000 83.8099 0.0000
# 6 0.0000 0.0000 0.0000 -5.6975 0.0000 24.0351
#
#
#
# Elastic Compliance Matrix: (Units=1/GPa)
#
#
# Indices 1 2 3 4 5 6 
#
# 1 0.006284 0.000277 -0.002027 0.000000 0.001192 0.000000
# 2 0.000277 0.022744 -0.001575 0.000000 0.008042 0.000000
# 3 -0.002027 -0.001575 0.005796 0.000000 0.003401 0.000000
# 4 0.000000 0.000000 0.000000 0.014771 0.000000 0.003501
# 5 0.001192 0.008042 0.003401 0.000000 0.018644 0.000000
# 6 0.000000 0.000000 0.000000 0.003501 0.000000 0.042436
#
#
# Mechanical properties :
#
#
# Convention : Reuss Voigt Hill
#
# Bulk Modulus (GPa) = 35.49207 91.56098 63.52652
# Shear Modulus (GPa) = 39.45895 59.33649 49.39772
#
# Velocity S-wave (km/s) = 3.76929 4.62219 4.21736
# Velocity P-wave (km/s) = 5.63229 7.83923 6.82555
#
# Compressibility (1/GPa) = 0.02817531
#
# Stress axis : x y z
#
# Youngs Moduli (GPa) = 159.14541 43.96823 172.51876
#
# Poissons Ratio (x) = -0.01220 0.34966
# Poissons Ratio (y) = -0.04416 0.27170
# Poissons Ratio (z) = 0.32255 0.06924
#
# Static dielectric constant tensor:
#      x y z
#    x 2.136680 0.000000 -0.030270 
#    y 0.000000 2.693010 0.000000 
#    z -0.030270 0.000000 2.192480 
# 
# From -- ./inp_files/14002.got.cif
#   From: 2010.05.17/outbox.cif.g08.bks.cpg/sg5_8_cif.got.tgz:14002.got - 2010.06.03 18:56:24.
