data_PCOD9128689
_publ_section_title
;
Structure prediction by ZEFSAII (Michael W. Deem and Ramdas Pophale) SiO2 
 PCOD9128689
Probable space group: C 2
;
_chemical_formula_sum "Si O2"
_cell_formula_units_Z 24
_cell_length_a 13.784049
_cell_length_b 12.917225
_cell_length_c 13.900416
_cell_angle_alpha 90.000000
_cell_angle_beta 25.489652
_cell_angle_gamma 90.000000
_cell_volume 1065.108123
_symmetry_space_group_name_H-M "C 2"
_symmetry_group_IT_number 5
_symmetry_cell_setting 'monoclinic'
loop_
_space_group_symop_operation_xyz
x,y,z
-x,y,-z
1/2+x,1/2+y,z
1/2-x,1/2+y,-z
loop_
_atom_site_type_symbol
_atom_site_label
_atom_site_fract_x
_atom_site_fract_y
_atom_site_fract_z
Si Si1 0.000000 0.528980 0.000000
Si Si2 0.364698 0.145199 0.303507
Si Si3 0.000000 0.983275 0.000000
Si Si4 0.729019 0.636383 0.915800
Si Si5 0.305131 0.867408 0.595455
Si Si6 0.342156 0.350198 0.732725
Si Si7 0.418177 0.497698 0.338217
O O1 0.002976 0.603762 0.088863
O O2 0.795285 0.448369 0.183520
O O3 0.534356 0.145880 0.241488
O O4 0.243404 0.253595 0.396713
O O5 0.165728 0.065041 0.498560
O O6 0.926150 0.907554 0.149764
O O7 0.796495 0.058028 0.151186
O O8 0.696649 0.752020 0.901746
O O9 0.553806 0.579080 0.147361
O O10 0.500000 0.870052 0.500000
O O11 0.310351 0.949860 0.505054
O O12 0.500000 0.316936 0.500000
O O13 0.454880 0.399648 0.728543
#
# Coordination Sequence:
#
# PCOD9128689 Si02
#       7
#     2   4   2   4   4   4   4
#     4  12  26  42  70 104 144 188 240 304 356 432
#     4  12  25  42  71 105 138 190 236 295 359 427
#     4  10  24  48  68 100 138 184 228 296 358 416
#     4  11  25  46  73 101 140 184 243 293 354 424
#     4  11  25  44  69 100 139 183 234 291 355 426
#     4  12  25  46  73 107 143 189 240 297 365 427
#     4  11  25  46  69 105 142 186 237 295 359 425
#
# _framework density 22.532924000000001
#
# number of rings (size 3 to 8) (size 9 to 14) (size 15 to 20)
#    0.000    0.667    5.000    2.000    2.333    7.333 
#    0.000    0.000    0.000    0.000    0.000    0.000 
#    0.000    0.000    0.000    0.000    0.000    0.000 
#
# Total GULP energy -66887.583700 kJ/mol
# GULP energy per Si atom -5573.965308 kJ/mol
# Density = 2.248164 g / cm^3
# Si number density = 22.532924 Si / 1000 Ang^3
#
#
#
# Elastic Constant Matrix: (Units=GPa)
#
#
# Indices 1 2 3 4 5 6 
#
# 1 108.0201 53.7997 7.9570 -0.0019 -17.9688 0.0012
# 2 53.7997 155.3544 36.5664 -0.0046 1.2985 0.0034
# 3 7.9570 36.5664 33.0500 -0.0049 4.9623 0.0043
# 4 -0.0019 -0.0046 -0.0049 24.4087 0.0019 5.8731
# 5 -17.9688 1.2985 4.9623 0.0019 38.0780 -0.0019
# 6 0.0012 0.0034 0.0043 5.8731 -0.0019 32.9638
#
#
#
# Elastic Compliance Matrix: (Units=1/GPa)
#
#
# Indices 1 2 3 4 5 6 
#
# 1 0.012465 -0.004667 0.001281 0.000000 0.005874 0.000000
# 2 -0.004667 0.010487 -0.010296 0.000000 -0.001218 0.000000
# 3 0.001281 -0.010296 0.042019 0.000008 -0.004520 -0.000006
# 4 0.000000 0.000000 0.000008 0.042804 -0.000004 -0.007626
# 5 0.005874 -0.001218 -0.004520 -0.000004 0.029665 0.000003
# 6 0.000000 0.000000 -0.000006 -0.007626 0.000003 0.031695
#
#
# Mechanical properties :
#
#
# Convention : Reuss Voigt Hill
#
# Bulk Modulus (GPa) = 26.59162 54.78563 40.68862
# Shear Modulus (GPa) = 23.91954 32.29687 28.10821
#
# Velocity S-wave (km/s) = 3.26166 3.79003 3.53573
# Velocity P-wave (km/s) = 5.10014 6.59688 5.89619
#
# Compressibility (1/GPa) = 0.03760583
#
# Stress axis : x y z
#
# Youngs Moduli (GPa) = 80.22546 95.35873 23.79881
#
# Poissons Ratio (x) = 0.44506 -0.03048
# Poissons Ratio (y) = 0.37443 0.24503
# Poissons Ratio (z) = -0.10275 0.98180
#
# Static dielectric constant tensor:
#      x y z
#    x 2.021740 0.000000 0.052960 
#    y 0.000000 1.767680 0.000010 
#    z 0.052960 0.000010 1.862100 
# 
# From -- ./inp_files/54427.got.cif
#   From: 2010.05.17/outbox.cif.g08.bks.cpg/sg5_28_cif.got.tgz:54427.got - 2010.06.03 18:56:24.
