data_PCOD9128754
_publ_section_title
;
Structure prediction by ZEFSAII (Michael W. Deem and Ramdas Pophale) SiO2 
 PCOD9128754
Probable space group: C 2
;
_chemical_formula_sum "Si O2"
_cell_formula_units_Z 22
_cell_length_a 22.152588
_cell_length_b 8.624620
_cell_length_c 13.758357
_cell_angle_alpha 90.000000
_cell_angle_beta 24.022592
_cell_angle_gamma 90.000000
_cell_volume 1070.110760
_symmetry_space_group_name_H-M "C 2"
_symmetry_group_IT_number 5
_symmetry_cell_setting 'monoclinic'
loop_
_space_group_symop_operation_xyz
x,y,z
-x,y,-z
1/2+x,1/2+y,z
1/2-x,1/2+y,-z
loop_
_atom_site_type_symbol
_atom_site_label
_atom_site_fract_x
_atom_site_fract_y
_atom_site_fract_z
Si Si1 0.000000 0.189400 0.000000
Si Si2 0.562011 0.871127 0.107393
Si Si3 0.396048 0.362602 0.569757
Si Si4 0.308911 0.059329 0.581470
Si Si5 0.174516 0.399242 0.241265
Si Si6 0.870459 0.124138 0.827185
O O1 0.149284 0.089115 0.768309
O O2 0.980384 0.293502 0.932714
O O3 0.569226 0.743701 0.181702
O O4 0.437526 0.991835 0.324126
O O5 0.734898 0.918325 0.842917
O O6 0.500000 0.288974 0.500000
O O7 0.364520 0.226195 0.539899
O O8 0.494604 0.508873 0.394455
O O9 0.278019 0.946092 0.719677
O O10 0.192913 0.228205 0.167827
O O11 0.000000 0.420238 0.500000
O O12 0.247832 0.518908 0.058938
#
# Coordination Sequence:
#
# PCOD9128754 Si02
#       6
#     2   4   4   4   4   4
#     4  10  24  50  70 100 138 194 246 290 348 402
#     4  11  25  47  71 102 138 188 244 294 346 423
#     4  11  25  41  68 107 143 186 219 290 364 424
#     4  11  25  48  72 100 147 185 239 301 349 414
#     4  12  25  43  67 110 142 186 231 290 363 426
#     4  12  26  40  71 104 147 182 233 282 358 432
#
# _framework density 20.558620000000001
#
# number of rings (size 3 to 8) (size 9 to 14) (size 15 to 20)
#    0.000    0.727    5.455    2.182    2.545    4.364 
#    0.000    0.000    0.000    0.000    0.000    0.000 
#    0.000    0.000    0.000    0.000    0.000    0.000 
#
# Total GULP energy -61476.070360 kJ/mol
# GULP energy per Si atom -5588.733669 kJ/mol
# Density = 2.051183 g / cm^3
# Si number density = 20.558620 Si / 1000 Ang^3
#
#
#
# Elastic Constant Matrix: (Units=GPa)
#
#
# Indices 1 2 3 4 5 6 
#
# 1 71.7308 24.3065 25.7836 0.0000 -5.9561 0.0000
# 2 24.3065 106.9907 66.2786 0.0000 4.8837 0.0000
# 3 25.7836 66.2786 188.1034 0.0000 -4.0702 0.0000
# 4 0.0000 0.0000 0.0000 56.1864 0.0000 3.9783
# 5 -5.9561 4.8837 -4.0702 0.0000 36.6600 0.0000
# 6 0.0000 0.0000 0.0000 3.9783 0.0000 4.2172
#
#
#
# Elastic Compliance Matrix: (Units=1/GPa)
#
#
# Indices 1 2 3 4 5 6 
#
# 1 0.015567 -0.003046 -0.000999 0.000000 0.002824 0.000000
# 2 -0.003046 0.012711 -0.004118 0.000000 -0.002645 0.000000
# 3 -0.000999 -0.004118 0.006929 0.000000 0.001156 0.000000
# 4 0.000000 0.000000 0.000000 0.019072 0.000000 -0.017991
# 5 0.002824 -0.002645 0.001156 0.000000 0.028217 0.000000
# 6 0.000000 0.000000 0.000000 -0.017991 0.000000 0.254096
#
#
# Mechanical properties :
#
#
# Convention : Reuss Voigt Hill
#
# Bulk Modulus (GPa) = 52.96904 66.61803 59.79354
# Shear Modulus (GPa) = 13.91932 36.10981 25.01456
#
# Velocity S-wave (km/s) = 2.60485 4.19553 3.49197
# Velocity P-wave (km/s) = 5.90490 7.47959 6.73840
#
# Compressibility (1/GPa) = 0.01887895
#
# Stress axis : x y z
#
# Youngs Moduli (GPa) = 64.23844 78.67411 144.31496
#
# Poissons Ratio (x) = 0.23968 0.14421
# Poissons Ratio (y) = 0.19570 0.59433
# Poissons Ratio (z) = 0.06419 0.32400
#
# Static dielectric constant tensor:
#      x y z
#    x 1.768940 0.000000 0.043890 
#    y 0.000000 1.787740 0.000000 
#    z 0.043890 0.000000 1.752740 
# 
# From -- ./inp_files/52048.got.cif
#   From: 2010.05.17/outbox.cif.g08.bks.cpg/sg5_27_cif.got.tgz:52048.got - 2010.06.03 18:56:24.
