data_PCOD9128388
_publ_section_title
;
Structure prediction by ZEFSAII (Michael W. Deem and Ramdas Pophale) SiO2 
 PCOD9128388
Probable space group: C 2
;
_chemical_formula_sum "Si O2"
_cell_formula_units_Z 24
_cell_length_a 10.664692
_cell_length_b 9.036346
_cell_length_c 11.849853
_cell_angle_alpha 90.000000
_cell_angle_beta 89.077561
_cell_angle_gamma 90.000000
_cell_volume 1141.820525
_symmetry_space_group_name_H-M "C 2"
_symmetry_group_IT_number 5
_symmetry_cell_setting 'monoclinic'
loop_
_space_group_symop_operation_xyz
x,y,z
-x,y,-z
1/2+x,1/2+y,z
1/2-x,1/2+y,-z
loop_
_atom_site_type_symbol
_atom_site_label
_atom_site_fract_x
_atom_site_fract_y
_atom_site_fract_z
Si Si1 0.430898 0.406730 0.329410
Si Si2 0.127247 0.231455 0.040285
Si Si3 0.124353 0.911516 0.934142
Si Si4 0.156857 0.118835 0.291944
Si Si5 0.579948 0.067530 0.642179
Si Si6 0.163824 0.432010 0.404119
O O1 0.398836 0.389711 0.197605
O O2 0.557243 0.499984 0.337189
O O3 0.442854 0.241729 0.377892
O O4 0.306284 0.482402 0.381390
O O5 0.250877 0.328476 0.030445
O O6 0.115132 0.177648 0.170166
O O7 0.000000 0.308658 0.000000
O O8 0.138634 0.083922 0.964672
O O9 0.000000 0.857463 0.000000
O O10 0.298997 0.057709 0.278921
O O11 0.162092 0.257415 0.377532
O O12 0.625485 0.981736 0.529455
O O13 0.444565 0.000548 0.674598
#
# Coordination Sequence:
#
# PCOD9128388 Si02
#       6
#     4   4   4   4   4   4
#     4  11  23  45  69  95 142 179 223 283 339 399
#     4  11  23  44  68 102 140 177 227 276 337 408
#     4  11  23  44  68 102 140 177 227 276 337 408
#     4  11  23  45  69  95 142 179 223 283 339 399
#     4  10  24  43  67 101 136 174 236 276 334 408
#     4  10  24  43  67 101 136 174 236 276 334 408
#
# _framework density 21.019065999999999
#
# number of rings (size 3 to 8) (size 9 to 14) (size 15 to 20)
#    0.000    1.333    6.667    0.000    0.000   16.000 
#    0.000    0.000    0.000    0.000    0.000    0.000 
#    0.000    0.000    0.000    0.000    0.000    0.000 
#
# Total GULP energy -67012.512852 kJ/mol
# GULP energy per Si atom -5584.376071 kJ/mol
# Density = 2.097123 g / cm^3
# Si number density = 21.019066 Si / 1000 Ang^3
#
#
#
# Elastic Constant Matrix: (Units=GPa)
#
#
# Indices 1 2 3 4 5 6 
#
# 1 151.9938 38.8766 -30.2896 0.0000 13.4077 0.0000
# 2 38.8766 54.1994 -6.8321 0.0000 7.2874 0.0000
# 3 -30.2896 -6.8321 43.3072 0.0000 14.9534 0.0000
# 4 0.0000 0.0000 0.0000 11.8491 0.0000 23.8269
# 5 13.4077 7.2874 14.9534 0.0000 33.3984 0.0000
# 6 0.0000 0.0000 0.0000 23.8269 0.0000 13.0531
#
#
#
# Elastic Compliance Matrix: (Units=1/GPa)
#
#
# Indices 1 2 3 4 5 6 
#
# 1 0.010296 -0.005361 0.008728 0.000000 -0.006871 0.000000
# 2 -0.005361 0.022861 0.000989 0.000000 -0.003279 0.000000
# 3 0.008728 0.000989 0.036238 0.000000 -0.019944 0.000000
# 4 0.000000 0.000000 0.000000 -0.031602 0.000000 0.057685
# 5 -0.006871 -0.003279 -0.019944 0.000000 0.042345 0.000000
# 6 0.000000 0.000000 0.000000 0.057685 0.000000 -0.028687
#
#
# Mechanical properties :
#
#
# Convention : Reuss Voigt Hill
#
# Bulk Modulus (GPa) = 12.80300 28.11226 20.45763
# Shear Modulus (GPa) = 72.70032 28.17648 50.43840
#
# Velocity S-wave (km/s) = 5.88752 3.66528 4.90394
# Velocity P-wave (km/s) = 7.23336 5.59608 6.46675
#
# Compressibility (1/GPa) = 0.07810668
#
# Stress axis : x y z
#
# Youngs Moduli (GPa) = 97.12635 43.74191 27.59561
#
# Poissons Ratio (x) = 0.23450 -0.24085
# Poissons Ratio (y) = 0.52070 -0.02730
# Poissons Ratio (z) = -0.84770 -0.04327
#
# Static dielectric constant tensor:
#      x y z
#    x 1.821520 0.000000 0.013390 
#    y 0.000000 1.735770 0.000000 
#    z 0.013390 0.000000 1.770220 
# 
# From -- ./inp_files/38342.got.cif
#   From: 2010.05.17/outbox.cif.g08.bks.cpg/sg5_20_cif.got.tgz:38342.got - 2010.06.03 18:56:24.
