data_PCOD9128342
_publ_section_title
;
Structure prediction by ZEFSAII (Michael W. Deem and Ramdas Pophale) SiO2 
 PCOD9128342
Probable space group: C 2
;
_chemical_formula_sum "Si O2"
_cell_formula_units_Z 32
_cell_length_a 5.142034
_cell_length_b 18.975844
_cell_length_c 15.271784
_cell_angle_alpha 90.000000
_cell_angle_beta 82.449480
_cell_angle_gamma 90.000000
_cell_volume 1477.215304
_symmetry_space_group_name_H-M "C 2"
_symmetry_group_IT_number 5
_symmetry_cell_setting 'monoclinic'
loop_
_space_group_symop_operation_xyz
x,y,z
-x,y,-z
1/2+x,1/2+y,z
1/2-x,1/2+y,-z
loop_
_atom_site_type_symbol
_atom_site_label
_atom_site_fract_x
_atom_site_fract_y
_atom_site_fract_z
Si Si1 0.005992 0.858440 0.240222
Si Si2 0.039569 0.104010 0.323203
Si Si3 0.456773 0.083390 0.901567
Si Si4 0.558734 0.204825 0.768451
Si Si5 0.006691 0.011125 0.830980
Si Si6 0.216302 0.504980 0.557347
Si Si7 0.795477 0.714336 0.587415
Si Si8 0.536911 0.857563 0.644215
O O1 0.948034 0.784169 0.196454
O O2 0.771967 0.862192 0.322702
O O3 0.289368 0.857432 0.274404
O O4 0.988681 0.928103 0.183520
O O5 0.900006 0.049809 0.263514
O O6 0.875106 0.143563 0.404349
O O7 0.160646 0.168293 0.261500
O O8 0.257695 0.056936 0.361387
O O9 0.423742 0.151560 0.841352
O O10 0.202448 0.035750 0.897524
O O11 0.714333 0.040255 0.859531
O O12 0.500000 0.103250 0.000000
O O13 0.434723 0.210483 0.676758
O O14 0.500000 0.499913 0.500000
O O15 0.129068 0.427100 0.590239
O O16 0.000000 0.531454 0.500000
O O17 0.617290 0.784611 0.594351
O O18 0.000000 0.717135 0.500000
#
# Coordination Sequence:
#
# PCOD9128342 Si02
#       8
#     4   4   4   4   4   4   4   4
#     4  11  22  42  70  97 129 178 230 276 338 413
#     4  11  24  43  62  97 130 181 230 291 339 406
#     4  11  24  45  73 108 142 176 220 282 356 427
#     4  10  24  42  67  98 136 183 228 278 349 409
#     4  11  23  43  75 100 136 177 227 282 345 416
#     4  12  28  41  62  89 133 177 236 290 347 393
#     4  11  24  41  67  94 141 185 243 289 338 400
#     4  11  23  44  62  93 130 185 230 288 343 400
#
# _framework density 21.662379999999999
#
# number of rings (size 3 to 8) (size 9 to 14) (size 15 to 20)
#    0.000    1.000    3.750    2.250    5.250    1.000 
#    0.000    1.250    0.000    0.000    0.000    0.000 
#    0.000    0.000    0.000    0.000    0.000    0.000 
#
# Total GULP energy -89533.988100 kJ/mol
# GULP energy per Si atom -5595.874256 kJ/mol
# Density = 2.161308 g / cm^3
# Si number density = 21.662380 Si / 1000 Ang^3
#
#
#
# Elastic Constant Matrix: (Units=GPa)
#
#
# Indices 1 2 3 4 5 6 
#
# 1 66.2522 19.0679 9.2578 0.0000 7.2176 0.0000
# 2 19.0679 170.3269 40.0958 0.0000 -0.9675 0.0000
# 3 9.2578 40.0958 81.6131 0.0000 13.0684 0.0000
# 4 0.0000 0.0000 0.0000 13.8065 0.0000 -1.6913
# 5 7.2176 -0.9675 13.0684 0.0000 33.6357 0.0000
# 6 0.0000 0.0000 0.0000 -1.6913 0.0000 25.6409
#
#
#
# Elastic Compliance Matrix: (Units=1/GPa)
#
#
# Indices 1 2 3 4 5 6 
#
# 1 0.016008 -0.001705 -0.000448 0.000000 -0.003310 0.000000
# 2 -0.001705 0.006898 -0.003504 0.000000 0.001926 0.000000
# 3 -0.000448 -0.003504 0.014956 0.000000 -0.005816 0.000000
# 4 0.000000 0.000000 0.000000 0.073020 0.000000 0.004816
# 5 -0.003310 0.001926 -0.005816 0.000000 0.032755 0.000000
# 6 0.000000 0.000000 0.000000 0.004816 0.000000 0.039318
#
#
# Mechanical properties :
#
#
# Convention : Reuss Voigt Hill
#
# Bulk Modulus (GPa) = 37.66796 50.55944 44.11370
# Shear Modulus (GPa) = 24.61621 31.26801 27.94211
#
# Velocity S-wave (km/s) = 3.37465 3.80336 3.59540
# Velocity P-wave (km/s) = 5.71058 6.53283 6.13549
#
# Compressibility (1/GPa) = 0.02654776
#
# Stress axis : x y z
#
# Youngs Moduli (GPa) = 62.46930 144.97593 66.86145
#
# Poissons Ratio (x) = 0.24724 0.02995
# Poissons Ratio (y) = 0.10654 0.23426
# Poissons Ratio (z) = 0.02799 0.50795
#
# Static dielectric constant tensor:
#      x y z
#    x 1.827210 0.000000 -0.006860 
#    y 0.000000 1.788210 0.000000 
#    z -0.006860 0.000000 1.809440 
# 
# From -- ./inp_files/49342.got.cif
#   From: 2010.05.17/outbox.cif.g08.bks.cpg/sg5_25_cif.got.tgz:49342.got - 2010.06.03 18:56:24.
