data_PCOD9128338
_publ_section_title
;
Structure prediction by ZEFSAII (Michael W. Deem and Ramdas Pophale) SiO2 
 PCOD9128338
Probable space group: C 2
;
_chemical_formula_sum "Si O2"
_cell_formula_units_Z 32
_cell_length_a 21.325586
_cell_length_b 6.749940
_cell_length_c 19.269400
_cell_angle_alpha 90.000000
_cell_angle_beta 148.195124
_cell_angle_gamma 90.000000
_cell_volume 1461.850186
_symmetry_space_group_name_H-M "C 2"
_symmetry_group_IT_number 5
_symmetry_cell_setting 'monoclinic'
loop_
_space_group_symop_operation_xyz
x,y,z
-x,y,-z
1/2+x,1/2+y,z
1/2-x,1/2+y,-z
loop_
_atom_site_type_symbol
_atom_site_label
_atom_site_fract_x
_atom_site_fract_y
_atom_site_fract_z
Si Si1 0.195324 0.282260 0.031986
Si Si2 0.962812 0.826329 0.282180
Si Si3 0.028231 0.155183 0.242378
Si Si4 0.280560 0.430778 0.834848
Si Si5 0.970743 0.604228 0.048385
Si Si6 0.385541 0.927520 0.568024
Si Si7 0.953495 0.161638 0.378488
Si Si8 0.345740 0.419730 0.739767
O O1 0.328134 0.308428 0.127804
O O2 0.216295 0.120782 0.112725
O O3 0.116501 0.463050 0.989602
O O4 0.109889 0.213315 0.889581
O O5 0.037215 0.627126 0.360910
O O6 0.943141 0.944420 0.335619
O O7 0.035322 0.963903 0.297667
O O8 0.105531 0.330503 0.347481
O O9 0.062212 0.089095 0.197336
O O10 0.166417 0.290245 0.738817
O O11 0.290039 0.471839 0.761737
O O12 0.394188 0.298601 0.959452
O O13 0.088983 0.704023 0.194033
O O14 0.000000 0.512248 0.000000
O O15 0.452227 0.775376 0.580083
O O16 0.254696 0.938706 0.413666
O O17 0.000000 0.152147 0.500000
#
# Coordination Sequence:
#
# PCOD9128338 Si02
#       8
#     4   4   4   4   4   4   4   4
#     4  12  25  42  74 100 136 185 234 300 356 423
#     4  11  27  45  69 101 137 186 243 289 356 424
#     4  11  29  42  66 101 137 189 237 285 352 427
#     4  11  22  44  71 105 140 170 237 297 367 415
#     4  10  24  42  67 105 138 178 227 295 365 430
#     4  11  26  47  67  99 143 192 235 290 352 436
#     4  11  22  45  71 106 138 177 236 300 362 421
#     4  11  25  47  71  98 147 188 228 303 355 440
#
# _framework density 21.890067999999999
#
# number of rings (size 3 to 8) (size 9 to 14) (size 15 to 20)
#    0.000    1.000    5.000    0.000    7.000    1.500 
#    2.250    0.000    0.000    0.000    0.000    0.000 
#    0.000    0.000    0.000    0.000    0.000    0.000 
#
# Total GULP energy -89379.745179 kJ/mol
# GULP energy per Si atom -5586.234074 kJ/mol
# Density = 2.184024 g / cm^3
# Si number density = 21.890068 Si / 1000 Ang^3
#
#
#
# Elastic Constant Matrix: (Units=GPa)
#
#
# Indices 1 2 3 4 5 6 
#
# 1 43.9765 -2.8901 -17.7913 0.0000 0.3492 0.0000
# 2 -2.8901 61.3117 10.4466 -0.0001 -11.2039 0.0000
# 3 -17.7913 10.4466 95.7656 0.0000 4.9599 0.0000
# 4 0.0000 -0.0001 0.0000 23.3462 0.0000 4.6936
# 5 0.3492 -11.2039 4.9599 0.0000 32.6310 0.0000
# 6 0.0000 0.0000 0.0000 4.6936 0.0000 35.1804
#
#
#
# Elastic Compliance Matrix: (Units=1/GPa)
#
#
# Indices 1 2 3 4 5 6 
#
# 1 0.024620 0.000215 0.004596 0.000000 -0.000888 0.000000
# 2 0.000215 0.017887 -0.002247 0.000000 0.006481 0.000000
# 3 0.004596 -0.002247 0.011676 0.000000 -0.002595 0.000000
# 4 0.000000 0.000000 0.000000 0.044014 0.000000 -0.005872
# 5 -0.000888 0.006481 -0.002595 0.000000 0.033275 0.000000
# 6 0.000000 0.000000 0.000000 -0.005872 0.000000 0.029208
#
#
# Mechanical properties :
#
#
# Convention : Reuss Voigt Hill
#
# Bulk Modulus (GPa) = 16.85989 20.06490 18.46239
# Shear Modulus (GPa) = 28.51891 32.31742 30.41816
#
# Velocity S-wave (km/s) = 3.61338 3.84650 3.73176
# Velocity P-wave (km/s) = 5.01273 5.37713 5.19813
#
# Compressibility (1/GPa) = 0.05931236
#
# Stress axis : x y z
#
# Youngs Moduli (GPa) = 40.61708 55.90533 85.64853
#
# Poissons Ratio (x) = -0.01202 -0.39368
# Poissons Ratio (y) = -0.00873 0.19245
# Poissons Ratio (z) = -0.18670 0.12562
#
# Static dielectric constant tensor:
#      x y z
#    x 1.846750 0.000000 0.011590 
#    y 0.000000 1.804920 0.000000 
#    z 0.011590 0.000000 1.883120 
# 
# From -- ./inp_files/67285.got.cif
#   From: 2010.05.17/outbox.cif.g08.bks.cpg/sg5_34_cif.got.tgz:67285.got - 2010.06.03 18:56:24.
