data_PCOD9128951
_publ_section_title
;
Structure prediction by ZEFSAII (Michael W. Deem and Ramdas Pophale) SiO2 
 PCOD9128951
Probable space group: C 2
;
_chemical_formula_sum "Si O2"
_cell_formula_units_Z 20
_cell_length_a 12.886196
_cell_length_b 5.938195
_cell_length_c 20.491140
_cell_angle_alpha 90.000000
_cell_angle_beta 147.194185
_cell_angle_gamma 90.000000
_cell_volume 849.530768
_symmetry_space_group_name_H-M "C 2"
_symmetry_group_IT_number 5
_symmetry_cell_setting 'monoclinic'
loop_
_space_group_symop_operation_xyz
x,y,z
-x,y,-z
1/2+x,1/2+y,z
1/2-x,1/2+y,-z
loop_
_atom_site_type_symbol
_atom_site_label
_atom_site_fract_x
_atom_site_fract_y
_atom_site_fract_z
Si Si1 0.784460 0.564050 0.658177
Si Si2 0.000000 0.911547 0.000000
Si Si3 0.419362 0.757184 0.215493
Si Si4 0.500000 0.170989 0.500000
Si Si5 0.980534 0.282791 0.585650
Si Si6 0.646898 0.552068 0.945125
O O1 0.681961 0.323256 0.610138
O O2 0.685562 0.701826 0.663821
O O3 0.692810 0.658773 0.543209
O O4 0.005730 0.501375 0.771422
O O5 0.979196 0.050473 0.055968
O O6 0.192581 0.766641 0.107566
O O7 0.517838 0.736519 0.337548
O O8 0.456756 0.572019 0.180028
O O9 0.465160 0.029720 0.547096
O O10 0.745605 0.300501 0.997273
#
# Coordination Sequence:
#
# PCOD9128951 Si02
#       6
#     4   2   4   2   4   4
#     4   9  21  41  62 104 135 180 231 282 357 424
#     4  10  26  48  70 102 144 188 244 302 360 426
#     4  11  24  42  72 103 137 191 238 294 360 429
#     4   8  18  40  64  92 140 174 224 284 350 424
#     4   9  21  42  65  97 141 175 231 290 352 422
#     4  10  25  50  72 103 140 192 249 297 357 424
#
# _framework density 23.542404999999999
#
# number of rings (size 3 to 8) (size 9 to 14) (size 15 to 20)
#    0.000    2.800    0.000    0.000    5.600   11.200 
#   18.000    0.000    0.000    0.000    0.000    0.000 
#    0.000    0.000    0.000    0.000    0.000    0.000 
#
# Total GULP energy -55730.803370 kJ/mol
# GULP energy per Si atom -5573.080337 kJ/mol
# Density = 2.348882 g / cm^3
# Si number density = 23.542405 Si / 1000 Ang^3
#
#
#
# Elastic Constant Matrix: (Units=GPa)
#
#
# Indices 1 2 3 4 5 6 
#
# 1 147.0768 21.6656 23.9014 0.0000 -32.6479 0.0000
# 2 21.6656 90.5229 17.9057 0.0000 -8.9909 0.0000
# 3 23.9014 17.9057 43.9887 0.0000 -11.0737 0.0000
# 4 0.0000 0.0000 0.0000 13.1823 0.0000 -10.1613
# 5 -32.6479 -8.9909 -11.0737 0.0000 57.4002 0.0000
# 6 0.0000 0.0000 0.0000 -10.1613 0.0000 -7.2701
#
#
#
# Elastic Compliance Matrix: (Units=1/GPa)
#
#
# Indices 1 2 3 4 5 6 
#
# 1 0.008336 -0.000981 -0.003127 0.000000 0.003985 0.000000
# 2 -0.000981 0.012183 -0.004295 0.000000 0.000522 0.000000
# 3 -0.003127 -0.004295 0.026868 0.000000 0.002732 0.000000
# 4 0.000000 0.000000 0.000000 0.036517 0.000000 -0.051039
# 5 0.003985 0.000522 0.002732 0.000000 0.020297 0.000000
# 6 0.000000 0.000000 0.000000 -0.051039 0.000000 -0.066213
#
#
# Mechanical properties :
#
#
# Convention : Reuss Voigt Hill
#
# Bulk Modulus (GPa) = 32.69915 45.39264 39.04590
# Shear Modulus (GPa) = 76.93740 27.20352 52.07046
#
# Velocity S-wave (km/s) = 5.72287 3.40297 4.70805
# Velocity P-wave (km/s) = 7.58868 5.89605 6.79527
#
# Compressibility (1/GPa) = 0.03058183
#
# Stress axis : x y z
#
# Youngs Moduli (GPa) = 119.95641 82.08128 37.21860
#
# Poissons Ratio (x) = 0.08051 0.11639
# Poissons Ratio (y) = 0.11766 0.15985
# Poissons Ratio (z) = 0.37513 0.35252
#
# Static dielectric constant tensor:
#      x y z
#    x 1.946920 0.000000 0.021710 
#    y 0.000000 1.929570 0.000000 
#    z 0.021710 0.000000 2.045400 
# 
# From -- ./inp_files/63677.got.cif
#   From: 2010.05.17/outbox.cif.g08.bks.cpg/sg5_32_cif.got.tgz:63677.got - 2010.06.03 18:56:24.
