data_PCOD9128978
_publ_section_title
;
Structure prediction by ZEFSAII (Michael W. Deem and Ramdas Pophale) SiO2 
 PCOD9128978
Probable space group: C 2
;
_chemical_formula_sum "Si O2"
_cell_formula_units_Z 12
_cell_length_a 12.022829
_cell_length_b 10.099362
_cell_length_c 5.422330
_cell_angle_alpha 90.000000
_cell_angle_beta 50.905259
_cell_angle_gamma 90.000000
_cell_volume 510.983221
_symmetry_space_group_name_H-M "C 2"
_symmetry_group_IT_number 5
_symmetry_cell_setting 'monoclinic'
loop_
_space_group_symop_operation_xyz
x,y,z
-x,y,-z
1/2+x,1/2+y,z
1/2-x,1/2+y,-z
loop_
_atom_site_type_symbol
_atom_site_label
_atom_site_fract_x
_atom_site_fract_y
_atom_site_fract_z
Si Si1 0.200695 0.125000 0.254006
Si Si2 0.500000 0.035647 0.000000
Si Si3 0.965864 0.940923 0.793437
Si Si4 0.500000 0.866029 0.500000
O O1 0.356429 0.117104 0.145805
O O2 0.179287 0.022622 0.053987
O O3 0.087010 0.057278 0.601373
O O4 0.137738 0.267745 0.280803
O O5 0.481238 0.947425 0.273859
O O6 0.000000 0.856228 0.500000
O O7 0.000000 0.875609 0.000000
#
# Coordination Sequence:
#
# PCOD9128978 Si02
#       4
#     4   2   4   2
#     4   8  22  38  62  90 132 156 208 274 296 372
#     4  12  24  40  68  98 118 174 216 246 330 382
#     4   7  15  30  58  76 114 163 181 240 320 328
#     4  10  26  40  64  94 130 168 210 254 326 374
#
# _framework density 23.484138999999999
#
# number of rings (size 3 to 8) (size 9 to 14) (size 15 to 20)
#    2.000    1.333    0.000    0.000   14.000    0.000 
#    0.000   10.000    0.000    0.000    0.000    0.000 
#    0.000    0.000    0.000    0.000    0.000    0.000 
#
# Total GULP energy -33403.814587 kJ/mol
# GULP energy per Si atom -5567.302431 kJ/mol
# Density = 2.343069 g / cm^3
# Si number density = 23.484139 Si / 1000 Ang^3
#
#
#
# Elastic Constant Matrix: (Units=GPa)
#
#
# Indices 1 2 3 4 5 6 
#
# 1 243.5479 72.1843 71.9981 0.0000 0.2379 0.0000
# 2 72.1843 95.1157 36.2859 0.0000 -4.9327 0.0000
# 3 71.9981 36.2859 56.9132 0.0000 23.4893 0.0000
# 4 0.0000 0.0000 0.0000 -294.1552 0.0000 496.2618
# 5 0.2379 -4.9327 23.4893 0.0000 69.9842 0.0000
# 6 0.0000 0.0000 0.0000 496.2618 0.0000 -809.4526
#
#
#
# Elastic Compliance Matrix: (Units=1/GPa)
#
#
# Indices 1 2 3 4 5 6 
#
# 1 0.007470 -0.001890 -0.009495 0.000000 0.003028 0.000000
# 2 -0.001890 0.015767 -0.009429 0.000000 0.004283 0.000000
# 3 -0.009495 -0.009429 0.041620 0.000000 -0.014602 0.000000
# 4 0.000000 0.000000 0.000000 0.099063 0.000000 0.060734
# 5 0.003028 0.004283 -0.014602 0.000000 0.019481 0.000000
# 6 0.000000 0.000000 0.000000 0.060734 0.000000 0.036000
#
#
# Mechanical properties :
#
#
# Convention : Reuss Voigt Hill
#
# Bulk Modulus (GPa) = 43.04894 84.05701 63.55298
# Shear Modulus (GPa) = 18.60309 -192.38415 -86.89053
#
# Velocity S-wave (km/s) = 2.81758 -9.06083 -6.08933
# Velocity P-wave (km/s) = 5.38107 8.57870 4.72431
#
# Compressibility (1/GPa) = 0.02322938
#
# Stress axis : x y z
#
# Youngs Moduli (GPa) = 133.86832 63.42367 24.02672
#
# Poissons Ratio (x) = 0.11986 0.22813
# Poissons Ratio (y) = 0.25298 0.22655
# Poissons Ratio (z) = 1.27107 0.59804
#
# Static dielectric constant tensor:
#      x y z
#    x 1.915810 0.000000 -0.022090 
#    y 0.000000 1.851410 0.000000 
#    z -0.022090 0.000000 2.217460 
# 
# From -- ./inp_files/4213.got.cif
#   From: 2010.05.17/outbox.cif.g08.bks.cpg/sg5_3_cif.got.tgz:4213.got - 2010.06.03 18:56:24.
