data_PCOD9128484
_publ_section_title
;
Structure prediction by ZEFSAII (Michael W. Deem and Ramdas Pophale) SiO2 
 PCOD9128484
Probable space group: C 2
;
_chemical_formula_sum "Si O2"
_cell_formula_units_Z 20
_cell_length_a 18.359420
_cell_length_b 5.280175
_cell_length_c 8.090568
_cell_angle_alpha 90.000000
_cell_angle_beta 82.390834
_cell_angle_gamma 90.000000
_cell_volume 777.401031
_symmetry_space_group_name_H-M "C 2"
_symmetry_group_IT_number 5
_symmetry_cell_setting 'monoclinic'
loop_
_space_group_symop_operation_xyz
x,y,z
-x,y,-z
1/2+x,1/2+y,z
1/2-x,1/2+y,-z
loop_
_atom_site_type_symbol
_atom_site_label
_atom_site_fract_x
_atom_site_fract_y
_atom_site_fract_z
Si Si1 0.698150 0.689550 0.166085
Si Si2 0.915549 0.587410 0.713378
Si Si3 0.420053 0.120767 0.344343
Si Si4 0.363519 0.380358 0.055157
Si Si5 0.268527 0.859603 0.396486
O O1 0.651579 0.657159 0.012705
O O2 0.718343 0.427739 0.253351
O O3 0.644171 0.865233 0.286027
O O4 0.778887 0.797390 0.111340
O O5 0.913716 0.724899 0.534154
O O6 0.899438 0.734810 0.888543
O O7 0.000082 0.498188 0.699348
O O8 0.352994 0.927229 0.337687
O O9 0.408273 0.331512 0.206927
O O10 0.242068 0.079088 0.532515
#
# Coordination Sequence:
#
# PCOD9128484 Si02
#       5
#     4   4   4   4   4
#     4  11  23  40  76 102 151 198 260 313 386 460
#     4  11  22  48  67 107 148 195 248 317 383 471
#     4  10  24  44  73 103 151 193 251 316 392 445
#     4  11  23  44  68 108 140 197 249 324 370 468
#     4  11  23  44  74 115 150 200 260 320 377 468
#
# _framework density 25.726745999999999
#
# number of rings (size 3 to 8) (size 9 to 14) (size 15 to 20)
#    0.000    1.200    4.000    1.800    0.000    0.000 
#    3.600    4.000    0.000    0.000    0.000    0.000 
#    0.000    0.000    0.000    0.000    0.000    0.000 
#
# Total GULP energy -55933.445405 kJ/mol
# GULP energy per Si atom -5593.344541 kJ/mol
# Density = 2.566819 g / cm^3
# Si number density = 25.726746 Si / 1000 Ang^3
#
#
#
# Elastic Constant Matrix: (Units=GPa)
#
#
# Indices 1 2 3 4 5 6 
#
# 1 177.5513 17.5670 63.7921 0.0000 -16.2239 0.0000
# 2 17.5670 39.3288 38.2298 0.0000 2.5039 0.0000
# 3 63.7921 38.2298 172.4913 0.0000 14.9007 0.0000
# 4 0.0000 0.0000 0.0000 54.6830 0.0000 8.6353
# 5 -16.2239 2.5039 14.9007 0.0000 54.1077 0.0000
# 6 0.0000 0.0000 0.0000 8.6353 0.0000 23.3600
#
#
#
# Elastic Compliance Matrix: (Units=1/GPa)
#
#
# Indices 1 2 3 4 5 6 
#
# 1 0.006911 -0.000695 -0.002647 0.000000 0.002833 0.000000
# 2 -0.000695 0.032491 -0.006962 0.000000 0.000205 0.000000
# 3 -0.002647 -0.006962 0.008564 0.000000 -0.002830 0.000000
# 4 0.000000 0.000000 0.000000 0.019421 0.000000 -0.007179
# 5 0.002833 0.000205 -0.002830 0.000000 0.020101 0.000000
# 6 0.000000 0.000000 0.000000 -0.007179 0.000000 0.045462
#
#
# Mechanical properties :
#
#
# Convention : Reuss Voigt Hill
#
# Bulk Modulus (GPa) = 36.55067 69.83880 53.19474
# Shear Modulus (GPa) = 30.73605 44.41565 37.57585
#
# Velocity S-wave (km/s) = 3.46021 4.15955 3.82589
# Velocity P-wave (km/s) = 5.49565 7.09045 6.34337
#
# Compressibility (1/GPa) = 0.02735928
#
# Stress axis : x y z
#
# Youngs Moduli (GPa) = 144.70434 30.77750 116.77308
#
# Poissons Ratio (x) = 0.02138 0.30905
# Poissons Ratio (y) = 0.10051 0.81298
# Poissons Ratio (z) = 0.38297 0.21427
#
# Static dielectric constant tensor:
#      x y z
#    x 1.963290 0.000000 0.004750 
#    y 0.000000 2.056340 0.000000 
#    z 0.004750 0.000000 2.187320 
# 
# From -- ./inp_files/25947.got.cif
#   From: 2010.05.17/outbox.cif.g08.bks.cpg/sg5_13_cif.got.tgz:25947.got - 2010.06.03 18:56:24.
