data_PCOD9128969
_publ_section_title
;
Structure prediction by ZEFSAII (Michael W. Deem and Ramdas Pophale) SiO2 
 PCOD9128969
Probable space group: C 2
;
_chemical_formula_sum "Si O2"
_cell_formula_units_Z 20
_cell_length_a 21.677778
_cell_length_b 4.995252
_cell_length_c 10.098226
_cell_angle_alpha 90.000000
_cell_angle_beta 42.859892
_cell_angle_gamma 90.000000
_cell_volume 743.804721
_symmetry_space_group_name_H-M "C 2"
_symmetry_group_IT_number 5
_symmetry_cell_setting 'monoclinic'
loop_
_space_group_symop_operation_xyz
x,y,z
-x,y,-z
1/2+x,1/2+y,z
1/2-x,1/2+y,-z
loop_
_atom_site_type_symbol
_atom_site_label
_atom_site_fract_x
_atom_site_fract_y
_atom_site_fract_z
Si Si1 0.418898 0.675210 0.522754
Si Si2 0.977988 0.847500 0.186147
Si Si3 0.845939 0.529950 0.017766
Si Si4 0.700711 0.165691 0.205510
Si Si5 0.702529 0.066931 0.612848
O O1 0.500000 0.720850 0.500000
O O2 0.358982 0.422077 0.661339
O O3 0.351292 0.924710 0.641475
O O4 0.195508 0.624155 0.778652
O O5 0.961773 0.086809 0.315052
O O6 0.886662 0.678006 0.314603
O O7 0.052709 0.641935 0.127102
O O8 0.000000 0.936921 0.000000
O O9 0.808549 0.634597 0.937552
O O10 0.806456 0.223895 0.074196
O O11 0.717688 0.753493 0.568076
#
# Coordination Sequence:
#
# PCOD9128969 Si02
#       5
#     4   4   4   4   4
#     4  12  26  51  82 126 165 220 278 344 421 498
#     4  10  25  54  86 122 165 224 281 346 409 509
#     4  11  26  53  79 125 160 221 280 345 411 494
#     4  12  27  48  83 121 172 212 277 353 417 493
#     4  11  27  53  80 115 167 220 277 341 422 499
#
# _framework density 26.888777999999999
#
# number of rings (size 3 to 8) (size 9 to 14) (size 15 to 20)
#    0.000    0.800    2.000    3.000    0.000   11.200 
#    0.000    6.000    0.000    0.000    0.000    0.000 
#    0.000    0.000    0.000    0.000    0.000    0.000 
#
# Total GULP energy -56093.344043 kJ/mol
# GULP energy per Si atom -5609.334404 kJ/mol
# Density = 2.682758 g / cm^3
# Si number density = 26.888778 Si / 1000 Ang^3
#
#
#
# Elastic Constant Matrix: (Units=GPa)
#
#
# Indices 1 2 3 4 5 6 
#
# 1 212.7359 62.4910 90.9733 -0.0002 8.1885 -0.0002
# 2 62.4910 182.0534 70.1684 -0.0014 2.4160 0.0009
# 3 90.9733 70.1684 127.7978 0.0001 12.0731 0.0000
# 4 -0.0002 -0.0014 0.0001 50.6124 0.0002 -8.2234
# 5 8.1885 2.4160 12.0731 0.0002 65.9306 0.0000
# 6 -0.0002 0.0009 0.0000 -8.2234 0.0000 27.3285
#
#
#
# Elastic Compliance Matrix: (Units=1/GPa)
#
#
# Indices 1 2 3 4 5 6 
#
# 1 0.006808 -0.000595 -0.004520 0.000000 0.000004 0.000000
# 2 -0.000595 0.007033 -0.003481 0.000000 0.000454 0.000000
# 3 -0.004520 -0.003481 0.013116 0.000000 -0.001713 0.000000
# 4 0.000000 0.000000 0.000000 0.020774 0.000000 0.006251
# 5 0.000004 0.000454 -0.001713 0.000000 0.015464 0.000000
# 6 0.000000 0.000000 0.000000 0.006251 0.000000 0.038473
#
#
# Mechanical properties :
#
#
# Convention : Reuss Voigt Hill
#
# Bulk Modulus (GPa) = 102.40870 107.76139 105.08505
# Shear Modulus (GPa) = 40.94549 48.70458 44.82504
#
# Velocity S-wave (km/s) = 3.90651 4.26060 4.08739
# Velocity P-wave (km/s) = 7.64960 8.02292 7.83849
#
# Compressibility (1/GPa) = 0.00976480
#
# Stress axis : x y z
#
# Youngs Moduli (GPa) = 146.88029 142.19453 76.24516
#
# Poissons Ratio (x) = 0.08458 0.34465
# Poissons Ratio (y) = 0.08736 0.26539
# Poissons Ratio (z) = 0.66394 0.49494
#
# Static dielectric constant tensor:
#      x y z
#    x 2.080230 0.000000 -0.031740 
#    y 0.000000 2.102840 0.000000 
#    z -0.031740 0.000000 2.120750 
# 
# From -- ./inp_files/57923.got.cif
#   From: 2010.05.17/outbox.cif.g08.bks.cpg/sg5_29_cif.got.tgz:57923.got - 2010.06.03 18:56:24.
