data_PCOD9128797
_publ_section_title
;
Structure prediction by ZEFSAII (Michael W. Deem and Ramdas Pophale) SiO2 
 PCOD9128797
Probable space group: C 2
;
_chemical_formula_sum "Si O2"
_cell_formula_units_Z 20
_cell_length_a 5.293093
_cell_length_b 9.002758
_cell_length_c 18.100296
_cell_angle_alpha 90.000000
_cell_angle_beta 103.461634
_cell_angle_gamma 90.000000
_cell_volume 838.826241
_symmetry_space_group_name_H-M "C 2"
_symmetry_group_IT_number 5
_symmetry_cell_setting 'monoclinic'
loop_
_space_group_symop_operation_xyz
x,y,z
-x,y,-z
1/2+x,1/2+y,z
1/2-x,1/2+y,-z
loop_
_atom_site_type_symbol
_atom_site_label
_atom_site_fract_x
_atom_site_fract_y
_atom_site_fract_z
Si Si1 0.882127 0.047090 0.718815
Si Si2 0.153452 0.612775 0.323733
Si Si3 0.863238 0.208714 0.911909
Si Si4 0.900877 0.393884 0.410853
Si Si5 0.183703 0.869739 0.144061
O O1 0.643955 0.159052 0.715783
O O2 0.179338 0.091282 0.738685
O O3 0.835031 0.000699 0.630007
O O4 0.821323 0.912847 0.769594
O O5 0.295016 0.732648 0.384086
O O6 0.109396 0.460045 0.366789
O O7 0.577799 0.280419 0.892287
O O8 0.058556 0.286463 0.866480
O O9 0.836389 0.033571 0.893950
O O10 0.000000 0.231023 0.000000
O O11 0.000000 0.407372 0.500000
#
# Coordination Sequence:
#
# PCOD9128797 Si02
#       5
#     4   4   4   4   4
#     4  10  26  44  68 102 136 181 235 282 348 408
#     4  10  25  41  67  94 137 173 237 284 348 404
#     4  12  26  47  72 108 142 186 232 286 352 423
#     4  10  26  43  70  96 140 181 236 287 348 406
#     4  12  27  44  79 101 148 185 234 289 350 414
#
# _framework density 23.842839000000001
#
# number of rings (size 3 to 8) (size 9 to 14) (size 15 to 20)
#    1.200    0.000    0.000    4.200   11.200    0.000 
#    0.000    0.000    0.000    0.000    0.000    0.000 
#    0.000    0.000    0.000    0.000    0.000    0.000 
#
# Total GULP energy -55841.332633 kJ/mol
# GULP energy per Si atom -5584.133263 kJ/mol
# Density = 2.378857 g / cm^3
# Si number density = 23.842839 Si / 1000 Ang^3
#
#
#
# Elastic Constant Matrix: (Units=GPa)
#
#
# Indices 1 2 3 4 5 6 
#
# 1 152.2414 61.2975 21.3134 0.0000 -27.5655 0.0000
# 2 61.2975 111.5832 13.5054 0.0000 -3.6217 0.0000
# 3 21.3134 13.5054 91.8825 0.0000 13.5474 0.0000
# 4 0.0000 0.0000 0.0000 37.0755 0.0000 5.4479
# 5 -27.5655 -3.6217 13.5474 0.0000 35.6064 0.0000
# 6 0.0000 0.0000 0.0000 5.4479 0.0000 41.9641
#
#
#
# Elastic Compliance Matrix: (Units=1/GPa)
#
#
# Indices 1 2 3 4 5 6 
#
# 1 0.010712 -0.005228 -0.003031 0.000000 0.008914 0.000000
# 2 -0.005228 0.011755 -0.000100 0.000000 -0.002814 0.000000
# 3 -0.003031 -0.000100 0.012659 0.000000 -0.007173 0.000000
# 4 0.000000 0.000000 0.000000 0.027497 0.000000 -0.003570
# 5 0.008914 -0.002814 -0.007173 0.000000 0.037429 0.000000
# 6 0.000000 0.000000 0.000000 -0.003570 0.000000 0.024293
#
#
# Mechanical properties :
#
#
# Convention : Reuss Voigt Hill
#
# Bulk Modulus (GPa) = 54.32610 60.88217 57.60414
# Shear Modulus (GPa) = 33.96781 40.23527 37.10154
#
# Velocity S-wave (km/s) = 3.77855 4.11240 3.94901
# Velocity P-wave (km/s) = 6.47079 6.93825 6.70860
#
# Compressibility (1/GPa) = 0.01840736
#
# Stress axis : x y z
#
# Youngs Moduli (GPa) = 93.35353 85.07091 78.99678
#
# Poissons Ratio (x) = 0.44479 0.23941
# Poissons Ratio (y) = 0.48809 0.00791
# Poissons Ratio (z) = 0.28292 0.00852
#
# Static dielectric constant tensor:
#      x y z
#    x 1.983640 0.000000 -0.008280 
#    y 0.000000 1.916360 0.000000 
#    z -0.008280 0.000000 1.935330 
# 
# From -- ./inp_files/58472.got.cif
#   From: 2010.05.17/outbox.cif.g08.bks.cpg/sg5_30_cif.got.tgz:58472.got - 2010.06.03 18:56:24.
