data_PCOD9128823
_publ_section_title
;
Structure prediction by ZEFSAII (Michael W. Deem and Ramdas Pophale) SiO2 
 PCOD9128823
Probable space group: C 2
;
_chemical_formula_sum "Si O2"
_cell_formula_units_Z 16
_cell_length_a 19.581713
_cell_length_b 7.777247
_cell_length_c 18.294034
_cell_angle_alpha 90.000000
_cell_angle_beta 164.679884
_cell_angle_gamma 90.000000
_cell_volume 736.102120
_symmetry_space_group_name_H-M "C 2"
_symmetry_group_IT_number 5
_symmetry_cell_setting 'monoclinic'
loop_
_space_group_symop_operation_xyz
x,y,z
-x,y,-z
1/2+x,1/2+y,z
1/2-x,1/2+y,-z
loop_
_atom_site_type_symbol
_atom_site_label
_atom_site_fract_x
_atom_site_fract_y
_atom_site_fract_z
Si Si1 0.000000 0.206080 0.500000
Si Si2 0.491546 0.194183 0.267922
Si Si3 0.534849 0.739875 0.893790
Si Si4 0.500000 0.970297 0.000000
Si Si5 0.725735 0.889527 0.870890
O O1 0.248331 0.088342 0.743012
O O2 0.059361 0.317721 0.633126
O O3 0.785511 0.245156 0.584357
O O4 0.442777 0.999219 0.244422
O O5 0.383776 0.243202 0.077299
O O6 0.300364 0.292752 0.127350
O O7 0.490336 0.851001 0.918841
O O8 0.582128 0.538053 0.960310
#
# Coordination Sequence:
#
# PCOD9128823 Si02
#       5
#     2   4   4   2   4
#     4  12  30  44  74 106 146 184 236 288 356 418
#     4  10  25  43  73 101 140 186 232 290 345 422
#     4  10  26  43  73  99 145 184 234 287 351 415
#     4  12  28  44  72 104 150 184 234 288 358 414
#     4  10  28  44  75 103 145 180 239 287 357 409
#
# _framework density 21.736115000000002
#
# number of rings (size 3 to 8) (size 9 to 14) (size 15 to 20)
#    1.500    0.000    0.000    1.500   17.500    0.000 
#    0.000    0.000    0.000    0.000    0.000    0.000 
#    0.000    0.000    0.000    0.000    0.000    0.000 
#
# Total GULP energy -44675.255430 kJ/mol
# GULP energy per Si atom -5584.406929 kJ/mol
# Density = 2.168664 g / cm^3
# Si number density = 21.736115 Si / 1000 Ang^3
#
#
#
# Elastic Constant Matrix: (Units=GPa)
#
#
# Indices 1 2 3 4 5 6 
#
# 1 56.5404 68.2880 45.3989 0.0067 -6.7182 0.0050
# 2 68.2880 115.6291 79.4764 0.0031 -22.1470 0.0060
# 3 45.3989 79.4764 167.8675 0.0071 -11.9375 0.0093
# 4 0.0067 0.0031 0.0071 37.3318 0.0040 -14.7289
# 5 -6.7182 -22.1470 -11.9375 0.0040 54.7129 0.0049
# 6 0.0050 0.0060 0.0093 -14.7289 0.0049 41.1797
#
#
#
# Elastic Compliance Matrix: (Units=1/GPa)
#
#
# Indices 1 2 3 4 5 6 
#
# 1 0.065039 -0.040767 0.001123 -0.000010 -0.008270 -0.000005
# 2 -0.040767 0.039261 -0.006896 0.000005 0.009382 0.000002
# 3 0.001123 -0.006896 0.008867 -0.000002 -0.000719 -0.000002
# 4 -0.000010 0.000005 -0.000002 0.031188 -0.000003 0.011155
# 5 -0.008270 0.009382 -0.000719 -0.000003 0.020903 -0.000004
# 6 -0.000005 0.000002 -0.000002 0.011155 -0.000004 0.028274
#
#
# Mechanical properties :
#
#
# Convention : Reuss Voigt Hill
#
# Bulk Modulus (GPa) = 49.77961 80.70705 65.24333
# Shear Modulus (GPa) = 17.04714 36.43648 26.74181
#
# Velocity S-wave (km/s) = 2.80353 4.09872 3.51136
# Velocity P-wave (km/s) = 5.78198 7.72077 6.82061
#
# Compressibility (1/GPa) = 0.02008855
#
# Stress axis : x y z
#
# Youngs Moduli (GPa) = 15.37548 25.47071 112.77922
#
# Poissons Ratio (x) = 1.03835 -0.12669
# Poissons Ratio (y) = 0.62681 0.77768
# Poissons Ratio (z) = -0.01727 0.17564
#
# Static dielectric constant tensor:
#      x y z
#    x 1.780880 0.000000 0.017290 
#    y 0.000000 1.815970 0.000000 
#    z 0.017290 0.000000 1.731260 
# 
# From -- ./inp_files/6311.got.cif
#   From: 2010.05.17/outbox.cif.g08.bks.cpg/sg5_4_cif.got.tgz:6311.got - 2010.06.03 18:56:24.
