data_PCOD9128539
_publ_section_title
;
Structure prediction by ZEFSAII (Michael W. Deem and Ramdas Pophale) SiO2 
 PCOD9128539
Probable space group: C 2
;
_chemical_formula_sum "Si O2"
_cell_formula_units_Z 18
_cell_length_a 8.144685
_cell_length_b 22.703325
_cell_length_c 5.031369
_cell_angle_alpha 90.000000
_cell_angle_beta 55.548883
_cell_angle_gamma 90.000000
_cell_volume 767.181403
_symmetry_space_group_name_H-M "C 2"
_symmetry_group_IT_number 5
_symmetry_cell_setting 'monoclinic'
loop_
_space_group_symop_operation_xyz
x,y,z
-x,y,-z
1/2+x,1/2+y,z
1/2-x,1/2+y,-z
loop_
_atom_site_type_symbol
_atom_site_label
_atom_site_fract_x
_atom_site_fract_y
_atom_site_fract_z
Si Si1 0.856952 0.969690 0.388527
Si Si2 0.859774 0.836456 0.383627
Si Si3 0.000000 0.545910 0.500000
Si Si4 0.224460 0.715381 0.679103
Si Si5 0.293291 0.638158 0.099400
O O1 0.784494 0.902220 0.511548
O O2 0.000000 0.988546 0.500000
O O3 0.662099 0.008190 0.510831
O O4 0.000000 0.969651 0.000000
O O5 0.715288 0.782021 0.452155
O O6 0.000000 0.817685 0.500000
O O7 0.000000 0.843591 0.000000
O O8 0.225511 0.676647 0.413520
O O9 0.130109 0.588835 0.193069
O O10 0.331680 0.681835 0.820940
O O11 0.000000 0.719606 0.000000
O O12 0.500000 0.609129 0.000000
#
# Coordination Sequence:
#
# PCOD9128539 Si02
#       5
#     4   4   2   4   4
#     4  10  24  45  71 103 134 181 231 284 345 407
#     4   9  18  37  70  99 132 172 220 283 342 400
#     4  12  26  48  70  98 146 182 240 274 346 418
#     4  11  20  42  69  96 134 181 223 276 348 404
#     4  12  26  42  64 100 138 180 227 283 337 403
#
# _framework density 23.462509000000001
#
# number of rings (size 3 to 8) (size 9 to 14) (size 15 to 20)
#    0.000    1.333    2.222    4.000    0.000    6.222 
#    4.000    0.000    0.000    0.000    0.000    0.000 
#    0.000    0.000    0.000    0.000    0.000    0.000 
#
# Total GULP energy -50330.676782 kJ/mol
# GULP energy per Si atom -5592.297420 kJ/mol
# Density = 2.340911 g / cm^3
# Si number density = 23.462509 Si / 1000 Ang^3
#
#
#
# Elastic Constant Matrix: (Units=GPa)
#
#
# Indices 1 2 3 4 5 6 
#
# 1 160.1174 92.5545 45.8375 0.0000 15.9989 0.0000
# 2 92.5545 163.1885 27.8484 0.0000 6.9883 0.0000
# 3 45.8375 27.8484 114.0756 0.0000 29.5719 0.0000
# 4 0.0000 0.0000 0.0000 2.7091 0.0000 20.0127
# 5 15.9989 6.9883 29.5719 0.0000 42.0794 0.0000
# 6 0.0000 0.0000 0.0000 20.0127 0.0000 27.6005
#
#
#
# Elastic Compliance Matrix: (Units=1/GPa)
#
#
# Indices 1 2 3 4 5 6 
#
# 1 0.010117 -0.005265 -0.002457 0.000000 -0.001245 0.000000
# 2 -0.005265 0.009135 -0.000293 0.000000 0.000691 0.000000
# 3 -0.002457 -0.000293 0.011702 0.000000 -0.007241 0.000000
# 4 0.000000 0.000000 0.000000 -0.084733 0.000000 0.061439
# 5 -0.001245 0.000691 -0.007241 0.000000 0.029212 0.000000
# 6 0.000000 0.000000 0.000000 0.061439 0.000000 -0.008317
#
#
# Mechanical properties :
#
#
# Convention : Reuss Voigt Hill
#
# Bulk Modulus (GPa) = 67.01382 85.54026 76.27704
# Shear Modulus (GPa) = -420.90703 32.55387 -194.17658
#
# Velocity S-wave (km/s) = -13.40839 3.72894 -9.10714
# Velocity P-wave (km/s) = 14.52891 7.42141 8.83210
#
# Compressibility (1/GPa) = 0.01492230
#
# Stress axis : x y z
#
# Youngs Moduli (GPa) = 98.84621 109.47367 85.45516
#
# Poissons Ratio (x) = 0.57640 0.20995
# Poissons Ratio (y) = 0.52045 0.02508
# Poissons Ratio (z) = 0.24285 0.03212
#
# Static dielectric constant tensor:
#      x y z
#    x 1.894710 0.000000 -0.025850 
#    y 0.000000 1.947510 0.000000 
#    z -0.025850 0.000000 1.846150 
# 
# From -- ./inp_files/2120.got.cif
#   From: 2010.05.17/outbox.cif.g08.bks.cpg/sg5_2_cif.got.tgz:2120.got - 2010.06.03 18:56:24.
