data_PCOD9128663
_publ_section_title
;
Structure prediction by ZEFSAII (Michael W. Deem and Ramdas Pophale) SiO2 
 PCOD9128663
Probable space group: C 2
;
_chemical_formula_sum "Si O2"
_cell_formula_units_Z 20
_cell_length_a 17.927181
_cell_length_b 4.788755
_cell_length_c 26.128646
_cell_angle_alpha 90.000000
_cell_angle_beta 158.724949
_cell_angle_gamma 90.000000
_cell_volume 813.904156
_symmetry_space_group_name_H-M "C 2"
_symmetry_group_IT_number 5
_symmetry_cell_setting 'monoclinic'
loop_
_space_group_symop_operation_xyz
x,y,z
-x,y,-z
1/2+x,1/2+y,z
1/2-x,1/2+y,-z
loop_
_atom_site_type_symbol
_atom_site_label
_atom_site_fract_x
_atom_site_fract_y
_atom_site_fract_z
Si Si1 0.279041 0.981910 0.768204
Si Si2 0.024833 0.967744 0.957301
Si Si3 0.826627 0.178640 0.080152
Si Si4 0.156918 0.874713 0.470422
Si Si5 0.714434 0.161086 0.622926
O O1 0.457693 0.785944 0.906229
O O2 0.223403 0.883061 0.675423
O O3 0.082531 0.953193 0.679528
O O4 0.352936 0.298251 0.815813
O O5 0.000000 0.896981 0.000000
O O6 0.237730 0.842095 0.072332
O O7 0.052596 0.046466 0.228661
O O8 0.814286 0.429169 0.030916
O O9 0.205858 0.629382 0.461830
O O10 0.201003 0.782714 0.556953
O O11 0.500000 0.002129 0.500000
#
# Coordination Sequence:
#
# PCOD9128663 Si02
#       5
#     4   4   4   4   4
#     4  11  24  46  67  98 136 181 226 275 337 406
#     4  12  25  43  68 101 140 175 222 284 339 396
#     4  12  24  45  71 102 134 178 230 278 334 408
#     4  11  26  45  69 100 134 176 230 282 337 398
#     4  10  24  47  71  98 137 182 227 278 338 409
#
# _framework density 24.572918000000001
#
# number of rings (size 3 to 8) (size 9 to 14) (size 15 to 20)
#    0.000    0.800    4.000    1.800    5.600    3.200 
#    0.000    9.000    0.000    0.000    0.000    0.000 
#    0.000    0.000    0.000    0.000    0.000    0.000 
#
# Total GULP energy -55876.998703 kJ/mol
# GULP energy per Si atom -5587.699870 kJ/mol
# Density = 2.451699 g / cm^3
# Si number density = 24.572918 Si / 1000 Ang^3
#
#
#
# Elastic Constant Matrix: (Units=GPa)
#
#
# Indices 1 2 3 4 5 6 
#
# 1 153.9812 -7.4949 48.7392 -0.0213 37.0256 0.0053
# 2 -7.4949 49.6822 5.0553 -0.0305 7.6173 -0.0093
# 3 48.7392 5.0553 107.3167 0.0013 31.7146 -0.0067
# 4 -0.0213 -0.0305 0.0013 20.4837 0.0023 10.9773
# 5 37.0256 7.6173 31.7146 0.0023 43.3511 -0.0074
# 6 0.0053 -0.0093 -0.0067 10.9773 -0.0074 27.2588
#
#
#
# Elastic Compliance Matrix: (Units=1/GPa)
#
#
# Indices 1 2 3 4 5 6 
#
# 1 0.008865 0.002543 -0.002266 0.000020 -0.006360 -0.000011
# 2 0.002543 0.021416 -0.000523 0.000041 -0.005553 -0.000011
# 3 -0.002266 -0.000523 0.012469 -0.000005 -0.007094 0.000003
# 4 0.000020 0.000041 -0.000005 0.062255 -0.000028 -0.025070
# 5 -0.006360 -0.005553 -0.007094 -0.000028 0.034665 0.000018
# 6 -0.000011 -0.000011 0.000003 -0.025070 0.000018 0.046781
#
#
# Mechanical properties :
#
#
# Convention : Reuss Voigt Hill
#
# Bulk Modulus (GPa) = 23.66452 44.84213 34.25332
# Shear Modulus (GPa) = 24.87208 35.86409 30.36808
#
# Velocity S-wave (km/s) = 3.18492 3.82448 3.51926
# Velocity P-wave (km/s) = 4.81417 6.14739 5.52117
#
# Compressibility (1/GPa) = 0.04225736
#
# Stress axis : x y z
#
# Youngs Moduli (GPa) = 112.80631 46.69380 80.20135
#
# Poissons Ratio (x) = -0.11875 0.18176
# Poissons Ratio (y) = -0.28687 0.04194
# Poissons Ratio (z) = 0.25565 0.02442
#
# Static dielectric constant tensor:
#      x y z
#    x 1.947730 0.000000 0.029100 
#    y 0.000000 1.923570 0.000010 
#    z 0.029100 0.000010 2.020970 
# 
# From -- ./inp_files/43826.got.cif
#   From: 2010.05.17/outbox.cif.g08.bks.cpg/sg5_22_cif.got.tgz:43826.got - 2010.06.03 18:56:24.
