data_PCOD9128881
_publ_section_title
;
Structure prediction by ZEFSAII (Michael W. Deem and Ramdas Pophale) SiO2 
 PCOD9128881
Probable space group: C 2
;
_chemical_formula_sum "Si O2"
_cell_formula_units_Z 28
_cell_length_a 20.492341
_cell_length_b 8.637605
_cell_length_c 13.681885
_cell_angle_alpha 90.000000
_cell_angle_beta 148.756684
_cell_angle_gamma 90.000000
_cell_volume 1256.102061
_symmetry_space_group_name_H-M "C 2"
_symmetry_group_IT_number 5
_symmetry_cell_setting 'monoclinic'
loop_
_space_group_symop_operation_xyz
x,y,z
-x,y,-z
1/2+x,1/2+y,z
1/2-x,1/2+y,-z
loop_
_atom_site_type_symbol
_atom_site_label
_atom_site_fract_x
_atom_site_fract_y
_atom_site_fract_z
Si Si1 0.948914 0.081380 0.035271
Si Si2 0.360645 0.543244 0.363006
Si Si3 0.610856 0.909338 0.995493
Si Si4 0.196687 0.404196 0.738780
Si Si5 0.332717 0.488578 0.560068
Si Si6 0.509200 0.990912 0.668887
Si Si7 0.926411 0.654826 0.729675
O O1 0.902550 0.256357 0.957961
O O2 0.062563 0.095409 0.256188
O O3 0.000000 0.014231 0.000000
O O4 0.835874 0.971620 0.925185
O O5 0.500000 0.520991 0.500000
O O6 0.257620 0.441923 0.175661
O O7 0.319663 0.719941 0.286903
O O8 0.347643 0.502348 0.461690
O O9 0.553266 0.881255 0.813978
O O10 0.535791 0.066244 0.932014
O O11 0.112166 0.475051 0.717375
O O12 0.126231 0.456757 0.549933
O O13 0.193090 0.542127 0.409771
O O14 0.368540 0.324939 0.657176
O O15 0.491647 0.149361 0.705540
#
# Coordination Sequence:
#
# PCOD9128881 Si02
#       7
#     4   4   4   4   4   4   4
#     4  12  28  44  73 107 144 189 241 293 364 429
#     4  12  28  46  73 105 143 189 244 295 362 425
#     4  10  26  45  71 101 146 181 239 295 359 426
#     4  11  23  45  75  98 142 192 237 291 360 426
#     4  12  27  45  75 101 149 186 248 295 360 431
#     4   9  22  45  73  95 142 182 240 289 359 417
#     4  10  25  46  73 103 142 191 235 300 362 419
#
# _framework density 22.291181000000002
#
# number of rings (size 3 to 8) (size 9 to 14) (size 15 to 20)
#    0.857    0.286    1.429    3.429   12.000    1.143 
#    0.000    0.000    0.000    0.000    0.000    0.000 
#    0.000    0.000    0.000    0.000    0.000    0.000 
#
# Total GULP energy -78039.515720 kJ/mol
# GULP energy per Si atom -5574.251123 kJ/mol
# Density = 2.224045 g / cm^3
# Si number density = 22.291181 Si / 1000 Ang^3
#
#
#
# Elastic Constant Matrix: (Units=GPa)
#
#
# Indices 1 2 3 4 5 6 
#
# 1 95.6641 8.9933 29.6121 0.0000 6.7933 0.0000
# 2 8.9933 80.0726 0.3791 0.0000 23.6729 0.0000
# 3 29.6121 0.3791 101.7985 0.0000 24.7514 0.0000
# 4 0.0000 0.0000 0.0000 10.7803 0.0000 6.4374
# 5 6.7933 23.6729 24.7514 0.0000 41.4597 0.0000
# 6 0.0000 0.0000 0.0000 6.4374 0.0000 24.4039
#
#
#
# Elastic Compliance Matrix: (Units=1/GPa)
#
#
# Indices 1 2 3 4 5 6 
#
# 1 0.011663 -0.001658 -0.003687 0.000000 0.001237 0.000000
# 2 -0.001658 0.015768 0.002979 0.000000 -0.010510 0.000000
# 3 -0.003687 0.002979 0.013045 0.000000 -0.008885 0.000000
# 4 0.000000 0.000000 0.000000 0.110106 0.000000 -0.029044
# 5 0.001237 -0.010510 -0.008885 0.000000 0.035222 0.000000
# 6 0.000000 0.000000 0.000000 -0.029044 0.000000 0.048638
#
#
# Mechanical properties :
#
#
# Convention : Reuss Voigt Hill
#
# Bulk Modulus (GPa) = 27.97730 39.50047 33.73889
# Shear Modulus (GPa) = 19.91327 31.23216 25.57271
#
# Velocity S-wave (km/s) = 2.99210 3.74719 3.39073
# Velocity P-wave (km/s) = 4.95126 6.03991 5.52248
#
# Compressibility (1/GPa) = 0.03574326
#
# Stress axis : x y z
#
# Youngs Moduli (GPa) = 85.74422 63.41935 76.65764
#
# Poissons Ratio (x) = 0.10516 0.28265
# Poissons Ratio (y) = 0.14218 -0.22837
# Poissons Ratio (z) = 0.31615 -0.18893
#
# Static dielectric constant tensor:
#      x y z
#    x 1.867130 0.000000 -0.077120 
#    y 0.000000 1.891910 0.000000 
#    z -0.077120 0.000000 1.848010 
# 
# From -- ./inp_files/56850.got.cif
#   From: 2010.05.17/outbox.cif.g08.bks.cpg/sg5_29_cif.got.tgz:56850.got - 2010.06.03 18:56:24.
