data_PCOD9128331
_publ_section_title
;
Structure prediction by ZEFSAII (Michael W. Deem and Ramdas Pophale) SiO2 
 PCOD9128331
Probable space group: C 2
;
_chemical_formula_sum "Si O2"
_cell_formula_units_Z 28
_cell_length_a 20.093311
_cell_length_b 11.756291
_cell_length_c 16.758737
_cell_angle_alpha 90.000000
_cell_angle_beta 160.398890
_cell_angle_gamma 90.000000
_cell_volume 1328.056572
_symmetry_space_group_name_H-M "C 2"
_symmetry_group_IT_number 5
_symmetry_cell_setting 'monoclinic'
loop_
_space_group_symop_operation_xyz
x,y,z
-x,y,-z
1/2+x,1/2+y,z
1/2-x,1/2+y,-z
loop_
_atom_site_type_symbol
_atom_site_label
_atom_site_fract_x
_atom_site_fract_y
_atom_site_fract_z
Si Si1 0.469351 0.806090 0.059642
Si Si2 0.683457 0.154498 0.502701
Si Si3 0.642515 0.117987 0.734259
Si Si4 0.924319 0.061566 0.550959
Si Si5 0.988028 0.971108 0.801726
Si Si6 0.796066 0.545021 0.857359
Si Si7 0.096026 0.717671 0.235467
O O1 0.669975 0.762409 0.327300
O O2 0.500000 0.791713 0.000000
O O3 0.285731 0.724719 0.876004
O O4 0.421163 0.935748 0.025192
O O5 0.512113 0.154652 0.373127
O O6 0.584314 0.150004 0.305283
O O7 0.834660 0.049746 0.677784
O O8 0.500000 0.085578 0.500000
O O9 0.791664 0.018412 0.930432
O O10 0.791578 0.009842 0.328759
O O11 0.811977 0.180111 0.445944
O O12 0.130865 0.071409 0.737361
O O13 0.949873 0.993518 0.663377
O O14 0.949300 0.845926 0.791567
O O15 0.923107 0.658474 0.990434
#
# Coordination Sequence:
#
# PCOD9128331 Si02
#       7
#     4   4   4   4   4   4   4
#     4  11  23  38  67 103 131 169 225 284 339 404
#     4  10  24  42  66  97 134 175 222 284 344 401
#     4  11  23  43  67  96 135 178 225 282 343 409
#     4  10  24  47  65 103 134 179 228 285 344 400
#     4  10  25  44  66  99 134 178 234 279 344 416
#     4  11  25  42  72 101 137 175 235 281 339 417
#     4  11  24  44  69  94 140 178 222 279 343 410
#
# _framework density 21.083438999999998
#
# number of rings (size 3 to 8) (size 9 to 14) (size 15 to 20)
#    0.000    1.429    1.429    2.143   10.000    1.143 
#    7.714    0.000    0.000    0.000    0.000    0.000 
#    0.000    0.000    0.000    0.000    0.000    0.000 
#
# Total GULP energy -78151.480527 kJ/mol
# GULP energy per Si atom -5582.248609 kJ/mol
# Density = 2.103545 g / cm^3
# Si number density = 21.083439 Si / 1000 Ang^3
#
#
#
# Elastic Constant Matrix: (Units=GPa)
#
#
# Indices 1 2 3 4 5 6 
#
# 1 146.5637 46.0215 64.5752 0.0001 31.0255 -0.0001
# 2 46.0215 146.8251 71.2083 -0.0006 15.7729 -0.0003
# 3 64.5752 71.2083 117.9014 -0.0002 22.9673 0.0000
# 4 0.0001 -0.0006 -0.0002 22.0750 0.0002 -1.0318
# 5 31.0255 15.7729 22.9673 0.0002 41.8399 0.0000
# 6 -0.0001 -0.0003 0.0000 -1.0318 0.0000 20.5671
#
#
#
# Elastic Compliance Matrix: (Units=1/GPa)
#
#
# Indices 1 2 3 4 5 6 
#
# 1 0.009830 -0.000576 -0.004096 0.000000 -0.004823 0.000000
# 2 -0.000576 0.009675 -0.005487 0.000000 -0.000208 0.000000
# 3 -0.004096 -0.005487 0.014606 0.000000 -0.002912 0.000000
# 4 0.000000 0.000000 0.000000 0.045406 0.000000 0.002278
# 5 -0.004823 -0.000208 -0.002912 0.000000 0.029154 0.000000
# 6 0.000000 0.000000 0.000000 0.002278 0.000000 0.048736
#
#
# Mechanical properties :
#
#
# Convention : Reuss Voigt Hill
#
# Bulk Modulus (GPa) = 72.50675 86.10002 79.30339
# Shear Modulus (GPa) = 27.42372 32.19543 29.80957
#
# Velocity S-wave (km/s) = 3.61047 3.91199 3.76425
# Velocity P-wave (km/s) = 7.20039 7.83143 7.52253
#
# Compressibility (1/GPa) = 0.01379182
#
# Stress axis : x y z
#
# Youngs Moduli (GPa) = 101.73272 103.35880 68.46288
#
# Poissons Ratio (x) = 0.05957 0.28043
# Poissons Ratio (y) = 0.05864 0.37567
# Poissons Ratio (z) = 0.41671 0.56715
#
# Static dielectric constant tensor:
#      x y z
#    x 1.764570 0.000000 -0.027620 
#    y 0.000000 1.765950 0.000000 
#    z -0.027620 0.000000 1.817950 
# 
# From -- ./inp_files/62909.got.cif
#   From: 2010.05.17/outbox.cif.g08.bks.cpg/sg5_32_cif.got.tgz:62909.got - 2010.06.03 18:56:24.
