data_PCOD9128653
_publ_section_title
;
Structure prediction by ZEFSAII (Michael W. Deem and Ramdas Pophale) SiO2 
 PCOD9128653
Probable space group: C 2
;
_chemical_formula_sum "Si O2"
_cell_formula_units_Z 30
_cell_length_a 21.413009
_cell_length_b 15.006890
_cell_length_c 15.226997
_cell_angle_alpha 90.000000
_cell_angle_beta 161.937745
_cell_angle_gamma 90.000000
_cell_volume 1517.101571
_symmetry_space_group_name_H-M "C 2"
_symmetry_group_IT_number 5
_symmetry_cell_setting 'monoclinic'
loop_
_space_group_symop_operation_xyz
x,y,z
-x,y,-z
1/2+x,1/2+y,z
1/2-x,1/2+y,-z
loop_
_atom_site_type_symbol
_atom_site_label
_atom_site_fract_x
_atom_site_fract_y
_atom_site_fract_z
Si Si1 0.388699 0.597390 0.657631
Si Si2 0.879754 0.015871 0.459132
Si Si3 0.441676 0.242843 0.744414
Si Si4 0.297118 0.000387 0.428289
Si Si5 0.208476 0.649689 0.729163
Si Si6 0.314546 0.074321 0.970895
Si Si7 0.500000 0.344372 0.000000
Si Si8 0.264177 0.829954 0.694193
O O1 0.341644 0.542436 0.508116
O O2 0.240133 0.680259 0.466755
O O3 0.347178 0.540665 0.689500
O O4 0.616636 0.630257 0.967276
O O5 0.855378 0.909759 0.419011
O O6 0.719918 0.057956 0.178488
O O7 0.099669 0.053160 0.727033
O O8 0.598280 0.174872 0.906201
O O9 0.346159 0.310110 0.545869
O O10 0.522743 0.289274 0.940403
O O11 0.300023 0.066970 0.349615
O O12 0.519229 0.007482 0.767056
O O13 0.198746 0.906384 0.274031
O O14 0.258650 0.737973 0.740895
O O15 0.000000 0.660151 0.500000
O O16 0.500000 0.855195 0.000000
#
# Coordination Sequence:
#
# PCOD9128653 Si02
#       8
#     4   4   4   4   4   4   2   4
#     4  11  21  42  69  94 130 184 224 269 343 403
#     4  11  26  42  69 101 134 178 226 277 346 397
#     4  11  24  43  68  94 135 174 227 278 334 401
#     4  11  22  43  70  95 136 173 229 276 328 403
#     4  12  23  41  69  97 136 180 221 279 347 397
#     4  10  24  47  64  94 144 179 214 277 346 410
#     4  12  24  40  70 106 124 176 236 278 324 402
#     4  12  25  44  66 105 132 175 237 288 322 405
#
# _framework density 19.774550000000001
#
# number of rings (size 3 to 8) (size 9 to 14) (size 15 to 20)
#    0.000    0.800    5.333    2.400    7.467    0.000 
#    0.000    2.667    0.000    0.000    0.000    0.000 
#    0.000    0.000    0.000    0.000    0.000    0.000 
#
# Total GULP energy -83821.949824 kJ/mol
# GULP energy per Si atom -5588.129988 kJ/mol
# Density = 1.972954 g / cm^3
# Si number density = 19.774550 Si / 1000 Ang^3
#
#
#
# Elastic Constant Matrix: (Units=GPa)
#
#
# Indices 1 2 3 4 5 6 
#
# 1 52.8590 15.8012 21.3310 0.0000 -4.4043 0.0000
# 2 15.8012 58.5394 27.8053 0.0000 -3.0104 0.0000
# 3 21.3310 27.8053 119.2516 -0.0001 -5.5232 0.0000
# 4 0.0000 0.0000 -0.0001 27.4604 0.0000 -11.0656
# 5 -4.4043 -3.0104 -5.5232 0.0000 34.0645 0.0000
# 6 0.0000 0.0000 0.0000 -11.0656 0.0000 19.8028
#
#
#
# Elastic Compliance Matrix: (Units=1/GPa)
#
#
# Indices 1 2 3 4 5 6 
#
# 1 0.021499 -0.004407 -0.002728 0.000000 0.001948 0.000000
# 2 -0.004407 0.020146 -0.003882 0.000000 0.000581 0.000000
# 3 -0.002728 -0.003882 0.009820 0.000000 0.000896 0.000000
# 4 0.000000 0.000000 0.000000 0.046999 0.000000 0.026263
# 5 0.001948 0.000581 0.000896 0.000000 0.029805 0.000000
# 6 0.000000 0.000000 0.000000 0.026263 0.000000 0.065173
#
#
# Mechanical properties :
#
#
# Convention : Reuss Voigt Hill
#
# Bulk Modulus (GPa) = 33.97795 40.05834 37.01814
# Shear Modulus (GPa) = 22.19400 27.31305 24.75352
#
# Velocity S-wave (km/s) = 3.35379 3.72051 3.54190
# Velocity P-wave (km/s) = 5.67601 6.22557 5.95714
#
# Compressibility (1/GPa) = 0.02943085
#
# Stress axis : x y z
#
# Youngs Moduli (GPa) = 46.51431 49.63779 101.83048
#
# Poissons Ratio (x) = 0.21877 0.27777
# Poissons Ratio (y) = 0.20500 0.39531
# Poissons Ratio (z) = 0.12688 0.19270
#
# Static dielectric constant tensor:
#      x y z
#    x 1.699110 0.000000 -0.024130 
#    y 0.000000 1.694340 0.000000 
#    z -0.024130 0.000000 1.723860 
# 
# From -- ./inp_files/57149.got.cif
#   From: 2010.05.17/outbox.cif.g08.bks.cpg/sg5_29_cif.got.tgz:57149.got - 2010.06.03 18:56:24.
