data_PCOD9128269
_publ_section_title
;
Structure prediction by ZEFSAII (Michael W. Deem and Ramdas Pophale) SiO2 
 PCOD9128269
Probable space group: C 2
;
_chemical_formula_sum "Si O2"
_cell_formula_units_Z 24
_cell_length_a 9.018480
_cell_length_b 5.303586
_cell_length_c 22.777900
_cell_angle_alpha 90.000000
_cell_angle_beta 77.546176
_cell_angle_gamma 90.000000
_cell_volume 1063.838257
_symmetry_space_group_name_H-M "C 2"
_symmetry_group_IT_number 5
_symmetry_cell_setting 'monoclinic'
loop_
_space_group_symop_operation_xyz
x,y,z
-x,y,-z
1/2+x,1/2+y,z
1/2-x,1/2+y,-z
loop_
_atom_site_type_symbol
_atom_site_label
_atom_site_fract_x
_atom_site_fract_y
_atom_site_fract_z
Si Si1 0.001033 0.197000 0.429508
Si Si2 0.239484 0.579051 0.822670
Si Si3 0.844160 0.714685 0.977795
Si Si4 0.933733 0.427066 0.860028
Si Si5 0.859759 0.697995 0.384308
Si Si6 0.999446 0.746397 0.243962
O O1 0.918712 0.444692 0.410905
O O2 0.177489 0.193351 0.395267
O O3 0.000000 0.205121 0.500000
O O4 0.915550 0.945867 0.414549
O O5 0.314859 0.705067 0.872633
O O6 0.372047 0.455454 0.773055
O O7 0.111661 0.376124 0.853690
O O8 0.137236 0.767480 0.791618
O O9 0.890356 0.652099 0.906594
O O10 0.736930 0.954877 0.995302
O O11 0.000000 0.755212 0.000000
O O12 0.925278 0.500374 0.791786
O O13 0.934684 0.713125 0.313642
#
# Coordination Sequence:
#
# PCOD9128269 Si02
#       6
#     4   4   4   4   4   4
#     4  12  26  48  71 103 142 190 233 285 341 405
#     4  10  24  40  68  93 137 171 222 270 356 406
#     4  12  28  47  72 102 137 182 239 288 342 416
#     4  10  26  42  70  93 139 174 227 280 353 403
#     4  12  26  43  74 102 142 181 238 287 341 415
#     4  10  26  40  68 100 137 173 226 281 352 402
#
# _framework density 22.559820999999999
#
# number of rings (size 3 to 8) (size 9 to 14) (size 15 to 20)
#    1.000    0.000    0.000    5.000   11.667    0.000 
#    0.000    0.000    0.000    0.000    0.000    0.000 
#    0.000    0.000    0.000    0.000    0.000    0.000 
#
# Total GULP energy -67018.795968 kJ/mol
# GULP energy per Si atom -5584.899664 kJ/mol
# Density = 2.250847 g / cm^3
# Si number density = 22.559821 Si / 1000 Ang^3
#
#
#
# Elastic Constant Matrix: (Units=GPa)
#
#
# Indices 1 2 3 4 5 6 
#
# 1 113.5967 26.8281 -13.9280 0.0000 -2.1416 0.0000
# 2 26.8281 103.7921 3.3948 0.0000 3.7433 0.0000
# 3 -13.9280 3.3948 68.4070 0.0000 -9.5843 0.0000
# 4 0.0000 0.0000 0.0000 30.9724 0.0000 3.6716
# 5 -2.1416 3.7433 -9.5843 0.0000 24.8530 0.0000
# 6 0.0000 0.0000 0.0000 3.6716 0.0000 23.9183
#
#
#
# Elastic Compliance Matrix: (Units=1/GPa)
#
#
# Indices 1 2 3 4 5 6 
#
# 1 0.009776 -0.002685 0.002430 0.000000 0.002184 0.000000
# 2 -0.002685 0.010459 -0.001394 0.000000 -0.002344 0.000000
# 3 0.002430 -0.001394 0.016112 0.000000 0.006633 0.000000
# 4 0.000000 0.000000 0.000000 0.032885 0.000000 -0.005048
# 5 0.002184 -0.002344 0.006633 0.000000 0.043336 0.000000
# 6 0.000000 0.000000 0.000000 -0.005048 0.000000 0.042584
#
#
# Mechanical properties :
#
#
# Convention : Reuss Voigt Hill
#
# Bulk Modulus (GPa) = 30.25957 35.37616 32.81787
# Shear Modulus (GPa) = 29.50433 33.91547 31.70990
#
# Velocity S-wave (km/s) = 3.62031 3.88152 3.75319
# Velocity P-wave (km/s) = 5.56037 5.98359 5.77586
#
# Compressibility (1/GPa) = 0.03304739
#
# Stress axis : x y z
#
# Youngs Moduli (GPa) = 102.28800 95.61265 62.06722
#
# Poissons Ratio (x) = 0.25674 -0.15081
# Poissons Ratio (y) = 0.27466 0.08653
# Poissons Ratio (z) = -0.24853 0.13330
#
# Static dielectric constant tensor:
#      x y z
#    x 1.845570 0.000000 -0.015200 
#    y 0.000000 1.880690 0.000000 
#    z -0.015200 0.000000 1.841260 
# 
# From -- ./inp_files/67840.got.cif
#   From: 2010.05.17/outbox.cif.g08.bks.cpg/sg5_34_cif.got.tgz:67840.got - 2010.06.03 18:56:24.
