data_PCOD9128158
_publ_section_title
;
Structure prediction by ZEFSAII (Michael W. Deem and Ramdas Pophale) SiO2 
 PCOD9128158
Probable space group: C 2
;
_chemical_formula_sum "Si O2"
_cell_formula_units_Z 16
_cell_length_a 9.378648
_cell_length_b 13.245273
_cell_length_c 4.877292
_cell_angle_alpha 90.000000
_cell_angle_beta 93.096936
_cell_angle_gamma 90.000000
_cell_volume 604.985803
_symmetry_space_group_name_H-M "C 2"
_symmetry_group_IT_number 5
_symmetry_cell_setting 'monoclinic'
loop_
_space_group_symop_operation_xyz
x,y,z
-x,y,-z
1/2+x,1/2+y,z
1/2-x,1/2+y,-z
loop_
_atom_site_type_symbol
_atom_site_label
_atom_site_fract_x
_atom_site_fract_y
_atom_site_fract_z
Si Si1 0.095211 0.824960 0.772055
Si Si2 0.155813 0.235165 0.939588
Si Si3 0.804443 0.460157 0.062819
Si Si4 0.152684 0.593904 0.418480
O O1 0.000000 0.844134 0.500000
O O2 0.238749 0.756753 0.788305
O O3 0.154511 0.928720 0.906352
O O4 0.000000 0.776430 0.000000
O O5 0.140085 0.350811 0.828820
O O6 0.240077 0.165216 0.737204
O O7 0.000000 0.197087 0.000000
O O8 0.786609 0.535377 0.312450
O O9 0.886095 0.508970 0.813907
O O10 0.000000 0.639502 0.500000
#
# Coordination Sequence:
#
# PCOD9128158 Si02
#       4
#     4   4   4   4
#     4  10  23  47  79 116 158 213 274 335 414 489
#     4  10  26  51  84 128 165 220 282 354 417 497
#     4  10  26  49  83 117 165 223 281 337 419 499
#     4  12  25  49  80 123 175 218 277 342 428 513
#
# _framework density 26.446901
#
# number of rings (size 3 to 8) (size 9 to 14) (size 15 to 20)
#    1.500    0.000    0.000    3.750    0.000    8.000 
#    0.000   10.000    0.000    3.000    0.000    0.000 
#    0.000    0.000    0.000    0.000    0.000    0.000 
#
# Total GULP energy -44757.327904 kJ/mol
# GULP energy per Si atom -5594.665988 kJ/mol
# Density = 2.638671 g / cm^3
# Si number density = 26.446901 Si / 1000 Ang^3
#
#
#
# Elastic Constant Matrix: (Units=GPa)
#
#
# Indices 1 2 3 4 5 6 
#
# 1 213.8135 52.5353 88.0760 0.0000 5.4991 0.0000
# 2 52.5353 143.9901 53.4627 0.0000 -15.9364 0.0000
# 3 88.0760 53.4627 235.9829 0.0000 16.8966 0.0000
# 4 0.0000 0.0000 0.0000 30.6347 0.0000 -9.4458
# 5 5.4991 -15.9364 16.8966 0.0000 46.2307 0.0000
# 6 0.0000 0.0000 0.0000 -9.4458 0.0000 38.0902
#
#
#
# Elastic Compliance Matrix: (Units=1/GPa)
#
#
# Indices 1 2 3 4 5 6 
#
# 1 0.005797 -0.001516 -0.001780 0.000000 -0.000562 0.000000
# 2 -0.001516 0.008513 -0.001628 0.000000 0.003710 0.000000
# 3 -0.001780 -0.001628 0.005438 0.000000 -0.002337 0.000000
# 4 0.000000 0.000000 0.000000 0.035345 0.000000 0.008765
# 5 -0.000562 0.003710 -0.002337 0.000000 0.023831 0.000000
# 6 0.000000 0.000000 0.000000 0.008765 0.000000 0.028427
#
#
# Mechanical properties :
#
#
# Convention : Reuss Voigt Hill
#
# Bulk Modulus (GPa) = 101.01731 109.10385 105.06058
# Shear Modulus (GPa) = 41.49332 49.63862 45.56597
#
# Velocity S-wave (km/s) = 3.96527 4.33704 4.15531
# Velocity P-wave (km/s) = 7.69699 8.15005 7.92676
#
# Compressibility (1/GPa) = 0.00989929
#
# Stress axis : x y z
#
# Youngs Moduli (GPa) = 172.49641 117.46090 183.88472
#
# Poissons Ratio (x) = 0.17812 0.32730
# Poissons Ratio (y) = 0.26158 0.29944
# Poissons Ratio (z) = 0.30703 0.19128
#
# Static dielectric constant tensor:
#      x y z
#    x 2.207760 0.000000 0.060170 
#    y 0.000000 2.207760 0.000000 
#    z 0.060170 0.000000 2.087850 
# 
# From -- ./inp_files/1907.got.cif
#   From: 2010.05.17/outbox.cif.g08.bks.cpg/sg5_1_cif.got.tgz:1907.got - 2010.06.03 18:56:24.
