data_PCOD9128598
_publ_section_title
;
Structure prediction by ZEFSAII (Michael W. Deem and Ramdas Pophale) SiO2 
 PCOD9128598
Probable space group: C 2
;
_chemical_formula_sum "Si O2"
_cell_formula_units_Z 22
_cell_length_a 7.962998
_cell_length_b 11.601015
_cell_length_c 14.770784
_cell_angle_alpha 90.000000
_cell_angle_beta 134.786248
_cell_angle_gamma 90.000000
_cell_volume 968.445816
_symmetry_space_group_name_H-M "C 2"
_symmetry_group_IT_number 5
_symmetry_cell_setting 'monoclinic'
loop_
_space_group_symop_operation_xyz
x,y,z
-x,y,-z
1/2+x,1/2+y,z
1/2-x,1/2+y,-z
loop_
_atom_site_type_symbol
_atom_site_label
_atom_site_fract_x
_atom_site_fract_y
_atom_site_fract_z
Si Si1 0.894295 0.087270 0.651734
Si Si2 0.698105 0.821300 0.286715
Si Si3 0.000000 0.010970 0.500000
Si Si4 0.997753 0.864752 0.224351
Si Si5 0.579881 0.158781 0.130818
Si Si6 0.749163 0.948603 0.954540
O O1 0.173596 0.093115 0.780403
O O2 0.786993 0.201351 0.654298
O O3 0.886121 0.080600 0.540070
O O4 0.828386 0.966299 0.674633
O O5 0.857463 0.816931 0.257326
O O6 0.431757 0.856823 0.157939
O O7 0.802003 0.926262 0.384305
O O8 0.119752 0.762809 0.215198
O O9 0.809227 0.911404 0.079357
O O10 0.383175 0.071104 0.093547
O O11 0.500000 0.194946 0.000000
O O12 0.000000 0.958326 0.000000
#
# Coordination Sequence:
#
# PCOD9128598 Si02
#       6
#     4   4   2   4   4   4
#     4  11  24  46  71  96 138 181 227 285 336 396
#     4  11  24  48  70 100 140 180 225 283 338 400
#     4  10  24  46  70  98 136 180 236 278 334 394
#     4  11  24  41  69 105 139 179 220 276 344 414
#     4  12  23  44  67 102 146 179 220 279 342 406
#     4  12  24  41  70 106 140 182 222 273 347 410
#
# _framework density 22.716812000000001
#
# number of rings (size 3 to 8) (size 9 to 14) (size 15 to 20)
#    0.000    0.727    5.455    3.273    2.545    2.909 
#    0.000    0.000    0.000    0.000    0.000    0.000 
#    0.000    0.000    0.000    0.000    0.000    0.000 
#
# Total GULP energy -61572.200481 kJ/mol
# GULP energy per Si atom -5597.472771 kJ/mol
# Density = 2.266511 g / cm^3
# Si number density = 22.716812 Si / 1000 Ang^3
#
#
#
# Elastic Constant Matrix: (Units=GPa)
#
#
# Indices 1 2 3 4 5 6 
#
# 1 89.3079 50.7819 31.8911 0.0000 -31.0112 0.0000
# 2 50.7819 124.1841 12.2169 0.0000 -40.5882 0.0000
# 3 31.8911 12.2169 83.4095 0.0000 -38.8067 0.0000
# 4 0.0000 0.0000 0.0000 35.3687 0.0000 -16.1420
# 5 -31.0112 -40.5882 -38.8067 0.0000 45.2020 0.0000
# 6 0.0000 0.0000 0.0000 -16.1420 0.0000 46.2807
#
#
#
# Elastic Compliance Matrix: (Units=1/GPa)
#
#
# Indices 1 2 3 4 5 6 
#
# 1 0.016889 -0.005516 -0.004267 0.000000 0.002970 0.000000
# 2 -0.005516 0.014702 0.007221 0.000000 0.015617 0.000000
# 3 -0.004267 0.007221 0.023673 0.000000 0.023880 0.000000
# 4 0.000000 0.000000 0.000000 0.033626 0.000000 0.011728
# 5 0.002970 0.015617 0.023880 0.000000 0.058685 0.000000
# 6 0.000000 0.000000 0.000000 0.011728 0.000000 0.025698
#
#
# Mechanical properties :
#
#
# Convention : Reuss Voigt Hill
#
# Bulk Modulus (GPa) = 19.94403 54.07570 37.00987
# Shear Modulus (GPa) = 25.62651 38.83773 32.23212
#
# Velocity S-wave (km/s) = 3.36234 4.13927 3.77087
# Velocity P-wave (km/s) = 4.88593 6.83379 5.94024
#
# Compressibility (1/GPa) = 0.05014031
#
# Stress axis : x y z
#
# Youngs Moduli (GPa) = 59.21101 68.01929 42.24133
#
# Poissons Ratio (x) = 0.37516 0.18026
# Poissons Ratio (y) = 0.32658 -0.30503
# Poissons Ratio (z) = 0.25268 -0.49118
#
# Static dielectric constant tensor:
#      x y z
#    x 1.871160 0.000000 -0.010650 
#    y 0.000000 1.888950 0.000000 
#    z -0.010650 0.000000 1.837120 
# 
# From -- ./inp_files/50050.got.cif
#   From: 2010.05.17/outbox.cif.g08.bks.cpg/sg5_26_cif.got.tgz:50050.got - 2010.06.03 18:56:24.
