data_PCOD9128722
_publ_section_title
;
Structure prediction by ZEFSAII (Michael W. Deem and Ramdas Pophale) SiO2 
 PCOD9128722
Probable space group: C 2
;
_chemical_formula_sum "Si O2"
_cell_formula_units_Z 16
_cell_length_a 13.942025
_cell_length_b 4.817530
_cell_length_c 20.910618
_cell_angle_alpha 90.000000
_cell_angle_beta 28.594894
_cell_angle_gamma 90.000000
_cell_volume 672.205715
_symmetry_space_group_name_H-M "C 2"
_symmetry_group_IT_number 5
_symmetry_cell_setting 'monoclinic'
loop_
_space_group_symop_operation_xyz
x,y,z
-x,y,-z
1/2+x,1/2+y,z
1/2-x,1/2+y,-z
loop_
_atom_site_type_symbol
_atom_site_label
_atom_site_fract_x
_atom_site_fract_y
_atom_site_fract_z
Si Si1 0.252456 0.951410 0.241959
Si Si2 0.000000 0.828374 0.000000
Si Si3 0.000000 0.937320 0.500000
Si Si4 0.144444 0.134202 0.032970
Si Si5 0.859992 0.652727 0.461870
O O1 0.361050 0.144137 0.127389
O O2 0.139509 0.097577 0.367830
O O3 0.425804 0.762184 0.170674
O O4 0.080734 0.756416 0.312031
O O5 0.863943 0.013295 0.033324
O O6 0.135171 0.742504 0.466755
O O7 0.299765 0.381951 0.953357
O O8 0.696258 0.840202 0.520979
#
# Coordination Sequence:
#
# PCOD9128722 Si02
#       5
#     4   2   2   4   4
#     4  10  25  52  75 112 158 187 264 311 371 460
#     4  12  26  52  72 118 156 200 254 320 366 470
#     4   8  24  50  74 110 146 192 250 316 354 468
#     4  12  27  50  76 115 152 209 247 315 387 445
#     4  10  24  48  75 108 142 199 238 307 381 435
#
# _framework density 23.802236000000001
#
# number of rings (size 3 to 8) (size 9 to 14) (size 15 to 20)
#    1.500    0.000    2.500    0.750    3.500    3.000 
#   13.500    0.000    0.000    0.000    0.000    0.000 
#    0.000    0.000    0.000    0.000    0.000    0.000 
#
# Total GULP energy -44703.950003 kJ/mol
# GULP energy per Si atom -5587.993750 kJ/mol
# Density = 2.374806 g / cm^3
# Si number density = 23.802236 Si / 1000 Ang^3
#
#
#
# Elastic Constant Matrix: (Units=GPa)
#
#
# Indices 1 2 3 4 5 6 
#
# 1 148.5160 50.5153 59.4108 -0.0008 -15.5074 0.0025
# 2 50.5153 109.5464 52.3544 -0.0017 -5.5588 0.0093
# 3 59.4108 52.3544 163.4188 -0.0015 25.3024 0.0018
# 4 -0.0008 -0.0017 -0.0015 19.0907 0.0003 -20.0276
# 5 -15.5074 -5.5588 25.3024 0.0003 38.8734 -0.0011
# 6 0.0025 0.0093 0.0018 -20.0276 -0.0011 83.2670
#
#
#
# Elastic Compliance Matrix: (Units=1/GPa)
#
#
# Indices 1 2 3 4 5 6 
#
# 1 0.009615 -0.002400 -0.003633 0.000000 0.005857 0.000000
# 2 -0.002400 0.012037 -0.003450 -0.000001 0.003009 -0.000001
# 3 -0.003633 -0.003450 0.009838 0.000001 -0.008346 0.000000
# 4 0.000000 -0.000001 0.000001 0.070059 -0.000001 0.016851
# 5 0.005857 0.003009 -0.008346 -0.000001 0.033924 0.000000
# 6 0.000000 -0.000001 0.000000 0.016851 0.000000 0.016063
#
#
# Mechanical properties :
#
#
# Convention : Reuss Voigt Hill
#
# Bulk Modulus (GPa) = 79.85369 82.89357 81.37363
# Shear Modulus (GPa) = 28.62467 45.52626 37.07546
#
# Velocity S-wave (km/s) = 3.47162 4.37817 3.95098
# Velocity P-wave (km/s) = 7.04920 7.77557 7.42127
#
# Compressibility (1/GPa) = 0.01252290
#
# Stress axis : x y z
#
# Youngs Moduli (GPa) = 104.00799 83.08042 101.65158
#
# Poissons Ratio (x) = 0.19939 0.36934
# Poissons Ratio (y) = 0.24961 0.35065
# Poissons Ratio (z) = 0.37791 0.28659
#
# Static dielectric constant tensor:
#      x y z
#    x 1.891300 0.000000 -0.004760 
#    y 0.000000 1.903290 0.000000 
#    z -0.004760 0.000000 1.889730 
# 
# From -- ./inp_files/40915.got.cif
#   From: 2010.05.17/outbox.cif.g08.bks.cpg/sg5_21_cif.got.tgz:40915.got - 2010.06.03 18:56:24.
