data_PCOD9128225
_publ_section_title
;
Structure prediction by ZEFSAII (Michael W. Deem and Ramdas Pophale) SiO2 
 PCOD9128225
Probable space group: C 2
;
_chemical_formula_sum "Si O2"
_cell_formula_units_Z 30
_cell_length_a 8.482554
_cell_length_b 20.455971
_cell_length_c 9.458151
_cell_angle_alpha 90.000000
_cell_angle_beta 67.063803
_cell_angle_gamma 90.000000
_cell_volume 1511.416032
_symmetry_space_group_name_H-M "C 2"
_symmetry_group_IT_number 5
_symmetry_cell_setting 'monoclinic'
loop_
_space_group_symop_operation_xyz
x,y,z
-x,y,-z
1/2+x,1/2+y,z
1/2-x,1/2+y,-z
loop_
_atom_site_type_symbol
_atom_site_label
_atom_site_fract_x
_atom_site_fract_y
_atom_site_fract_z
Si Si1 0.620500 0.788460 0.585105
Si Si2 0.122069 0.726774 0.085740
Si Si3 0.172863 0.941435 0.882699
Si Si4 0.946123 0.844486 0.308997
Si Si5 0.000000 0.950954 0.500000
Si Si6 0.384705 0.834421 0.905663
Si Si7 0.793772 0.523325 0.581487
Si Si8 0.679845 0.170321 0.353562
O O1 0.500000 0.765342 0.500000
O O2 0.783296 0.825155 0.460950
O O3 0.502459 0.833291 0.725400
O O4 0.691396 0.727837 0.648835
O O5 0.166947 0.671454 0.186204
O O6 0.040950 0.780273 0.222832
O O7 0.264748 0.770066 0.955129
O O8 0.000000 0.704397 0.000000
O O9 0.117363 0.878411 0.810496
O O10 0.291083 0.904461 0.952566
O O11 0.255475 0.989520 0.743925
O O12 0.000000 0.972200 0.000000
O O13 0.050431 0.900093 0.356853
O O14 0.161720 0.991410 0.510917
O O15 0.500000 0.826070 0.000000
O O16 0.760536 0.600438 0.608071
O O17 0.000000 0.514427 0.500000
O O18 0.500000 0.183052 0.500000
#
# Coordination Sequence:
#
# PCOD9128225 Si02
#       8
#     4   4   4   4   2   4   4   4
#     4  12  23  37  65 101 132 169 211 278 340 406
#     4  12  21  41  63  93 135 172 207 270 345 407
#     4  11  22  42  63  89 134 176 212 278 341 401
#     4  11  20  36  67  95 125 167 217 264 348 407
#     4  10  24  38  70  98 128 174 224 286 336 394
#     4  12  24  35  59 102 134 156 208 277 342 403
#     4  10  26  47  67  94 131 182 240 283 322 401
#     4  11  24  44  67  93 132 179 234 274 328 406
#
# _framework density 19.848936999999999
#
# number of rings (size 3 to 8) (size 9 to 14) (size 15 to 20)
#    0.000    0.800    6.667    0.800    4.667    0.000 
#    2.400    0.667    2.933    0.000    0.000    0.000 
#    0.000    0.000    0.000    0.000    0.000    0.000 
#
# Total GULP energy -83617.651225 kJ/mol
# GULP energy per Si atom -5574.510082 kJ/mol
# Density = 1.980376 g / cm^3
# Si number density = 19.848937 Si / 1000 Ang^3
#
#
#
# Elastic Constant Matrix: (Units=GPa)
#
#
# Indices 1 2 3 4 5 6 
#
# 1 101.5191 30.4126 26.6487 0.0000 18.0046 0.0000
# 2 30.4126 38.4114 18.8910 0.0000 0.9445 0.0000
# 3 26.6487 18.8910 86.3503 0.0000 -6.4805 0.0000
# 4 0.0000 0.0000 0.0000 26.2054 0.0000 13.5579
# 5 18.0046 0.9445 -6.4805 0.0000 42.3554 0.0000
# 6 0.0000 0.0000 0.0000 13.5579 0.0000 25.6337
#
#
#
# Elastic Compliance Matrix: (Units=1/GPa)
#
#
# Indices 1 2 3 4 5 6 
#
# 1 0.014787 -0.010157 -0.002829 0.000000 -0.006492 0.000000
# 2 -0.010157 0.036263 -0.004588 0.000000 0.002807 0.000000
# 3 -0.002829 -0.004588 0.013713 0.000000 0.003403 0.000000
# 4 0.000000 0.000000 0.000000 0.052536 0.000000 -0.027787
# 5 -0.006492 0.002807 0.003403 0.000000 0.026827 0.000000
# 6 0.000000 0.000000 0.000000 -0.027787 0.000000 0.053708
#
#
# Mechanical properties :
#
#
# Convention : Reuss Voigt Hill
#
# Bulk Modulus (GPa) = 33.76595 42.02060 37.89328
# Shear Modulus (GPa) = 20.58850 28.86080 24.72465
#
# Velocity S-wave (km/s) = 3.22415 3.81730 3.53319
# Velocity P-wave (km/s) = 5.55955 6.37536 5.98138
#
# Compressibility (1/GPa) = 0.02961563
#
# Stress axis : x y z
#
# Youngs Moduli (GPa) = 67.62684 27.57604 72.92443
#
# Poissons Ratio (x) = 0.28009 0.20627
# Poissons Ratio (y) = 0.68689 0.33459
# Poissons Ratio (z) = 0.19129 0.12652
#
# Static dielectric constant tensor:
#      x y z
#    x 1.815750 0.000000 -0.020350 
#    y 0.000000 1.689690 0.000000 
#    z -0.020350 0.000000 1.746600 
# 
# From -- ./inp_files/17317.got.cif
#   From: 2010.05.17/outbox.cif.g08.bks.cpg/sg5_9_cif.got.tgz:17317.got - 2010.06.03 18:56:24.
