data_PCOD9128065
_publ_section_title
;
Structure prediction by ZEFSAII (Michael W. Deem and Ramdas Pophale) SiO2 
 PCOD9128065
Probable space group: C 2
;
_chemical_formula_sum "Si O2"
_cell_formula_units_Z 28
_cell_length_a 23.821911
_cell_length_b 5.522372
_cell_length_c 8.960966
_cell_angle_alpha 90.000000
_cell_angle_beta 96.025775
_cell_angle_gamma 90.000000
_cell_volume 1172.332638
_symmetry_space_group_name_H-M "C 2"
_symmetry_group_IT_number 5
_symmetry_cell_setting 'monoclinic'
loop_
_space_group_symop_operation_xyz
x,y,z
-x,y,-z
1/2+x,1/2+y,z
1/2-x,1/2+y,-z
loop_
_atom_site_type_symbol
_atom_site_label
_atom_site_fract_x
_atom_site_fract_y
_atom_site_fract_z
Si Si1 0.803769 0.353320 0.694686
Si Si2 0.498526 0.701759 0.819279
Si Si3 0.333524 0.181382 0.936166
Si Si4 0.808435 0.116205 0.412529
Si Si5 0.998337 0.702372 0.679503
Si Si6 0.606373 0.440365 0.806515
Si Si7 0.774139 0.475945 0.178724
O O1 0.829595 0.163044 0.585345
O O2 0.754571 0.506985 0.599044
O O3 0.765843 0.203650 0.801330
O O4 0.846772 0.527362 0.793381
O O5 0.472167 0.450256 0.744856
O O6 0.564238 0.667204 0.790359
O O7 0.476414 0.948835 0.739531
O O8 0.500000 0.706614 0.000000
O O9 0.370251 0.392193 0.020346
O O10 0.322894 0.008835 0.073403
O O11 0.270495 0.276305 0.885778
O O12 0.846190 0.965804 0.306813
O O13 0.802970 0.377747 0.334637
O O14 0.000000 0.710403 0.500000
O O15 0.063025 0.727281 0.753845
#
# Coordination Sequence:
#
# PCOD9128065 Si02
#       7
#     4   4   4   4   4   4   4
#     4  11  22  35  61  87 137 183 227 277 327 388
#     4  10  23  45  77 107 136 176 221 294 365 431
#     4  11  21  37  58  96 124 181 231 274 329 397
#     4  11  22  39  59  93 129 184 229 277 333 394
#     4  10  23  46  77 105 136 180 224 284 373 436
#     4  10  25  40  71  96 133 177 234 287 342 419
#     4  11  20  34  61  82 133 180 222 271 329 386
#
# _framework density 23.884005999999999
#
# number of rings (size 3 to 8) (size 9 to 14) (size 15 to 20)
#    0.857    0.571    4.286    1.714    2.000    0.000 
#    0.000    4.286    0.000    0.000    0.000    0.000 
#    0.000    0.000    0.000    0.000    0.000    0.000 
#
# Total GULP energy -78052.542550 kJ/mol
# GULP energy per Si atom -5575.181611 kJ/mol
# Density = 2.382964 g / cm^3
# Si number density = 23.884006 Si / 1000 Ang^3
#
#
#
# Elastic Constant Matrix: (Units=GPa)
#
#
# Indices 1 2 3 4 5 6 
#
# 1 51.0443 2.4400 -3.7115 0.0000 0.0427 0.0000
# 2 2.4400 131.6538 38.0407 0.0000 -10.7861 0.0000
# 3 -3.7115 38.0407 95.7503 0.0000 -20.6241 0.0000
# 4 0.0000 0.0000 0.0000 29.4195 0.0000 -11.6984
# 5 0.0427 -10.7861 -20.6241 0.0000 19.2590 0.0000
# 6 0.0000 0.0000 0.0000 -11.6984 0.0000 4.3792
#
#
#
# Elastic Compliance Matrix: (Units=1/GPa)
#
#
# Indices 1 2 3 4 5 6 
#
# 1 0.019709 -0.000642 0.001212 0.000000 0.000894 0.000000
# 2 -0.000642 0.008635 -0.003137 0.000000 0.001478 0.000000
# 3 0.001212 -0.003137 0.014764 0.000000 0.014050 0.000000
# 4 0.000000 0.000000 0.000000 -0.546032 0.000000 -1.458660
# 5 0.000894 0.001478 0.014050 0.000000 0.067796 0.000000
# 6 0.000000 0.000000 0.000000 -1.458660 0.000000 -3.668283
#
#
# Mechanical properties :
#
#
# Convention : Reuss Voigt Hill
#
# Bulk Modulus (GPa) = 26.33502 39.10967 32.72235
# Shear Modulus (GPa) = -1.22380 26.72348 12.74984
#
# Velocity S-wave (km/s) = -0.71659 3.34860 2.31297
# Velocity P-wave (km/s) = 3.21955 5.60011 4.56764
#
# Compressibility (1/GPa) = 0.03797224
#
# Stress axis : x y z
#
# Youngs Moduli (GPa) = 50.73861 115.80582 67.73438
#
# Poissons Ratio (x) = 0.07436 -0.08207
# Poissons Ratio (y) = 0.03258 0.21250
# Poissons Ratio (z) = -0.06148 0.36331
#
# Static dielectric constant tensor:
#      x y z
#    x 1.887050 0.000000 -0.016570 
#    y 0.000000 2.018930 0.000000 
#    z -0.016570 0.000000 1.950580 
# 
# From -- ./inp_files/32175.got.cif
#   From: 2010.05.17/outbox.cif.g08.bks.cpg/sg5_17_cif.got.tgz:32175.got - 2010.06.03 18:56:24.
