data_PCOD9128519
_publ_section_title
;
Structure prediction by ZEFSAII (Michael W. Deem and Ramdas Pophale) SiO2 
 PCOD9128519
Probable space group: C 2
;
_chemical_formula_sum "Si O2"
_cell_formula_units_Z 28
_cell_length_a 11.773103
_cell_length_b 7.746082
_cell_length_c 16.460360
_cell_angle_alpha 90.000000
_cell_angle_beta 126.438874
_cell_angle_gamma 90.000000
_cell_volume 1207.629038
_symmetry_space_group_name_H-M "C 2"
_symmetry_group_IT_number 5
_symmetry_cell_setting 'monoclinic'
loop_
_space_group_symop_operation_xyz
x,y,z
-x,y,-z
1/2+x,1/2+y,z
1/2-x,1/2+y,-z
loop_
_atom_site_type_symbol
_atom_site_label
_atom_site_fract_x
_atom_site_fract_y
_atom_site_fract_z
Si Si1 0.261853 0.103400 0.753127
Si Si2 0.636568 0.537528 0.525354
Si Si3 0.642300 0.307816 0.009954
Si Si4 0.897624 0.336180 0.611097
Si Si5 0.202874 0.470915 0.787412
Si Si6 0.111329 0.256865 0.209813
Si Si7 0.349426 0.529034 0.129732
O O1 0.215075 0.094165 0.640625
O O2 0.282393 0.304596 0.780587
O O3 0.144769 0.039464 0.770011
O O4 0.382499 0.957591 0.812657
O O5 0.500000 0.433322 0.500000
O O6 0.758501 0.442420 0.527222
O O7 0.578464 0.695666 0.447963
O O8 0.758609 0.433612 0.102498
O O9 0.698644 0.116419 0.048855
O O10 0.500000 0.338052 0.000000
O O11 0.632813 0.353626 0.911337
O O12 0.960237 0.444243 0.307658
O O13 0.857796 0.251198 0.680685
O O14 0.270328 0.647868 0.786721
O O15 0.964652 0.156965 0.138943
#
# Coordination Sequence:
#
# PCOD9128519 Si02
#       7
#     4   4   4   4   4   4   4
#     4  10  24  45  68 101 138 177 230 293 337 413
#     4  11  23  44  69  98 139 177 234 283 346 417
#     4  11  24  42  67 101 134 181 239 281 340 424
#     4  11  25  44  68 105 135 182 234 286 346 422
#     4  11  23  47  69 100 143 179 233 291 348 408
#     4  11  23  45  69  98 141 177 231 287 347 412
#     4  11  24  45  66 101 139 180 234 286 351 409
#
# _framework density 23.185929999999999
#
# number of rings (size 3 to 8) (size 9 to 14) (size 15 to 20)
#    0.000    1.143    5.714    0.000    4.000    4.571 
#    5.143    0.000    0.000    0.000    0.000    0.000 
#    0.000    0.000    0.000    0.000    0.000    0.000 
#
# Total GULP energy -78112.729409 kJ/mol
# GULP energy per Si atom -5579.480672 kJ/mol
# Density = 2.313316 g / cm^3
# Si number density = 23.185930 Si / 1000 Ang^3
#
#
#
# Elastic Constant Matrix: (Units=GPa)
#
#
# Indices 1 2 3 4 5 6 
#
# 1 96.0143 16.9300 16.1107 0.0000 12.6592 0.0000
# 2 16.9300 50.4081 -2.2853 0.0000 3.7393 0.0000
# 3 16.1107 -2.2853 53.6647 0.0000 -3.8352 0.0000
# 4 0.0000 0.0000 0.0000 22.0264 0.0000 -5.6880
# 5 12.6592 3.7393 -3.8352 0.0000 46.1067 0.0000
# 6 0.0000 0.0000 0.0000 -5.6880 0.0000 42.8728
#
#
#
# Elastic Compliance Matrix: (Units=1/GPa)
#
#
# Indices 1 2 3 4 5 6 
#
# 1 0.012263 -0.004054 -0.004095 0.000000 -0.003379 0.000000
# 2 -0.004054 0.021327 0.002093 0.000000 -0.000443 0.000000
# 3 -0.004095 0.002093 0.020141 0.000000 0.002630 0.000000
# 4 0.000000 0.000000 0.000000 0.047011 0.000000 0.006237
# 5 -0.003379 -0.000443 0.002630 0.000000 0.022871 0.000000
# 6 0.000000 0.000000 0.000000 0.006237 0.000000 0.024152
#
#
# Mechanical properties :
#
#
# Convention : Reuss Voigt Hill
#
# Bulk Modulus (GPa) = 24.02709 29.06644 26.54677
# Shear Modulus (GPa) = 28.77717 33.48994 31.13355
#
# Velocity S-wave (km/s) = 3.52681 3.80466 3.66837
# Velocity P-wave (km/s) = 5.19325 5.64482 5.42374
#
# Compressibility (1/GPa) = 0.04161969
#
# Stress axis : x y z
#
# Youngs Moduli (GPa) = 81.54921 46.88840 49.65039
#
# Poissons Ratio (x) = 0.19006 0.20334
# Poissons Ratio (y) = 0.33056 -0.10394
# Poissons Ratio (z) = 0.33398 -0.09816
#
# Static dielectric constant tensor:
#      x y z
#    x 1.927730 0.000000 0.031170 
#    y 0.000000 1.896010 0.000000 
#    z 0.031170 0.000000 1.895110 
# 
# From -- ./inp_files/52503.got.cif
#   From: 2010.05.17/outbox.cif.g08.bks.cpg/sg5_27_cif.got.tgz:52503.got - 2010.06.03 18:56:24.
