data_PCOD9128051
_publ_section_title
;
Structure prediction by ZEFSAII (Michael W. Deem and Ramdas Pophale) SiO2 
 PCOD9128051
Probable space group: C 2
;
_chemical_formula_sum "Si O2"
_cell_formula_units_Z 30
_cell_length_a 29.023220
_cell_length_b 8.344732
_cell_length_c 17.699284
_cell_angle_alpha 90.000000
_cell_angle_beta 162.299836
_cell_angle_gamma 90.000000
_cell_volume 1303.281985
_symmetry_space_group_name_H-M "C 2"
_symmetry_group_IT_number 5
_symmetry_cell_setting 'monoclinic'
loop_
_space_group_symop_operation_xyz
x,y,z
-x,y,-z
1/2+x,1/2+y,z
1/2-x,1/2+y,-z
loop_
_atom_site_type_symbol
_atom_site_label
_atom_site_fract_x
_atom_site_fract_y
_atom_site_fract_z
Si Si1 0.342350 0.658450 0.563565
Si Si2 0.488073 0.149251 0.901050
Si Si3 0.263416 0.182610 0.140372
Si Si4 0.459769 0.939993 0.156147
Si Si5 0.000000 0.935378 0.500000
Si Si6 0.077842 0.013998 0.046048
Si Si7 0.029099 0.004801 0.381132
Si Si8 0.403779 0.129432 0.507746
O O1 0.193667 0.661455 0.383245
O O2 0.388972 0.842024 0.626322
O O3 0.354681 0.585206 0.497662
O O4 0.471900 0.563311 0.810893
O O5 0.554309 0.066950 0.931491
O O6 0.500000 0.057546 0.000000
O O7 0.569453 0.320808 0.036463
O O8 0.370224 0.312656 0.265922
O O9 0.371333 0.092886 0.368889
O O10 0.167139 0.305187 0.042020
O O11 0.138409 0.075882 0.902456
O O12 0.472918 0.018842 0.258742
O O13 0.051970 0.033046 0.507178
O O14 0.244024 0.085349 0.296793
O O15 0.000000 0.077445 0.000000
O O16 0.050864 0.813528 0.406828
#
# Coordination Sequence:
#
# PCOD9128051 Si02
#       8
#     4   4   4   4   2   4   4   4
#     4  11  22  41  62  96 143 184 237 280 330 410
#     4  11  24  36  59  98 145 191 232 277 329 404
#     4  10  24  48  68 106 133 174 233 286 350 416
#     4  11  23  40  65 100 137 183 231 280 334 409
#     4  10  24  44  76  96 138 170 226 302 356 418
#     4  11  22  40  60  96 141 187 235 272 330 403
#     4  10  23  45  72  99 137 179 228 288 355 408
#     4  11  22  43  67  94 135 185 213 290 341 394
#
# _framework density 23.018809999999998
#
# number of rings (size 3 to 8) (size 9 to 14) (size 15 to 20)
#    0.000    1.333    2.667    4.000    3.733    3.733 
#    0.000    2.667    0.000    1.600    0.000    0.000 
#    0.000    0.000    0.000    0.000    0.000    0.000 
#
# Total GULP energy -83693.477175 kJ/mol
# GULP energy per Si atom -5579.565145 kJ/mol
# Density = 2.296642 g / cm^3
# Si number density = 23.018810 Si / 1000 Ang^3
#
#
#
# Elastic Constant Matrix: (Units=GPa)
#
#
# Indices 1 2 3 4 5 6 
#
# 1 118.0402 26.5034 22.1240 0.0000 -9.6776 0.0000
# 2 26.5034 67.7387 28.2380 0.0000 -8.6731 0.0000
# 3 22.1240 28.2380 81.4164 0.0000 -8.3603 0.0000
# 4 0.0000 0.0000 0.0000 40.5193 0.0000 -1.8170
# 5 -9.6776 -8.6731 -8.3603 0.0000 42.7171 0.0000
# 6 0.0000 0.0000 0.0000 -1.8170 0.0000 26.6175
#
#
#
# Elastic Compliance Matrix: (Units=1/GPa)
#
#
# Indices 1 2 3 4 5 6 
#
# 1 0.009509 -0.002963 -0.001425 0.000000 0.001274 0.000000
# 2 -0.002963 0.018422 -0.005377 0.000000 0.002017 0.000000
# 3 -0.001425 -0.005377 0.014685 0.000000 0.001459 0.000000
# 4 0.000000 0.000000 0.000000 0.024755 0.000000 0.001690
# 5 0.001274 0.002017 0.001459 0.000000 0.024393 0.000000
# 6 0.000000 0.000000 0.000000 0.001690 0.000000 0.037685
#
#
# Mechanical properties :
#
#
# Convention : Reuss Voigt Hill
#
# Bulk Modulus (GPa) = 43.32008 46.76956 45.04482
# Shear Modulus (GPa) = 31.91347 34.65946 33.28646
#
# Velocity S-wave (km/s) = 3.72749 3.88455 3.80683
# Velocity P-wave (km/s) = 6.11440 6.36252 6.23969
#
# Compressibility (1/GPa) = 0.02308399
#
# Stress axis : x y z
#
# Youngs Moduli (GPa) = 105.16853 54.28403 68.09832
#
# Poissons Ratio (x) = 0.16085 0.09707
# Poissons Ratio (y) = 0.31162 0.36616
# Poissons Ratio (z) = 0.14990 0.29188
#
# Static dielectric constant tensor:
#      x y z
#    x 1.910960 0.000000 0.017680 
#    y 0.000000 1.821670 0.000000 
#    z 0.017680 0.000000 1.985060 
# 
# From -- ./inp_files/63815.got.cif
#   From: 2010.05.17/outbox.cif.g08.bks.cpg/sg5_32_cif.got.tgz:63815.got - 2010.06.03 18:56:24.
