data_PCOD9128049
_publ_section_title
;
Structure prediction by ZEFSAII (Michael W. Deem and Ramdas Pophale) SiO2 
 PCOD9128049
Probable space group: C 2
;
_chemical_formula_sum "Si O2"
_cell_formula_units_Z 26
_cell_length_a 11.393284
_cell_length_b 15.735816
_cell_length_c 14.072524
_cell_angle_alpha 90.000000
_cell_angle_beta 152.212989
_cell_angle_gamma 90.000000
_cell_volume 1176.168391
_symmetry_space_group_name_H-M "C 2"
_symmetry_group_IT_number 5
_symmetry_cell_setting 'monoclinic'
loop_
_space_group_symop_operation_xyz
x,y,z
-x,y,-z
1/2+x,1/2+y,z
1/2-x,1/2+y,-z
loop_
_atom_site_type_symbol
_atom_site_label
_atom_site_fract_x
_atom_site_fract_y
_atom_site_fract_z
Si Si1 0.000000 0.320500 0.000000
Si Si2 0.317099 0.314185 0.779130
Si Si3 0.204559 0.186462 0.290536
Si Si4 0.500000 0.657462 0.500000
Si Si5 0.000000 0.050249 0.000000
Si Si6 0.060542 0.068529 0.345543
Si Si7 0.288650 0.418899 0.065376
Si Si8 0.477232 0.937871 0.303586
O O1 0.070849 0.261664 0.139566
O O2 0.228686 0.375622 0.123514
O O3 0.231329 0.224550 0.674098
O O4 0.478215 0.371336 0.820444
O O5 0.081489 0.365549 0.659524
O O6 0.500000 0.298165 0.000000
O O7 0.500000 0.200887 0.500000
O O8 0.130561 0.105801 0.173462
O O9 0.122032 0.156426 0.335141
O O10 0.502585 0.597569 0.410145
O O11 0.221667 0.992387 0.121716
O O12 0.294021 0.001397 0.512435
O O13 0.848488 0.015994 0.136950
O O14 0.045339 0.407497 0.821687
#
# Coordination Sequence:
#
# PCOD9128049 Si02
#       8
#     2   4   4   2   2   4   4   4
#     4  11  30  44  70  99 142 182 226 279 358 404
#     4  10  23  45  72  95 131 178 235 277 330 396
#     4  11  24  42  70 101 137 172 227 285 340 397
#     4  12  30  42  62 108 140 178 214 282 360 398
#     4  11  18  40  68 113 120 172 234 279 328 388
#     4  12  27  43  71  99 141 177 227 284 342 407
#     4  11  25  47  69  97 135 184 232 280 332 413
#     4  11  21  42  75  98 130 180 236 275 328 402
#
# _framework density 22.105678000000001
#
# number of rings (size 3 to 8) (size 9 to 14) (size 15 to 20)
#    0.000    0.923    5.385    0.923    8.615    2.462 
#    0.000    0.000    0.000    0.000    0.000    0.000 
#    0.000    0.000    0.000    0.000    0.000    0.000 
#
# Total GULP energy -72586.128372 kJ/mol
# GULP energy per Si atom -5583.548336 kJ/mol
# Density = 2.205536 g / cm^3
# Si number density = 22.105678 Si / 1000 Ang^3
#
#
#
# Elastic Constant Matrix: (Units=GPa)
#
#
# Indices 1 2 3 4 5 6 
#
# 1 112.9691 38.0996 8.2708 0.0112 -27.3574 0.0059
# 2 38.0996 75.4110 7.6657 0.0169 -6.2786 0.0092
# 3 8.2708 7.6657 57.1530 0.0347 -15.0815 0.0208
# 4 0.0112 0.0169 0.0347 -7.6429 0.0123 -17.2155
# 5 -27.3574 -6.2786 -15.0815 0.0123 25.3344 0.0064
# 6 0.0059 0.0092 0.0208 -17.2155 0.0064 54.9532
#
#
#
# Elastic Compliance Matrix: (Units=1/GPa)
#
#
# Indices 1 2 3 4 5 6 
#
# 1 0.014665 -0.006376 0.002960 0.000032 0.016017 0.000006
# 2 -0.006376 0.016371 -0.002396 0.000006 -0.004254 0.000001
# 3 0.002960 -0.002396 0.021445 0.000084 0.015368 0.000016
# 4 0.000032 0.000006 0.000084 -0.076710 0.000129 -0.024031
# 5 0.016017 -0.004254 0.015368 0.000129 0.064863 0.000026
# 6 0.000006 0.000001 0.000016 -0.024031 0.000026 0.010669
#
#
# Mechanical properties :
#
#
# Convention : Reuss Voigt Hill
#
# Bulk Modulus (GPa) = 24.47584 39.28948 31.88266
# Shear Modulus (GPa) = 65.31981 27.29541 46.30761
#
# Velocity S-wave (km/s) = 5.44179 3.51774 4.58190
# Velocity P-wave (km/s) = 7.11198 5.85759 6.51505
#
# Compressibility (1/GPa) = 0.04085662
#
# Stress axis : x y z
#
# Youngs Moduli (GPa) = 68.19175 61.08208 46.63033
#
# Poissons Ratio (x) = 0.38947 -0.13801
# Poissons Ratio (y) = 0.43480 0.11171
# Poissons Ratio (z) = -0.20182 0.14634
#
# Static dielectric constant tensor:
#      x y z
#    x 1.950200 0.000000 -0.102080 
#    y 0.000000 1.779110 -0.000010 
#    z -0.102080 -0.000010 1.889200 
# 
# From -- ./inp_files/53251.got.cif
#   From: 2010.05.17/outbox.cif.g08.bks.cpg/sg5_27_cif.got.tgz:53251.got - 2010.06.03 18:56:24.
