data_PCOD9128542
_publ_section_title
;
Structure prediction by ZEFSAII (Michael W. Deem and Ramdas Pophale) SiO2 
 PCOD9128542
Probable space group: C 2
;
_chemical_formula_sum "Si O2"
_cell_formula_units_Z 22
_cell_length_a 15.021841
_cell_length_b 11.004857
_cell_length_c 17.490601
_cell_angle_alpha 90.000000
_cell_angle_beta 161.811245
_cell_angle_gamma 90.000000
_cell_volume 902.554646
_symmetry_space_group_name_H-M "C 2"
_symmetry_group_IT_number 5
_symmetry_cell_setting 'monoclinic'
loop_
_space_group_symop_operation_xyz
x,y,z
-x,y,-z
1/2+x,1/2+y,z
1/2-x,1/2+y,-z
loop_
_atom_site_type_symbol
_atom_site_label
_atom_site_fract_x
_atom_site_fract_y
_atom_site_fract_z
Si Si1 0.740326 0.148190 0.555881
Si Si2 0.194811 0.210283 0.558257
Si Si3 0.229783 0.855650 0.819561
Si Si4 0.000000 0.025362 0.500000
Si Si5 0.821228 0.431756 0.229669
Si Si6 0.210590 0.337150 0.966628
O O1 0.826152 0.133761 0.537333
O O2 0.511958 0.256413 0.368611
O O3 0.015315 0.215142 0.816696
O O4 0.565365 0.033729 0.446373
O O5 0.232689 0.116250 0.656583
O O6 0.926832 0.301063 0.346802
O O7 0.466661 0.295337 0.777381
O O8 0.119744 0.950131 0.667755
O O9 0.500000 0.794672 0.000000
O O10 0.311359 0.904236 0.969951
O O11 0.844701 0.412404 0.155999
O O12 0.500000 0.457888 0.000000
#
# Coordination Sequence:
#
# PCOD9128542 Si02
#       6
#     4   4   4   2   4   4
#     4  10  24  45  71 107 149 195 253 314 378 444
#     4  10  25  43  72 108 151 198 250 311 372 455
#     4  11  25  44  72 105 151 197 254 310 368 453
#     4  12  26  46  72 108 150 200 258 302 380 448
#     4  11  24  47  80 111 154 201 255 313 390 461
#     4  10  24  48  71 111 155 196 258 304 390 447
#
# _framework density 24.375254999999999
#
# number of rings (size 3 to 8) (size 9 to 14) (size 15 to 20)
#    0.000    1.455    0.000    2.727   10.182    6.545 
#    3.273    6.364    0.000    0.000    0.000    0.000 
#    0.000    0.000    0.000    0.000    0.000    0.000 
#
# Total GULP energy -61454.190502 kJ/mol
# GULP energy per Si atom -5586.744591 kJ/mol
# Density = 2.431978 g / cm^3
# Si number density = 24.375255 Si / 1000 Ang^3
#
#
#
# Elastic Constant Matrix: (Units=GPa)
#
#
# Indices 1 2 3 4 5 6 
#
# 1 138.5978 68.1559 34.1034 -0.0510 -14.7611 -0.0205
# 2 68.1559 100.3758 32.4220 -0.1764 2.3671 -0.0560
# 3 34.1034 32.4220 89.9824 -0.1326 10.5396 -0.1084
# 4 -0.0510 -0.1764 -0.1326 19.9062 -0.0336 14.6616
# 5 -14.7611 2.3671 10.5396 -0.0336 45.9093 0.0066
# 6 -0.0205 -0.0560 -0.1084 14.6616 0.0066 30.5992
#
#
#
# Elastic Compliance Matrix: (Units=1/GPa)
#
#
# Indices 1 2 3 4 5 6 
#
# 1 0.011999 -0.007481 -0.002414 -0.000050 0.004798 0.000009
# 2 -0.007481 0.015945 -0.002602 0.000137 -0.002630 -0.000050
# 3 -0.002414 -0.002602 0.013401 0.000035 -0.003719 0.000025
# 4 -0.000050 0.000137 0.000035 0.077635 0.000031 -0.037199
# 5 0.004798 -0.002630 -0.003719 0.000031 0.024314 -0.000035
# 6 0.000009 -0.000050 0.000025 -0.037199 -0.000035 0.050504
#
#
# Mechanical properties :
#
#
# Convention : Reuss Voigt Hill
#
# Bulk Modulus (GPa) = 61.15617 66.47984 63.81800
# Shear Modulus (GPa) = 22.29735 32.23458 27.26596
#
# Velocity S-wave (km/s) = 3.02777 3.64047 3.34816
# Velocity P-wave (km/s) = 6.11286 6.70846 6.41757
#
# Compressibility (1/GPa) = 0.01635158
#
# Stress axis : x y z
#
# Youngs Moduli (GPa) = 83.34179 62.71708 74.61942
#
# Poissons Ratio (x) = 0.46917 0.18014
# Poissons Ratio (y) = 0.62345 0.19414
# Poissons Ratio (z) = 0.20120 0.16317
#
# Static dielectric constant tensor:
#      x y z
#    x 2.106380 -0.000140 0.027960 
#    y -0.000140 1.901980 -0.000080 
#    z 0.027960 -0.000080 1.950170 
# 
# From -- ./inp_files/61673.got.cif
#   From: 2010.05.17/outbox.cif.g08.bks.cpg/sg5_31_cif.got.tgz:61673.got - 2010.06.03 18:56:24.
