data_PCOD9128794
_publ_section_title
;
Structure prediction by ZEFSAII (Michael W. Deem and Ramdas Pophale) SiO2 
 PCOD9128794
Probable space group: C 2
;
_chemical_formula_sum "Si O2"
_cell_formula_units_Z 22
_cell_length_a 20.847875
_cell_length_b 8.728598
_cell_length_c 9.918026
_cell_angle_alpha 90.000000
_cell_angle_beta 144.111459
_cell_angle_gamma 90.000000
_cell_volume 1057.998381
_symmetry_space_group_name_H-M "C 2"
_symmetry_group_IT_number 5
_symmetry_cell_setting 'monoclinic'
loop_
_space_group_symop_operation_xyz
x,y,z
-x,y,-z
1/2+x,1/2+y,z
1/2-x,1/2+y,-z
loop_
_atom_site_type_symbol
_atom_site_label
_atom_site_fract_x
_atom_site_fract_y
_atom_site_fract_z
Si Si1 0.564912 0.671710 0.317876
Si Si2 0.819831 0.460976 0.354534
Si Si3 0.216375 0.962877 0.748804
Si Si4 0.169394 0.760910 0.930207
Si Si5 0.166089 0.207286 0.194612
Si Si6 0.500000 0.123725 0.500000
O O1 0.608217 0.832685 0.450538
O O2 0.613361 0.536912 0.494487
O O3 0.617917 0.671961 0.259422
O O4 0.434105 0.671731 0.078635
O O5 0.772619 0.601157 0.358676
O O6 0.898171 0.522779 0.370909
O O7 0.712044 0.382133 0.109831
O O8 0.196027 0.833577 0.828503
O O9 0.295072 0.880118 0.773736
O O10 0.269647 0.106527 0.918200
O O11 0.041899 0.722170 0.697711
#
# Coordination Sequence:
#
# PCOD9128794 Si02
#       6
#     4   4   4   4   4   2
#     4  10  25  40  67  91 125 170 209 259 315 363
#     4  11  24  41  62  94 127 161 210 256 311 380
#     4  11  21  43  62  91 129 161 207 262 307 377
#     4  11  23  39  60  94 123 164 202 253 318 369
#     4  11  22  44  64  93 124 167 216 257 306 378
#     4  12  22  38  62  88 128 162 194 256 316 366
#
# _framework density 20.793982
#
# number of rings (size 3 to 8) (size 9 to 14) (size 15 to 20)
#    0.000    1.091    3.636    2.182    2.545    0.000 
#    0.000    0.000    0.000    8.727    0.000    0.000 
#    0.000    0.000    0.000    0.000    0.000    0.000 
#
# Total GULP energy -61344.837703 kJ/mol
# GULP energy per Si atom -5576.803428 kJ/mol
# Density = 2.074665 g / cm^3
# Si number density = 20.793982 Si / 1000 Ang^3
#
#
#
# Elastic Constant Matrix: (Units=GPa)
#
#
# Indices 1 2 3 4 5 6 
#
# 1 30.5084 31.1678 -1.5240 0.0000 1.4472 0.0000
# 2 31.1678 112.9489 36.2510 0.0000 4.9621 0.0000
# 3 -1.5240 36.2510 97.2638 0.0000 7.2211 0.0000
# 4 0.0000 0.0000 0.0000 22.6054 0.0000 1.5840
# 5 1.4472 4.9621 7.2211 0.0000 25.5778 0.0000
# 6 0.0000 0.0000 0.0000 1.5840 0.0000 26.6550
#
#
#
# Elastic Compliance Matrix: (Units=1/GPa)
#
#
# Indices 1 2 3 4 5 6 
#
# 1 0.049193 -0.015663 0.006730 0.000000 -0.001645 0.000000
# 2 -0.015663 0.015064 -0.005831 0.000000 -0.000390 0.000000
# 3 0.006730 -0.005831 0.012772 0.000000 -0.002855 0.000000
# 4 0.000000 0.000000 0.000000 0.044422 0.000000 -0.002640
# 5 -0.001645 -0.000390 -0.002855 0.000000 0.040071 0.000000
# 6 0.000000 0.000000 0.000000 -0.002640 0.000000 0.037673
#
#
# Mechanical properties :
#
#
# Convention : Reuss Voigt Hill
#
# Bulk Modulus (GPa) = 21.05118 41.39006 31.22062
# Shear Modulus (GPa) = 20.44517 26.62273 23.53395
#
# Velocity S-wave (km/s) = 3.13904 3.58202 3.36782
# Velocity P-wave (km/s) = 4.82533 6.08736 5.49271
#
# Compressibility (1/GPa) = 0.04750327
#
# Stress axis : x y z
#
# Youngs Moduli (GPa) = 20.32803 66.38277 78.29617
#
# Poissons Ratio (x) = 1.03972 -0.52697
# Poissons Ratio (y) = 0.31839 0.45654
# Poissons Ratio (z) = -0.13682 0.38708
#
# Static dielectric constant tensor:
#      x y z
#    x 1.736560 0.000000 -0.025140 
#    y 0.000000 1.779290 0.000000 
#    z -0.025140 0.000000 1.776530 
# 
# From -- ./inp_files/22893.got.cif
#   From: 2010.05.17/outbox.cif.g08.bks.cpg/sg5_12_cif.got.tgz:22893.got - 2010.06.03 18:56:24.
