data_PCOD9128200
_publ_section_title
;
Structure prediction by ZEFSAII (Michael W. Deem and Ramdas Pophale) SiO2 
 PCOD9128200
Probable space group: C 2
;
_chemical_formula_sum "Si O2"
_cell_formula_units_Z 14
_cell_length_a 5.164869
_cell_length_b 19.557242
_cell_length_c 5.504006
_cell_angle_alpha 90.000000
_cell_angle_beta 83.991321
_cell_angle_gamma 90.000000
_cell_volume 552.908477
_symmetry_space_group_name_H-M "C 2"
_symmetry_group_IT_number 5
_symmetry_cell_setting 'monoclinic'
loop_
_space_group_symop_operation_xyz
x,y,z
-x,y,-z
1/2+x,1/2+y,z
1/2-x,1/2+y,-z
loop_
_atom_site_type_symbol
_atom_site_label
_atom_site_fract_x
_atom_site_fract_y
_atom_site_fract_z
Si Si1 0.000000 0.830050 0.500000
Si Si2 0.155782 0.065137 0.727034
Si Si3 0.729307 0.210209 0.164299
Si Si4 0.719829 0.923943 0.162378
O O1 0.850608 0.778749 0.692570
O O2 0.790064 0.876478 0.381963
O O3 0.249834 0.142314 0.674121
O O4 0.000000 0.044865 0.500000
O O5 0.348285 0.001868 0.756101
O O6 0.000000 0.071223 0.000000
O O7 0.500000 0.194245 0.000000
O O8 0.000000 0.220785 0.000000
O O9 0.500000 0.898864 0.000000
O O10 0.000000 0.927153 0.000000
#
# Coordination Sequence:
#
# PCOD9128200 Si02
#       4
#     2   4   4   4
#     4  12  28  50  82 114 166 212 262 336 412 486
#     4  10  23  50  82 116 155 209 274 335 396 479
#     4  11  28  49  76 117 159 207 268 330 402 480
#     4  11  26  51  78 114 156 209 270 329 399 482
#
# _framework density 25.320644999999999
#
# number of rings (size 3 to 8) (size 9 to 14) (size 15 to 20)
#    0.000    1.143    1.429    1.714    8.000    8.000 
#    0.000    0.000    0.000    0.000    0.000    0.000 
#    0.000    0.000    0.000    0.000    0.000    0.000 
#
# Total GULP energy -39228.729134 kJ/mol
# GULP energy per Si atom -5604.104162 kJ/mol
# Density = 2.526301 g / cm^3
# Si number density = 25.320645 Si / 1000 Ang^3
#
#
#
# Elastic Constant Matrix: (Units=GPa)
#
#
# Indices 1 2 3 4 5 6 
#
# 1 142.8253 15.7870 39.6908 0.0000 13.5082 0.0000
# 2 15.7870 175.2890 19.9812 0.0000 27.0498 0.0000
# 3 39.6908 19.9812 104.9950 0.0000 35.5483 0.0000
# 4 0.0000 0.0000 0.0000 33.6170 0.0000 32.3938
# 5 13.5082 27.0498 35.5483 0.0000 65.1162 0.0000
# 6 0.0000 0.0000 0.0000 32.3938 0.0000 -65.3645
#
#
#
# Elastic Compliance Matrix: (Units=1/GPa)
#
#
# Indices 1 2 3 4 5 6 
#
# 1 0.007849 -0.000393 -0.002940 0.000000 0.000140 0.000000
# 2 -0.000393 0.006127 -0.000225 0.000000 -0.002341 0.000000
# 3 -0.002940 -0.000225 0.012807 0.000000 -0.006289 0.000000
# 4 0.000000 0.000000 0.000000 0.020132 0.000000 0.009977
# 5 0.000140 -0.002341 -0.006289 0.000000 0.019734 0.000000
# 6 0.000000 0.000000 0.000000 0.009977 0.000000 -0.010354
#
#
# Mechanical properties :
#
#
# Convention : Reuss Voigt Hill
#
# Bulk Modulus (GPa) = 50.84416 63.78083 57.31249
# Shear Modulus (GPa) = 71.46260 29.85042 50.65651
#
# Velocity S-wave (km/s) = 5.31830 3.43723 4.47766
# Velocity P-wave (km/s) = 7.60501 6.40287 7.02968
#
# Compressibility (1/GPa) = 0.01966794
#
# Stress axis : x y z
#
# Youngs Moduli (GPa) = 127.40968 163.20765 78.07970
#
# Poissons Ratio (x) = 0.06421 0.22952
# Poissons Ratio (y) = 0.05012 0.01755
# Poissons Ratio (z) = 0.37453 0.03668
#
# Static dielectric constant tensor:
#      x y z
#    x 1.996630 0.000000 -0.092340 
#    y 0.000000 1.978270 0.000000 
#    z -0.092340 0.000000 2.128700 
# 
# From -- ./inp_files/407.got.cif
#   From: 2010.05.17/outbox.cif.g08.bks.cpg/sg5_1_cif.got.tgz:407.got - 2010.06.03 18:56:24.
