data_PCOD9128134
_publ_section_title
;
Structure prediction by ZEFSAII (Michael W. Deem and Ramdas Pophale) SiO2 
 PCOD9128134
Probable space group: C 2
;
_chemical_formula_sum "Si O2"
_cell_formula_units_Z 30
_cell_length_a 18.591818
_cell_length_b 6.901245
_cell_length_c 21.835154
_cell_angle_alpha 90.000000
_cell_angle_beta 31.951052
_cell_angle_gamma 90.000000
_cell_volume 1482.589608
_symmetry_space_group_name_H-M "C 2"
_symmetry_group_IT_number 5
_symmetry_cell_setting 'monoclinic'
loop_
_space_group_symop_operation_xyz
x,y,z
-x,y,-z
1/2+x,1/2+y,z
1/2-x,1/2+y,-z
loop_
_atom_site_type_symbol
_atom_site_label
_atom_site_fract_x
_atom_site_fract_y
_atom_site_fract_z
Si Si1 0.242283 0.490390 0.707037
Si Si2 0.346531 0.320580 0.757486
Si Si3 0.931765 0.496499 0.427527
Si Si4 0.693156 0.469446 0.910772
Si Si5 0.610433 0.364984 0.834972
Si Si6 0.562087 0.708267 0.240197
Si Si7 0.000000 0.265401 0.500000
Si Si8 0.829975 0.133245 0.320558
O O1 0.278938 0.370863 0.741379
O O2 0.121363 0.639462 0.809708
O O3 0.370096 0.626406 0.599350
O O4 0.212087 0.343179 0.674387
O O5 0.477040 0.183833 0.652806
O O6 0.390789 0.518947 0.757121
O O7 0.241740 0.191360 0.872633
O O8 0.777256 0.556980 0.551936
O O9 0.959005 0.339482 0.355102
O O10 0.986230 0.399027 0.450523
O O11 0.688539 0.398897 0.842772
O O12 0.805583 0.342104 0.864107
O O13 0.543218 0.435321 0.044146
O O14 0.673700 0.489048 0.734490
O O15 0.480003 0.644782 0.239942
#
# Coordination Sequence:
#
# PCOD9128134 Si02
#       8
#     4   4   4   4   4   4   2   4
#     4  12  22  40  69  99 128 175 220 269 333 392
#     4  11  21  43  70  94 127 177 221 261 338 395
#     4  11  24  39  67  97 139 169 221 276 323 401
#     4  10  23  47  70  96 130 174 229 279 325 394
#     4  11  23  45  71  99 131 167 231 286 320 388
#     4  11  26  45  65  98 136 179 217 271 340 399
#     4  12  20  40  68  96 134 168 224 278 318 398
#     4  12  27  42  65 105 137 173 221 274 337 397
#
# _framework density 20.234864000000002
#
# number of rings (size 3 to 8) (size 9 to 14) (size 15 to 20)
#    0.000    0.800    5.333    2.400    1.867    3.200 
#    4.800    0.000    0.000    0.000    0.000    0.000 
#    0.000    0.000    0.000    0.000    0.000    0.000 
#
# Total GULP energy -83900.692138 kJ/mol
# GULP energy per Si atom -5593.379476 kJ/mol
# Density = 2.018881 g / cm^3
# Si number density = 20.234864 Si / 1000 Ang^3
#
#
#
# Elastic Constant Matrix: (Units=GPa)
#
#
# Indices 1 2 3 4 5 6 
#
# 1 47.3556 4.0160 -6.4987 -0.0001 -16.8313 0.0000
# 2 4.0160 107.3090 24.3530 -0.0005 -5.7633 0.0000
# 3 -6.4987 24.3530 82.4964 -0.0001 -18.7840 0.0000
# 4 -0.0001 -0.0005 -0.0001 16.9866 0.0002 -5.9942
# 5 -16.8313 -5.7633 -18.7840 0.0002 24.1804 0.0000
# 6 0.0000 0.0000 0.0000 -5.9942 0.0000 22.5740
#
#
#
# Elastic Compliance Matrix: (Units=1/GPa)
#
#
# Indices 1 2 3 4 5 6 
#
# 1 0.033705 -0.001930 0.010281 0.000000 0.030987 0.000000
# 2 -0.001930 0.010099 -0.003512 0.000000 -0.001665 0.000000
# 3 0.010281 -0.003512 0.018718 0.000000 0.020860 0.000000
# 4 0.000000 0.000000 0.000000 0.064957 0.000000 0.017248
# 5 0.030987 -0.001665 0.020860 0.000000 0.078732 0.000000
# 6 0.000000 0.000000 0.000000 0.017248 0.000000 0.048879
#
#
# Mechanical properties :
#
#
# Convention : Reuss Voigt Hill
#
# Bulk Modulus (GPa) = 13.85088 31.21128 22.53108
# Shear Modulus (GPa) = 18.55429 27.10092 22.82761
#
# Velocity S-wave (km/s) = 3.03140 3.66364 3.36241
# Velocity P-wave (km/s) = 4.37177 5.77532 5.12185
#
# Compressibility (1/GPa) = 0.07219757
#
# Stress axis : x y z
#
# Youngs Moduli (GPa) = 29.66934 99.02171 53.42437
#
# Poissons Ratio (x) = 0.19114 -0.54923
# Poissons Ratio (y) = 0.05727 0.18765
# Poissons Ratio (z) = -0.30502 0.34780
#
# Static dielectric constant tensor:
#      x y z
#    x 1.687820 0.000000 -0.004350 
#    y 0.000000 1.698590 0.000000 
#    z -0.004350 0.000000 1.723890 
# 
# From -- ./inp_files/69369.got.cif
#   From: 2010.05.17/outbox.cif.g08.bks.cpg/sg5_35_cif.got.tgz:69369.got - 2010.06.03 18:56:24.
