data_PCOD9128748
_publ_section_title
;
Structure prediction by ZEFSAII (Michael W. Deem and Ramdas Pophale) SiO2 
 PCOD9128748
Probable space group: C 2
;
_chemical_formula_sum "Si O2"
_cell_formula_units_Z 16
_cell_length_a 17.955048
_cell_length_b 6.553695
_cell_length_c 7.227594
_cell_angle_alpha 90.000000
_cell_angle_beta 42.020186
_cell_angle_gamma 90.000000
_cell_volume 569.308033
_symmetry_space_group_name_H-M "C 2"
_symmetry_group_IT_number 5
_symmetry_cell_setting 'monoclinic'
loop_
_space_group_symop_operation_xyz
x,y,z
-x,y,-z
1/2+x,1/2+y,z
1/2-x,1/2+y,-z
loop_
_atom_site_type_symbol
_atom_site_label
_atom_site_fract_x
_atom_site_fract_y
_atom_site_fract_z
Si Si1 0.602738 0.611590 0.451066
Si Si2 0.527561 0.235394 0.231838
Si Si3 0.811238 0.425027 0.150765
Si Si4 0.253411 0.462513 0.307640
O O1 0.500000 0.636215 0.500000
O O2 0.558715 0.419461 0.662128
O O3 0.721969 0.515693 0.169166
O O4 0.646882 0.831973 0.435579
O O5 0.500000 0.215951 0.500000
O O6 0.641305 0.331942 0.947722
O O7 0.563052 0.005677 0.104392
O O8 0.771580 0.488903 0.428691
O O9 0.710877 0.686638 0.820851
#
# Coordination Sequence:
#
# PCOD9128748 Si02
#       4
#     4   4   4   4
#     4  10  24  49  79 124 173 221 281 352 441 509
#     4  10  24  49  79 124 173 221 281 352 441 509
#     4  11  23  49  86 126 169 222 286 362 424 511
#     4  11  23  49  86 126 169 222 286 362 424 511
#
# _framework density 28.104291
#
# number of rings (size 3 to 8) (size 9 to 14) (size 15 to 20)
#    0.000    1.500    5.000    0.000    0.000    5.000 
#   36.000    2.500    0.000    0.000    0.000    0.000 
#    0.000    0.000    0.000    0.000    0.000    0.000 
#
# Total GULP energy -44578.034671 kJ/mol
# GULP energy per Si atom -5572.254334 kJ/mol
# Density = 2.804032 g / cm^3
# Si number density = 28.104291 Si / 1000 Ang^3
#
#
#
# Elastic Constant Matrix: (Units=GPa)
#
#
# Indices 1 2 3 4 5 6 
#
# 1 70.1643 54.7486 32.5987 0.0000 -4.1988 0.0000
# 2 54.7486 221.8549 78.4750 0.0000 -18.8984 0.0000
# 3 32.5987 78.4750 198.3085 0.0000 -7.0634 0.0000
# 4 0.0000 0.0000 0.0000 94.7269 0.0000 -21.4117
# 5 -4.1988 -18.8984 -7.0634 0.0000 57.7241 0.0000
# 6 0.0000 0.0000 0.0000 -21.4117 0.0000 43.9667
#
#
#
# Elastic Compliance Matrix: (Units=1/GPa)
#
#
# Indices 1 2 3 4 5 6 
#
# 1 0.017978 -0.003957 -0.001395 0.000000 -0.000158 0.000000
# 2 -0.003957 0.006239 -0.001764 0.000000 0.001539 0.000000
# 3 -0.001395 -0.001764 0.005972 0.000000 0.000052 0.000000
# 4 0.000000 0.000000 0.000000 0.011862 0.000000 0.005777
# 5 -0.000158 0.001539 0.000052 0.000000 0.017822 0.000000
# 6 0.000000 0.000000 0.000000 0.005777 0.000000 0.025558
#
#
# Mechanical properties :
#
#
# Convention : Reuss Voigt Hill
#
# Bulk Modulus (GPa) = 62.66486 91.33026 76.99756
# Shear Modulus (GPa) = 47.62731 60.91725 54.27228
#
# Velocity S-wave (km/s) = 4.12109 4.66074 4.39920
# Velocity P-wave (km/s) = 6.70748 7.84415 7.29798
#
# Compressibility (1/GPa) = 0.01595791
#
# Stress axis : x y z
#
# Youngs Moduli (GPa) = 55.62257 160.28841 167.45504
#
# Poissons Ratio (x) = 0.63419 0.23365
# Poissons Ratio (y) = 0.22007 0.29532
# Poissons Ratio (z) = 0.07761 0.28268
#
# Static dielectric constant tensor:
#      x y z
#    x 2.334190 0.000000 0.006970 
#    y 0.000000 2.416940 0.000000 
#    z 0.006970 0.000000 2.132630 
# 
# From -- ./inp_files/28635.got.cif
#   From: 2010.05.17/outbox.cif.g08.bks.cpg/sg5_15_cif.got.tgz:28635.got - 2010.06.03 18:56:24.
