data_PCOD9128944
_publ_section_title
;
Structure prediction by ZEFSAII (Michael W. Deem and Ramdas Pophale) SiO2 
 PCOD9128944
Probable space group: C 2
;
_chemical_formula_sum "Si O2"
_cell_formula_units_Z 20
_cell_length_a 6.307973
_cell_length_b 13.183483
_cell_length_c 9.650479
_cell_angle_alpha 90.000000
_cell_angle_beta 91.885619
_cell_angle_gamma 90.000000
_cell_volume 802.109441
_symmetry_space_group_name_H-M "C 2"
_symmetry_group_IT_number 5
_symmetry_cell_setting 'monoclinic'
loop_
_space_group_symop_operation_xyz
x,y,z
-x,y,-z
1/2+x,1/2+y,z
1/2-x,1/2+y,-z
loop_
_atom_site_type_symbol
_atom_site_label
_atom_site_fract_x
_atom_site_fract_y
_atom_site_fract_z
Si Si1 0.284860 0.177480 0.984203
Si Si2 0.884566 0.008715 0.848087
Si Si3 0.560051 0.828520 0.782905
Si Si4 0.806584 0.506922 0.756792
Si Si5 0.500000 0.108199 0.500000
Si Si6 0.000000 0.205805 0.500000
O O1 0.785326 0.118803 0.879555
O O2 0.126637 0.245882 0.894994
O O3 0.344750 0.084374 0.882490
O O4 0.500000 0.239278 0.000000
O O5 0.055857 0.019128 0.729372
O O6 0.728496 0.919388 0.805920
O O7 0.000000 0.987395 0.000000
O O8 0.544312 0.774492 0.635569
O O9 0.345078 0.891231 0.802208
O O10 0.951586 0.539240 0.632558
O O11 0.746248 0.159691 0.518072
#
# Coordination Sequence:
#
# PCOD9128944 Si02
#       6
#     4   4   4   4   2   2
#     4  11  23  51  80 120 171 212 281 350 418 510
#     4  10  25  49  77 121 166 218 279 349 427 500
#     4  12  26  51  83 120 166 226 285 343 432 505
#     4  11  26  51  78 115 163 224 282 346 426 498
#     4  12  29  56  83 118 172 224 287 354 413 504
#     4  12  31  52  83 128 166 230 285 350 421 506
#
# _framework density 24.934255
#
# number of rings (size 3 to 8) (size 9 to 14) (size 15 to 20)
#    0.000    0.800    4.000    1.200    5.600    0.000 
#   32.400    0.000    0.000    0.000    0.000    0.000 
#    0.000    0.000    0.000    0.000    0.000    0.000 
#
# Total GULP energy -55697.521574 kJ/mol
# GULP energy per Si atom -5569.752157 kJ/mol
# Density = 2.487750 g / cm^3
# Si number density = 24.934255 Si / 1000 Ang^3
#
#
#
# Elastic Constant Matrix: (Units=GPa)
#
#
# Indices 1 2 3 4 5 6 
#
# 1 180.9415 81.1000 66.6310 0.0000 -13.2337 0.0000
# 2 81.1000 118.7605 44.4273 0.0000 -0.1502 0.0000
# 3 66.6310 44.4273 119.2334 0.0000 -6.9394 0.0000
# 4 0.0000 0.0000 0.0000 180.1119 0.0000 -69.7535
# 5 -13.2337 -0.1502 -6.9394 0.0000 52.0838 0.0000
# 6 0.0000 0.0000 0.0000 -69.7535 0.0000 111.6613
#
#
#
# Elastic Compliance Matrix: (Units=1/GPa)
#
#
# Indices 1 2 3 4 5 6 
#
# 1 0.009049 -0.005027 -0.003075 0.000000 0.001875 0.000000
# 2 -0.005027 0.012588 -0.001969 0.000000 -0.001503 0.000000
# 3 -0.003075 -0.001969 0.010877 0.000000 0.000662 0.000000
# 4 0.000000 0.000000 0.000000 0.007324 0.000000 0.004575
# 5 0.001875 -0.001503 0.000662 0.000000 0.019760 0.000000
# 6 0.000000 0.000000 0.000000 0.004575 0.000000 0.011814
#
#
# Mechanical properties :
#
#
# Convention : Reuss Voigt Hill
#
# Bulk Modulus (GPa) = 80.81729 89.25020 85.03375
# Shear Modulus (GPa) = 52.25920 83.88988 68.07454
#
# Velocity S-wave (km/s) = 4.58304 5.80667 5.23076
# Velocity P-wave (km/s) = 7.77742 8.99047 8.40585
#
# Compressibility (1/GPa) = 0.01237359
#
# Stress axis : x y z
#
# Youngs Moduli (GPa) = 110.50715 79.44278 91.93548
#
# Poissons Ratio (x) = 0.39936 0.28268
# Poissons Ratio (y) = 0.55552 0.18098
# Poissons Ratio (z) = 0.33978 0.15639
#
# Static dielectric constant tensor:
#      x y z
#    x 2.306350 0.000000 0.124730 
#    y 0.000000 1.969510 0.000000 
#    z 0.124730 0.000000 1.919440 
# 
# From -- ./inp_files/33158.got.cif
#   From: 2010.05.17/outbox.cif.g08.bks.cpg/sg5_17_cif.got.tgz:33158.got - 2010.06.03 18:56:24.
