data_PCOD9128322
_publ_section_title
;
Structure prediction by ZEFSAII (Michael W. Deem and Ramdas Pophale) SiO2 
 PCOD9128322
Probable space group: C 2
;
_chemical_formula_sum "Si O2"
_cell_formula_units_Z 22
_cell_length_a 5.143081
_cell_length_b 24.051431
_cell_length_c 7.855514
_cell_angle_alpha 90.000000
_cell_angle_beta 84.919704
_cell_angle_gamma 90.000000
_cell_volume 967.897660
_symmetry_space_group_name_H-M "C 2"
_symmetry_group_IT_number 5
_symmetry_cell_setting 'monoclinic'
loop_
_space_group_symop_operation_xyz
x,y,z
-x,y,-z
1/2+x,1/2+y,z
1/2-x,1/2+y,-z
loop_
_atom_site_type_symbol
_atom_site_label
_atom_site_fract_x
_atom_site_fract_y
_atom_site_fract_z
Si Si1 0.762311 0.168950 0.883716
Si Si2 0.941413 0.957019 0.205053
Si Si3 0.000000 0.473215 0.500000
Si Si4 0.368388 0.789389 0.818859
Si Si5 0.350533 0.563547 0.670330
Si Si6 0.121423 0.846504 0.310905
O O1 0.831085 0.224657 0.776312
O O2 0.721786 0.113257 0.778987
O O3 0.500000 0.182578 0.000000
O O4 0.000000 0.158784 0.000000
O O5 0.141099 0.912080 0.272524
O O6 0.690801 0.944684 0.346348
O O7 0.968279 0.023633 0.225627
O O8 0.000000 0.947766 0.000000
O O9 0.169385 0.516164 0.602188
O O10 0.596611 0.819172 0.703985
O O11 0.092227 0.820339 0.807854
O O12 0.500000 0.790868 0.000000
O O13 0.500000 0.588605 0.500000
O O14 0.000000 0.836919 0.500000
#
# Coordination Sequence:
#
# PCOD9128322 Si02
#       6
#     4   4   2   4   4   4
#     4  11  25  45  73 100 140 186 243 301 356 437
#     4  11  25  44  70 104 142 194 240 300 369 440
#     4  10  24  44  66 104 154 180 248 296 368 440
#     4  11  24  47  70 101 139 189 242 298 361 434
#     4  10  24  42  66 102 142 186 237 300 358 438
#     4  12  26  45  71 105 143 186 242 301 365 437
#
# _framework density 22.729676000000001
#
# number of rings (size 3 to 8) (size 9 to 14) (size 15 to 20)
#    0.000    1.091    0.000    6.545   12.727    1.455 
#    1.636    0.000    0.000    0.000    0.000    0.000 
#    0.000    0.000    0.000    0.000    0.000    0.000 
#
# Total GULP energy -61334.360875 kJ/mol
# GULP energy per Si atom -5575.850989 kJ/mol
# Density = 2.267794 g / cm^3
# Si number density = 22.729676 Si / 1000 Ang^3
#
#
#
# Elastic Constant Matrix: (Units=GPa)
#
#
# Indices 1 2 3 4 5 6 
#
# 1 98.6092 32.7818 28.7109 0.0000 -14.1443 0.0000
# 2 32.7818 135.4714 34.4429 0.0000 -17.1141 0.0000
# 3 28.7109 34.4429 122.2224 0.0000 -26.7055 0.0000
# 4 0.0000 0.0000 0.0000 8.3215 0.0000 -27.0490
# 5 -14.1443 -17.1141 -26.7055 0.0000 34.5010 0.0000
# 6 0.0000 0.0000 0.0000 -27.0490 0.0000 -4.4484
#
#
#
# Elastic Compliance Matrix: (Units=1/GPa)
#
#
# Indices 1 2 3 4 5 6 
#
# 1 0.011664 -0.002099 -0.001602 0.000000 0.002500 0.000000
# 2 -0.002099 0.008537 -0.001415 0.000000 0.002279 0.000000
# 3 -0.001602 -0.001415 0.010423 0.000000 0.006709 0.000000
# 4 0.000000 0.000000 0.000000 0.005787 0.000000 -0.035190
# 5 0.002500 0.002279 0.006709 0.000000 0.036334 0.000000
# 6 0.000000 0.000000 0.000000 -0.035190 0.000000 -0.010826
#
#
# Mechanical properties :
#
#
# Convention : Reuss Voigt Hill
#
# Bulk Modulus (GPa) = 49.03887 60.90822 54.97355
# Shear Modulus (GPa) = 63.33265 25.03266 44.18265
#
# Velocity S-wave (km/s) = 5.28431 3.32222 4.41367
# Velocity P-wave (km/s) = 7.67161 6.44757 7.08607
#
# Compressibility (1/GPa) = 0.02039199
#
# Stress axis : x y z
#
# Youngs Moduli (GPa) = 85.73356 117.13390 95.94402
#
# Poissons Ratio (x) = 0.24590 0.15370
# Poissons Ratio (y) = 0.17998 0.13573
# Poissons Ratio (z) = 0.13735 0.16571
#
# Static dielectric constant tensor:
#      x y z
#    x 2.323380 0.000000 0.217370 
#    y 0.000000 1.797270 0.000000 
#    z 0.217370 0.000000 1.954540 
# 
# From -- ./inp_files/12453.got.cif
#   From: 2010.05.17/outbox.cif.g08.bks.cpg/sg5_7_cif.got.tgz:12453.got - 2010.06.03 18:56:24.
