data_PCOD9128656
_publ_section_title
;
Structure prediction by ZEFSAII (Michael W. Deem and Ramdas Pophale) SiO2 
 PCOD9128656
Probable space group: C 2
;
_chemical_formula_sum "Si O2"
_cell_formula_units_Z 30
_cell_length_a 11.600438
_cell_length_b 10.807154
_cell_length_c 20.209449
_cell_angle_alpha 90.000000
_cell_angle_beta 31.362140
_cell_angle_gamma 90.000000
_cell_volume 1318.607265
_symmetry_space_group_name_H-M "C 2"
_symmetry_group_IT_number 5
_symmetry_cell_setting 'monoclinic'
loop_
_space_group_symop_operation_xyz
x,y,z
-x,y,-z
1/2+x,1/2+y,z
1/2-x,1/2+y,-z
loop_
_atom_site_type_symbol
_atom_site_label
_atom_site_fract_x
_atom_site_fract_y
_atom_site_fract_z
Si Si1 0.506170 0.790200 0.417744
Si Si2 0.559596 0.188679 0.632824
Si Si3 0.181983 0.544615 0.354969
Si Si4 0.159833 0.319252 0.859704
Si Si5 0.500000 0.200294 0.000000
Si Si6 0.763869 0.467213 0.373305
Si Si7 0.015062 0.242613 0.198306
Si Si8 0.722052 0.072139 0.773120
O O1 0.500000 0.758393 0.500000
O O2 0.243926 0.793623 0.532435
O O3 0.599805 0.678015 0.328460
O O4 0.662380 0.909960 0.329956
O O5 0.428021 0.156308 0.631593
O O6 0.360608 0.227092 0.778812
O O7 0.670311 0.060213 0.600841
O O8 0.421935 0.601687 0.253969
O O9 0.000000 0.523326 0.500000
O O10 0.023287 0.276115 0.860821
O O11 0.288080 0.442744 0.773614
O O12 0.000000 0.337386 0.000000
O O13 0.456307 0.122899 0.088135
O O14 0.266823 0.264141 0.097724
O O15 0.500000 0.457296 0.500000
O O16 0.869896 0.332594 0.315861
O O17 0.853445 0.535304 0.263187
#
# Coordination Sequence:
#
# PCOD9128656 Si02
#       8
#     4   4   4   4   2   4   4   4
#     4  11  23  42  68 107 138 179 235 300 356 423
#     4  11  23  40  71 106 137 190 232 291 364 420
#     4  10  25  42  66 106 142 178 228 304 365 424
#     4  10  24  47  69 100 142 193 237 291 354 432
#     4  12  28  46  68 100 138 196 234 286 350 428
#     4  11  22  45  74 104 141 179 237 297 358 425
#     4  10  26  47  68 103 138 187 237 292 359 425
#     4  11  23  45  66 100 139 185 239 287 350 421
#
# _framework density 22.751276000000001
#
# number of rings (size 3 to 8) (size 9 to 14) (size 15 to 20)
#    0.000    1.333    3.333    0.400    7.467    2.133 
#    6.000    0.000    0.000    0.000    0.000    0.000 
#    0.000    0.000    0.000    0.000    0.000    0.000 
#
# Total GULP energy -83657.965518 kJ/mol
# GULP energy per Si atom -5577.197701 kJ/mol
# Density = 2.269949 g / cm^3
# Si number density = 22.751276 Si / 1000 Ang^3
#
#
#
# Elastic Constant Matrix: (Units=GPa)
#
#
# Indices 1 2 3 4 5 6 
#
# 1 61.0082 30.2084 31.3885 0.0000 -15.6247 0.0001
# 2 30.2084 96.8472 46.2046 -0.0002 -18.2073 0.0000
# 3 31.3885 46.2046 102.9563 -0.0010 -8.7546 0.0005
# 4 0.0000 -0.0002 -0.0010 35.9462 0.0002 5.4932
# 5 -15.6247 -18.2073 -8.7546 0.0002 43.1363 -0.0002
# 6 0.0001 0.0000 0.0005 5.4932 -0.0002 27.0945
#
#
#
# Elastic Compliance Matrix: (Units=1/GPa)
#
#
# Indices 1 2 3 4 5 6 
#
# 1 0.021959 -0.003621 -0.004603 0.000000 0.005491 0.000000
# 2 -0.003621 0.014622 -0.005133 0.000000 0.003818 0.000000
# 3 -0.004603 -0.005133 0.013324 0.000000 -0.001130 0.000000
# 4 0.000000 0.000000 0.000000 0.028709 0.000000 -0.005820
# 5 0.005491 0.003818 -0.001130 0.000000 0.026554 0.000000
# 6 0.000000 0.000000 0.000000 -0.005820 0.000000 0.038088
#
#
# Mechanical properties :
#
#
# Convention : Reuss Voigt Hill
#
# Bulk Modulus (GPa) = 43.12166 52.93499 48.02833
# Shear Modulus (GPa) = 28.13748 31.43606 29.78677
#
# Velocity S-wave (km/s) = 3.52055 3.72119 3.62226
# Velocity P-wave (km/s) = 5.95990 6.46377 6.21694
#
# Compressibility (1/GPa) = 0.02319020
#
# Stress axis : x y z
#
# Youngs Moduli (GPa) = 45.54025 68.39042 75.05405
#
# Poissons Ratio (x) = 0.24765 0.34544
# Poissons Ratio (y) = 0.16491 0.38528
# Poissons Ratio (z) = 0.20960 0.35107
#
# Static dielectric constant tensor:
#      x y z
#    x 1.924790 0.000000 -0.059440 
#    y 0.000000 1.954620 0.000000 
#    z -0.059440 0.000000 1.949520 
# 
# From -- ./inp_files/65337.got.cif
#   From: 2010.05.17/outbox.cif.g08.bks.cpg/sg5_33_cif.got.tgz:65337.got - 2010.06.03 18:56:24.
