data_PCOD9128054
_publ_section_title
;
Structure prediction by ZEFSAII (Michael W. Deem and Ramdas Pophale) SiO2 
 PCOD9128054
Probable space group: C 2
;
_chemical_formula_sum "Si O2"
_cell_formula_units_Z 18
_cell_length_a 12.116246
_cell_length_b 8.676677
_cell_length_c 12.089678
_cell_angle_alpha 90.000000
_cell_angle_beta 143.555472
_cell_angle_gamma 90.000000
_cell_volume 755.014053
_symmetry_space_group_name_H-M "C 2"
_symmetry_group_IT_number 5
_symmetry_cell_setting 'monoclinic'
loop_
_space_group_symop_operation_xyz
x,y,z
-x,y,-z
1/2+x,1/2+y,z
1/2-x,1/2+y,-z
loop_
_atom_site_type_symbol
_atom_site_label
_atom_site_fract_x
_atom_site_fract_y
_atom_site_fract_z
Si Si1 0.296136 0.979900 0.301822
Si Si2 0.000000 0.949965 0.500000
Si Si3 0.192870 0.281346 0.108246
Si Si4 0.273847 0.570221 0.522237
Si Si5 0.965029 0.351681 0.245042
O O1 0.500000 0.043960 0.500000
O O2 0.194254 0.970580 0.338024
O O3 0.355581 0.836732 0.273282
O O4 0.199272 0.101046 0.143451
O O5 0.859563 0.854507 0.310100
O O6 0.882743 0.038597 0.497695
O O7 0.000000 0.346170 0.000000
O O8 0.178031 0.317043 0.967374
O O9 0.061734 0.521334 0.321695
O O10 0.357123 0.736842 0.623700
#
# Coordination Sequence:
#
# PCOD9128054 Si02
#       5
#     4   2   4   4   4
#     4  10  23  45  73 101 148 197 241 301 368 434
#     4  12  26  42  74 110 152 198 246 308 368 440
#     4  12  23  47  70 107 147 202 242 301 377 441
#     4  11  24  46  70 110 153 193 242 312 362 439
#     4  11  26  45  76 107 148 197 252 297 377 442
#
# _framework density 23.840615
#
# number of rings (size 3 to 8) (size 9 to 14) (size 15 to 20)
#    0.000    0.889    5.556    0.000   10.889    0.000 
#    0.000    0.000    0.000    6.667    0.000    0.000 
#    0.000    0.000    0.000    0.000    0.000    0.000 
#
# Total GULP energy -50152.259296 kJ/mol
# GULP energy per Si atom -5572.473255 kJ/mol
# Density = 2.378635 g / cm^3
# Si number density = 23.840615 Si / 1000 Ang^3
#
#
#
# Elastic Constant Matrix: (Units=GPa)
#
#
# Indices 1 2 3 4 5 6 
#
# 1 157.8435 16.1245 36.2614 0.0000 -44.9825 0.0000
# 2 16.1245 26.0862 45.3473 0.0000 -16.6080 0.0000
# 3 36.2614 45.3473 170.6728 0.0000 -29.2325 0.0000
# 4 0.0000 0.0000 0.0000 36.7131 0.0000 0.3533
# 5 -44.9825 -16.6080 -29.2325 0.0000 46.9484 0.0000
# 6 0.0000 0.0000 0.0000 0.3533 0.0000 24.1029
#
#
#
# Elastic Compliance Matrix: (Units=1/GPa)
#
#
# Indices 1 2 3 4 5 6 
#
# 1 0.008767 0.001212 -0.000753 0.000000 0.008360 0.000000
# 2 0.001212 0.082310 -0.018963 0.000000 0.018471 0.000000
# 3 -0.000753 -0.018963 0.010953 0.000000 -0.000610 0.000000
# 4 0.000000 0.000000 0.000000 0.027242 0.000000 -0.000399
# 5 0.008360 0.018471 -0.000610 0.000000 0.035464 0.000000
# 6 0.000000 0.000000 0.000000 -0.000399 0.000000 0.041495
#
#
# Mechanical properties :
#
#
# Convention : Reuss Voigt Hill
#
# Bulk Modulus (GPa) = 15.37946 61.11877 38.24911
# Shear Modulus (GPa) = 18.87406 38.67751 28.77578
#
# Velocity S-wave (km/s) = 2.81673 4.03219 3.47797
# Velocity P-wave (km/s) = 4.12838 6.88260 5.67511
#
# Compressibility (1/GPa) = 0.06502178
#
# Stress axis : x y z
#
# Youngs Moduli (GPa) = 114.06527 12.14915 91.29714
#
# Poissons Ratio (x) = -0.01472 0.06873
# Poissons Ratio (y) = -0.13824 1.73131
# Poissons Ratio (z) = 0.08587 0.23039
#
# Static dielectric constant tensor:
#      x y z
#    x 1.974890 0.000000 0.009550 
#    y 0.000000 1.997910 0.000000 
#    z 0.009550 0.000000 1.899850 
# 
# From -- ./inp_files/38637.got.cif
#   From: 2010.05.17/outbox.cif.g08.bks.cpg/sg5_20_cif.got.tgz:38637.got - 2010.06.03 18:56:24.
