data_PCOD9128771
_publ_section_title
;
Structure prediction by ZEFSAII (Michael W. Deem and Ramdas Pophale) SiO2 
 PCOD9128771
Probable space group: C 2
;
_chemical_formula_sum "Si O2"
_cell_formula_units_Z 24
_cell_length_a 10.966115
_cell_length_b 9.576550
_cell_length_c 19.456333
_cell_angle_alpha 90.000000
_cell_angle_beta 26.631063
_cell_angle_gamma 90.000000
_cell_volume 915.876989
_symmetry_space_group_name_H-M "C 2"
_symmetry_group_IT_number 5
_symmetry_cell_setting 'monoclinic'
loop_
_space_group_symop_operation_xyz
x,y,z
-x,y,-z
1/2+x,1/2+y,z
1/2-x,1/2+y,-z
loop_
_atom_site_type_symbol
_atom_site_label
_atom_site_fract_x
_atom_site_fract_y
_atom_site_fract_z
Si Si1 0.279963 0.246240 0.717974
Si Si2 0.218821 0.306318 0.464743
Si Si3 0.426472 0.094716 0.775879
Si Si4 0.021628 0.060326 0.239231
Si Si5 0.247468 0.316458 0.206611
Si Si6 0.305946 0.956863 0.964004
O O1 0.601265 0.277177 0.556842
O O2 0.243730 0.174617 0.811430
O O3 0.182546 0.146494 0.706978
O O4 0.092101 0.380438 0.813651
O O5 0.291127 0.171979 0.382028
O O6 0.354798 0.443689 0.364421
O O7 0.910585 0.325172 0.641428
O O8 0.399207 0.935263 0.765479
O O9 0.661272 0.092970 0.101112
O O10 0.185775 0.166854 0.204976
O O11 0.224839 0.989602 0.082332
O O12 0.559183 0.362383 0.057921
#
# Coordination Sequence:
#
# PCOD9128771 Si02
#       6
#     4   4   4   4   4   4
#     4  10  26  47  73 105 149 192 237 297 381 430
#     4  10  27  49  72 107 152 192 244 309 366 445
#     4  10  24  51  70 104 156 190 236 311 374 427
#     4  12  27  45  81 107 144 196 250 296 377 433
#     4  12  25  47  77 108 146 193 254 304 361 442
#     4  12  26  46  79 109 146 194 248 305 367 446
#
# _framework density 26.204393
#
# number of rings (size 3 to 8) (size 9 to 14) (size 15 to 20)
#    1.000    0.000    3.333    1.500    2.333    7.333 
#    0.000    0.000    7.333    0.000    0.000    0.000 
#    0.000    0.000    0.000    0.000    0.000    0.000 
#
# Total GULP energy -67261.018724 kJ/mol
# GULP energy per Si atom -5605.084894 kJ/mol
# Density = 2.614475 g / cm^3
# Si number density = 26.204393 Si / 1000 Ang^3
#
#
#
# Elastic Constant Matrix: (Units=GPa)
#
#
# Indices 1 2 3 4 5 6 
#
# 1 94.6758 33.9596 25.0585 -0.0068 -2.6418 0.0004
# 2 33.9596 92.1178 16.5384 0.0009 6.8687 0.0013
# 3 25.0585 16.5384 120.7220 -0.0168 -0.1450 0.0104
# 4 -0.0068 0.0009 -0.0168 33.4565 0.0041 10.5792
# 5 -2.6418 6.8687 -0.1450 0.0041 42.3929 -0.0022
# 6 0.0004 0.0013 0.0104 10.5792 -0.0022 46.1890
#
#
#
# Elastic Compliance Matrix: (Units=1/GPa)
#
#
# Indices 1 2 3 4 5 6 
#
# 1 0.012736 -0.004442 -0.002033 0.000001 0.001507 0.000000
# 2 -0.004442 0.012819 -0.000837 -0.000001 -0.002357 0.000000
# 3 -0.002033 -0.000837 0.008820 0.000005 0.000039 -0.000003
# 4 0.000001 -0.000001 0.000005 0.032223 -0.000003 -0.007381
# 5 0.001507 -0.002357 0.000039 -0.000003 0.024065 0.000002
# 6 0.000000 0.000000 -0.000003 -0.007381 0.000002 0.023341
#
#
# Mechanical properties :
#
#
# Convention : Reuss Voigt Hill
#
# Bulk Modulus (GPa) = 50.63180 50.95872 50.79526
# Shear Modulus (GPa) = 36.97870 39.87163 38.42516
#
# Velocity S-wave (km/s) = 3.76062 3.90495 3.83347
# Velocity P-wave (km/s) = 6.18225 6.31034 6.24662
#
# Compressibility (1/GPa) = 0.01975043
#
# Stress axis : x y z
#
# Youngs Moduli (GPa) = 78.51743 78.00689 113.37563
#
# Poissons Ratio (x) = 0.34654 0.23052
# Poissons Ratio (y) = 0.34881 0.09488
# Poissons Ratio (z) = 0.15964 0.06528
#
# Static dielectric constant tensor:
#      x y z
#    x 2.121140 0.000000 0.034970 
#    y 0.000000 2.038180 0.000010 
#    z 0.034970 0.000010 2.024230 
# 
# From -- ./inp_files/65213.got.cif
#   From: 2010.05.17/outbox.cif.g08.bks.cpg/sg5_33_cif.got.tgz:65213.got - 2010.06.03 18:56:24.
