data_PCOD9128027
_publ_section_title
;
Structure prediction by ZEFSAII (Michael W. Deem and Ramdas Pophale) SiO2 
 PCOD9128027
Probable space group: C 2
;
_chemical_formula_sum "Si O2"
_cell_formula_units_Z 20
_cell_length_a 30.456641
_cell_length_b 7.050735
_cell_length_c 10.458690
_cell_angle_alpha 90.000000
_cell_angle_beta 158.289027
_cell_angle_gamma 90.000000
_cell_volume 830.820128
_symmetry_space_group_name_H-M "C 2"
_symmetry_group_IT_number 5
_symmetry_cell_setting 'monoclinic'
loop_
_space_group_symop_operation_xyz
x,y,z
-x,y,-z
1/2+x,1/2+y,z
1/2-x,1/2+y,-z
loop_
_atom_site_type_symbol
_atom_site_label
_atom_site_fract_x
_atom_site_fract_y
_atom_site_fract_z
Si Si1 0.732069 0.084520 0.146182
Si Si2 0.589894 0.636372 0.145887
Si Si3 0.064928 0.418945 0.874505
Si Si4 0.476321 0.243116 0.790104
Si Si5 0.798817 0.457629 0.210539
O O1 0.813664 0.061069 0.492511
O O2 0.727037 0.311899 0.105125
O O3 0.618135 0.963533 0.881230
O O4 0.764951 0.011613 0.093588
O O5 0.500000 0.745821 0.000000
O O6 0.632504 0.769619 0.147442
O O7 0.514528 0.461846 0.884640
O O8 0.064391 0.625452 0.938930
O O9 0.926220 0.363180 0.516078
O O10 0.347666 0.151412 0.408496
O O11 0.500000 0.193428 0.000000
#
# Coordination Sequence:
#
# PCOD9128027 Si02
#       5
#     4   4   4   4   4
#     4  12  25  43  74 107 148 202 248 303 389 435
#     4  11  22  44  73 105 143 194 249 307 373 442
#     4  10  23  45  69 103 151 184 253 308 360 455
#     4   9  21  42  72  97 144 191 235 310 362 433
#     4  10  25  45  68 106 148 197 247 308 370 447
#
# _framework density 24.072600999999999
#
# number of rings (size 3 to 8) (size 9 to 14) (size 15 to 20)
#    1.200    0.400    2.000    2.400    8.400    0.000 
#    3.600    0.000    4.400    0.000    0.000    0.000 
#    0.000    0.000    0.000    0.000    0.000    0.000 
#
# Total GULP energy -55677.907398 kJ/mol
# GULP energy per Si atom -5567.790740 kJ/mol
# Density = 2.401781 g / cm^3
# Si number density = 24.072601 Si / 1000 Ang^3
#
#
#
# Elastic Constant Matrix: (Units=GPa)
#
#
# Indices 1 2 3 4 5 6 
#
# 1 90.2041 39.4088 20.5047 0.0000 -18.9063 0.0000
# 2 39.4088 147.1494 39.8918 0.0000 -22.6437 0.0000
# 3 20.5047 39.8918 119.6215 0.0000 -17.8613 0.0000
# 4 0.0000 0.0000 0.0000 24.8592 0.0000 -33.3988
# 5 -18.9063 -22.6437 -17.8613 0.0000 30.7134 0.0000
# 6 0.0000 0.0000 0.0000 -33.3988 0.0000 12.0515
#
#
#
# Elastic Compliance Matrix: (Units=1/GPa)
#
#
# Indices 1 2 3 4 5 6 
#
# 1 0.013621 -0.002544 -0.000563 0.000000 0.006182 0.000000
# 2 -0.002544 0.008545 -0.001869 0.000000 0.003647 0.000000
# 3 -0.000563 -0.001869 0.009661 0.000000 0.003894 0.000000
# 4 0.000000 0.000000 0.000000 -0.014771 0.000000 -0.040935
# 5 0.006182 0.003647 0.003894 0.000000 0.041317 0.000000
# 6 0.000000 0.000000 0.000000 -0.040935 0.000000 -0.030469
#
#
# Mechanical properties :
#
#
# Convention : Reuss Voigt Hill
#
# Bulk Modulus (GPa) = 45.71605 61.84286 53.77946
# Shear Modulus (GPa) = 110.74479 30.66946 70.70712
#
# Velocity S-wave (km/s) = 6.79002 3.57324 5.42552
# Velocity P-wave (km/s) = 8.97244 6.53988 7.85094
#
# Compressibility (1/GPa) = 0.02187416
#
# Stress axis : x y z
#
# Youngs Moduli (GPa) = 73.41565 117.02738 103.50973
#
# Poissons Ratio (x) = 0.29771 0.05833
# Poissons Ratio (y) = 0.18677 0.19346
# Poissons Ratio (z) = 0.04137 0.21872
#
# Static dielectric constant tensor:
#      x y z
#    x 2.138200 0.000000 0.190700 
#    y 0.000000 1.927360 0.000000 
#    z 0.190700 0.000000 2.076500 
# 
# From -- ./inp_files/32417.got.cif
#   From: 2010.05.17/outbox.cif.g08.bks.cpg/sg5_17_cif.got.tgz:32417.got - 2010.06.03 18:56:24.
