data_PCOD9128537
_publ_section_title
;
Structure prediction by ZEFSAII (Michael W. Deem and Ramdas Pophale) SiO2 
 PCOD9128537
Probable space group: C 2
;
_chemical_formula_sum "Si O2"
_cell_formula_units_Z 20
_cell_length_a 16.758130
_cell_length_b 4.981017
_cell_length_c 10.534959
_cell_angle_alpha 90.000000
_cell_angle_beta 76.715421
_cell_angle_gamma 90.000000
_cell_volume 855.848149
_symmetry_space_group_name_H-M "C 2"
_symmetry_group_IT_number 5
_symmetry_cell_setting 'monoclinic'
loop_
_space_group_symop_operation_xyz
x,y,z
-x,y,-z
1/2+x,1/2+y,z
1/2-x,1/2+y,-z
loop_
_atom_site_type_symbol
_atom_site_label
_atom_site_fract_x
_atom_site_fract_y
_atom_site_fract_z
Si Si1 0.700265 0.116210 0.994364
Si Si2 0.302742 0.412746 0.445266
Si Si3 0.540958 0.689672 0.610632
Si Si4 0.121537 0.573727 0.775469
Si Si5 0.466966 0.420828 0.881324
O O1 0.669566 0.967726 0.877718
O O2 0.763768 0.360378 0.943957
O O3 0.621754 0.282162 0.076269
O O4 0.244018 0.667396 0.472826
O O5 0.393963 0.469724 0.465673
O O6 0.323960 0.318334 0.296061
O O7 0.500000 0.807708 0.500000
O O8 0.600775 0.883835 0.666730
O O9 0.480656 0.581351 0.743989
O O10 0.034328 0.686746 0.848674
O O11 0.500000 0.566475 0.000000
#
# Coordination Sequence:
#
# PCOD9128537 Si02
#       5
#     4   4   4   4   4
#     4  11  27  45  72 110 138 183 245 300 357 416
#     4  11  23  45  69  99 142 191 232 288 357 418
#     4  11  25  44  74 109 145 191 241 289 358 431
#     4  10  24  45  71 101 148 189 238 289 359 427
#     4   9  23  45  71 101 143 195 234 296 351 429
#
# _framework density 23.368631000000001
#
# number of rings (size 3 to 8) (size 9 to 14) (size 15 to 20)
#    0.000    1.600    2.000    0.000   11.200    7.200 
#    0.000    0.000    0.000    0.000    0.000    0.000 
#    0.000    0.000    0.000    0.000    0.000    0.000 
#
# Total GULP energy -55744.802643 kJ/mol
# GULP energy per Si atom -5574.480264 kJ/mol
# Density = 2.331544 g / cm^3
# Si number density = 23.368631 Si / 1000 Ang^3
#
#
#
# Elastic Constant Matrix: (Units=GPa)
#
#
# Indices 1 2 3 4 5 6 
#
# 1 93.7551 36.7194 68.8717 0.0000 -4.6947 0.0000
# 2 36.7194 99.8328 40.4003 0.0000 5.2814 0.0000
# 3 68.8717 40.4003 117.2528 0.0000 20.4991 0.0000
# 4 0.0000 0.0000 0.0000 33.5139 0.0000 2.3752
# 5 -4.6947 5.2814 20.4991 0.0000 44.3363 0.0000
# 6 0.0000 0.0000 0.0000 2.3752 0.0000 34.0850
#
#
#
# Elastic Compliance Matrix: (Units=1/GPa)
#
#
# Indices 1 2 3 4 5 6 
#
# 1 0.022382 -0.003196 -0.013628 0.000000 0.009052 0.000000
# 2 -0.003196 0.012107 -0.002157 0.000000 -0.000783 0.000000
# 3 -0.013628 -0.002157 0.019022 0.000000 -0.009981 0.000000
# 4 0.000000 0.000000 0.000000 0.029986 0.000000 -0.002090
# 5 0.009052 -0.000783 -0.009981 0.000000 0.028221 0.000000
# 6 0.000000 0.000000 0.000000 -0.002090 0.000000 0.029484
#
#
# Mechanical properties :
#
#
# Convention : Reuss Voigt Hill
#
# Bulk Modulus (GPa) = 64.31812 66.98037 65.64924
# Shear Modulus (GPa) = 27.12268 33.37700 30.24984
#
# Velocity S-wave (km/s) = 3.41052 3.78336 3.60177
# Velocity P-wave (km/s) = 6.56444 6.91447 6.74173
#
# Compressibility (1/GPa) = 0.01554772
#
# Stress axis : x y z
#
# Youngs Moduli (GPa) = 44.67841 82.59863 52.57203
#
# Poissons Ratio (x) = 0.26401 0.71645
# Poissons Ratio (y) = 0.14280 0.11340
# Poissons Ratio (z) = 0.60888 0.17817
#
# Static dielectric constant tensor:
#      x y z
#    x 1.887750 0.000000 0.013990 
#    y 0.000000 2.001850 0.000000 
#    z 0.013990 0.000000 1.931640 
# 
# From -- ./inp_files/41033.got.cif
#   From: 2010.05.17/outbox.cif.g08.bks.cpg/sg5_21_cif.got.tgz:41033.got - 2010.06.03 18:56:24.
