data_PCOD9128135
_publ_section_title
;
Structure prediction by ZEFSAII (Michael W. Deem and Ramdas Pophale) SiO2 
 PCOD9128135
Probable space group: C 2
;
_chemical_formula_sum "Si O2"
_cell_formula_units_Z 26
_cell_length_a 18.493294
_cell_length_b 11.817889
_cell_length_c 12.707514
_cell_angle_alpha 90.000000
_cell_angle_beta 157.544101
_cell_angle_gamma 90.000000
_cell_volume 1060.831814
_symmetry_space_group_name_H-M "C 2"
_symmetry_group_IT_number 5
_symmetry_cell_setting 'monoclinic'
loop_
_space_group_symop_operation_xyz
x,y,z
-x,y,-z
1/2+x,1/2+y,z
1/2-x,1/2+y,-z
loop_
_atom_site_type_symbol
_atom_site_label
_atom_site_fract_x
_atom_site_fract_y
_atom_site_fract_z
Si Si1 0.088423 0.923310 0.505541
Si Si2 0.485546 0.749224 0.239326
Si Si3 0.602630 0.000658 0.357563
Si Si4 0.522375 0.519363 0.864406
Si Si5 0.415263 0.205668 0.194873
Si Si6 0.500000 0.007956 0.000000
Si Si7 0.673023 0.306416 0.152806
O O1 0.307850 0.947792 0.780222
O O2 0.000000 0.955399 0.500000
O O3 0.982826 0.986371 0.266695
O O4 0.056670 0.791116 0.442568
O O5 0.498886 0.655070 0.165612
O O6 0.282517 0.720952 0.013399
O O7 0.645257 0.749835 0.546539
O O8 0.506921 0.877728 0.229374
O O9 0.826726 0.979856 0.655843
O O10 0.505979 0.081962 0.311580
O O11 0.568971 0.062814 0.200374
O O12 0.682727 0.441156 0.133937
O O13 0.373564 0.249754 0.021140
O O14 0.500000 0.290557 0.000000
#
# Coordination Sequence:
#
# PCOD9128135 Si02
#       7
#     4   4   4   4   4   2   4
#     4  10  23  47  71 106 143 191 256 322 379 462
#     4  12  26  47  76 105 152 204 245 320 401 451
#     4  11  25  47  69 108 148 192 259 311 383 474
#     4  10  25  45  77 109 147 194 260 323 379 467
#     4  11  27  44  72 107 150 193 255 317 383 474
#     4  10  24  42  76  98 138 198 248 306 384 442
#     4  11  23  48  75 108 146 197 257 315 386 465
#
# _framework density 24.509067999999999
#
# number of rings (size 3 to 8) (size 9 to 14) (size 15 to 20)
#    0.000    1.231    1.538    2.308   16.154    0.000 
#    6.923    0.000    0.000    0.000    0.000    0.000 
#    0.000    0.000    0.000    0.000    0.000    0.000 
#
# Total GULP energy -72617.607667 kJ/mol
# GULP energy per Si atom -5585.969821 kJ/mol
# Density = 2.445328 g / cm^3
# Si number density = 24.509068 Si / 1000 Ang^3
#
#
#
# Elastic Constant Matrix: (Units=GPa)
#
#
# Indices 1 2 3 4 5 6 
#
# 1 101.0809 14.3674 6.4821 0.0000 15.5245 0.0000
# 2 14.3674 146.6457 1.5467 0.0000 19.5857 0.0000
# 3 6.4821 1.5467 51.4544 0.0000 20.8398 0.0000
# 4 0.0000 0.0000 0.0000 -219.0241 0.0000 -59.2111
# 5 15.5245 19.5857 20.8398 0.0000 43.1321 0.0000
# 6 0.0000 0.0000 0.0000 -59.2111 0.0000 24.0292
#
#
#
# Elastic Compliance Matrix: (Units=1/GPa)
#
#
# Indices 1 2 3 4 5 6 
#
# 1 0.010516 -0.000550 0.000154 0.000000 -0.003610 0.000000
# 2 -0.000550 0.007369 0.001396 0.000000 -0.003823 0.000000
# 3 0.000154 0.001396 0.024434 0.000000 -0.012495 0.000000
# 4 0.000000 0.000000 0.000000 -0.002740 0.000000 -0.006752
# 5 -0.003610 -0.003823 -0.012495 0.000000 0.032257 0.000000
# 6 0.000000 0.000000 0.000000 -0.006752 0.000000 0.024977
#
#
# Mechanical properties :
#
#
# Convention : Reuss Voigt Hill
#
# Bulk Modulus (GPa) = 22.56402 38.21924 30.39163
# Shear Modulus (GPa) = 45.62661 -11.92026 16.85318
#
# Velocity S-wave (km/s) = 4.31933 -2.20775 2.62512
# Velocity P-wave (km/s) = 5.83968 3.02140 4.64923
#
# Compressibility (1/GPa) = 0.04431833
#
# Stress axis : x y z
#
# Youngs Moduli (GPa) = 95.09566 135.70628 40.92667
#
# Poissons Ratio (x) = 0.07461 -0.00629
# Poissons Ratio (y) = 0.05228 -0.05713
# Poissons Ratio (z) = -0.01461 -0.18945
#
# Static dielectric constant tensor:
#      x y z
#    x 1.922970 0.000000 -0.068280 
#    y 0.000000 2.055330 0.000000 
#    z -0.068280 0.000000 2.495500 
# 
# From -- ./inp_files/57062.got.cif
#   From: 2010.05.17/outbox.cif.g08.bks.cpg/sg5_29_cif.got.tgz:57062.got - 2010.06.03 18:56:24.
