data_PCOD9128983
_publ_section_title
;
Structure prediction by ZEFSAII (Michael W. Deem and Ramdas Pophale) SiO2 
 PCOD9128983
Probable space group: C 2
;
_chemical_formula_sum "Si O2"
_cell_formula_units_Z 20
_cell_length_a 14.023178
_cell_length_b 5.827580
_cell_length_c 18.117894
_cell_angle_alpha 90.000000
_cell_angle_beta 146.466481
_cell_angle_gamma 90.000000
_cell_volume 817.928829
_symmetry_space_group_name_H-M "C 2"
_symmetry_group_IT_number 5
_symmetry_cell_setting 'monoclinic'
loop_
_space_group_symop_operation_xyz
x,y,z
-x,y,-z
1/2+x,1/2+y,z
1/2-x,1/2+y,-z
loop_
_atom_site_type_symbol
_atom_site_label
_atom_site_fract_x
_atom_site_fract_y
_atom_site_fract_z
Si Si1 0.971470 0.447820 0.709064
Si Si2 0.837550 0.606644 0.037800
Si Si3 0.500000 0.954988 0.000000
Si Si4 0.189816 0.691536 0.732856
Si Si5 0.410814 0.582218 0.575200
Si Si6 0.500000 0.919619 0.500000
O O1 0.789080 0.521347 0.557099
O O2 0.964206 0.176027 0.690406
O O3 0.994725 0.559036 0.803157
O O4 0.133022 0.532568 0.764710
O O5 0.888548 0.602374 0.985152
O O6 0.762744 0.859838 0.011029
O O7 0.626752 0.798336 0.130802
O O8 0.158879 0.566643 0.635294
O O9 0.040266 0.881835 0.638159
O O10 0.440856 0.769178 0.530742
#
# Coordination Sequence:
#
# PCOD9128983 Si02
#       6
#     4   4   2   4   4   2
#     4  11  24  44  75 102 149 198 261 320 389 459
#     4  12  29  53  78 115 160 215 265 326 395 476
#     4  12  28  50  80 110 164 206 268 322 396 480
#     4  11  24  49  67 111 148 199 249 319 389 465
#     4  11  23  44  71 107 142 193 252 321 386 460
#     4  10  26  40  72 108 144 188 258 310 388 460
#
# _framework density 24.452003999999999
#
# number of rings (size 3 to 8) (size 9 to 14) (size 15 to 20)
#    0.000    0.800    4.000    1.800    5.600    2.400 
#    3.600    0.000    0.000    0.000    0.000    0.000 
#    0.000    0.000    0.000    0.000    0.000    0.000 
#
# Total GULP energy -55899.973040 kJ/mol
# GULP energy per Si atom -5589.997304 kJ/mol
# Density = 2.439635 g / cm^3
# Si number density = 24.452004 Si / 1000 Ang^3
#
#
#
# Elastic Constant Matrix: (Units=GPa)
#
#
# Indices 1 2 3 4 5 6 
#
# 1 98.5578 39.9874 8.8845 0.0000 -4.3717 0.0000
# 2 39.9874 102.7713 33.7288 0.0000 2.2911 -0.0001
# 3 8.8845 33.7288 100.7487 0.0000 4.4896 0.0000
# 4 0.0000 0.0000 0.0000 38.5411 0.0000 -1.9199
# 5 -4.3717 2.2911 4.4896 0.0000 36.2715 0.0000
# 6 0.0000 -0.0001 0.0000 -1.9199 0.0000 18.0717
#
#
#
# Elastic Compliance Matrix: (Units=1/GPa)
#
#
# Indices 1 2 3 4 5 6 
#
# 1 0.012183 -0.004944 0.000504 0.000000 0.001718 0.000000
# 2 -0.004944 0.012940 -0.003854 0.000000 -0.000936 0.000000
# 3 0.000504 -0.003854 0.011220 0.000000 -0.001085 0.000000
# 4 0.000000 0.000000 0.000000 0.026084 0.000000 0.002771
# 5 0.001718 -0.000936 -0.001085 0.000000 0.027970 0.000000
# 6 0.000000 0.000000 0.000000 0.002771 0.000000 0.055629
#
#
# Mechanical properties :
#
#
# Convention : Reuss Voigt Hill
#
# Bulk Modulus (GPa) = 50.62138 51.91990 51.27064
# Shear Modulus (GPa) = 29.55079 33.20867 31.37973
#
# Velocity S-wave (km/s) = 3.48015 3.68926 3.58623
# Velocity P-wave (km/s) = 6.07420 6.27909 6.17750
#
# Compressibility (1/GPa) = 0.01975450
#
# Stress axis : x y z
#
# Youngs Moduli (GPa) = 82.08128 77.28045 89.12736
#
# Poissons Ratio (x) = 0.38208 -0.04494
# Poissons Ratio (y) = 0.40582 0.34352
# Poissons Ratio (z) = -0.04139 0.29786
#
# Static dielectric constant tensor:
#      x y z
#    x 1.952910 0.000000 -0.023540 
#    y 0.000000 2.050210 0.000000 
#    z -0.023540 0.000000 1.932370 
# 
# From -- ./inp_files/25977.got.cif
#   From: 2010.05.17/outbox.cif.g08.bks.cpg/sg5_13_cif.got.tgz:25977.got - 2010.06.03 18:56:24.
