data_PCOD9128399
_publ_section_title
;
Structure prediction by ZEFSAII (Michael W. Deem and Ramdas Pophale) SiO2 
 PCOD9128399
Probable space group: C 2
;
_chemical_formula_sum "Si O2"
_cell_formula_units_Z 24
_cell_length_a 26.685158
_cell_length_b 4.877934
_cell_length_c 20.653075
_cell_angle_alpha 90.000000
_cell_angle_beta 158.032460
_cell_angle_gamma 90.000000
_cell_volume 1005.672012
_symmetry_space_group_name_H-M "C 2"
_symmetry_group_IT_number 5
_symmetry_cell_setting 'monoclinic'
loop_
_space_group_symop_operation_xyz
x,y,z
-x,y,-z
1/2+x,1/2+y,z
1/2-x,1/2+y,-z
loop_
_atom_site_type_symbol
_atom_site_label
_atom_site_fract_x
_atom_site_fract_y
_atom_site_fract_z
Si Si1 0.847636 0.455620 0.620207
Si Si2 0.445723 0.222753 0.614683
Si Si3 0.799416 0.236774 0.395758
Si Si4 0.525948 0.951327 0.099697
Si Si5 0.614666 0.236163 0.693387
Si Si6 0.749208 0.233734 0.191803
O O1 0.752853 0.716864 0.524043
O O2 0.950985 0.590513 0.692309
O O3 0.921398 0.323160 0.770366
O O4 0.318798 0.053506 0.434896
O O5 0.559498 0.163903 0.698256
O O6 0.404091 0.539443 0.558625
O O7 0.648895 0.146607 0.227597
O O8 0.827274 0.200449 0.353266
O O9 0.500000 0.795778 0.000000
O O10 0.397999 0.126318 0.969002
O O11 0.500000 0.211647 0.500000
O O12 0.734629 0.040760 0.813249
O O13 0.673264 0.539961 0.764769
#
# Coordination Sequence:
#
# PCOD9128399 Si02
#       6
#     4   4   4   4   4   4
#     4  12  24  44  68  97 133 172 218 270 333 396
#     4  12  22  37  65  94 122 165 221 264 312 376
#     4  11  20  38  63  95 126 161 210 272 317 378
#     4  10  24  43  68  99 135 169 218 275 339 393
#     4  12  22  38  63  91 134 171 224 262 314 391
#     4  11  23  39  61  96 130 174 210 271 325 377
#
# _framework density 23.864637999999999
#
# number of rings (size 3 to 8) (size 9 to 14) (size 15 to 20)
#    0.000    0.667    6.667    1.500    0.000    2.667 
#    0.000    9.167    0.000    0.000    0.000    0.000 
#    0.000    0.000    0.000    0.000    0.000    0.000 
#
# Total GULP energy -67009.140794 kJ/mol
# GULP energy per Si atom -5584.095066 kJ/mol
# Density = 2.381032 g / cm^3
# Si number density = 23.864638 Si / 1000 Ang^3
#
#
#
# Elastic Constant Matrix: (Units=GPa)
#
#
# Indices 1 2 3 4 5 6 
#
# 1 154.2864 -2.2015 23.2008 0.0012 -7.2837 0.0002
# 2 -2.2015 64.3728 -1.0329 0.0056 -2.7415 0.0009
# 3 23.2008 -1.0329 46.2116 0.0011 -6.0096 0.0004
# 4 0.0012 0.0056 0.0011 6.3384 0.0001 0.5919
# 5 -7.2837 -2.7415 -6.0096 0.0001 40.3350 -0.0001
# 6 0.0002 0.0009 0.0004 0.5919 -0.0001 32.6054
#
#
#
# Elastic Compliance Matrix: (Units=1/GPa)
#
#
# Indices 1 2 3 4 5 6 
#
# 1 0.007037 0.000219 -0.003427 -0.000001 0.000775 0.000000
# 2 0.000219 0.015598 0.000389 -0.000014 0.001158 0.000000
# 3 -0.003427 0.000389 0.023752 -0.000004 0.002946 0.000000
# 4 -0.000001 -0.000014 -0.000004 0.158038 -0.000002 -0.002869
# 5 0.000775 0.001158 0.002946 -0.000002 0.025450 0.000000
# 6 0.000000 0.000000 0.000000 -0.002869 0.000000 0.030722
#
#
# Mechanical properties :
#
#
# Convention : Reuss Voigt Hill
#
# Bulk Modulus (GPa) = 24.54107 33.86709 29.20408
# Shear Modulus (GPa) = 17.86887 32.18270 25.02578
#
# Velocity S-wave (km/s) = 2.73931 3.67625 3.24181
# Velocity P-wave (km/s) = 4.50676 5.67819 5.12605
#
# Compressibility (1/GPa) = 0.04074803
#
# Stress axis : x y z
#
# Youngs Moduli (GPa) = 142.11610 64.11271 42.10162
#
# Poissons Ratio (x) = -0.01402 0.14428
# Poissons Ratio (y) = -0.03107 -0.01639
# Poissons Ratio (z) = 0.48704 -0.02496
#
# Static dielectric constant tensor:
#      x y z
#    x 2.011360 0.000000 -0.034480 
#    y 0.000000 1.831060 0.000000 
#    z -0.034480 0.000000 1.917190 
# 
# From -- ./inp_files/69987.got.cif
#   From: 2010.05.17/outbox.cif.g08.bks.cpg/sg5_35_cif.got.tgz:69987.got - 2010.06.03 18:56:24.
