data_PCOD9128523
_publ_section_title
;
Structure prediction by ZEFSAII (Michael W. Deem and Ramdas Pophale) SiO2 
 PCOD9128523
Probable space group: C 2
;
_chemical_formula_sum "Si O2"
_cell_formula_units_Z 20
_cell_length_a 22.795526
_cell_length_b 5.139385
_cell_length_c 14.354113
_cell_angle_alpha 90.000000
_cell_angle_beta 27.810311
_cell_angle_gamma 90.000000
_cell_volume 784.569528
_symmetry_space_group_name_H-M "C 2"
_symmetry_group_IT_number 5
_symmetry_cell_setting 'monoclinic'
loop_
_space_group_symop_operation_xyz
x,y,z
-x,y,-z
1/2+x,1/2+y,z
1/2-x,1/2+y,-z
loop_
_atom_site_type_symbol
_atom_site_label
_atom_site_fract_x
_atom_site_fract_y
_atom_site_fract_z
Si Si1 0.023741 0.057880 0.061464
Si Si2 0.889678 0.564814 0.707077
Si Si3 0.623181 0.851749 0.077427
Si Si4 0.711088 0.182648 0.610158
Si Si5 0.254058 0.738087 0.754196
O O1 0.022471 0.175150 0.165970
O O2 0.928275 0.814122 0.188812
O O3 0.000000 0.219793 0.000000
O O4 0.171014 0.990780 0.847204
O O5 0.927073 0.468106 0.756418
O O6 0.862362 0.334481 0.670959
O O7 0.000000 0.723898 0.500000
O O8 0.755464 0.704615 0.911819
O O9 0.663969 0.066127 0.945339
O O10 0.784179 0.417713 0.455174
O O11 0.768899 0.121846 0.631022
#
# Coordination Sequence:
#
# PCOD9128523 Si02
#       5
#     4   4   4   4   4
#     4   9  23  43  69  98 137 194 234 305 374 436
#     4  11  25  44  69 107 141 193 251 303 371 442
#     4  11  23  47  72 100 150 192 249 307 375 438
#     4  11  27  45  70 112 147 187 251 306 372 448
#     4  10  24  45  68  98 146 193 244 303 372 442
#
# _framework density 25.491685
#
# number of rings (size 3 to 8) (size 9 to 14) (size 15 to 20)
#    0.000    1.600    2.000    0.000   14.000    1.600 
#    0.000    0.000    0.000    0.000    0.000    0.000 
#    0.000    0.000    0.000    0.000    0.000    0.000 
#
# Total GULP energy -55854.180560 kJ/mol
# GULP energy per Si atom -5585.418056 kJ/mol
# Density = 2.543366 g / cm^3
# Si number density = 25.491685 Si / 1000 Ang^3
#
#
#
# Elastic Constant Matrix: (Units=GPa)
#
#
# Indices 1 2 3 4 5 6 
#
# 1 150.4918 35.5151 36.6809 -0.0086 48.0180 -0.0006
# 2 35.5151 56.1147 13.2176 -0.0284 16.5170 -0.0195
# 3 36.6809 13.2176 131.0203 -0.0085 29.6438 0.0113
# 4 -0.0086 -0.0284 -0.0085 25.2593 0.0084 1.4810
# 5 48.0180 16.5170 29.6438 0.0084 53.0924 -0.0074
# 6 -0.0006 -0.0195 0.0113 1.4810 -0.0074 37.3410
#
#
#
# Elastic Compliance Matrix: (Units=1/GPa)
#
#
# Indices 1 2 3 4 5 6 
#
# 1 0.010187 -0.004054 -0.000737 0.000001 -0.007541 -0.000003
# 2 -0.004054 0.021284 -0.000393 0.000023 -0.002735 0.000010
# 3 -0.000737 -0.000393 0.008813 0.000004 -0.004132 -0.000004
# 4 0.000001 0.000023 0.000004 0.039682 -0.000017 -0.001574
# 5 -0.007541 -0.002735 -0.004132 -0.000017 0.028813 0.000006
# 6 -0.000003 0.000010 -0.000004 -0.001574 0.000006 0.026843
#
#
# Mechanical properties :
#
#
# Convention : Reuss Voigt Hill
#
# Bulk Modulus (GPa) = 33.42718 56.49491 44.96104
# Shear Modulus (GPa) = 32.05867 39.95274 36.00571
#
# Velocity S-wave (km/s) = 3.55013 3.96319 3.76233
# Velocity P-wave (km/s) = 5.47230 6.56907 6.04561
#
# Compressibility (1/GPa) = 0.02991578
#
# Stress axis : x y z
#
# Youngs Moduli (GPa) = 98.15991 46.98274 113.46520
#
# Poissons Ratio (x) = 0.19049 0.08361
# Poissons Ratio (y) = 0.39798 0.04463
# Poissons Ratio (z) = 0.07234 0.01848
#
# Static dielectric constant tensor:
#      x y z
#    x 2.058540 -0.000020 -0.025720 
#    y -0.000020 2.108480 0.000040 
#    z -0.025720 0.000040 2.107290 
# 
# From -- ./inp_files/45355.got.cif
#   From: 2010.05.17/outbox.cif.g08.bks.cpg/sg5_23_cif.got.tgz:45355.got - 2010.06.03 18:56:24.
