data_PCOD9128206
_publ_section_title
;
Structure prediction by ZEFSAII (Michael W. Deem and Ramdas Pophale) SiO2 
 PCOD9128206
Probable space group: C 2
;
_chemical_formula_sum "Si O2"
_cell_formula_units_Z 24
_cell_length_a 28.777735
_cell_length_b 4.798551
_cell_length_c 13.224827
_cell_angle_alpha 90.000000
_cell_angle_beta 28.160724
_cell_angle_gamma 90.000000
_cell_volume 861.885383
_symmetry_space_group_name_H-M "C 2"
_symmetry_group_IT_number 5
_symmetry_cell_setting 'monoclinic'
loop_
_space_group_symop_operation_xyz
x,y,z
-x,y,-z
1/2+x,1/2+y,z
1/2-x,1/2+y,-z
loop_
_atom_site_type_symbol
_atom_site_label
_atom_site_fract_x
_atom_site_fract_y
_atom_site_fract_z
Si Si1 0.410382 0.272460 0.597400
Si Si2 0.244249 0.790584 0.969233
Si Si3 0.531926 0.109985 0.830762
Si Si4 0.651814 0.074962 0.941409
Si Si5 0.286199 0.500002 0.493898
Si Si6 0.476801 0.754375 0.333553
O O1 0.500000 0.342187 0.500000
O O2 0.323511 0.522807 0.826115
O O3 0.453544 0.986275 0.460617
O O4 0.315741 0.071385 0.830519
O O5 0.427220 0.474631 0.466445
O O6 0.193377 0.735009 0.959206
O O7 0.434172 0.220772 0.959401
O O8 0.609556 0.348795 0.701985
O O9 0.568543 0.873915 0.683388
O O10 0.500000 0.992690 0.000000
O O11 0.595224 0.796324 0.090105
O O12 0.736279 0.009565 0.699761
O O13 0.279869 0.793302 0.449394
#
# Coordination Sequence:
#
# PCOD9128206 Si02
#       6
#     4   4   4   4   4   4
#     4  12  23  48  73 107 148 205 265 318 401 467
#     4  12  29  49  77 112 159 209 268 342 391 477
#     4  10  23  54  79 121 162 216 256 341 408 483
#     4  10  26  53  79 121 162 210 274 333 410 481
#     4  12  27  52  84 123 162 211 272 336 404 496
#     4  10  25  42  77 110 149 208 259 321 397 481
#
# _framework density 27.845927
#
# number of rings (size 3 to 8) (size 9 to 14) (size 15 to 20)
#    1.000    0.000    3.333    1.500    4.667    5.333 
#    3.000    0.000    0.000    0.000    0.000    0.000 
#    0.000    0.000    0.000    0.000    0.000    0.000 
#
# Total GULP energy -67170.810987 kJ/mol
# GULP energy per Si atom -5597.567582 kJ/mol
# Density = 2.778255 g / cm^3
# Si number density = 27.845927 Si / 1000 Ang^3
#
#
#
# Elastic Constant Matrix: (Units=GPa)
#
#
# Indices 1 2 3 4 5 6 
#
# 1 198.9474 28.2872 60.0210 -0.0013 -10.6293 0.0011
# 2 28.2872 185.5998 25.0182 -0.0029 -8.8281 0.0005
# 3 60.0210 25.0182 184.4686 -0.0009 15.9039 -0.0003
# 4 -0.0013 -0.0029 -0.0009 44.4134 -0.0007 0.8592
# 5 -10.6293 -8.8281 15.9039 -0.0007 64.0994 -0.0007
# 6 0.0011 0.0005 -0.0003 0.8592 -0.0007 46.4242
#
#
#
# Elastic Compliance Matrix: (Units=1/GPa)
#
#
# Indices 1 2 3 4 5 6 
#
# 1 0.005755 -0.000555 -0.001914 0.000000 0.001353 0.000000
# 2 -0.000555 0.005600 -0.000652 0.000000 0.000841 0.000000
# 3 -0.001914 -0.000652 0.006302 0.000000 -0.001971 0.000000
# 4 0.000000 0.000000 0.000000 0.022524 0.000000 -0.000417
# 5 0.001353 0.000841 -0.001971 0.000000 0.016430 0.000000
# 6 0.000000 0.000000 0.000000 -0.000417 0.000000 0.021548
#
#
# Mechanical properties :
#
#
# Convention : Reuss Voigt Hill
#
# Bulk Modulus (GPa) = 87.58968 88.40762 87.99865
# Shear Modulus (GPa) = 56.68595 61.36669 59.02632
#
# Velocity S-wave (km/s) = 4.51677 4.69955 4.60907
# Velocity P-wave (km/s) = 7.66322 7.82723 7.74566
#
# Compressibility (1/GPa) = 0.01141687
#
# Stress axis : x y z
#
# Youngs Moduli (GPa) = 173.76109 178.56138 158.68030
#
# Poissons Ratio (x) = 0.09906 0.30370
# Poissons Ratio (y) = 0.09640 0.10338
# Poissons Ratio (z) = 0.33256 0.11634
#
# Static dielectric constant tensor:
#      x y z
#    x 2.174270 0.000000 -0.090570 
#    y 0.000000 2.163840 0.000000 
#    z -0.090570 0.000000 2.259750 
# 
# From -- ./inp_files/47225.got.cif
#   From: 2010.05.17/outbox.cif.g08.bks.cpg/sg5_24_cif.got.tgz:47225.got - 2010.06.03 18:56:24.
