data_PCOD9128930
_publ_section_title
;
Structure prediction by ZEFSAII (Michael W. Deem and Ramdas Pophale) SiO2 
 PCOD9128930
Probable space group: C 2
;
_chemical_formula_sum "Si O2"
_cell_formula_units_Z 22
_cell_length_a 7.595258
_cell_length_b 12.617289
_cell_length_c 15.188628
_cell_angle_alpha 90.000000
_cell_angle_beta 144.191653
_cell_angle_gamma 90.000000
_cell_volume 851.607116
_symmetry_space_group_name_H-M "C 2"
_symmetry_group_IT_number 5
_symmetry_cell_setting 'monoclinic'
loop_
_space_group_symop_operation_xyz
x,y,z
-x,y,-z
1/2+x,1/2+y,z
1/2-x,1/2+y,-z
loop_
_atom_site_type_symbol
_atom_site_label
_atom_site_fract_x
_atom_site_fract_y
_atom_site_fract_z
Si Si1 0.500000 0.359761 0.500000
Si Si2 0.714637 0.063663 0.430098
Si Si3 0.886403 0.630455 0.045938
Si Si4 0.086921 0.825696 0.206777
Si Si5 0.000000 0.970300 0.000000
Si Si6 0.000000 0.461763 0.500000
Si Si7 0.256974 0.740077 0.772991
O O1 0.231437 0.445467 0.397692
O O2 0.593596 0.293828 0.623041
O O3 0.728223 0.037745 0.539417
O O4 0.416402 0.128238 0.293284
O O5 0.000000 0.119028 0.500000
O O6 0.758376 0.546415 0.063163
O O7 0.606707 0.710192 0.909848
O O8 0.000000 0.583246 0.000000
O O9 0.136904 0.706485 0.190866
O O10 0.820022 0.806509 0.170518
O O11 0.328284 0.885182 0.364357
O O12 0.054072 0.896097 0.106455
#
# Coordination Sequence:
#
# PCOD9128930 Si02
#       7
#     2   4   4   4   2   2   4
#     4  10  25  49  82 126 162 216 275 341 424 484
#     4  10  25  48  76 121 164 211 269 342 414 485
#     4  12  29  53  84 123 170 232 281 348 422 506
#     4  12  27  53  84 116 173 219 276 350 417 495
#     4  12  28  58  82 124 166 220 288 346 424 508
#     4  12  25  49  82 128 162 216 275 345 412 500
#     4  12  25  52  84 123 172 220 285 344 418 507
#
# _framework density 25.833507000000001
#
# number of rings (size 3 to 8) (size 9 to 14) (size 15 to 20)
#    0.545    0.000    4.545    1.636    3.818    2.909 
#    9.818    0.000    0.000    0.000    0.000    0.000 
#    0.000    0.000    0.000    0.000    0.000    0.000 
#
# Total GULP energy -61488.220668 kJ/mol
# GULP energy per Si atom -5589.838243 kJ/mol
# Density = 2.577471 g / cm^3
# Si number density = 25.833507 Si / 1000 Ang^3
#
#
#
# Elastic Constant Matrix: (Units=GPa)
#
#
# Indices 1 2 3 4 5 6 
#
# 1 191.9804 72.6662 56.9818 0.0010 -34.2488 0.0000
# 2 72.6662 128.5698 62.4084 0.0010 -23.5742 0.0006
# 3 56.9818 62.4084 127.2017 0.0046 -35.8007 0.0016
# 4 0.0010 0.0010 0.0046 23.2795 0.0015 -35.9878
# 5 -34.2488 -23.5742 -35.8007 0.0015 57.4363 0.0002
# 6 0.0000 0.0006 0.0016 -35.9878 0.0002 -18.5631
#
#
#
# Elastic Compliance Matrix: (Units=1/GPa)
#
#
# Indices 1 2 3 4 5 6 
#
# 1 0.007094 -0.003095 -0.001002 0.000000 0.002335 0.000000
# 2 -0.003095 0.011640 -0.004243 0.000000 0.000287 0.000000
# 3 -0.001002 -0.004243 0.011805 0.000000 0.005019 0.000001
# 4 0.000000 0.000000 0.000000 0.010747 0.000000 -0.020835
# 5 0.002335 0.000287 0.005019 0.000000 0.022049 0.000001
# 6 0.000000 0.000000 0.000001 -0.020835 0.000001 -0.013478
#
#
# Mechanical properties :
#
#
# Convention : Reuss Voigt Hill
#
# Bulk Modulus (GPa) = 72.16335 92.42941 82.29638
# Shear Modulus (GPa) = 70.26583 29.47689 49.87136
#
# Velocity S-wave (km/s) = 5.22097 3.38158 4.39850
# Velocity P-wave (km/s) = 8.02118 7.14866 7.59746
#
# Compressibility (1/GPa) = 0.01385745
#
# Stress axis : x y z
#
# Youngs Moduli (GPa) = 140.95519 85.91418 84.70960
#
# Poissons Ratio (x) = 0.26590 0.08491
# Poissons Ratio (y) = 0.43625 0.35946
# Poissons Ratio (z) = 0.14128 0.36458
#
# Static dielectric constant tensor:
#      x y z
#    x 2.105990 0.000000 0.035720 
#    y 0.000000 1.999370 0.000000 
#    z 0.035720 0.000000 2.114630 
# 
# From -- ./inp_files/59601.got.cif
#   From: 2010.05.17/outbox.cif.g08.bks.cpg/sg5_30_cif.got.tgz:59601.got - 2010.06.03 18:56:24.
