data_PCOD9128264
_publ_section_title
;
Structure prediction by ZEFSAII (Michael W. Deem and Ramdas Pophale) SiO2 
 PCOD9128264
Probable space group: C 2
;
_chemical_formula_sum "Si O2"
_cell_formula_units_Z 20
_cell_length_a 5.231104
_cell_length_b 9.148845
_cell_length_c 18.305959
_cell_angle_alpha 90.000000
_cell_angle_beta 104.333553
_cell_angle_gamma 90.000000
_cell_volume 848.824743
_symmetry_space_group_name_H-M "C 2"
_symmetry_group_IT_number 5
_symmetry_cell_setting 'monoclinic'
loop_
_space_group_symop_operation_xyz
x,y,z
-x,y,-z
1/2+x,1/2+y,z
1/2-x,1/2+y,-z
loop_
_atom_site_type_symbol
_atom_site_label
_atom_site_fract_x
_atom_site_fract_y
_atom_site_fract_z
Si Si1 0.908359 0.299320 0.282836
Si Si2 0.201727 0.017331 0.674068
Si Si3 0.380603 0.964472 0.411742
Si Si4 0.608037 0.467172 0.145101
Si Si5 0.937520 0.297223 0.911120
O O1 0.895728 0.310412 0.370202
O O2 0.717095 0.415235 0.231578
O O3 0.199033 0.360793 0.287093
O O4 0.821187 0.135541 0.263343
O O5 0.433026 0.052610 0.631698
O O6 0.923556 0.006030 0.614026
O O7 0.500000 0.965362 0.500000
O O8 0.322764 0.396722 0.112164
O O9 0.605448 0.640487 0.131069
O O10 0.819381 0.386063 0.107070
O O11 0.000000 0.266219 0.000000
#
# Coordination Sequence:
#
# PCOD9128264 Si02
#       5
#     4   4   4   4   4
#     4  10  26  42  70  99 138 178 236 281 348 407
#     4  10  24  40  67  93 138 171 236 282 348 402
#     4  10  24  42  67  97 135 183 228 288 343 405
#     4  12  27  44  78 103 146 186 234 289 350 414
#     4  12  26  47  72 107 143 186 232 286 352 423
#
# _framework density 23.561989000000001
#
# number of rings (size 3 to 8) (size 9 to 14) (size 15 to 20)
#    1.200    0.000    0.000    4.800    8.400    1.600 
#    0.000    0.000    0.000    0.000    0.000    0.000 
#    0.000    0.000    0.000    0.000    0.000    0.000 
#
# Total GULP energy -55836.835782 kJ/mol
# GULP energy per Si atom -5583.683578 kJ/mol
# Density = 2.350836 g / cm^3
# Si number density = 23.561989 Si / 1000 Ang^3
#
#
#
# Elastic Constant Matrix: (Units=GPa)
#
#
# Indices 1 2 3 4 5 6 
#
# 1 152.1511 53.9791 37.9849 0.0000 22.8115 0.0000
# 2 53.9791 113.6666 3.7685 0.0000 2.5590 0.0000
# 3 37.9849 3.7685 103.6770 0.0000 8.3774 0.0000
# 4 0.0000 0.0000 0.0000 22.6006 0.0000 -2.8073
# 5 22.8115 2.5590 8.3774 0.0000 42.3892 0.0000
# 6 0.0000 0.0000 0.0000 -2.8073 0.0000 40.5086
#
#
#
# Elastic Compliance Matrix: (Units=1/GPa)
#
#
# Indices 1 2 3 4 5 6 
#
# 1 0.009481 -0.004308 -0.002973 0.000000 -0.004254 0.000000
# 2 -0.004308 0.010775 0.001069 0.000000 0.001457 0.000000
# 3 -0.002973 0.001069 0.010743 0.000000 -0.000588 0.000000
# 4 0.000000 0.000000 0.000000 0.044631 0.000000 0.003093
# 5 -0.004254 0.001457 -0.000588 0.000000 0.025909 0.000000
# 6 0.000000 0.000000 0.000000 0.003093 0.000000 0.024900
#
#
# Mechanical properties :
#
#
# Convention : Reuss Voigt Hill
#
# Bulk Modulus (GPa) = 53.83591 62.32885 58.08238
# Shear Modulus (GPa) = 34.46954 39.35049 36.91002
#
# Velocity S-wave (km/s) = 3.82898 4.09110 3.96221
# Velocity P-wave (km/s) = 6.51508 6.98761 6.75548
#
# Compressibility (1/GPa) = 0.01857496
#
# Stress axis : x y z
#
# Youngs Moduli (GPa) = 105.47506 92.80513 93.08133
#
# Poissons Ratio (x) = 0.39981 0.27675
# Poissons Ratio (y) = 0.45439 -0.09950
# Poissons Ratio (z) = 0.31360 -0.09921
#
# Static dielectric constant tensor:
#      x y z
#    x 1.923860 0.000000 -0.048570 
#    y 0.000000 1.984610 0.000000 
#    z -0.048570 0.000000 1.889500 
# 
# From -- ./inp_files/67758.got.cif
#   From: 2010.05.17/outbox.cif.g08.bks.cpg/sg5_34_cif.got.tgz:67758.got - 2010.06.03 18:56:24.
