data_PCOD9128781
_publ_section_title
;
Structure prediction by ZEFSAII (Michael W. Deem and Ramdas Pophale) SiO2 
 PCOD9128781
Probable space group: C 2
;
_chemical_formula_sum "Si O2"
_cell_formula_units_Z 26
_cell_length_a 27.168912
_cell_length_b 4.958422
_cell_length_c 13.665660
_cell_angle_alpha 90.000000
_cell_angle_beta 29.911159
_cell_angle_gamma 90.000000
_cell_volume 918.011006
_symmetry_space_group_name_H-M "C 2"
_symmetry_group_IT_number 5
_symmetry_cell_setting 'monoclinic'
loop_
_space_group_symop_operation_xyz
x,y,z
-x,y,-z
1/2+x,1/2+y,z
1/2-x,1/2+y,-z
loop_
_atom_site_type_symbol
_atom_site_label
_atom_site_fract_x
_atom_site_fract_y
_atom_site_fract_z
Si Si1 0.183156 0.032540 0.725799
Si Si2 0.970581 0.603935 0.259801
Si Si3 0.123955 0.924284 0.124227
Si Si4 0.000000 0.695566 0.000000
Si Si5 0.292773 0.522877 0.550429
Si Si6 0.067388 0.225019 0.502938
Si Si7 0.182927 0.724011 0.224224
O O1 0.199424 0.330537 0.736006
O O2 0.078491 0.895263 0.913423
O O3 0.201199 0.046747 0.577808
O O4 0.398164 0.998126 0.608917
O O5 0.884822 0.830170 0.417730
O O6 0.949720 0.336505 0.357401
O O7 0.066716 0.740199 0.144476
O O8 0.966277 0.530541 0.152329
O O9 0.177830 0.754555 0.115867
O O10 0.291725 0.618241 0.063732
O O11 0.039150 0.088714 0.329780
O O12 0.259969 0.819703 0.639477
O O13 0.149888 0.001420 0.333829
#
# Coordination Sequence:
#
# PCOD9128781 Si02
#       7
#     4   4   4   2   4   4   4
#     4   9  19  40  68  97 135 201 259 325 417 460
#     4  11  27  51  79 123 170 228 296 355 438 517
#     4  12  30  53  86 135 173 226 298 355 452 538
#     4  10  24  52  78 114 170 220 282 378 410 500
#     4   9  20  40  66  98 143 193 261 330 394 499
#     4  12  29  53  82 125 171 235 282 362 438 540
#     4  12  30  51  90 125 182 222 286 366 453 519
#
# _framework density 28.322098
#
# number of rings (size 3 to 8) (size 9 to 14) (size 15 to 20)
#    0.000    1.231    1.538    1.385   10.769    1.846 
#    8.308    0.000    0.000    0.000    0.000    0.000 
#    0.000    0.000    0.000    0.000    0.000    0.000 
#
# Total GULP energy -72892.125789 kJ/mol
# GULP energy per Si atom -5607.086599 kJ/mol
# Density = 2.825764 g / cm^3
# Si number density = 28.322098 Si / 1000 Ang^3
#
#
#
# Elastic Constant Matrix: (Units=GPa)
#
#
# Indices 1 2 3 4 5 6 
#
# 1 132.6220 27.8909 32.1714 0.0011 12.3755 0.0027
# 2 27.8909 173.2823 26.9642 0.0004 -0.0793 0.0025
# 3 32.1714 26.9642 103.5867 -0.0003 -14.8591 -0.0003
# 4 0.0011 0.0004 -0.0003 44.7180 -0.0007 3.4895
# 5 12.3755 -0.0793 -14.8591 -0.0007 64.3099 0.0001
# 6 0.0027 0.0025 -0.0003 3.4895 0.0001 33.8322
#
#
#
# Elastic Compliance Matrix: (Units=1/GPa)
#
#
# Indices 1 2 3 4 5 6 
#
# 1 0.008626 -0.000960 -0.002759 0.000000 -0.002299 -0.000001
# 2 -0.000960 0.006130 -0.001313 0.000000 -0.000111 0.000000
# 3 -0.002759 -0.001313 0.011303 0.000000 0.003141 0.000000
# 4 0.000000 0.000000 0.000000 0.022544 0.000000 -0.002325
# 5 -0.002299 -0.000111 0.003141 0.000000 0.016718 0.000000
# 6 -0.000001 0.000000 0.000000 -0.002325 0.000000 0.029797
#
#
# Mechanical properties :
#
#
# Convention : Reuss Voigt Hill
#
# Bulk Modulus (GPa) = 62.52313 64.83821 63.68067
# Shear Modulus (GPa) = 45.24339 50.06965 47.65652
#
# Velocity S-wave (km/s) = 4.00116 4.20916 4.10648
# Velocity P-wave (km/s) = 6.59313 6.82390 6.70951
#
# Compressibility (1/GPa) = 0.01599408
#
# Stress axis : x y z
#
# Youngs Moduli (GPa) = 115.93060 163.13766 88.47235
#
# Poissons Ratio (x) = 0.15664 0.24407
# Poissons Ratio (y) = 0.11131 0.11620
# Poissons Ratio (z) = 0.31982 0.21426
#
# Static dielectric constant tensor:
#      x y z
#    x 2.371840 0.000000 -0.045860 
#    y 0.000000 2.137640 0.000000 
#    z -0.045860 0.000000 2.239790 
# 
# From -- ./inp_files/63666.got.cif
#   From: 2010.05.17/outbox.cif.g08.bks.cpg/sg5_32_cif.got.tgz:63666.got - 2010.06.03 18:56:24.
