data_PCOD9128222
_publ_section_title
;
Structure prediction by ZEFSAII (Michael W. Deem and Ramdas Pophale) SiO2 
 PCOD9128222
Probable space group: C 2
;
_chemical_formula_sum "Si O2"
_cell_formula_units_Z 22
_cell_length_a 17.561236
_cell_length_b 10.102437
_cell_length_c 14.797597
_cell_angle_alpha 90.000000
_cell_angle_beta 158.036979
_cell_angle_gamma 90.000000
_cell_volume 981.868756
_symmetry_space_group_name_H-M "C 2"
_symmetry_group_IT_number 5
_symmetry_cell_setting 'monoclinic'
loop_
_space_group_symop_operation_xyz
x,y,z
-x,y,-z
1/2+x,1/2+y,z
1/2-x,1/2+y,-z
loop_
_atom_site_type_symbol
_atom_site_label
_atom_site_fract_x
_atom_site_fract_y
_atom_site_fract_z
Si Si1 0.278907 0.959480 0.760534
Si Si2 0.460647 0.850205 0.705848
Si Si3 0.686484 0.745389 0.644004
Si Si4 0.362227 0.571024 0.657094
Si Si5 0.000000 0.956584 0.000000
Si Si6 0.391824 0.431410 0.231432
O O1 0.219772 0.984004 0.800099
O O2 0.101743 0.883602 0.510909
O O3 0.291110 0.107446 0.732377
O O4 0.500000 0.894942 0.000000
O O5 0.406344 0.816258 0.544107
O O6 0.355771 0.728987 0.643245
O O7 0.345553 0.990090 0.595025
O O8 0.703838 0.846160 0.986894
O O9 0.500000 0.707969 0.500000
O O10 0.829750 0.853125 0.847256
O O11 0.527613 0.520846 0.763425
O O12 0.427129 0.534264 0.831119
#
# Coordination Sequence:
#
# PCOD9128222 Si02
#       6
#     4   4   4   4   2   4
#     4  11  21  39  69 103 131 172 235 289 338 398
#     4  11  25  42  70  98 144 183 230 283 346 410
#     4  11  19  39  67 100 130 180 231 282 332 410
#     4  11  24  47  65 106 135 190 225 284 344 411
#     4  10  24  38  66  96 144 178 222 280 344 410
#     4  11  23  41  68 100 135 178 229 289 337 405
#
# _framework density 22.406251999999999
#
# number of rings (size 3 to 8) (size 9 to 14) (size 15 to 20)
#    0.000    1.091    4.545    2.182    0.000    1.455 
#    8.182    0.000    0.000    0.000    0.000    0.000 
#    0.000    0.000    0.000    0.000    0.000    0.000 
#
# Total GULP energy -61284.465251 kJ/mol
# GULP energy per Si atom -5571.315023 kJ/mol
# Density = 2.235525 g / cm^3
# Si number density = 22.406252 Si / 1000 Ang^3
#
#
#
# Elastic Constant Matrix: (Units=GPa)
#
#
# Indices 1 2 3 4 5 6 
#
# 1 88.2416 -9.5341 9.7153 0.0001 3.6339 0.0000
# 2 -9.5341 37.6429 36.3945 0.0001 1.2646 0.0001
# 3 9.7153 36.3945 147.8623 0.0002 8.2186 0.0003
# 4 0.0001 0.0001 0.0002 84.3853 0.0000 84.1876
# 5 3.6339 1.2646 8.2186 0.0000 30.6304 -0.0001
# 6 0.0000 0.0001 0.0003 84.1876 -0.0001 143.6306
#
#
#
# Elastic Compliance Matrix: (Units=1/GPa)
#
#
# Indices 1 2 3 4 5 6 
#
# 1 0.012137 0.005016 -0.001970 0.000000 -0.001118 0.000000
# 2 0.005016 0.036958 -0.009449 0.000000 0.000414 0.000000
# 3 -0.001970 -0.009449 0.009323 0.000000 -0.001878 0.000000
# 4 0.000000 0.000000 0.000000 0.028539 0.000000 -0.016728
# 5 -0.001118 0.000414 -0.001878 0.000000 0.033267 0.000000
# 6 0.000000 0.000000 0.000000 -0.016728 0.000000 0.016767
#
#
# Mechanical properties :
#
#
# Convention : Reuss Voigt Hill
#
# Bulk Modulus (GPa) = 21.92397 38.54427 30.23412
# Shear Modulus (GPa) = 30.30275 67.54067 48.92171
#
# Velocity S-wave (km/s) = 3.68152 5.49628 4.67775
# Velocity P-wave (km/s) = 5.27991 7.58410 6.53437
#
# Compressibility (1/GPa) = 0.04561218
#
# Stress axis : x y z
#
# Youngs Moduli (GPa) = 82.38940 27.05769 107.26490
#
# Poissons Ratio (x) = -0.13573 0.21132
# Poissons Ratio (y) = -0.41330 1.01359
# Poissons Ratio (z) = 0.16231 0.25568
#
# Static dielectric constant tensor:
#      x y z
#    x 1.766550 0.000000 0.080000 
#    y 0.000000 1.844390 0.000000 
#    z 0.080000 0.000000 1.828530 
# 
# From -- ./inp_files/55998.got.cif
#   From: 2010.05.17/outbox.cif.g08.bks.cpg/sg5_28_cif.got.tgz:55998.got - 2010.06.03 18:56:24.
