data_PCOD9128688
_publ_section_title
;
Structure prediction by ZEFSAII (Michael W. Deem and Ramdas Pophale) SiO2 
 PCOD9128688
Probable space group: C 2
;
_chemical_formula_sum "Si O2"
_cell_formula_units_Z 28
_cell_length_a 16.489690
_cell_length_b 5.406423
_cell_length_c 14.187648
_cell_angle_alpha 90.000000
_cell_angle_beta 119.268590
_cell_angle_gamma 90.000000
_cell_volume 1103.360476
_symmetry_space_group_name_H-M "C 2"
_symmetry_group_IT_number 5
_symmetry_cell_setting 'monoclinic'
loop_
_space_group_symop_operation_xyz
x,y,z
-x,y,-z
1/2+x,1/2+y,z
1/2-x,1/2+y,-z
loop_
_atom_site_type_symbol
_atom_site_label
_atom_site_fract_x
_atom_site_fract_y
_atom_site_fract_z
Si Si1 0.819454 0.100990 0.695717
Si Si2 0.687916 0.106991 0.192701
Si Si3 0.129430 0.624419 0.521883
Si Si4 0.048378 0.403528 0.657386
Si Si5 0.969446 0.151773 0.168859
Si Si6 0.500000 0.506752 0.500000
Si Si7 0.712939 0.414496 0.933927
Si Si8 0.000000 0.465661 0.000000
O O1 0.814469 0.378669 0.735500
O O2 0.738032 0.094875 0.571665
O O3 0.928752 0.065044 0.741025
O O4 0.792822 0.872432 0.750293
O O5 0.755846 0.011565 0.150172
O O6 0.587047 0.122011 0.085387
O O7 0.102416 0.591448 0.619243
O O8 0.061963 0.450099 0.423223
O O9 0.076826 0.879581 0.477095
O O10 0.066561 0.353449 0.775398
O O11 0.064266 0.154358 0.608804
O O12 0.898085 0.926773 0.124008
O O13 0.973103 0.287311 0.071055
O O14 0.751698 0.142239 0.979031
#
# Coordination Sequence:
#
# PCOD9128688 Si02
#       8
#     4   4   4   4   4   2   4   2
#     4  11  26  43  71 103 140 185 221 286 353 415
#     4  11  25  45  69  97 136 187 230 282 346 410
#     4   9  20  42  70  99 141 176 227 286 348 407
#     4   9  20  42  71 100 136 175 238 278 341 411
#     4  11  25  46  68 104 137 185 233 286 346 413
#     4   8  18  38  68  98 130 180 222 290 330 408
#     4  12  26  44  70  99 132 183 239 295 334 407
#     4  10  24  48  66  92 148 178 226 288 350 404
#
# _framework density 25.377016999999999
#
# number of rings (size 3 to 8) (size 9 to 14) (size 15 to 20)
#    0.000    2.000    1.429    1.714   10.000    0.571 
#   15.429    0.000    0.000    0.000    0.000    0.000 
#    0.000    0.000    0.000    0.000    0.000    0.000 
#
# Total GULP energy -78211.900884 kJ/mol
# GULP energy per Si atom -5586.564349 kJ/mol
# Density = 2.531926 g / cm^3
# Si number density = 25.377017 Si / 1000 Ang^3
#
#
#
# Elastic Constant Matrix: (Units=GPa)
#
#
# Indices 1 2 3 4 5 6 
#
# 1 69.2215 -7.8904 20.9128 0.0000 31.7558 0.0000
# 2 -7.8904 85.1188 25.3996 0.0000 6.3153 0.0000
# 3 20.9128 25.3996 76.3067 0.0000 5.3613 0.0000
# 4 0.0000 0.0000 0.0000 21.3824 0.0000 4.8272
# 5 31.7558 6.3153 5.3613 0.0000 68.0802 0.0000
# 6 0.0000 0.0000 0.0000 4.8272 0.0000 19.1490
#
#
#
# Elastic Compliance Matrix: (Units=1/GPa)
#
#
# Indices 1 2 3 4 5 6 
#
# 1 0.021640 0.004783 -0.006820 0.000000 -0.010000 0.000000
# 2 0.004783 0.014153 -0.005805 0.000000 -0.003087 0.000000
# 3 -0.006820 -0.005805 0.016738 0.000000 0.002402 0.000000
# 4 0.000000 0.000000 0.000000 0.049590 0.000000 -0.012501
# 5 -0.010000 -0.003087 0.002402 0.000000 0.019450 0.000000
# 6 0.000000 0.000000 0.000000 -0.012501 0.000000 0.055373
#
#
# Mechanical properties :
#
#
# Convention : Reuss Voigt Hill
#
# Bulk Modulus (GPa) = 27.13971 34.16568 30.65270
# Shear Modulus (GPa) = 24.40097 34.53731 29.46914
#
# Velocity S-wave (km/s) = 3.10423 3.69313 3.41141
# Velocity P-wave (km/s) = 4.85450 5.62833 5.25568
#
# Compressibility (1/GPa) = 0.03684637
#
# Stress axis : x y z
#
# Youngs Moduli (GPa) = 46.21104 70.65695 59.74547
#
# Poissons Ratio (x) = -0.33796 0.40747
# Poissons Ratio (y) = -0.22103 0.34682
# Poissons Ratio (z) = 0.31517 0.41016
#
# Static dielectric constant tensor:
#      x y z
#    x 2.079250 0.000000 0.004050 
#    y 0.000000 2.054660 0.000000 
#    z 0.004050 0.000000 2.003990 
# 
# From -- ./inp_files/55385.got.cif
#   From: 2010.05.17/outbox.cif.g08.bks.cpg/sg5_28_cif.got.tgz:55385.got - 2010.06.03 18:56:24.
