data_PCOD9128502
_publ_section_title
;
Structure prediction by ZEFSAII (Michael W. Deem and Ramdas Pophale) SiO2 
 PCOD9128502
Probable space group: C 2
;
_chemical_formula_sum "Si O2"
_cell_formula_units_Z 20
_cell_length_a 5.202532
_cell_length_b 19.652055
_cell_length_c 8.056954
_cell_angle_alpha 90.000000
_cell_angle_beta 95.359945
_cell_angle_gamma 90.000000
_cell_volume 820.144740
_symmetry_space_group_name_H-M "C 2"
_symmetry_group_IT_number 5
_symmetry_cell_setting 'monoclinic'
loop_
_space_group_symop_operation_xyz
x,y,z
-x,y,-z
1/2+x,1/2+y,z
1/2-x,1/2+y,-z
loop_
_atom_site_type_symbol
_atom_site_label
_atom_site_fract_x
_atom_site_fract_y
_atom_site_fract_z
Si Si1 0.312638 0.667480 0.831281
Si Si2 0.000000 0.780045 0.000000
Si Si3 0.609239 0.017667 0.824456
Si Si4 0.886028 0.890587 0.768116
Si Si5 0.500000 0.946705 0.500000
Si Si6 0.500000 0.316436 0.500000
Si Si7 0.000000 0.223735 0.500000
O O1 0.131591 0.729871 0.876779
O O2 0.163944 0.596462 0.805959
O O3 0.456806 0.682168 0.667859
O O4 0.500000 0.658638 0.000000
O O5 0.810022 0.835714 0.901611
O O6 0.861255 0.967735 0.827794
O O7 0.434842 0.993085 0.656811
O O8 0.500000 0.004657 0.000000
O O9 0.710531 0.899161 0.594645
O O10 0.109547 0.854324 0.678255
O O11 0.736787 0.266478 0.463019
#
# Coordination Sequence:
#
# PCOD9128502 Si02
#       7
#     4   2   4   4   2   2   2
#     4  12  28  49  79 121 166 225 284 350 435 516
#     4  12  24  52  82 118 168 216 278 360 426 510
#     4  10  24  48  79 117 166 217 284 346 424 511
#     4  10  24  44  77 114 165 209 281 340 428 484
#     4   8  23  47  76 120 160 218 280 344 421 507
#     4  12  24  50  76 123 159 220 286 356 414 522
#     4  12  29  49  84 117 173 222 288 350 435 505
#
# _framework density 24.385937999999999
#
# number of rings (size 3 to 8) (size 9 to 14) (size 15 to 20)
#    1.200    0.000    3.000    1.800    1.400    7.200 
#    0.000    0.000    0.000    0.000    0.000    0.000 
#    0.000    0.000    0.000    0.000    0.000    0.000 
#
# Total GULP energy -55680.473632 kJ/mol
# GULP energy per Si atom -5568.047363 kJ/mol
# Density = 2.433043 g / cm^3
# Si number density = 24.385938 Si / 1000 Ang^3
#
#
#
# Elastic Constant Matrix: (Units=GPa)
#
#
# Indices 1 2 3 4 5 6 
#
# 1 18.4420 12.5534 31.0203 0.0000 -8.3092 0.0000
# 2 12.5534 164.7378 67.6801 0.0000 -3.1231 0.0000
# 3 31.0203 67.6801 215.9196 0.0000 -8.8320 0.0000
# 4 0.0000 0.0000 0.0000 35.9617 0.0000 -0.3708
# 5 -8.3092 -3.1231 -8.8320 0.0000 45.0887 0.0000
# 6 0.0000 0.0000 0.0000 -0.3708 0.0000 16.5717
#
#
#
# Elastic Compliance Matrix: (Units=1/GPa)
#
#
# Indices 1 2 3 4 5 6 
#
# 1 0.077981 -0.001507 -0.010229 0.000000 0.012263 0.000000
# 2 -0.001507 0.006997 -0.001984 0.000000 -0.000182 0.000000
# 3 -0.010229 -0.001984 0.006694 0.000000 -0.000711 0.000000
# 4 0.000000 0.000000 0.000000 0.027814 0.000000 0.000622
# 5 0.012263 -0.000182 -0.000711 0.000000 0.024286 0.000000
# 6 0.000000 0.000000 0.000000 0.000622 0.000000 0.060358
#
#
# Mechanical properties :
#
#
# Convention : Reuss Voigt Hill
#
# Bulk Modulus (GPa) = 15.56888 69.06745 42.31816
# Shear Modulus (GPa) = 19.76432 38.71414 29.23923
#
# Velocity S-wave (km/s) = 2.84998 3.98874 3.46644
# Velocity P-wave (km/s) = 4.15067 7.04255 5.78038
#
# Compressibility (1/GPa) = 0.06423069
#
# Stress axis : x y z
#
# Youngs Moduli (GPa) = 12.82358 142.92296 149.39330
#
# Poissons Ratio (x) = 0.21544 1.52817
# Poissons Ratio (y) = 0.01933 0.29640
# Poissons Ratio (z) = 0.13117 0.28356
#
# Static dielectric constant tensor:
#      x y z
#    x 2.045690 0.000000 0.013050 
#    y 0.000000 2.059260 0.000000 
#    z 0.013050 0.000000 2.024290 
# 
# From -- ./inp_files/12077.got.cif
#   From: 2010.05.17/outbox.cif.g08.bks.cpg/sg5_7_cif.got.tgz:12077.got - 2010.06.03 18:56:24.
