data_PCOD9128868
_publ_section_title
;
Structure prediction by ZEFSAII (Michael W. Deem and Ramdas Pophale) SiO2 
 PCOD9128868
Probable space group: C 2
;
_chemical_formula_sum "Si O2"
_cell_formula_units_Z 16
_cell_length_a 5.137118
_cell_length_b 10.920593
_cell_length_c 10.416481
_cell_angle_alpha 90.000000
_cell_angle_beta 91.681255
_cell_angle_gamma 90.000000
_cell_volume 584.116925
_symmetry_space_group_name_H-M "C 2"
_symmetry_group_IT_number 5
_symmetry_cell_setting 'monoclinic'
loop_
_space_group_symop_operation_xyz
x,y,z
-x,y,-z
1/2+x,1/2+y,z
1/2-x,1/2+y,-z
loop_
_atom_site_type_symbol
_atom_site_label
_atom_site_fract_x
_atom_site_fract_y
_atom_site_fract_z
Si Si1 0.041015 0.234120 0.685231
Si Si2 0.884715 0.579690 0.857257
Si Si3 0.805102 0.502599 0.381514
Si Si4 0.766346 0.840920 0.088850
O O1 0.928908 0.105368 0.622647
O O2 0.807869 0.277604 0.777227
O O3 0.264890 0.193614 0.785329
O O4 0.175883 0.350264 0.610625
O O5 0.661904 0.478534 0.869973
O O6 0.079459 0.520735 0.758382
O O7 0.000000 0.585140 0.000000
O O8 0.000000 0.541260 0.500000
O O9 0.500000 0.832972 0.000000
O O10 0.000000 0.805879 0.000000
#
# Coordination Sequence:
#
# PCOD9128868 Si02
#       4
#     4   4   4   4
#     4  11  28  50  81 118 167 219 288 355 444 521
#     4  10  26  49  79 122 165 213 281 359 443 523
#     4  11  29  53  80 121 160 229 286 359 430 529
#     4  10  25  45  76 118 167 215 275 352 442 525
#
# _framework density 27.391774000000002
#
# number of rings (size 3 to 8) (size 9 to 14) (size 15 to 20)
#    0.000    1.500    0.000    0.000   21.000    2.000 
#   13.500    0.000    0.000    0.000    0.000    0.000 
#    0.000    0.000    0.000    0.000    0.000    0.000 
#
# Total GULP energy -44535.281637 kJ/mol
# GULP energy per Si atom -5566.910205 kJ/mol
# Density = 2.732943 g / cm^3
# Si number density = 27.391774 Si / 1000 Ang^3
#
#
#
# Elastic Constant Matrix: (Units=GPa)
#
#
# Indices 1 2 3 4 5 6 
#
# 1 118.3358 30.1417 32.1315 0.0000 4.5866 0.0000
# 2 30.1417 178.7697 31.8820 0.0000 25.4232 0.0000
# 3 32.1315 31.8820 168.0342 0.0000 17.7569 0.0000
# 4 0.0000 0.0000 0.0000 -333.8662 0.0000 288.6242
# 5 4.5866 25.4232 17.7569 0.0000 52.2458 0.0000
# 6 0.0000 0.0000 0.0000 288.6242 0.0000 -172.6645
#
#
#
# Elastic Compliance Matrix: (Units=1/GPa)
#
#
# Indices 1 2 3 4 5 6 
#
# 1 0.009194 -0.001326 -0.001545 0.000000 0.000363 0.000000
# 2 -0.001326 0.006324 -0.000657 0.000000 -0.002738 0.000000
# 3 -0.001545 -0.000657 0.006559 0.000000 -0.001774 0.000000
# 4 0.000000 0.000000 0.000000 0.006730 0.000000 0.011249
# 5 0.000363 -0.002738 -0.001774 0.000000 0.021043 0.000000
# 6 0.000000 0.000000 0.000000 0.011249 0.000000 0.013013
#
#
# Mechanical properties :
#
#
# Convention : Reuss Voigt Hill
#
# Bulk Modulus (GPa) = 66.57695 72.60558 69.59126
# Shear Modulus (GPa) = 66.73361 -66.12468 0.30446
#
# Velocity S-wave (km/s) = 4.94121 -4.91861 0.33376
# Velocity P-wave (km/s) = 7.54402 2.38602 5.06059
#
# Compressibility (1/GPa) = 0.01502021
#
# Stress axis : x y z
#
# Youngs Moduli (GPa) = 108.76990 158.13063 152.47028
#
# Poissons Ratio (x) = 0.20973 0.23553
# Poissons Ratio (y) = 0.14426 0.10017
# Poissons Ratio (z) = 0.16802 0.10389
#
# Static dielectric constant tensor:
#      x y z
#    x 2.638290 0.000000 0.609920 
#    y 0.000000 2.413520 0.000000 
#    z 0.609920 0.000000 2.863990 
# 
# From -- ./inp_files/33005.got.cif
#   From: 2010.05.17/outbox.cif.g08.bks.cpg/sg5_17_cif.got.tgz:33005.got - 2010.06.03 18:56:24.
