data_PCOD9128966
_publ_section_title
;
Structure prediction by ZEFSAII (Michael W. Deem and Ramdas Pophale) SiO2 
 PCOD9128966
Probable space group: C 2
;
_chemical_formula_sum "Si O2"
_cell_formula_units_Z 18
_cell_length_a 10.738276
_cell_length_b 8.870566
_cell_length_c 9.436632
_cell_angle_alpha 90.000000
_cell_angle_beta 48.325609
_cell_angle_gamma 90.000000
_cell_volume 671.407176
_symmetry_space_group_name_H-M "C 2"
_symmetry_group_IT_number 5
_symmetry_cell_setting 'monoclinic'
loop_
_space_group_symop_operation_xyz
x,y,z
-x,y,-z
1/2+x,1/2+y,z
1/2-x,1/2+y,-z
loop_
_atom_site_type_symbol
_atom_site_label
_atom_site_fract_x
_atom_site_fract_y
_atom_site_fract_z
Si Si1 0.722109 0.222940 0.574819
Si Si2 0.947920 0.085535 0.772484
Si Si3 0.000000 0.441000 0.500000
Si Si4 0.689939 0.923676 0.101099
Si Si5 0.500000 0.374325 0.500000
Si Si6 0.500000 0.089652 0.000000
O O1 0.609693 0.284338 0.530721
O O2 0.609656 0.178316 0.796674
O O3 0.854096 0.108528 0.397868
O O4 0.858142 0.340413 0.532287
O O5 0.852971 0.246309 0.854550
O O6 0.896731 0.992008 0.672066
O O7 0.880187 0.977841 0.947673
O O8 0.099798 0.513265 0.296453
O O9 0.603537 0.981598 0.024959
#
# Coordination Sequence:
#
# PCOD9128966 Si02
#       6
#     4   4   2   4   2   2
#     4  11  28  55  91 131 181 238 308 377 455 544
#     4  11  27  53  86 131 175 240 302 367 455 543
#     4  10  25  53  78 132 173 235 298 368 443 545
#     4  11  26  52  87 122 190 233 302 374 446 545
#     4  12  29  57  96 128 191 241 300 390 455 553
#     4  12  26  50  88 134 182 232 302 372 464 548
#
# _framework density 26.809366000000001
#
# number of rings (size 3 to 8) (size 9 to 14) (size 15 to 20)
#    0.000    0.889    0.000    6.667   18.667    0.889 
#    4.000    0.000    0.000    0.000    0.000    0.000 
#    0.000    0.000    0.000    0.000    0.000    0.000 
#
# Total GULP energy -50293.299703 kJ/mol
# GULP energy per Si atom -5588.144411 kJ/mol
# Density = 2.674835 g / cm^3
# Si number density = 26.809366 Si / 1000 Ang^3
#
#
#
# Elastic Constant Matrix: (Units=GPa)
#
#
# Indices 1 2 3 4 5 6 
#
# 1 189.0020 77.8290 88.2840 0.0000 29.5691 0.0000
# 2 77.8290 129.8860 97.8759 0.0000 -13.7875 0.0000
# 3 88.2840 97.8759 287.3585 0.0000 -8.3699 0.0000
# 4 0.0000 0.0000 0.0000 64.2025 0.0000 5.6993
# 5 29.5691 -13.7875 -8.3699 0.0000 42.4908 0.0000
# 6 0.0000 0.0000 0.0000 5.6993 0.0000 38.8474
#
#
#
# Elastic Compliance Matrix: (Units=1/GPa)
#
#
# Indices 1 2 3 4 5 6 
#
# 1 0.009627 -0.005761 -0.001252 0.000000 -0.008816 0.000000
# 2 -0.005761 0.014118 -0.002805 0.000000 0.008037 0.000000
# 3 -0.001252 -0.002805 0.004847 0.000000 0.000916 0.000000
# 4 0.000000 0.000000 0.000000 0.015781 0.000000 -0.002315
# 5 -0.008816 0.008037 0.000916 0.000000 0.032458 0.000000
# 6 0.000000 0.000000 0.000000 -0.002315 0.000000 0.026081
#
#
# Mechanical properties :
#
#
# Convention : Reuss Voigt Hill
#
# Bulk Modulus (GPa) = 111.65621 126.02492 118.84056
# Shear Modulus (GPa) = 39.83016 51.92533 45.87775
#
# Velocity S-wave (km/s) = 3.85863 4.40572 4.14122
# Velocity P-wave (km/s) = 7.84797 8.54344 8.20308
#
# Compressibility (1/GPa) = 0.00895606
#
# Stress axis : x y z
#
# Youngs Moduli (GPa) = 103.87001 70.83365 206.32786
#
# Poissons Ratio (x) = 0.40807 0.25840
# Poissons Ratio (y) = 0.59839 0.57865
# Poissons Ratio (z) = 0.13008 0.19865
#
# Static dielectric constant tensor:
#      x y z
#    x 2.096400 0.000000 -0.048040 
#    y 0.000000 2.262580 0.000000 
#    z -0.048040 0.000000 2.237360 
# 
# From -- ./inp_files/18191.got.cif
#   From: 2010.05.17/outbox.cif.g08.bks.cpg/sg5_10_cif.got.tgz:18191.got - 2010.06.03 18:56:24.
