data_PCOD9128032
_publ_section_title
;
Structure prediction by ZEFSAII (Michael W. Deem and Ramdas Pophale) SiO2 
 PCOD9128032
Probable space group: C 2
;
_chemical_formula_sum "Si O2"
_cell_formula_units_Z 30
_cell_length_a 18.508759
_cell_length_b 13.438415
_cell_length_c 5.816714
_cell_angle_alpha 90.000000
_cell_angle_beta 115.042565
_cell_angle_gamma 90.000000
_cell_volume 1310.775084
_symmetry_space_group_name_H-M "C 2"
_symmetry_group_IT_number 5
_symmetry_cell_setting 'monoclinic'
loop_
_space_group_symop_operation_xyz
x,y,z
-x,y,-z
1/2+x,1/2+y,z
1/2-x,1/2+y,-z
loop_
_atom_site_type_symbol
_atom_site_label
_atom_site_fract_x
_atom_site_fract_y
_atom_site_fract_z
Si Si1 0.370202 0.148530 0.170082
Si Si2 0.000000 0.140551 0.000000
Si Si3 0.699730 0.687560 0.716066
Si Si4 0.589712 0.986007 0.080541
Si Si5 0.436238 0.812708 0.597850
Si Si6 0.215148 0.596835 0.550469
Si Si7 0.354822 0.522511 0.031284
Si Si8 0.541130 0.339067 0.805422
O O1 0.355019 0.156052 0.418643
O O2 0.435124 0.223670 0.166433
O O3 0.284819 0.186426 0.956656
O O4 0.391153 0.033151 0.144632
O O5 0.973402 0.211904 0.754553
O O6 0.074466 0.074592 0.018969
O O7 0.642423 0.781824 0.650027
O O8 0.723455 0.671379 0.484814
O O9 0.654908 0.590207 0.754360
O O10 0.582699 0.880167 0.203865
O O11 0.667323 0.031294 0.307873
O O12 0.500000 0.025693 0.000000
O O13 0.500000 0.855546 0.500000
O O14 0.270131 0.531614 0.790323
O O15 0.381517 0.410180 0.101121
O O16 0.500000 0.360006 0.500000
O O17 0.500000 0.358877 0.000000
#
# Coordination Sequence:
#
# PCOD9128032 Si02
#       8
#     4   2   4   4   4   4   4   4
#     4  10  26  50  68 100 143 193 247 313 363 441
#     4  12  22  42  70 100 152 186 232 306 374 448
#     4  10  23  45  70 102 142 189 239 305 377 439
#     4  11  26  44  70 102 137 185 253 299 372 435
#     4  12  25  41  72 104 140 187 236 300 372 445
#     4  10  24  46  71  97 143 195 235 310 370 438
#     4  11  24  45  71 107 147 189 244 303 379 452
#     4  12  30  48  79 114 145 200 257 308 381 447
#
# _framework density 22.887221
#
# number of rings (size 3 to 8) (size 9 to 14) (size 15 to 20)
#    0.000    1.067    4.000    0.400   13.067    0.000 
#    7.200    0.000    0.000    0.000    0.000    0.000 
#    0.000    0.000    0.000    0.000    0.000    0.000 
#
# Total GULP energy -83561.905586 kJ/mol
# GULP energy per Si atom -5570.793706 kJ/mol
# Density = 2.283513 g / cm^3
# Si number density = 22.887221 Si / 1000 Ang^3
#
#
#
# Elastic Constant Matrix: (Units=GPa)
#
#
# Indices 1 2 3 4 5 6 
#
# 1 102.3069 20.4360 12.0074 0.0000 -8.8331 0.0000
# 2 20.4360 74.1161 1.4007 0.0000 -6.2206 0.0000
# 3 12.0074 1.4007 44.0564 0.0000 -3.7032 0.0000
# 4 0.0000 0.0000 0.0000 10.3392 0.0000 5.5577
# 5 -8.8331 -6.2206 -3.7032 0.0000 40.9476 0.0000
# 6 0.0000 0.0000 0.0000 5.5577 0.0000 29.4365
#
#
#
# Elastic Compliance Matrix: (Units=1/GPa)
#
#
# Indices 1 2 3 4 5 6 
#
# 1 0.010793 -0.002785 -0.002713 0.000000 0.001660 0.000000
# 2 -0.002785 0.014388 0.000438 0.000000 0.001625 0.000000
# 3 -0.002713 0.000438 0.023559 0.000000 0.001612 0.000000
# 4 0.000000 0.000000 0.000000 0.107644 0.000000 -0.020324
# 5 0.001660 0.001625 0.001612 0.000000 0.025172 0.000000
# 6 0.000000 0.000000 0.000000 -0.020324 0.000000 0.037809
#
#
# Mechanical properties :
#
#
# Convention : Reuss Voigt Hill
#
# Bulk Modulus (GPa) = 25.89375 32.01860 28.95618
# Shear Modulus (GPa) = 20.63054 28.58700 24.60877
#
# Velocity S-wave (km/s) = 3.00559 3.53801 3.28261
# Velocity P-wave (km/s) = 4.83559 5.54167 5.20063
#
# Compressibility (1/GPa) = 0.03861935
#
# Stress axis : x y z
#
# Youngs Moduli (GPa) = 92.65579 69.50043 42.44611
#
# Poissons Ratio (x) = 0.19358 0.11517
# Poissons Ratio (y) = 0.25807 -0.01860
# Poissons Ratio (z) = 0.25141 -0.03046
#
# Static dielectric constant tensor:
#      x y z
#    x 1.857680 0.000000 -0.064120 
#    y 0.000000 1.839990 0.000000 
#    z -0.064120 0.000000 1.980760 
# 
# From -- ./inp_files/8684.got.cif
#   From: 2010.05.17/outbox.cif.g08.bks.cpg/sg5_5_cif.got.tgz:8684.got - 2010.06.03 18:56:24.
