data_PCOD9128776
_publ_section_title
;
Structure prediction by ZEFSAII (Michael W. Deem and Ramdas Pophale) SiO2 
 PCOD9128776
Probable space group: C 2
;
_chemical_formula_sum "Si O2"
_cell_formula_units_Z 28
_cell_length_a 20.025675
_cell_length_b 4.965100
_cell_length_c 22.548858
_cell_angle_alpha 90.000000
_cell_angle_beta 152.726663
_cell_angle_gamma 90.000000
_cell_volume 1027.374784
_symmetry_space_group_name_H-M "C 2"
_symmetry_group_IT_number 5
_symmetry_cell_setting 'monoclinic'
loop_
_space_group_symop_operation_xyz
x,y,z
-x,y,-z
1/2+x,1/2+y,z
1/2-x,1/2+y,-z
loop_
_atom_site_type_symbol
_atom_site_label
_atom_site_fract_x
_atom_site_fract_y
_atom_site_fract_z
Si Si1 0.236659 0.877050 0.843642
Si Si2 0.000000 0.048430 0.000000
Si Si3 0.154631 0.053375 0.538013
Si Si4 0.826082 0.603878 0.039430
Si Si5 0.683803 0.409159 0.255233
Si Si6 0.500000 0.179285 0.500000
Si Si7 0.911936 0.281439 0.709411
Si Si8 0.048253 0.352242 0.694997
O O1 0.114127 0.645732 0.756870
O O2 0.171674 0.153314 0.766954
O O3 0.364408 0.736488 0.909218
O O4 0.304871 0.980742 0.958528
O O5 0.063769 0.896652 0.108521
O O6 0.263701 0.124197 0.677648
O O7 0.084790 0.320085 0.455424
O O8 0.253782 0.900934 0.569040
O O9 0.032572 0.868739 0.469884
O O10 0.982768 0.522334 0.186145
O O11 0.786021 0.916609 0.011011
O O12 0.845024 0.531049 0.365927
O O13 0.617656 0.575736 0.259690
O O14 0.993064 0.207004 0.712265
#
# Coordination Sequence:
#
# PCOD9128776 Si02
#       8
#     4   2   4   4   4   2   4   4
#     4  12  27  49  75 114 152 203 256 319 386 464
#     4  12  28  48  78 114 156 204 268 322 384 462
#     4  11  28  45  77 108 154 204 260 319 383 467
#     4  12  23  46  73 106 152 196 250 311 389 458
#     4  11  26  48  75 106 154 200 264 321 387 456
#     4  10  24  52  72 106 150 212 252 322 384 468
#     4  11  26  45  73 109 147 198 253 325 383 461
#     4  12  29  48  79 112 157 203 256 319 397 461
#
# _framework density 27.253931999999999
#
# number of rings (size 3 to 8) (size 9 to 14) (size 15 to 20)
#    0.000    0.571    4.286    1.286   14.000    1.714 
#    0.000    0.000    0.000    0.000    0.000    0.000 
#    0.000    0.000    0.000    0.000    0.000    0.000 
#
# Total GULP energy -78440.101123 kJ/mol
# GULP energy per Si atom -5602.864366 kJ/mol
# Density = 2.719190 g / cm^3
# Si number density = 27.253932 Si / 1000 Ang^3
#
#
#
# Elastic Constant Matrix: (Units=GPa)
#
#
# Indices 1 2 3 4 5 6 
#
# 1 98.3961 25.9574 49.7048 0.0005 22.2572 0.0001
# 2 25.9574 103.9725 27.6037 0.0035 6.8729 0.0107
# 3 49.7048 27.6037 123.2723 -0.0012 -6.7724 -0.0016
# 4 0.0005 0.0035 -0.0012 41.6820 0.0000 2.8228
# 5 22.2572 6.8729 -6.7724 0.0000 58.9384 0.0013
# 6 0.0001 0.0107 -0.0016 2.8228 0.0013 37.9210
#
#
#
# Elastic Compliance Matrix: (Units=1/GPa)
#
#
# Indices 1 2 3 4 5 6 
#
# 1 0.015064 -0.001754 -0.006020 0.000000 -0.006176 0.000000
# 2 -0.001754 0.010557 -0.001699 -0.000001 -0.000764 -0.000003
# 3 -0.006020 -0.001699 0.011126 0.000000 0.003750 0.000001
# 4 0.000000 -0.000001 0.000000 0.024113 0.000000 -0.001795
# 5 -0.006176 -0.000764 0.003750 0.000000 0.019819 0.000000
# 6 0.000000 -0.000003 0.000001 -0.001795 0.000000 0.026504
#
#
# Mechanical properties :
#
#
# Convention : Reuss Voigt Hill
#
# Bulk Modulus (GPa) = 56.17765 59.13029 57.65397
# Shear Modulus (GPa) = 37.86049 42.53328 40.19689
#
# Velocity S-wave (km/s) = 3.73121 3.95477 3.84461
# Velocity P-wave (km/s) = 6.26259 6.52662 6.39596
#
# Compressibility (1/GPa) = 0.01780067
#
# Stress axis : x y z
#
# Youngs Moduli (GPa) = 66.38338 94.72070 89.87911
#
# Poissons Ratio (x) = 0.16616 0.54111
# Poissons Ratio (y) = 0.11645 0.15268
# Poissons Ratio (z) = 0.39966 0.16090
#
# Static dielectric constant tensor:
#      x y z
#    x 2.199790 0.000000 -0.005970 
#    y 0.000000 2.046590 0.000000 
#    z -0.005970 0.000000 2.139270 
# 
# From -- ./inp_files/69360.got.cif
#   From: 2010.05.17/outbox.cif.g08.bks.cpg/sg5_35_cif.got.tgz:69360.got - 2010.06.03 18:56:24.
