data_PCOD9128581
_publ_section_title
;
Structure prediction by ZEFSAII (Michael W. Deem and Ramdas Pophale) SiO2 
 PCOD9128581
Probable space group: C 2
;
_chemical_formula_sum "Si O2"
_cell_formula_units_Z 20
_cell_length_a 12.684316
_cell_length_b 8.007832
_cell_length_c 20.156669
_cell_angle_alpha 90.000000
_cell_angle_beta 21.933005
_cell_angle_gamma 90.000000
_cell_volume 764.745950
_symmetry_space_group_name_H-M "C 2"
_symmetry_group_IT_number 5
_symmetry_cell_setting 'monoclinic'
loop_
_space_group_symop_operation_xyz
x,y,z
-x,y,-z
1/2+x,1/2+y,z
1/2-x,1/2+y,-z
loop_
_atom_site_type_symbol
_atom_site_label
_atom_site_fract_x
_atom_site_fract_y
_atom_site_fract_z
Si Si1 0.457908 0.714650 0.310511
Si Si2 0.500000 0.614320 0.500000
Si Si3 0.000000 0.193306 0.000000
Si Si4 0.696365 0.429178 0.994819
Si Si5 0.119869 0.848338 0.631474
Si Si6 0.389773 0.104172 0.164264
O O1 0.572139 0.830588 0.185233
O O2 0.276059 0.818336 0.469730
O O3 0.315508 0.535861 0.380592
O O4 0.737049 0.646687 0.185736
O O5 0.273133 0.720022 0.591025
O O6 0.666451 0.522635 0.344851
O O7 0.288259 0.296798 0.818948
O O8 0.069070 0.074572 0.022919
O O9 0.832157 0.498263 0.983048
O O10 0.466341 0.290266 0.144374
#
# Coordination Sequence:
#
# PCOD9128581 Si02
#       6
#     4   2   2   4   4   4
#     4  11  26  49  73 104 150 197 243 309 372 443
#     4  10  24  46  68  98 148 178 246 298 360 434
#     4  12  24  46  76 108 146 196 246 306 368 442
#     4  12  26  47  73 110 150 194 251 302 375 443
#     4  11  26  46  75 105 145 196 246 302 379 433
#     4  11  26  45  72 103 148 194 244 307 364 443
#
# _framework density 26.152476
#
# number of rings (size 3 to 8) (size 9 to 14) (size 15 to 20)
#    0.000    0.800    4.000    1.200   14.000    0.000 
#    3.600    0.000    0.000    0.000    0.000    0.000 
#    0.000    0.000    0.000    0.000    0.000    0.000 
#
# Total GULP energy -55971.876399 kJ/mol
# GULP energy per Si atom -5597.187640 kJ/mol
# Density = 2.609295 g / cm^3
# Si number density = 26.152476 Si / 1000 Ang^3
#
#
#
# Elastic Constant Matrix: (Units=GPa)
#
#
# Indices 1 2 3 4 5 6 
#
# 1 116.2000 40.0687 34.5265 -0.0289 -18.3537 -0.0261
# 2 40.0687 111.5926 21.0282 -0.0056 -11.0411 -0.0164
# 3 34.5265 21.0282 121.2128 -0.1864 17.0711 -0.1122
# 4 -0.0289 -0.0056 -0.1864 33.4346 0.0467 -7.0508
# 5 -18.3537 -11.0411 17.0711 0.0467 59.3743 0.0449
# 6 -0.0261 -0.0164 -0.1122 -7.0508 0.0449 40.5623
#
#
#
# Elastic Compliance Matrix: (Units=1/GPa)
#
#
# Indices 1 2 3 4 5 6 
#
# 1 0.011211 -0.003044 -0.003203 -0.000016 0.003820 -0.000010
# 2 -0.003044 0.010395 -0.001122 -0.000010 0.001315 -0.000004
# 3 -0.003203 -0.001122 0.009928 0.000067 -0.004053 0.000041
# 4 -0.000016 -0.000010 0.000067 0.031048 -0.000054 0.005397
# 5 0.003820 0.001315 -0.004053 -0.000054 0.019433 -0.000039
# 6 -0.000010 -0.000004 0.000041 0.005397 -0.000039 0.025592
#
#
# Mechanical properties :
#
#
# Convention : Reuss Voigt Hill
#
# Bulk Modulus (GPa) = 59.53523 60.02802 59.78163
# Shear Modulus (GPa) = 39.07989 43.56637 41.32313
#
# Velocity S-wave (km/s) = 3.86982 4.08592 3.97934
# Velocity P-wave (km/s) = 6.54075 6.72775 6.63491
#
# Compressibility (1/GPa) = 0.01679678
#
# Stress axis : x y z
#
# Youngs Moduli (GPa) = 89.20110 96.19560 100.72547
#
# Poissons Ratio (x) = 0.29279 0.32266
# Poissons Ratio (y) = 0.27150 0.11298
# Poissons Ratio (z) = 0.28574 0.10790
#
# Static dielectric constant tensor:
#      x y z
#    x 2.044760 -0.000120 0.031350 
#    y -0.000120 2.080630 0.000050 
#    z 0.031350 0.000050 2.119230 
# 
# From -- ./inp_files/68620.got.cif
#   From: 2010.05.17/outbox.cif.g08.bks.cpg/sg5_35_cif.got.tgz:68620.got - 2010.06.03 18:56:24.
