data_PCOD9128001
_publ_section_title
;
Structure prediction by ZEFSAII (Michael W. Deem and Ramdas Pophale) SiO2 
 PCOD9128001
Probable space group: C 2
;
_chemical_formula_sum "Si O2"
_cell_formula_units_Z 16
_cell_length_a 9.554709
_cell_length_b 14.499798
_cell_length_c 5.084567
_cell_angle_alpha 90.000000
_cell_angle_beta 110.562178
_cell_angle_gamma 90.000000
_cell_volume 659.545123
_symmetry_space_group_name_H-M "C 2"
_symmetry_group_IT_number 5
_symmetry_cell_setting 'monoclinic'
loop_
_space_group_symop_operation_xyz
x,y,z
-x,y,-z
1/2+x,1/2+y,z
1/2-x,1/2+y,-z
loop_
_atom_site_type_symbol
_atom_site_label
_atom_site_fract_x
_atom_site_fract_y
_atom_site_fract_z
Si Si1 0.342716 0.712170 0.542106
Si Si2 0.900618 0.441693 0.181596
Si Si3 0.353831 0.340415 0.279430
Si Si4 0.195943 0.647913 0.935923
O O1 0.500000 0.724233 0.500000
O O2 0.256376 0.806700 0.558700
O O3 0.332254 0.661204 0.816869
O O4 0.248694 0.653978 0.269342
O O5 0.259448 0.396301 0.000821
O O6 0.000000 0.420058 0.500000
O O7 0.880061 0.551698 0.167459
O O8 0.000000 0.412511 0.000000
O O9 0.500000 0.386673 0.500000
O O10 0.397982 0.240689 0.185632
#
# Coordination Sequence:
#
# PCOD9128001 Si02
#       4
#     4   4   4   4
#     4  10  23  44  76 111 147 203 250 312 382 451
#     4  12  28  48  77 116 158 204 257 313 390 467
#     4  10  27  47  79 115 153 201 257 320 379 452
#     4  10  24  44  78 105 152 198 258 307 379 452
#
# _framework density 24.259146000000001
#
# number of rings (size 3 to 8) (size 9 to 14) (size 15 to 20)
#    1.500    0.000    0.000    3.000   10.500    1.000 
#    0.000    2.500    0.000    0.000    0.000    0.000 
#    0.000    0.000    0.000    0.000    0.000    0.000 
#
# Total GULP energy -44643.789590 kJ/mol
# GULP energy per Si atom -5580.473699 kJ/mol
# Density = 2.420393 g / cm^3
# Si number density = 24.259146 Si / 1000 Ang^3
#
#
#
# Elastic Constant Matrix: (Units=GPa)
#
#
# Indices 1 2 3 4 5 6 
#
# 1 108.8826 0.8803 55.1856 0.0000 -0.7059 0.0000
# 2 0.8803 93.1021 61.3014 0.0000 24.3817 0.0000
# 3 55.1856 61.3014 209.7065 0.0000 12.1912 0.0000
# 4 0.0000 0.0000 0.0000 32.0211 0.0000 0.7058
# 5 -0.7059 24.3817 12.1912 0.0000 49.7309 0.0000
# 6 0.0000 0.0000 0.0000 0.7058 0.0000 19.0324
#
#
#
# Elastic Compliance Matrix: (Units=1/GPa)
#
#
# Indices 1 2 3 4 5 6 
#
# 1 0.010957 0.002244 -0.003535 0.000000 -0.000078 0.000000
# 2 0.002244 0.015533 -0.004758 0.000000 -0.006417 0.000000
# 3 -0.003535 -0.004758 0.007058 0.000000 0.000553 0.000000
# 4 0.000000 0.000000 0.000000 0.031255 0.000000 -0.001159
# 5 -0.000078 -0.006417 0.000553 0.000000 0.023118 0.000000
# 6 0.000000 0.000000 0.000000 -0.001159 0.000000 0.052585
#
#
# Mechanical properties :
#
#
# Convention : Reuss Voigt Hill
#
# Bulk Modulus (GPa) = 46.61902 71.82507 59.22205
# Shear Modulus (GPa) = 31.29819 39.77847 35.53833
#
# Velocity S-wave (km/s) = 3.59578 4.05375 3.83161
# Velocity P-wave (km/s) = 6.04138 7.18208 6.63628
#
# Compressibility (1/GPa) = 0.02145047
#
# Stress axis : x y z
#
# Youngs Moduli (GPa) = 91.26398 64.37821 141.69041
#
# Poissons Ratio (x) = -0.14449 0.50088
# Poissons Ratio (y) = -0.20484 0.67420
# Poissons Ratio (z) = 0.32262 0.30633
#
# Static dielectric constant tensor:
#      x y z
#    x 2.009990 0.000000 0.007670 
#    y 0.000000 1.923140 0.000000 
#    z 0.007670 0.000000 1.939740 
# 
# From -- ./inp_files/2484.got.cif
#   From: 2010.05.17/outbox.cif.g08.bks.cpg/sg5_2_cif.got.tgz:2484.got - 2010.06.03 18:56:24.
