data_PCOD9128612
_publ_section_title
;
Structure prediction by ZEFSAII (Michael W. Deem and Ramdas Pophale) SiO2 
 PCOD9128612
Probable space group: C 2
;
_chemical_formula_sum "Si O2"
_cell_formula_units_Z 26
_cell_length_a 20.053210
_cell_length_b 5.501807
_cell_length_c 12.411417
_cell_angle_alpha 90.000000
_cell_angle_beta 58.299795
_cell_angle_gamma 90.000000
_cell_volume 1165.045302
_symmetry_space_group_name_H-M "C 2"
_symmetry_group_IT_number 5
_symmetry_cell_setting 'monoclinic'
loop_
_space_group_symop_operation_xyz
x,y,z
-x,y,-z
1/2+x,1/2+y,z
1/2-x,1/2+y,-z
loop_
_atom_site_type_symbol
_atom_site_label
_atom_site_fract_x
_atom_site_fract_y
_atom_site_fract_z
Si Si1 0.395455 0.949480 0.822947
Si Si2 0.201836 0.603004 0.283745
Si Si3 0.287152 0.214365 0.340867
Si Si4 0.986358 0.943998 0.768886
Si Si5 0.653855 0.910451 0.901582
Si Si6 0.500000 0.575074 0.000000
Si Si7 0.136489 0.884736 0.516012
O O1 0.431987 0.681940 0.804596
O O2 0.336542 0.934886 0.772952
O O3 0.452630 0.182758 0.760068
O O4 0.356133 0.012949 0.970776
O O5 0.256344 0.472730 0.325964
O O6 0.262783 0.775209 0.171703
O O7 0.133142 0.735062 0.408587
O O8 0.336977 0.219316 0.406261
O O9 0.337105 0.103341 0.201367
O O10 0.208529 0.064547 0.431920
O O11 0.059131 0.003921 0.628753
O O12 0.004805 0.931401 0.882172
O O13 0.578672 0.740403 0.940417
#
# Coordination Sequence:
#
# PCOD9128612 Si02
#       7
#     4   4   4   4   4   2   4
#     4  11  29  48  72 110 144 192 239 286 371 428
#     4  11  26  47  71 103 143 193 239 297 351 435
#     4  11  24  43  73 104 138 188 244 299 357 420
#     4  11  28  47  74 107 146 191 237 301 353 434
#     4  10  26  43  75 105 142 184 238 302 359 429
#     4  10  24  46  72 110 142 182 238 304 368 412
#     4  11  25  44  72 104 140 189 246 296 358 418
#
# _framework density 22.316727
#
# number of rings (size 3 to 8) (size 9 to 14) (size 15 to 20)
#    0.000    1.231    1.538    0.923   21.538    1.231 
#    0.000    0.000    0.000    0.000    0.000    0.000 
#    0.000    0.000    0.000    0.000    0.000    0.000 
#
# Total GULP energy -72627.921611 kJ/mol
# GULP energy per Si atom -5586.763201 kJ/mol
# Density = 2.226593 g / cm^3
# Si number density = 22.316727 Si / 1000 Ang^3
#
#
#
# Elastic Constant Matrix: (Units=GPa)
#
#
# Indices 1 2 3 4 5 6 
#
# 1 50.3506 -4.4460 25.4923 0.0000 15.4276 -0.0001
# 2 -4.4460 31.4118 -8.1138 0.0000 -1.0438 -0.0002
# 3 25.4923 -8.1138 123.4508 0.0000 -12.3631 -0.0001
# 4 0.0000 0.0000 0.0000 30.1931 0.0000 2.2169
# 5 15.4276 -1.0438 -12.3631 0.0000 23.4128 0.0000
# 6 -0.0001 -0.0002 -0.0001 2.2169 0.0000 28.0019
#
#
#
# Elastic Compliance Matrix: (Units=1/GPa)
#
#
# Indices 1 2 3 4 5 6 
#
# 1 0.032836 0.001352 -0.009347 0.000000 -0.026512 0.000000
# 2 0.001352 0.032604 0.002027 0.000000 0.001633 0.000000
# 3 -0.009347 0.002027 0.011392 0.000000 0.012265 0.000000
# 4 0.000000 0.000000 0.000000 0.033314 0.000000 -0.002637
# 5 -0.026512 0.001633 0.012265 0.000000 0.066731 0.000000
# 6 0.000000 0.000000 0.000000 -0.002637 0.000000 0.035921
#
#
# Mechanical properties :
#
#
# Convention : Reuss Voigt Hill
#
# Bulk Modulus (GPa) = 15.40884 25.67535 20.54209
# Shear Modulus (GPa) = 20.29512 29.14025 24.71769
#
# Velocity S-wave (km/s) = 3.01892 3.61745 3.33165
# Velocity P-wave (km/s) = 4.36709 5.38311 4.90149
#
# Compressibility (1/GPa) = 0.06489781
#
# Stress axis : x y z
#
# Youngs Moduli (GPa) = 30.45459 30.67067 87.78110
#
# Poissons Ratio (x) = -0.04148 0.82046
# Poissons Ratio (y) = -0.04118 -0.17795
# Poissons Ratio (z) = 0.28465 -0.06218
#
# Static dielectric constant tensor:
#      x y z
#    x 1.820760 0.000000 -0.006310 
#    y 0.000000 1.865350 0.000000 
#    z -0.006310 0.000000 1.794670 
# 
# From -- ./inp_files/45585.got.cif
#   From: 2010.05.17/outbox.cif.g08.bks.cpg/sg5_23_cif.got.tgz:45585.got - 2010.06.03 18:56:24.
