data_PCOD9128203
_publ_section_title
;
Structure prediction by ZEFSAII (Michael W. Deem and Ramdas Pophale) SiO2 
 PCOD9128203
Probable space group: C 2
;
_chemical_formula_sum "Si O2"
_cell_formula_units_Z 24
_cell_length_a 6.992372
_cell_length_b 11.975468
_cell_length_c 13.682550
_cell_angle_alpha 90.000000
_cell_angle_beta 47.874746
_cell_angle_gamma 90.000000
_cell_volume 849.768814
_symmetry_space_group_name_H-M "C 2"
_symmetry_group_IT_number 5
_symmetry_cell_setting 'monoclinic'
loop_
_space_group_symop_operation_xyz
x,y,z
-x,y,-z
1/2+x,1/2+y,z
1/2-x,1/2+y,-z
loop_
_atom_site_type_symbol
_atom_site_label
_atom_site_fract_x
_atom_site_fract_y
_atom_site_fract_z
Si Si1 0.522338 0.017350 0.760840
Si Si2 0.249834 0.883424 0.020638
Si Si3 0.748685 0.738046 0.520179
Si Si4 0.757731 0.722989 0.198431
Si Si5 0.263214 0.973816 0.506217
Si Si6 0.526071 0.609827 0.874226
O O1 0.649634 0.103060 0.791797
O O2 0.707823 0.958265 0.621680
O O3 0.329624 0.091065 0.758971
O O4 0.353613 0.929683 0.880458
O O5 0.019406 0.794166 0.102466
O O6 0.112956 0.995415 0.107639
O O7 0.500000 0.857515 0.000000
O O8 0.392415 0.700097 0.852155
O O9 0.461308 0.771620 0.656422
O O10 0.679179 0.605426 0.528932
O O11 0.000000 0.728748 0.500000
O O12 0.833861 0.848478 0.427450
O O13 0.500000 0.983425 0.500000
O O14 0.500000 0.625208 0.000000
#
# Coordination Sequence:
#
# PCOD9128203 Si02
#       6
#     4   4   4   4   4   4
#     4  11  26  54  85 124 183 238 302 384 465 540
#     4  11  25  55  82 128 181 236 299 370 461 565
#     4  11  28  54  89 126 179 233 312 383 456 542
#     4  12  27  53  92 127 178 245 300 382 462 552
#     4  11  27  55  84 128 177 233 312 383 457 532
#     4  10  23  51  75 119 176 226 292 366 439 543
#
# _framework density 28.242972999999999
#
# number of rings (size 3 to 8) (size 9 to 14) (size 15 to 20)
#    0.000    1.000    1.667    3.000    4.667    2.000 
#   48.000    0.000    0.000    0.000    0.000    0.000 
#    0.000    0.000    0.000    0.000    0.000    0.000 
#
# Total GULP energy -66995.029982 kJ/mol
# GULP energy per Si atom -5582.919165 kJ/mol
# Density = 2.817869 g / cm^3
# Si number density = 28.242973 Si / 1000 Ang^3
#
#
#
# Elastic Constant Matrix: (Units=GPa)
#
#
# Indices 1 2 3 4 5 6 
#
# 1 212.2607 66.3554 33.3999 -0.0005 -22.6086 0.0017
# 2 66.3554 246.0047 10.4831 -0.0005 -6.5104 0.0014
# 3 33.3999 10.4831 75.9595 -0.0019 -18.7367 0.0027
# 4 -0.0005 -0.0005 -0.0019 55.1024 0.0014 -11.8658
# 5 -22.6086 -6.5104 -18.7367 0.0014 39.9261 -0.0011
# 6 0.0017 0.0014 0.0027 -11.8658 -0.0011 56.2917
#
#
#
# Elastic Compliance Matrix: (Units=1/GPa)
#
#
# Indices 1 2 3 4 5 6 
#
# 1 0.005653 -0.001393 -0.001764 0.000000 0.002146 0.000000
# 2 -0.001393 0.004439 -0.000018 0.000000 -0.000073 0.000000
# 3 -0.001764 -0.000018 0.015489 0.000000 0.006267 -0.000001
# 4 0.000000 0.000000 0.000000 0.019011 0.000000 0.004007
# 5 0.002146 -0.000073 0.006267 0.000000 0.029190 0.000000
# 6 0.000000 0.000000 -0.000001 0.004007 0.000000 0.018609
#
#
# Mechanical properties :
#
#
# Convention : Reuss Voigt Hill
#
# Bulk Modulus (GPa) = 51.99978 83.85574 67.92776
# Shear Modulus (GPa) = 47.55004 58.52980 53.03992
#
# Velocity S-wave (km/s) = 4.10763 4.55726 4.33828
# Velocity P-wave (km/s) = 6.39909 7.57937 7.01410
#
# Compressibility (1/GPa) = 0.01923085
#
# Stress axis : x y z
#
# Youngs Moduli (GPa) = 176.90569 225.25181 64.56239
#
# Poissons Ratio (x) = 0.31372 0.11389
# Poissons Ratio (y) = 0.24639 0.00119
# Poissons Ratio (z) = 0.31206 0.00414
#
# Static dielectric constant tensor:
#      x y z
#    x 1.926060 0.000000 0.090210 
#    y 0.000000 2.293080 0.000000 
#    z 0.090210 0.000000 2.425070 
# 
# From -- ./inp_files/64445.got.cif
#   From: 2010.05.17/outbox.cif.g08.bks.cpg/sg5_33_cif.got.tgz:64445.got - 2010.06.03 18:56:24.
