data_PCOD9128568
_publ_section_title
;
Structure prediction by ZEFSAII (Michael W. Deem and Ramdas Pophale) SiO2 
 PCOD9128568
Probable space group: C 2
;
_chemical_formula_sum "Si O2"
_cell_formula_units_Z 28
_cell_length_a 19.263848
_cell_length_b 6.045361
_cell_length_c 11.507339
_cell_angle_alpha 90.000000
_cell_angle_beta 118.613422
_cell_angle_gamma 90.000000
_cell_volume 1176.442758
_symmetry_space_group_name_H-M "C 2"
_symmetry_group_IT_number 5
_symmetry_cell_setting 'monoclinic'
loop_
_space_group_symop_operation_xyz
x,y,z
-x,y,-z
1/2+x,1/2+y,z
1/2-x,1/2+y,-z
loop_
_atom_site_type_symbol
_atom_site_label
_atom_site_fract_x
_atom_site_fract_y
_atom_site_fract_z
Si Si1 0.500000 0.322420 0.000000
Si Si2 0.201644 0.889584 0.719604
Si Si3 0.500000 0.077262 0.500000
Si Si4 0.914347 0.245535 0.273660
Si Si5 0.876148 0.766461 0.569226
Si Si6 0.943637 0.131982 0.766679
Si Si7 0.274792 0.713418 0.989698
Si Si8 0.363107 0.032279 0.796487
O O1 0.500080 0.468916 0.884975
O O2 0.422126 0.176955 0.920610
O O3 0.187353 0.788940 0.581913
O O4 0.123824 0.025919 0.697228
O O5 0.274991 0.059962 0.771488
O O6 0.240098 0.703166 0.831473
O O7 0.458420 0.218846 0.567887
O O8 0.429958 0.929390 0.385671
O O9 0.857567 0.284123 0.116650
O O10 0.000643 0.235866 0.285470
O O11 0.864336 0.590135 0.661085
O O12 0.880410 0.991778 0.645160
O O13 0.900770 0.288499 0.824667
O O14 0.269934 0.451582 0.019005
#
# Coordination Sequence:
#
# PCOD9128568 Si02
#       8
#     2   4   2   4   4   4   4   4
#     4  10  26  46  78  98 140 190 244 298 380 456
#     4  11  26  44  70 106 146 191 242 310 380 445
#     4  12  22  44  74 104 142 194 248 304 374 444
#     4  11  24  43  74 103 143 187 248 308 370 453
#     4  11  25  43  70 102 140 188 243 302 364 455
#     4  11  24  47  70 103 140 188 242 303 366 449
#     4  10  24  46  67 106 145 189 242 310 374 448
#     4  11  26  46  70 106 142 191 242 299 374 452
#
# _framework density 23.800561999999999
#
# number of rings (size 3 to 8) (size 9 to 14) (size 15 to 20)
#    0.000    1.143    1.429    3.000    6.000    5.714 
#    7.714    0.000    0.000    0.000    0.000    0.000 
#    0.000    0.000    0.000    0.000    0.000    0.000 
#
# Total GULP energy -78007.312247 kJ/mol
# GULP energy per Si atom -5571.950875 kJ/mol
# Density = 2.374639 g / cm^3
# Si number density = 23.800562 Si / 1000 Ang^3
#
#
#
# Elastic Constant Matrix: (Units=GPa)
#
#
# Indices 1 2 3 4 5 6 
#
# 1 52.4536 1.4050 -27.1613 0.0000 6.9328 0.0000
# 2 1.4050 58.3001 13.6670 0.0000 6.1616 0.0000
# 3 -27.1613 13.6670 147.9768 0.0000 21.7147 0.0000
# 4 0.0000 0.0000 0.0000 11.8109 0.0000 1.4665
# 5 6.9328 6.1616 21.7147 0.0000 28.6333 0.0000
# 6 0.0000 0.0000 0.0000 1.4665 0.0000 3.7960
#
#
#
# Elastic Compliance Matrix: (Units=1/GPa)
#
#
# Indices 1 2 3 4 5 6 
#
# 1 0.023418 -0.000885 0.005833 0.000000 -0.009903 0.000000
# 2 -0.000885 0.017777 -0.001434 0.000000 -0.002524 0.000000
# 3 0.005833 -0.001434 0.009140 0.000000 -0.008035 0.000000
# 4 0.000000 0.000000 0.000000 0.088933 0.000000 -0.034357
# 5 -0.009903 -0.002524 -0.008035 0.000000 0.043959 0.000000
# 6 0.000000 0.000000 0.000000 -0.034357 0.000000 0.276711
#
#
# Mechanical properties :
#
#
# Convention : Reuss Voigt Hill
#
# Bulk Modulus (GPa) = 17.43286 26.06132 21.74709
# Shear Modulus (GPa) = 10.59253 26.90270 18.74762
#
# Velocity S-wave (km/s) = 2.11192 3.36570 2.80964
# Velocity P-wave (km/s) = 3.64519 5.10662 4.43649
#
# Compressibility (1/GPa) = 0.05736294
#
# Stress axis : x y z
#
# Youngs Moduli (GPa) = 42.70276 56.25302 109.40765
#
# Poissons Ratio (x) = 0.04979 -0.63821
# Poissons Ratio (y) = 0.03780 0.15689
# Poissons Ratio (z) = -0.24910 0.08067
#
# Static dielectric constant tensor:
#      x y z
#    x 1.960800 0.000000 -0.020450 
#    y 0.000000 1.996030 0.000000 
#    z -0.020450 0.000000 1.898590 
# 
# From -- ./inp_files/45597.got.cif
#   From: 2010.05.17/outbox.cif.g08.bks.cpg/sg5_23_cif.got.tgz:45597.got - 2010.06.03 18:56:24.
