data_PCOD9128544
_publ_section_title
;
Structure prediction by ZEFSAII (Michael W. Deem and Ramdas Pophale) SiO2 
 PCOD9128544
Probable space group: C 2
;
_chemical_formula_sum "Si O2"
_cell_formula_units_Z 24
_cell_length_a 10.878379
_cell_length_b 9.517365
_cell_length_c 14.575151
_cell_angle_alpha 90.000000
_cell_angle_beta 42.683359
_cell_angle_gamma 90.000000
_cell_volume 1023.031955
_symmetry_space_group_name_H-M "C 2"
_symmetry_group_IT_number 5
_symmetry_cell_setting 'monoclinic'
loop_
_space_group_symop_operation_xyz
x,y,z
-x,y,-z
1/2+x,1/2+y,z
1/2-x,1/2+y,-z
loop_
_atom_site_type_symbol
_atom_site_label
_atom_site_fract_x
_atom_site_fract_y
_atom_site_fract_z
Si Si1 0.216886 0.849300 0.549366
Si Si2 0.941228 0.363967 0.735679
Si Si3 0.323116 0.616197 0.925299
Si Si4 0.500000 0.301121 0.500000
Si Si5 0.500000 0.078924 0.000000
Si Si6 0.011053 0.637662 0.794007
Si Si7 0.240706 0.053182 0.697018
O O1 0.402260 0.785617 0.407279
O O2 0.089807 0.885082 0.533363
O O3 0.110559 0.743363 0.673422
O O4 0.270167 0.980805 0.582036
O O5 0.837045 0.257861 0.858080
O O6 0.042678 0.479420 0.743128
O O7 0.822905 0.453144 0.729597
O O8 0.185865 0.514937 0.941384
O O9 0.525352 0.565868 0.829236
O O10 0.208281 0.648170 0.079607
O O11 0.348675 0.199156 0.629553
O O12 0.563613 0.157252 0.871996
#
# Coordination Sequence:
#
# PCOD9128544 Si02
#       7
#     4   4   4   2   2   4   4
#     4  12  24  44  74 104 151 194 246 316 368 440
#     4  12  24  44  77 107 148 201 245 312 377 438
#     4  10  25  45  73 104 149 196 253 302 372 447
#     4  12  24  48  64 118 150 182 266 298 380 448
#     4   8  22  46  64 104 146 182 252 300 364 448
#     4  10  24  45  71 110 150 193 253 308 370 448
#     4  12  24  46  74 106 146 199 247 309 371 440
#
# _framework density 23.459676000000002
#
# number of rings (size 3 to 8) (size 9 to 14) (size 15 to 20)
#    1.000    0.000    5.000    1.000    2.333    2.000 
#    0.000    3.333    0.000    0.000    0.000    0.000 
#    0.000    0.000    0.000    0.000    0.000    0.000 
#
# Total GULP energy -66983.547513 kJ/mol
# GULP energy per Si atom -5581.962293 kJ/mol
# Density = 2.340628 g / cm^3
# Si number density = 23.459676 Si / 1000 Ang^3
#
#
#
# Elastic Constant Matrix: (Units=GPa)
#
#
# Indices 1 2 3 4 5 6 
#
# 1 118.7203 22.2917 34.7415 0.0000 10.5568 0.0000
# 2 22.2917 40.4488 17.6554 0.0000 10.7733 0.0000
# 3 34.7415 17.6554 159.5500 0.0000 -9.8435 0.0000
# 4 0.0000 0.0000 0.0000 25.3858 0.0000 4.0853
# 5 10.5568 10.7733 -9.8435 0.0000 49.2887 0.0000
# 6 0.0000 0.0000 0.0000 4.0853 0.0000 25.8058
#
#
#
# Elastic Compliance Matrix: (Units=1/GPa)
#
#
# Indices 1 2 3 4 5 6 
#
# 1 0.009879 -0.004260 -0.001775 0.000000 -0.001539 0.000000
# 2 -0.004260 0.029923 -0.002765 0.000000 -0.006180 0.000000
# 3 -0.001775 -0.002765 0.007108 0.000000 0.002404 0.000000
# 4 0.000000 0.000000 0.000000 0.040422 0.000000 -0.006399
# 5 -0.001539 -0.006180 0.002404 0.000000 0.022449 0.000000
# 6 0.000000 0.000000 0.000000 -0.006399 0.000000 0.039764
#
#
# Mechanical properties :
#
#
# Convention : Reuss Voigt Hill
#
# Bulk Modulus (GPa) = 34.11615 52.01071 43.06343
# Shear Modulus (GPa) = 28.26203 36.36476 32.31340
#
# Velocity S-wave (km/s) = 3.47465 3.94140 3.71536
# Velocity P-wave (km/s) = 5.53820 6.55219 6.06642
#
# Compressibility (1/GPa) = 0.02931163
#
# Stress axis : x y z
#
# Youngs Moduli (GPa) = 101.22211 33.41887 140.67944
#
# Poissons Ratio (x) = 0.14236 0.24967
# Poissons Ratio (y) = 0.43120 0.38897
# Poissons Ratio (z) = 0.17964 0.09240
#
# Static dielectric constant tensor:
#      x y z
#    x 1.914200 0.000000 -0.028280 
#    y 0.000000 1.871080 0.000000 
#    z -0.028280 0.000000 1.894890 
# 
# From -- ./inp_files/52718.got.cif
#   From: 2010.05.17/outbox.cif.g08.bks.cpg/sg5_27_cif.got.tgz:52718.got - 2010.06.03 18:56:24.
