data_PCOD9128482
_publ_section_title
;
Structure prediction by ZEFSAII (Michael W. Deem and Ramdas Pophale) SiO2 
 PCOD9128482
Probable space group: C 2
;
_chemical_formula_sum "Si O2"
_cell_formula_units_Z 18
_cell_length_a 12.371639
_cell_length_b 9.772380
_cell_length_c 6.941004
_cell_angle_alpha 90.000000
_cell_angle_beta 76.696308
_cell_angle_gamma 90.000000
_cell_volume 816.649942
_symmetry_space_group_name_H-M "C 2"
_symmetry_group_IT_number 5
_symmetry_cell_setting 'monoclinic'
loop_
_space_group_symop_operation_xyz
x,y,z
-x,y,-z
1/2+x,1/2+y,z
1/2-x,1/2+y,-z
loop_
_atom_site_type_symbol
_atom_site_label
_atom_site_fract_x
_atom_site_fract_y
_atom_site_fract_z
Si Si1 0.746797 0.032910 0.577404
Si Si2 0.456683 0.628710 0.339787
Si Si3 0.371124 0.840353 0.081112
Si Si4 0.500000 0.443341 0.000000
Si Si5 0.232892 0.827892 0.753921
O O1 0.879587 0.026545 0.493987
O O2 0.722604 0.192818 0.625179
O O3 0.697944 0.954959 0.779708
O O4 0.714453 0.951479 0.395543
O O5 0.500000 0.719673 0.500000
O O6 0.380539 0.713805 0.224855
O O7 0.531948 0.543152 0.163996
O O8 0.500000 0.882113 0.000000
O O9 0.312902 0.804345 0.904143
O O10 0.389954 0.364186 0.113464
#
# Coordination Sequence:
#
# PCOD9128482 Si02
#       5
#     4   4   4   2   4
#     4  11  25  43  68  99 142 176 221 288 332 408
#     4  11  22  43  69  99 133 186 230 273 337 406
#     4  12  26  41  72 101 138 179 229 282 333 410
#     4  10  24  44  72  96 138 182 226 282 334 416
#     4  11  26  47  70 103 136 183 229 276 349 396
#
# _framework density 22.041267000000001
#
# number of rings (size 3 to 8) (size 9 to 14) (size 15 to 20)
#    0.000    0.889    3.333    2.667    7.778    0.000 
#    0.000    2.222    0.000    0.000    0.000    0.000 
#    0.000    0.000    0.000    0.000    0.000    0.000 
#
# Total GULP energy -50160.608757 kJ/mol
# GULP energy per Si atom -5573.400973 kJ/mol
# Density = 2.199110 g / cm^3
# Si number density = 22.041267 Si / 1000 Ang^3
#
#
#
# Elastic Constant Matrix: (Units=GPa)
#
#
# Indices 1 2 3 4 5 6 
#
# 1 91.2950 46.6511 70.1541 0.0000 -14.6771 0.0000
# 2 46.6511 110.6026 81.4934 0.0000 -7.6547 0.0000
# 3 70.1541 81.4934 196.0832 0.0000 3.6609 0.0000
# 4 0.0000 0.0000 0.0000 53.0133 0.0000 -16.5996
# 5 -14.6771 -7.6547 3.6609 0.0000 63.5452 0.0000
# 6 0.0000 0.0000 0.0000 -16.5996 0.0000 32.1060
#
#
#
# Elastic Compliance Matrix: (Units=1/GPa)
#
#
# Indices 1 2 3 4 5 6 
#
# 1 0.016917 -0.003406 -0.004707 0.000000 0.003768 0.000000
# 2 -0.003406 0.013947 -0.004599 0.000000 0.001158 0.000000
# 3 -0.004707 -0.004599 0.008736 0.000000 -0.002145 0.000000
# 4 0.000000 0.000000 0.000000 0.022507 0.000000 0.011637
# 5 0.003768 0.001158 -0.002145 0.000000 0.016870 0.000000
# 6 0.000000 0.000000 0.000000 0.011637 0.000000 0.037163
#
#
# Mechanical properties :
#
#
# Convention : Reuss Voigt Hill
#
# Bulk Modulus (GPa) = 70.55217 88.28644 79.41930
# Shear Modulus (GPa) = 34.17846 43.04505 38.61175
#
# Velocity S-wave (km/s) = 3.94211 4.42399 4.18998
# Velocity P-wave (km/s) = 7.26629 8.13865 7.71481
#
# Compressibility (1/GPa) = 0.01417391
#
# Stress axis : x y z
#
# Youngs Moduli (GPa) = 59.11189 71.69856 114.47383
#
# Poissons Ratio (x) = 0.24423 0.53885
# Poissons Ratio (y) = 0.20136 0.52652
# Poissons Ratio (z) = 0.27825 0.32978
#
# Static dielectric constant tensor:
#      x y z
#    x 1.990690 0.000000 0.110650 
#    y 0.000000 1.875120 0.000000 
#    z 0.110650 0.000000 1.873900 
# 
# From -- ./inp_files/4460.got.cif
#   From: 2010.05.17/outbox.cif.g08.bks.cpg/sg5_3_cif.got.tgz:4460.got - 2010.06.03 18:56:24.
