data_PCOD9128016
_publ_section_title
;
Structure prediction by ZEFSAII (Michael W. Deem and Ramdas Pophale) SiO2 
 PCOD9128016
Probable space group: C 2
;
_chemical_formula_sum "Si O2"
_cell_formula_units_Z 16
_cell_length_a 5.064110
_cell_length_b 25.313433
_cell_length_c 5.011083
_cell_angle_alpha 90.000000
_cell_angle_beta 87.855835
_cell_angle_gamma 90.000000
_cell_volume 641.921021
_symmetry_space_group_name_H-M "C 2"
_symmetry_group_IT_number 5
_symmetry_cell_setting 'monoclinic'
loop_
_space_group_symop_operation_xyz
x,y,z
-x,y,-z
1/2+x,1/2+y,z
1/2-x,1/2+y,-z
loop_
_atom_site_type_symbol
_atom_site_label
_atom_site_fract_x
_atom_site_fract_y
_atom_site_fract_z
Si Si1 0.500000 0.799551 0.500000
Si Si2 0.181066 0.703343 0.735423
Si Si3 0.500000 0.618977 0.500000
Si Si4 0.766887 0.038406 0.821838
Si Si5 0.000000 0.368727 0.000000
Si Si6 0.000000 0.937557 0.000000
O O1 0.288413 0.760455 0.644858
O O2 0.599109 0.834515 0.743756
O O3 0.423289 0.662450 0.727346
O O4 0.000000 0.683517 0.500000
O O5 0.000000 0.705311 0.000000
O O6 0.272831 0.574890 0.562878
O O7 0.500000 0.038356 0.000000
O O8 0.000000 0.061871 0.000000
O O9 0.870012 0.978202 0.789866
O O10 0.250206 0.402616 0.093400
#
# Coordination Sequence:
#
# PCOD9128016 Si02
#       6
#     2   4   2   4   2   2
#     4  11  28  46  76 110 144 194 252 309 376 442
#     4  11  26  47  73 108 148 192 246 310 367 451
#     4  11  26  38  76 104 150 194 246 293 378 432
#     4  10  23  45  68 103 148 194 240 302 358 440
#     4  12  26  48  79 108 147 200 246 310 372 434
#     4  10  24  48  71 110 151 190 256 300 370 434
#
# _framework density 24.925187999999999
#
# number of rings (size 3 to 8) (size 9 to 14) (size 15 to 20)
#    0.750    0.500    1.250    2.250   12.250    4.000 
#    0.000    0.000    0.000    0.000    0.000    0.000 
#    0.000    0.000    0.000    0.000    0.000    0.000 
#
# Total GULP energy -44591.355811 kJ/mol
# GULP energy per Si atom -5573.919476 kJ/mol
# Density = 2.486846 g / cm^3
# Si number density = 24.925188 Si / 1000 Ang^3
#
#
#
# Elastic Constant Matrix: (Units=GPa)
#
#
# Indices 1 2 3 4 5 6 
#
# 1 137.2753 43.8181 65.1093 0.0000 -34.1475 0.0000
# 2 43.8181 158.0946 74.6980 0.0000 -27.5512 0.0000
# 3 65.1093 74.6980 213.5023 0.0000 -39.3198 0.0000
# 4 0.0000 0.0000 0.0000 20.2584 0.0000 -4.9941
# 5 -34.1475 -27.5512 -39.3198 0.0000 49.1682 0.0000
# 6 0.0000 0.0000 0.0000 -4.9941 0.0000 -23.3068
#
#
#
# Elastic Compliance Matrix: (Units=1/GPa)
#
#
# Indices 1 2 3 4 5 6 
#
# 1 0.009594 -0.001035 -0.001693 0.000000 0.004730 0.000000
# 2 -0.001035 0.007960 -0.002088 0.000000 0.002072 0.000000
# 3 -0.001693 -0.002088 0.006448 0.000000 0.002811 0.000000
# 4 0.000000 0.000000 0.000000 0.046886 0.000000 -0.010046
# 5 0.004730 0.002072 0.002811 0.000000 0.027032 0.000000
# 6 0.000000 0.000000 0.000000 -0.010046 0.000000 -0.040753
#
#
# Mechanical properties :
#
#
# Convention : Reuss Voigt Hill
#
# Bulk Modulus (GPa) = 69.58359 97.34699 83.46529
# Shear Modulus (GPa) = 69.84412 30.90708 50.37560
#
# Velocity S-wave (km/s) = 5.29928 3.52517 4.50051
# Velocity P-wave (km/s) = 8.08831 7.46389 7.78236
#
# Compressibility (1/GPa) = 0.01437121
#
# Stress axis : x y z
#
# Youngs Moduli (GPa) = 104.22740 125.63339 155.08442
#
# Poissons Ratio (x) = 0.13006 0.26251
# Poissons Ratio (y) = 0.10790 0.32375
# Poissons Ratio (z) = 0.17642 0.26227
#
# Static dielectric constant tensor:
#      x y z
#    x 2.298680 0.000000 0.359210 
#    y 0.000000 2.006580 0.000000 
#    z 0.359210 0.000000 2.315980 
# 
# From -- ./inp_files/814.got.cif
#   From: 2010.05.17/outbox.cif.g08.bks.cpg/sg5_1_cif.got.tgz:814.got - 2010.06.03 18:56:24.
