data_PCOD9128411
_publ_section_title
;
Structure prediction by ZEFSAII (Michael W. Deem and Ramdas Pophale) SiO2 
 PCOD9128411
Probable space group: C 2
;
_chemical_formula_sum "Si O2"
_cell_formula_units_Z 26
_cell_length_a 5.939890
_cell_length_b 18.993968
_cell_length_c 10.990322
_cell_angle_alpha 90.000000
_cell_angle_beta 106.861400
_cell_angle_gamma 90.000000
_cell_volume 1186.644524
_symmetry_space_group_name_H-M "C 2"
_symmetry_group_IT_number 5
_symmetry_cell_setting 'monoclinic'
loop_
_space_group_symop_operation_xyz
x,y,z
-x,y,-z
1/2+x,1/2+y,z
1/2-x,1/2+y,-z
loop_
_atom_site_type_symbol
_atom_site_label
_atom_site_fract_x
_atom_site_fract_y
_atom_site_fract_z
Si Si1 0.447806 0.153160 0.129466
Si Si2 0.500000 0.932914 0.000000
Si Si3 0.181568 0.272969 0.769225
Si Si4 0.734850 0.332177 0.582288
Si Si5 0.500000 0.946523 0.500000
Si Si6 0.836794 0.507765 0.223819
Si Si7 0.500000 0.748488 0.000000
Si Si8 0.944603 0.897155 0.199044
O O1 0.669546 0.200139 0.210168
O O2 0.363973 0.090376 0.202833
O O3 0.226262 0.203678 0.076148
O O4 0.500000 0.126320 0.000000
O O5 0.256637 0.893653 0.933885
O O6 0.550734 0.974282 0.881280
O O7 0.362124 0.336596 0.782634
O O8 0.960977 0.283647 0.644025
O O9 0.076635 0.282789 0.886619
O O10 0.500000 0.293319 0.500000
O O11 0.683408 0.377224 0.695342
O O12 0.788919 0.391917 0.490803
O O13 0.463305 0.988834 0.370639
O O14 0.579336 0.471877 0.202854
#
# Coordination Sequence:
#
# PCOD9128411 Si02
#       8
#     4   2   4   4   2   4   2   4
#     4  10  24  44  71 108 149 197 246 306 377 449
#     4  12  26  41  70 114 143 182 244 304 367 440
#     4  11  24  45  71 108 146 197 249 308 378 443
#     4  12  23  44  71 109 141 195 241 318 375 444
#     4  12  24  48  74 106 146 194 248 308 380 442
#     4  12  25  44  74 108 147 198 244 307 373 445
#     4  10  24  43  72 104 147 192 244 310 365 446
#     4  12  25  41  73 112 146 185 252 311 376 435
#
# _framework density 21.910520000000002
#
# number of rings (size 3 to 8) (size 9 to 14) (size 15 to 20)
#    0.000    0.615    5.385    1.385    2.154   11.692 
#    0.000    0.000   16.923    0.000    0.000    0.000 
#    0.000    0.000    0.000    0.000    0.000    0.000 
#
# Total GULP energy -72620.878832 kJ/mol
# GULP energy per Si atom -5586.221449 kJ/mol
# Density = 2.186065 g / cm^3
# Si number density = 21.910520 Si / 1000 Ang^3
#
#
#
# Elastic Constant Matrix: (Units=GPa)
#
#
# Indices 1 2 3 4 5 6 
#
# 1 92.2676 35.0596 44.8228 0.0000 12.9326 0.0000
# 2 35.0596 86.2724 49.8317 0.0000 7.5742 0.0000
# 3 44.8228 49.8317 149.1704 0.0000 11.7951 0.0000
# 4 0.0000 0.0000 0.0000 31.8890 0.0000 -9.6937
# 5 12.9326 7.5742 11.7951 0.0000 65.7637 0.0000
# 6 0.0000 0.0000 0.0000 -9.6937 0.0000 25.1110
#
#
#
# Elastic Compliance Matrix: (Units=1/GPa)
#
#
# Indices 1 2 3 4 5 6 
#
# 1 0.013903 -0.003917 -0.002727 0.000000 -0.001794 0.000000
# 2 -0.003917 0.015508 -0.003980 0.000000 -0.000302 0.000000
# 3 -0.002727 -0.003980 0.008900 0.000000 -0.000602 0.000000
# 4 0.000000 0.000000 0.000000 0.035528 0.000000 0.013715
# 5 -0.001794 -0.000302 -0.000602 0.000000 0.015701 0.000000
# 6 0.000000 0.000000 0.000000 0.013715 0.000000 0.045118
#
#
# Mechanical properties :
#
#
# Convention : Reuss Voigt Hill
#
# Bulk Modulus (GPa) = 58.60565 65.23763 61.92164
# Shear Modulus (GPa) = 30.94175 37.75249 34.34712
#
# Velocity S-wave (km/s) = 3.76198 4.15544 3.96360
# Velocity P-wave (km/s) = 6.75839 7.27068 7.01921
#
# Compressibility (1/GPa) = 0.01706320
#
# Stress axis : x y z
#
# Youngs Moduli (GPa) = 71.92860 64.48145 112.35652
#
# Poissons Ratio (x) = 0.25258 0.30641
# Poissons Ratio (y) = 0.28175 0.44716
# Poissons Ratio (z) = 0.19616 0.25662
#
# Static dielectric constant tensor:
#      x y z
#    x 1.873630 0.000000 -0.000660 
#    y 0.000000 1.821300 0.000000 
#    z -0.000660 0.000000 1.821470 
# 
# From -- ./inp_files/33848.got.cif
#   From: 2010.05.17/outbox.cif.g08.bks.cpg/sg5_17_cif.got.tgz:33848.got - 2010.06.03 18:56:24.
