data_PCOD9128515
_publ_section_title
;
Structure prediction by ZEFSAII (Michael W. Deem and Ramdas Pophale) SiO2 
 PCOD9128515
Probable space group: C 2
;
_chemical_formula_sum "Si O2"
_cell_formula_units_Z 20
_cell_length_a 7.748480
_cell_length_b 7.072450
_cell_length_c 19.043351
_cell_angle_alpha 90.000000
_cell_angle_beta 47.716757
_cell_angle_gamma 90.000000
_cell_volume 772.076755
_symmetry_space_group_name_H-M "C 2"
_symmetry_group_IT_number 5
_symmetry_cell_setting 'monoclinic'
loop_
_space_group_symop_operation_xyz
x,y,z
-x,y,-z
1/2+x,1/2+y,z
1/2-x,1/2+y,-z
loop_
_atom_site_type_symbol
_atom_site_label
_atom_site_fract_x
_atom_site_fract_y
_atom_site_fract_z
Si Si1 0.542296 0.814140 0.390353
Si Si2 0.164794 0.627372 0.888106
Si Si3 0.480468 0.284328 0.792495
Si Si4 0.918473 0.347918 0.261804
Si Si5 0.955859 0.889181 0.436485
O O1 0.806370 0.884795 0.309270
O O2 0.466416 0.797973 0.329895
O O3 0.552356 0.600867 0.414816
O O4 0.323001 0.900260 0.492754
O O5 0.250984 0.413087 0.847171
O O6 0.048664 0.749656 0.856609
O O7 0.413710 0.726888 0.832829
O O8 0.000000 0.627303 0.000000
O O9 0.493879 0.064251 0.767460
O O10 0.640170 0.307172 0.330454
O O11 0.000000 0.795329 0.500000
#
# Coordination Sequence:
#
# PCOD9128515 Si02
#       5
#     4   4   4   4   4
#     4   9  19  38  60  95 126 179 220 280 345 416
#     4  11  26  44  72 103 133 184 236 292 361 421
#     4  10  24  45  67 102 137 180 232 291 356 426
#     4   9  21  43  65  93 139 174 231 286 350 424
#     4   9  18  36  59  92 132 177 220 272 340 413
#
# _framework density 25.904161999999999
#
# number of rings (size 3 to 8) (size 9 to 14) (size 15 to 20)
#    0.000    2.400    0.000    0.000    5.600    4.000 
#   28.800    0.000    0.000    0.000    0.000    0.000 
#    0.000    0.000    0.000    0.000    0.000    0.000 
#
# Total GULP energy -55802.173214 kJ/mol
# GULP energy per Si atom -5580.217321 kJ/mol
# Density = 2.584520 g / cm^3
# Si number density = 25.904162 Si / 1000 Ang^3
#
#
#
# Elastic Constant Matrix: (Units=GPa)
#
#
# Indices 1 2 3 4 5 6 
#
# 1 90.5451 4.9644 30.0952 0.0000 -11.6291 0.0000
# 2 4.9644 89.5462 53.8123 0.0000 0.2935 0.0000
# 3 30.0952 53.8123 258.8098 0.0000 -24.9200 0.0000
# 4 0.0000 0.0000 0.0000 38.2922 0.0000 -10.8773
# 5 -11.6291 0.2935 -24.9200 0.0000 22.5938 0.0000
# 6 0.0000 0.0000 0.0000 -10.8773 0.0000 20.2082
#
#
#
# Elastic Compliance Matrix: (Units=1/GPa)
#
#
# Indices 1 2 3 4 5 6 
#
# 1 0.012011 -0.000168 -0.000857 0.000000 0.005239 0.000000
# 2 -0.000168 0.013011 -0.003032 0.000000 -0.003600 0.000000
# 3 -0.000857 -0.003032 0.005097 0.000000 0.005219 0.000000
# 4 0.000000 0.000000 0.000000 0.030829 0.000000 0.016594
# 5 0.005239 -0.003600 0.005219 0.000000 0.052760 0.000000
# 6 0.000000 0.000000 0.000000 0.016594 0.000000 0.058417
#
#
# Mechanical properties :
#
#
# Convention : Reuss Voigt Hill
#
# Bulk Modulus (GPa) = 45.44730 68.51609 56.98170
# Shear Modulus (GPa) = 26.65624 39.55414 33.10519
#
# Velocity S-wave (km/s) = 3.21133 3.91185 3.57877
# Velocity P-wave (km/s) = 5.59756 6.84914 6.25473
#
# Compressibility (1/GPa) = 0.02200351
#
# Stress axis : x y z
#
# Youngs Moduli (GPa) = 83.25545 76.85921 196.20923
#
# Poissons Ratio (x) = 0.01290 0.16823
# Poissons Ratio (y) = 0.01397 0.59498
# Poissons Ratio (z) = 0.07138 0.23306
#
# Static dielectric constant tensor:
#      x y z
#    x 2.176880 0.000000 -0.032350 
#    y 0.000000 2.074820 0.000000 
#    z -0.032350 0.000000 2.020600 
# 
# From -- ./inp_files/51882.got.cif
#   From: 2010.05.17/outbox.cif.g08.bks.cpg/sg5_26_cif.got.tgz:51882.got - 2010.06.03 18:56:24.
