data_PCOD9128702
_publ_section_title
;
Structure prediction by ZEFSAII (Michael W. Deem and Ramdas Pophale) SiO2 
 PCOD9128702
Probable space group: C 2
;
_chemical_formula_sum "Si O2"
_cell_formula_units_Z 30
_cell_length_a 16.667229
_cell_length_b 7.592055
_cell_length_c 11.671280
_cell_angle_alpha 90.000000
_cell_angle_beta 101.082103
_cell_angle_gamma 90.000000
_cell_volume 1449.326994
_symmetry_space_group_name_H-M "C 2"
_symmetry_group_IT_number 5
_symmetry_cell_setting 'monoclinic'
loop_
_space_group_symop_operation_xyz
x,y,z
-x,y,-z
1/2+x,1/2+y,z
1/2-x,1/2+y,-z
loop_
_atom_site_type_symbol
_atom_site_label
_atom_site_fract_x
_atom_site_fract_y
_atom_site_fract_z
Si Si1 0.173416 0.627540 0.080252
Si Si2 0.503970 0.625567 0.135375
Si Si3 0.514033 0.251198 0.757267
Si Si4 0.844496 0.345430 0.738319
Si Si5 0.500000 0.214018 0.000000
Si Si6 0.676217 0.134139 0.695237
Si Si7 0.921273 0.518433 0.548908
Si Si8 0.338273 0.839474 0.121246
O O1 0.171257 0.531261 0.202536
O O2 0.260173 0.715455 0.084969
O O3 0.161429 0.472049 0.985529
O O4 0.097626 0.762043 0.039660
O O5 0.509054 0.445900 0.208715
O O6 0.583231 0.743266 0.177188
O O7 0.422209 0.730614 0.146422
O O8 0.500000 0.575962 0.000000
O O9 0.506929 0.135445 0.872169
O O10 0.606889 0.250007 0.739300
O O11 0.459377 0.167686 0.642909
O O12 0.762673 0.230008 0.719236
O O13 0.877222 0.380876 0.619603
O O14 0.642348 0.095256 0.559540
O O15 0.675493 0.954084 0.768022
O O16 0.000000 0.447036 0.500000
#
# Coordination Sequence:
#
# PCOD9128702 Si02
#       8
#     4   4   4   4   2   4   4   4
#     4  12  25  40  69  99 141 181 218 284 340 408
#     4  12  25  40  69 102 140 177 222 277 340 413
#     4  11  23  43  69 103 135 179 224 274 342 403
#     4  12  25  44  69 102 133 178 236 276 342 404
#     4  12  22  38  70  94 138 172 214 270 336 396
#     4  11  26  46  68  98 139 183 229 285 332 400
#     4  10  24  48  71  92 135 185 229 283 339 396
#     4  12  26  43  65 102 145 180 224 275 345 406
#
# _framework density 20.699265
#
# number of rings (size 3 to 8) (size 9 to 14) (size 15 to 20)
#    0.000    0.533    4.667    4.000    3.733    2.133 
#    0.000    7.333    0.000    0.000    0.000    0.000 
#    0.000    0.000    0.000    0.000    0.000    0.000 
#
# Total GULP energy -83762.724419 kJ/mol
# GULP energy per Si atom -5584.181628 kJ/mol
# Density = 2.065215 g / cm^3
# Si number density = 20.699265 Si / 1000 Ang^3
#
#
#
# Elastic Constant Matrix: (Units=GPa)
#
#
# Indices 1 2 3 4 5 6 
#
# 1 145.8362 39.8278 28.3467 0.0000 16.7971 0.0000
# 2 39.8278 66.7019 6.7849 0.0000 -5.7758 0.0000
# 3 28.3467 6.7849 97.7271 0.0000 -13.0648 0.0000
# 4 0.0000 0.0000 0.0000 20.1764 0.0000 -2.8063
# 5 16.7971 -5.7758 -13.0648 0.0000 37.4529 0.0000
# 6 0.0000 0.0000 0.0000 -2.8063 0.0000 45.3333
#
#
#
# Elastic Compliance Matrix: (Units=1/GPa)
#
#
# Indices 1 2 3 4 5 6 
#
# 1 0.009948 -0.006170 -0.003336 0.000000 -0.006577 0.000000
# 2 -0.006170 0.019079 0.001289 0.000000 0.006159 0.000000
# 3 -0.003336 0.001289 0.011892 0.000000 0.005843 0.000000
# 4 0.000000 0.000000 0.000000 0.049993 0.000000 0.003095
# 5 -0.006577 0.006159 0.005843 0.000000 0.032638 0.000000
# 6 0.000000 0.000000 0.000000 0.003095 0.000000 0.022250
#
#
# Mechanical properties :
#
#
# Convention : Reuss Voigt Hill
#
# Bulk Modulus (GPa) = 40.84539 51.13156 45.98848
# Shear Modulus (GPa) = 29.34312 36.27956 32.81134
#
# Velocity S-wave (km/s) = 3.76918 4.19107 3.98571
# Velocity P-wave (km/s) = 6.22237 6.94088 6.59142
#
# Compressibility (1/GPa) = 0.02448257
#
# Stress axis : x y z
#
# Youngs Moduli (GPa) = 100.52147 52.41488 84.08965
#
# Poissons Ratio (x) = 0.32341 0.28056
# Poissons Ratio (y) = 0.62024 -0.10835
# Poissons Ratio (z) = 0.33538 -0.06754
#
# Static dielectric constant tensor:
#      x y z
#    x 1.741860 0.000000 -0.024090 
#    y 0.000000 1.896350 0.000000 
#    z -0.024090 0.000000 1.743320 
# 
# From -- ./inp_files/42005.got.cif
#   From: 2010.05.17/outbox.cif.g08.bks.cpg/sg5_22_cif.got.tgz:42005.got - 2010.06.03 18:56:24.
