data_PCOD9128925
_publ_section_title
;
Structure prediction by ZEFSAII (Michael W. Deem and Ramdas Pophale) SiO2 
 PCOD9128925
Probable space group: C 2
;
_chemical_formula_sum "Si O2"
_cell_formula_units_Z 20
_cell_length_a 17.833619
_cell_length_b 8.446119
_cell_length_c 4.859156
_cell_angle_alpha 90.000000
_cell_angle_beta 99.643989
_cell_angle_gamma 90.000000
_cell_volume 721.566171
_symmetry_space_group_name_H-M "C 2"
_symmetry_group_IT_number 5
_symmetry_cell_setting 'monoclinic'
loop_
_space_group_symop_operation_xyz
x,y,z
-x,y,-z
1/2+x,1/2+y,z
1/2-x,1/2+y,-z
loop_
_atom_site_type_symbol
_atom_site_label
_atom_site_fract_x
_atom_site_fract_y
_atom_site_fract_z
Si Si1 0.000000 0.656320 0.500000
Si Si2 0.359716 0.644664 0.134594
Si Si3 0.720284 0.140596 0.445393
Si Si4 0.605933 0.908012 0.271272
Si Si5 0.500000 0.659950 0.500000
Si Si6 0.646426 0.304311 0.895817
O O1 0.957763 0.543057 0.696850
O O2 0.933822 0.754111 0.299319
O O3 0.302444 0.641807 0.358224
O O4 0.444810 0.580570 0.253315
O O5 0.333998 0.480337 0.973702
O O6 0.370286 0.816621 0.998196
O O7 0.707143 0.249142 0.701381
O O8 0.681197 0.970760 0.471626
O O9 0.664399 0.194640 0.164106
O O10 0.561199 0.763828 0.381562
#
# Coordination Sequence:
#
# PCOD9128925 Si02
#       6
#     2   4   4   4   2   4
#     4   9  23  52  82 107 157 208 264 311 401 462
#     4  12  27  45  77 114 153 200 261 324 382 463
#     4  11  28  47  79 108 161 202 258 308 398 458
#     4  10  25  48  74 110 147 207 247 315 381 472
#     4  11  27  44  76 107 151 194 258 311 387 448
#     4  11  27  49  76 115 152 204 253 329 379 464
#
# _framework density 27.717482
#
# number of rings (size 3 to 8) (size 9 to 14) (size 15 to 20)
#    0.000    1.200    0.000    2.400   19.600    2.400 
#    7.200    0.000    0.000    0.000    0.000    0.000 
#    0.000    0.000    0.000    0.000    0.000    0.000 
#
# Total GULP energy -55767.927209 kJ/mol
# GULP energy per Si atom -5576.792721 kJ/mol
# Density = 2.765440 g / cm^3
# Si number density = 27.717482 Si / 1000 Ang^3
#
#
#
# Elastic Constant Matrix: (Units=GPa)
#
#
# Indices 1 2 3 4 5 6 
#
# 1 139.2851 58.2475 25.8011 0.0000 -46.2530 0.0000
# 2 58.2475 138.4148 29.7955 0.0000 -16.1412 0.0000
# 3 25.8011 29.7955 112.9455 0.0000 -31.0357 0.0000
# 4 0.0000 0.0000 0.0000 21.6810 0.0000 -10.7635
# 5 -46.2530 -16.1412 -31.0357 0.0000 47.5015 0.0000
# 6 0.0000 0.0000 0.0000 -10.7635 0.0000 16.0691
#
#
#
# Elastic Compliance Matrix: (Units=1/GPa)
#
#
# Indices 1 2 3 4 5 6 
#
# 1 0.012595 -0.004244 0.001482 0.000000 0.011790 0.000000
# 2 -0.004244 0.009186 -0.002111 0.000000 -0.002390 0.000000
# 3 0.001482 -0.002111 0.011300 0.000000 0.008109 0.000000
# 4 0.000000 0.000000 0.000000 0.069102 0.000000 0.046286
# 5 0.011790 -0.002390 0.008109 0.000000 0.037018 0.000000
# 6 0.000000 0.000000 0.000000 0.046286 0.000000 0.093235
#
#
# Mechanical properties :
#
#
# Convention : Reuss Voigt Hill
#
# Bulk Modulus (GPa) = 42.85172 68.70374 55.77773
# Shear Modulus (GPa) = 20.00308 35.50375 27.75341
#
# Velocity S-wave (km/s) = 2.68932 3.58287 3.16776
# Velocity P-wave (km/s) = 5.01368 6.47742 5.79197
#
# Compressibility (1/GPa) = 0.02333629
#
# Stress axis : x y z
#
# Youngs Moduli (GPa) = 79.39544 108.85665 88.49299
#
# Poissons Ratio (x) = 0.46204 -0.13117
# Poissons Ratio (y) = 0.33699 0.18678
# Poissons Ratio (z) = -0.11769 0.22976
#
# Static dielectric constant tensor:
#      x y z
#    x 2.508610 0.000000 0.784130 
#    y 0.000000 2.214200 0.000000 
#    z 0.784130 0.000000 3.536950 
# 
# From -- ./inp_files/8040.got.cif
#   From: 2010.05.17/outbox.cif.g08.bks.cpg/sg5_5_cif.got.tgz:8040.got - 2010.06.03 18:56:24.
