data_PCOD9128866
_publ_section_title
;
Structure prediction by ZEFSAII (Michael W. Deem and Ramdas Pophale) SiO2 
 PCOD9128866
Probable space group: C 2
;
_chemical_formula_sum "Si O2"
_cell_formula_units_Z 18
_cell_length_a 9.907957
_cell_length_b 11.641185
_cell_length_c 6.299009
_cell_angle_alpha 90.000000
_cell_angle_beta 86.181616
_cell_angle_gamma 90.000000
_cell_volume 724.917182
_symmetry_space_group_name_H-M "C 2"
_symmetry_group_IT_number 5
_symmetry_cell_setting 'monoclinic'
loop_
_space_group_symop_operation_xyz
x,y,z
-x,y,-z
1/2+x,1/2+y,z
1/2-x,1/2+y,-z
loop_
_atom_site_type_symbol
_atom_site_label
_atom_site_fract_x
_atom_site_fract_y
_atom_site_fract_z
Si Si1 0.086123 0.805750 0.672134
Si Si2 0.640431 0.529121 0.904884
Si Si3 0.628069 0.953869 0.829747
Si Si4 0.851641 0.225561 0.406856
Si Si5 0.500000 0.094857 0.500000
O O1 0.113908 0.896398 0.848752
O O2 0.231138 0.759889 0.578686
O O3 0.000000 0.873237 0.500000
O O4 0.007960 0.690835 0.307773
O O5 0.678906 0.603227 0.696821
O O6 0.500000 0.580505 0.000000
O O7 0.752515 0.523656 0.072630
O O8 0.655653 0.820687 0.778840
O O9 0.600758 0.007061 0.601221
O O10 0.500000 0.961447 0.000000
O O11 0.000000 0.227134 0.500000
#
# Coordination Sequence:
#
# PCOD9128866 Si02
#       5
#     4   4   4   4   2
#     4  10  25  45  74  96 143 196 239 276 365 436
#     4  12  28  45  72 111 149 180 242 310 361 416
#     4  12  26  47  73 105 144 191 245 290 359 439
#     4  12  26  44  74 106 146 185 240 301 366 415
#     4  10  26  46  74  96 142 198 240 280 352 454
#
# _framework density 24.830421999999999
#
# number of rings (size 3 to 8) (size 9 to 14) (size 15 to 20)
#    0.667    0.000    1.111    5.333    9.333    0.889 
#    0.000    0.000    0.000    0.000    0.000    0.000 
#    0.000    0.000    0.000    0.000    0.000    0.000 
#
# Total GULP energy -50254.072101 kJ/mol
# GULP energy per Si atom -5583.785789 kJ/mol
# Density = 2.477391 g / cm^3
# Si number density = 24.830422 Si / 1000 Ang^3
#
#
#
# Elastic Constant Matrix: (Units=GPa)
#
#
# Indices 1 2 3 4 5 6 
#
# 1 158.2636 21.8314 69.2763 0.0000 10.0933 0.0000
# 2 21.8314 108.5533 29.9066 0.0000 -6.7074 0.0000
# 3 69.2763 29.9066 76.7494 0.0000 12.2775 0.0000
# 4 0.0000 0.0000 0.0000 70.7493 0.0000 32.9718
# 5 10.0933 -6.7074 12.2775 0.0000 54.5503 0.0000
# 6 0.0000 0.0000 0.0000 32.9718 0.0000 79.6571
#
#
#
# Elastic Compliance Matrix: (Units=1/GPa)
#
#
# Indices 1 2 3 4 5 6 
#
# 1 0.010481 0.000597 -0.009746 0.000000 0.000328 0.000000
# 2 0.000597 0.010629 -0.005054 0.000000 0.002334 0.000000
# 3 -0.009746 -0.005054 0.024488 0.000000 -0.004330 0.000000
# 4 0.000000 0.000000 0.000000 0.017513 0.000000 -0.007249
# 5 0.000328 0.002334 -0.004330 0.000000 0.019533 0.000000
# 6 0.000000 0.000000 0.000000 -0.007249 0.000000 0.015554
#
#
# Mechanical properties :
#
#
# Convention : Reuss Voigt Hill
#
# Bulk Modulus (GPa) = 58.16351 65.06610 61.61481
# Shear Modulus (GPa) = 37.78314 55.82814 46.80564
#
# Velocity S-wave (km/s) = 3.90506 4.74685 4.34638
# Velocity P-wave (km/s) = 6.61875 7.50363 7.07504
#
# Compressibility (1/GPa) = 0.01719291
#
# Stress axis : x y z
#
# Youngs Moduli (GPa) = 95.40761 94.08615 40.83564
#
# Poissons Ratio (x) = -0.05620 0.39798
# Poissons Ratio (y) = -0.05699 0.20639
# Poissons Ratio (z) = 0.92984 0.47552
#
# Static dielectric constant tensor:
#      x y z
#    x 1.871330 0.000000 -0.103880 
#    y 0.000000 1.940770 0.000000 
#    z -0.103880 0.000000 1.927980 
# 
# From -- ./inp_files/4486.got.cif
#   From: 2010.05.17/outbox.cif.g08.bks.cpg/sg5_3_cif.got.tgz:4486.got - 2010.06.03 18:56:24.
