data_PCOD9128110
_publ_section_title
;
Structure prediction by ZEFSAII (Michael W. Deem and Ramdas Pophale) SiO2 
 PCOD9128110
Probable space group: C 2
;
_chemical_formula_sum "Si O2"
_cell_formula_units_Z 28
_cell_length_a 20.209794
_cell_length_b 9.745024
_cell_length_c 15.180496
_cell_angle_alpha 90.000000
_cell_angle_beta 153.432112
_cell_angle_gamma 90.000000
_cell_volume 1337.176582
_symmetry_space_group_name_H-M "C 2"
_symmetry_group_IT_number 5
_symmetry_cell_setting 'monoclinic'
loop_
_space_group_symop_operation_xyz
x,y,z
-x,y,-z
1/2+x,1/2+y,z
1/2-x,1/2+y,-z
loop_
_atom_site_type_symbol
_atom_site_label
_atom_site_fract_x
_atom_site_fract_y
_atom_site_fract_z
Si Si1 0.753307 0.108240 0.917844
Si Si2 0.796654 0.727398 0.454742
Si Si3 0.363929 0.928005 0.507171
Si Si4 0.000000 0.469974 0.500000
Si Si5 0.000000 0.512913 0.000000
Si Si6 0.093795 0.826433 0.853402
Si Si7 0.113708 0.734491 0.252557
Si Si8 0.510626 0.825619 0.863911
O O1 0.680688 0.207810 0.904906
O O2 0.630213 0.059721 0.700775
O O3 0.883389 0.198416 0.028850
O O4 0.820645 0.968876 0.039228
O O5 0.845616 0.589582 0.466528
O O6 0.795047 0.679458 0.555259
O O7 0.634336 0.784392 0.250970
O O8 0.931197 0.835327 0.613049
O O9 0.441403 0.877085 0.510955
O O10 0.201549 0.866368 0.325062
O O11 0.456092 0.892207 0.705912
O O12 0.888285 0.616752 0.820160
O O13 0.078040 0.434929 0.011663
O O14 0.043432 0.776121 0.891353
#
# Coordination Sequence:
#
# PCOD9128110 Si02
#       8
#     4   4   4   2   2   4   4   4
#     4  12  26  44  73 105 141 194 239 294 370 432
#     4   9  20  43  67  96 137 184 225 297 344 428
#     4  11  21  45  65  97 139 183 233 289 360 422
#     4  12  26  42  64 102 146 182 232 302 352 426
#     4  12  24  40  64 108 134 182 236 310 330 424
#     4  10  23  46  74 100 143 188 241 291 364 420
#     4   9  22  39  69  93 140 180 235 289 348 414
#     4  11  25  42  70  99 139 184 241 293 364 416
#
# _framework density 20.939643
#
# number of rings (size 3 to 8) (size 9 to 14) (size 15 to 20)
#    0.857    0.571    2.857    1.714    6.000    0.000 
#    0.000    0.000    0.000    0.000    0.000    0.000 
#    0.000    0.000    0.000    0.000    0.000    0.000 
#
# Total GULP energy -77978.850563 kJ/mol
# GULP energy per Si atom -5569.917897 kJ/mol
# Density = 2.089198 g / cm^3
# Si number density = 20.939643 Si / 1000 Ang^3
#
#
#
# Elastic Constant Matrix: (Units=GPa)
#
#
# Indices 1 2 3 4 5 6 
#
# 1 111.1190 45.7705 46.6358 0.0000 -0.3191 0.0000
# 2 45.7705 96.0898 48.9008 0.0000 6.3574 0.0000
# 3 46.6358 48.9008 70.5923 0.0000 12.1605 0.0000
# 4 0.0000 0.0000 0.0000 20.9231 0.0000 -0.1633
# 5 -0.3191 6.3574 12.1605 0.0000 34.4753 0.0000
# 6 0.0000 0.0000 0.0000 -0.1633 0.0000 35.4176
#
#
#
# Elastic Compliance Matrix: (Units=1/GPa)
#
#
# Indices 1 2 3 4 5 6 
#
# 1 0.013252 -0.002760 -0.007401 0.000000 0.003242 0.000000
# 2 -0.002760 0.016682 -0.009793 0.000000 0.000353 0.000000
# 3 -0.007401 -0.009793 0.027192 0.000000 -0.007854 0.000000
# 4 0.000000 0.000000 0.000000 0.047796 0.000000 0.000220
# 5 0.003242 0.000353 -0.007854 0.000000 0.031742 0.000000
# 6 0.000000 0.000000 0.000000 0.000220 0.000000 0.028236
#
#
# Mechanical properties :
#
#
# Convention : Reuss Voigt Hill
#
# Bulk Modulus (GPa) = 58.08211 62.26838 60.17524
# Shear Modulus (GPa) = 23.74757 27.26281 25.50519
#
# Velocity S-wave (km/s) = 3.37129 3.61220 3.49382
# Velocity P-wave (km/s) = 6.55379 6.87015 6.71383
#
# Compressibility (1/GPa) = 0.01721701
#
# Stress axis : x y z
#
# Youngs Moduli (GPa) = 75.46134 59.94361 36.77515
#
# Poissons Ratio (x) = 0.16546 0.27217
# Poissons Ratio (y) = 0.20830 0.36015
# Poissons Ratio (z) = 0.55849 0.58705
#
# Static dielectric constant tensor:
#      x y z
#    x 1.827110 0.000000 -0.020950 
#    y 0.000000 1.810350 0.000000 
#    z -0.020950 0.000000 1.901480 
# 
# From -- ./inp_files/56951.got.cif
#   From: 2010.05.17/outbox.cif.g08.bks.cpg/sg5_29_cif.got.tgz:56951.got - 2010.06.03 18:56:24.
