data_PCOD9128929
_publ_section_title
;
Structure prediction by ZEFSAII (Michael W. Deem and Ramdas Pophale) SiO2 
 PCOD9128929
Probable space group: C 2
;
_chemical_formula_sum "Si O2"
_cell_formula_units_Z 20
_cell_length_a 7.658132
_cell_length_b 9.775211
_cell_length_c 11.274439
_cell_angle_alpha 90.000000
_cell_angle_beta 74.544682
_cell_angle_gamma 90.000000
_cell_volume 813.482527
_symmetry_space_group_name_H-M "C 2"
_symmetry_group_IT_number 5
_symmetry_cell_setting 'monoclinic'
loop_
_space_group_symop_operation_xyz
x,y,z
-x,y,-z
1/2+x,1/2+y,z
1/2-x,1/2+y,-z
loop_
_atom_site_type_symbol
_atom_site_label
_atom_site_fract_x
_atom_site_fract_y
_atom_site_fract_z
Si Si1 0.796965 0.213610 0.990031
Si Si2 0.254192 0.376929 0.244052
Si Si3 0.714462 0.702609 0.481245
Si Si4 0.156594 0.445182 0.648156
Si Si5 0.139430 0.952735 0.146336
O O1 0.765762 0.281558 0.867592
O O2 0.778688 0.052222 0.969222
O O3 0.667116 0.295604 0.102058
O O4 0.000000 0.240094 0.000000
O O5 0.289461 0.285883 0.354611
O O6 0.425251 0.476723 0.198000
O O7 0.057593 0.443205 0.294441
O O8 0.500000 0.686249 0.500000
O O9 0.799035 0.553711 0.462384
O O10 0.729203 0.797444 0.593054
O O11 0.259878 0.481421 0.749604
#
# Coordination Sequence:
#
# PCOD9128929 Si02
#       5
#     4   4   4   4   4
#     4  12  25  49  76 108 149 197 246 304 368 439
#     4  11  25  49  74 110 147 195 247 303 368 440
#     4  10  25  48  76 109 150 191 251 301 367 442
#     4  11  25  53  74 109 152 194 244 310 366 437
#     4  12  28  49  77 108 151 196 246 306 369 438
#
# _framework density 24.585654999999999
#
# number of rings (size 3 to 8) (size 9 to 14) (size 15 to 20)
#    0.000    0.800    4.000    1.800    2.800    4.800 
#   18.000    0.000    0.000    0.000    0.000    0.000 
#    0.000    0.000    0.000    0.000    0.000    0.000 
#
# Total GULP energy -56050.213429 kJ/mol
# GULP energy per Si atom -5605.021343 kJ/mol
# Density = 2.452970 g / cm^3
# Si number density = 24.585655 Si / 1000 Ang^3
#
#
#
# Elastic Constant Matrix: (Units=GPa)
#
#
# Indices 1 2 3 4 5 6 
#
# 1 97.6000 37.7233 41.4565 0.0000 15.8790 0.0000
# 2 37.7233 109.1746 28.3849 0.0000 -12.5020 0.0000
# 3 41.4565 28.3849 71.6565 0.0000 0.0795 0.0000
# 4 0.0000 0.0000 0.0000 37.9202 0.0000 -6.2153
# 5 15.8790 -12.5020 0.0795 0.0000 30.4089 0.0000
# 6 0.0000 0.0000 0.0000 -6.2153 0.0000 23.5337
#
#
#
# Elastic Compliance Matrix: (Units=1/GPa)
#
#
# Indices 1 2 3 4 5 6 
#
# 1 0.017536 -0.005261 -0.008049 0.000000 -0.011299 0.000000
# 2 -0.005261 0.012358 -0.001861 0.000000 0.007833 0.000000
# 3 -0.008049 -0.001861 0.019346 0.000000 0.003388 0.000000
# 4 0.000000 0.000000 0.000000 0.027564 0.000000 0.007280
# 5 -0.011299 0.007833 0.003388 0.000000 0.041997 0.000000
# 6 0.000000 0.000000 0.000000 0.007280 0.000000 0.044415
#
#
# Mechanical properties :
#
#
# Convention : Reuss Voigt Hill
#
# Bulk Modulus (GPa) = 52.91188 54.84006 53.87597
# Shear Modulus (GPa) = 25.01799 29.76365 27.39082
#
# Velocity S-wave (km/s) = 3.19342 3.48316 3.34143
# Velocity P-wave (km/s) = 5.93004 6.20731 6.07026
#
# Compressibility (1/GPa) = 0.01889935
#
# Stress axis : x y z
#
# Youngs Moduli (GPa) = 57.02416 80.91938 51.69135
#
# Poissons Ratio (x) = 0.42568 0.41608
# Poissons Ratio (y) = 0.29998 0.09617
# Poissons Ratio (z) = 0.45900 0.15056
#
# Static dielectric constant tensor:
#      x y z
#    x 1.878290 0.000000 -0.009240 
#    y 0.000000 1.959140 0.000000 
#    z -0.009240 0.000000 1.911960 
# 
# From -- ./inp_files/35153.got.cif
#   From: 2010.05.17/outbox.cif.g08.bks.cpg/sg5_18_cif.got.tgz:35153.got - 2010.06.03 18:56:24.
