data_PCOD9128380
_publ_section_title
;
Structure prediction by ZEFSAII (Michael W. Deem and Ramdas Pophale) SiO2 
 PCOD9128380
Probable space group: C 2
;
_chemical_formula_sum "Si O2"
_cell_formula_units_Z 32
_cell_length_a 14.510142
_cell_length_b 8.495977
_cell_length_c 11.988086
_cell_angle_alpha 90.000000
_cell_angle_beta 92.756947
_cell_angle_gamma 90.000000
_cell_volume 1476.154723
_symmetry_space_group_name_H-M "C 2"
_symmetry_group_IT_number 5
_symmetry_cell_setting 'monoclinic'
loop_
_space_group_symop_operation_xyz
x,y,z
-x,y,-z
1/2+x,1/2+y,z
1/2-x,1/2+y,-z
loop_
_atom_site_type_symbol
_atom_site_label
_atom_site_fract_x
_atom_site_fract_y
_atom_site_fract_z
Si Si1 0.735986 0.963310 0.690777
Si Si2 0.234415 0.625345 0.323859
Si Si3 0.118059 0.884652 0.674808
Si Si4 0.113957 0.654805 0.114019
Si Si5 0.564256 0.483884 0.234234
Si Si6 0.918504 0.299252 0.907270
Si Si7 0.597772 0.115851 0.510700
Si Si8 0.209374 0.695884 0.884858
O O1 0.708599 0.784616 0.668132
O O2 0.845988 0.973750 0.681985
O O3 0.677739 0.053068 0.596177
O O4 0.723500 0.032447 0.815745
O O5 0.295488 0.481115 0.364871
O O6 0.204105 0.622781 0.193980
O O7 0.142332 0.631299 0.392364
O O8 0.078270 0.774726 0.576848
O O9 0.158839 0.798394 0.787059
O O10 0.032694 0.984387 0.711279
O O11 0.071432 0.820858 0.158567
O O12 0.064803 0.483643 0.125063
O O13 0.144273 0.675637 0.987950
O O14 0.571003 0.653240 0.176166
O O15 0.807933 0.273957 0.927765
O O16 0.000000 0.268692 0.000000
O O17 0.500000 0.027158 0.500000
#
# Coordination Sequence:
#
# PCOD9128380 Si02
#       8
#     4   4   4   4   4   4   4   4
#     4   9  22  45  65  98 136 176 223 289 333 410
#     4  11  23  42  70 101 131 174 231 283 342 408
#     4  11  24  44  73  95 137 183 224 288 343 409
#     4  11  25  44  67  98 144 184 225 284 347 405
#     4  10  25  45  66 103 140 181 232 281 344 412
#     4  11  26  39  64 103 141 182 236 280 333 416
#     4  11  23  46  71  97 132 177 225 280 354 415
#     4  10  24  43  64  96 141 184 227 275 346 404
#
# _framework density 21.677945000000001
#
# number of rings (size 3 to 8) (size 9 to 14) (size 15 to 20)
#    0.000    1.500    1.250    2.250   10.500    0.000 
#    4.500    0.625    0.000    0.000    0.000    0.000 
#    0.000    0.000    0.000    0.000    0.000    0.000 
#
# Total GULP energy -89137.478888 kJ/mol
# GULP energy per Si atom -5571.092430 kJ/mol
# Density = 2.162861 g / cm^3
# Si number density = 21.677945 Si / 1000 Ang^3
#
#
#
# Elastic Constant Matrix: (Units=GPa)
#
#
# Indices 1 2 3 4 5 6 
#
# 1 92.8119 22.5577 35.5946 0.0000 6.7382 0.0000
# 2 22.5577 72.6866 24.1741 0.0000 -0.9752 0.0000
# 3 35.5946 24.1741 67.6605 0.0000 6.3185 0.0000
# 4 0.0000 0.0000 0.0000 -2.2017 0.0000 -6.3751
# 5 6.7382 -0.9752 6.3185 0.0000 35.9563 0.0000
# 6 0.0000 0.0000 0.0000 -6.3751 0.0000 12.2330
#
#
#
# Elastic Compliance Matrix: (Units=1/GPa)
#
#
# Indices 1 2 3 4 5 6 
#
# 1 0.013862 -0.002207 -0.006360 0.000000 -0.001540 0.000000
# 2 -0.002207 0.016037 -0.004725 0.000000 0.001679 0.000000
# 3 -0.006360 -0.004725 0.020043 0.000000 -0.002458 0.000000
# 4 0.000000 0.000000 0.000000 -0.181029 0.000000 -0.094341
# 5 -0.001540 0.001679 -0.002458 0.000000 0.028578 0.000000
# 6 0.000000 0.000000 0.000000 -0.094341 0.000000 0.032581
#
#
# Mechanical properties :
#
#
# Convention : Reuss Voigt Hill
#
# Bulk Modulus (GPa) = 42.81396 44.20130 43.50763
# Shear Modulus (GPa) = -140.61595 19.25304 -60.68146
#
# Velocity S-wave (km/s) = -8.06267 2.98340 -5.29651
# Velocity P-wave (km/s) = 8.17819 5.68347 4.15818
#
# Compressibility (1/GPa) = 0.02335687
#
# Stress axis : x y z
#
# Youngs Moduli (GPa) = 72.14012 62.35662 49.89191
#
# Poissons Ratio (x) = 0.13765 0.31731
# Poissons Ratio (y) = 0.15924 0.23575
# Poissons Ratio (z) = 0.45881 0.29465
#
# Static dielectric constant tensor:
#      x y z
#    x 1.781480 0.000000 0.000660 
#    y 0.000000 1.914640 0.000000 
#    z 0.000660 0.000000 1.795130 
# 
# From -- ./inp_files/41985.got.cif
#   From: 2010.05.17/outbox.cif.g08.bks.cpg/sg5_21_cif.got.tgz:41985.got - 2010.06.03 18:56:24.
