data_PCOD9128706
_publ_section_title
;
Structure prediction by ZEFSAII (Michael W. Deem and Ramdas Pophale) SiO2 
 PCOD9128706
Probable space group: C 2
;
_chemical_formula_sum "Si O2"
_cell_formula_units_Z 28
_cell_length_a 20.067906
_cell_length_b 5.689768
_cell_length_c 11.595141
_cell_angle_alpha 90.000000
_cell_angle_beta 69.889772
_cell_angle_gamma 90.000000
_cell_volume 1243.235648
_symmetry_space_group_name_H-M "C 2"
_symmetry_group_IT_number 5
_symmetry_cell_setting 'monoclinic'
loop_
_space_group_symop_operation_xyz
x,y,z
-x,y,-z
1/2+x,1/2+y,z
1/2-x,1/2+y,-z
loop_
_atom_site_type_symbol
_atom_site_label
_atom_site_fract_x
_atom_site_fract_y
_atom_site_fract_z
Si Si1 0.307629 0.735780 0.150930
Si Si2 0.148743 0.652292 0.258744
Si Si3 0.500000 0.837254 0.500000
Si Si4 0.023697 0.007189 0.307938
Si Si5 0.589350 0.826605 0.107116
Si Si6 0.397242 0.194317 0.452784
Si Si7 0.000000 0.673678 0.000000
Si Si8 0.641470 0.244051 0.780238
O O1 0.224233 0.750236 0.176398
O O2 0.319445 0.493859 0.217865
O O3 0.329979 0.996151 0.183761
O O4 0.356132 0.699263 0.009864
O O5 0.134697 0.424006 0.188133
O O6 0.145347 0.667145 0.401639
O O7 0.080200 0.803422 0.265674
O O8 0.550033 0.677713 0.393919
O O9 0.456138 0.992145 0.436711
O O10 0.028395 0.154899 0.189999
O O11 0.948040 0.918874 0.397690
O O12 0.547729 0.022498 0.059873
O O13 0.356207 0.185764 0.357723
O O14 0.938356 0.782492 0.119440
#
# Coordination Sequence:
#
# PCOD9128706 Si02
#       8
#     4   4   2   4   4   4   2   4
#     4  11  31  49  73 108 151 207 248 302 376 461
#     4  12  26  47  71 111 146 195 254 305 376 449
#     4  12  20  42  64 116 142 176 250 312 390 430
#     4  12  23  40  73 106 141 189 244 316 371 436
#     4  11  27  45  75 106 147 194 247 313 376 452
#     4  12  25  44  74 112 144 194 254 320 382 439
#     4  10  24  48  72 110 144 186 246 314 384 436
#     4  11  28  49  74 109 150 199 255 306 378 452
#
# _framework density 22.521875999999999
#
# number of rings (size 3 to 8) (size 9 to 14) (size 15 to 20)
#    0.000    0.571    4.286    1.714   16.000    1.714 
#    0.000    0.000    0.000    0.000    0.000    0.000 
#    0.000    0.000    0.000    0.000    0.000    0.000 
#
# Total GULP energy -78011.087619 kJ/mol
# GULP energy per Si atom -5572.220544 kJ/mol
# Density = 2.247062 g / cm^3
# Si number density = 22.521876 Si / 1000 Ang^3
#
#
#
# Elastic Constant Matrix: (Units=GPa)
#
#
# Indices 1 2 3 4 5 6 
#
# 1 45.0071 8.2666 23.5665 0.0000 -12.0150 0.0000
# 2 8.2666 78.5218 34.8095 0.0000 7.1277 0.0000
# 3 23.5665 34.8095 118.6402 0.0000 15.0322 0.0000
# 4 0.0000 0.0000 0.0000 75.0000 0.0000 23.9734
# 5 -12.0150 7.1277 15.0322 0.0000 25.0658 0.0000
# 6 0.0000 0.0000 0.0000 23.9734 0.0000 35.1482
#
#
#
# Elastic Compliance Matrix: (Units=1/GPa)
#
#
# Indices 1 2 3 4 5 6 
#
# 1 0.032822 -0.001502 -0.008795 0.000000 0.021434 0.000000
# 2 -0.001502 0.014777 -0.003694 0.000000 -0.002707 0.000000
# 3 -0.008795 -0.003694 0.012620 0.000000 -0.010733 0.000000
# 4 0.000000 0.000000 0.000000 0.017051 0.000000 -0.011630
# 5 0.021434 -0.002707 -0.010733 0.000000 0.057376 0.000000
# 6 0.000000 0.000000 0.000000 -0.011630 0.000000 0.036383
#
#
# Mechanical properties :
#
#
# Convention : Reuss Voigt Hill
#
# Bulk Modulus (GPa) = 31.02140 41.71715 36.36928
# Shear Modulus (GPa) = 23.83726 38.74456 31.29091
#
# Velocity S-wave (km/s) = 3.25684 4.15216 3.73145
# Velocity P-wave (km/s) = 5.28644 6.44596 5.89478
#
# Compressibility (1/GPa) = 0.03223581
#
# Stress axis : x y z
#
# Youngs Moduli (GPa) = 30.46766 67.67337 79.24142
#
# Poissons Ratio (x) = 0.10167 0.69690
# Poissons Ratio (y) = 0.04577 0.29274
# Poissons Ratio (z) = 0.26795 0.25000
#
# Static dielectric constant tensor:
#      x y z
#    x 1.804310 0.000000 0.016880 
#    y 0.000000 1.920810 0.000000 
#    z 0.016880 0.000000 1.860880 
# 
# From -- ./inp_files/45440.got.cif
#   From: 2010.05.17/outbox.cif.g08.bks.cpg/sg5_23_cif.got.tgz:45440.got - 2010.06.03 18:56:24.
