data_PCOD9128697
_publ_section_title
;
Structure prediction by ZEFSAII (Michael W. Deem and Ramdas Pophale) SiO2 
 PCOD9128697
Probable space group: C 2
;
_chemical_formula_sum "Si O2"
_cell_formula_units_Z 20
_cell_length_a 16.914107
_cell_length_b 7.564673
_cell_length_c 11.715095
_cell_angle_alpha 90.000000
_cell_angle_beta 34.033078
_cell_angle_gamma 90.000000
_cell_volume 838.915436
_symmetry_space_group_name_H-M "C 2"
_symmetry_group_IT_number 5
_symmetry_cell_setting 'monoclinic'
loop_
_space_group_symop_operation_xyz
x,y,z
-x,y,-z
1/2+x,1/2+y,z
1/2-x,1/2+y,-z
loop_
_atom_site_type_symbol
_atom_site_label
_atom_site_fract_x
_atom_site_fract_y
_atom_site_fract_z
Si Si1 0.723563 0.046980 0.154970
Si Si2 0.961649 0.039699 0.317490
Si Si3 0.500000 0.751795 0.500000
Si Si4 0.219040 0.041216 0.673378
Si Si5 0.510083 0.147164 0.738219
Si Si6 0.500000 0.237933 0.000000
O O1 0.754332 0.141782 0.238999
O O2 0.624121 0.141424 0.182776
O O3 0.629748 0.875391 0.301828
O O4 0.875214 0.023416 0.916500
O O5 0.952770 0.132649 0.449407
O O6 0.873666 0.122409 0.317736
O O7 0.914254 0.835166 0.375647
O O8 0.373991 0.005339 0.438106
O O9 0.131018 0.868972 0.818465
O O10 0.474927 0.133360 0.913481
#
# Coordination Sequence:
#
# PCOD9128697 Si02
#       6
#     4   4   2   4   4   2
#     4  12  23  47  72  99 141 181 222 290 341 397
#     4  11  27  43  72 103 135 185 230 274 346 408
#     4  12  28  44  72 102 142 180 228 288 332 410
#     4  11  22  43  73  96 139 180 221 284 341 394
#     4  11  24  42  76 101 136 183 229 277 347 403
#     4  10  24  48  70 102 140 180 220 296 330 412
#
# _framework density 23.840306000000002
#
# number of rings (size 3 to 8) (size 9 to 14) (size 15 to 20)
#    0.000    0.800    6.000    1.200    8.400    0.000 
#    0.000    0.000    8.800    0.000    0.000    0.000 
#    0.000    0.000    0.000    0.000    0.000    0.000 
#
# Total GULP energy -55895.673682 kJ/mol
# GULP energy per Si atom -5589.567368 kJ/mol
# Density = 2.378604 g / cm^3
# Si number density = 23.840306 Si / 1000 Ang^3
#
#
#
# Elastic Constant Matrix: (Units=GPa)
#
#
# Indices 1 2 3 4 5 6 
#
# 1 250.3891 40.9776 74.5427 0.0000 25.3870 0.0000
# 2 40.9776 42.4735 21.2462 0.0000 17.2910 0.0000
# 3 74.5427 21.2462 113.0132 0.0000 8.8899 0.0000
# 4 0.0000 0.0000 0.0000 24.8672 0.0000 6.9414
# 5 25.3870 17.2910 8.8899 0.0000 61.7383 0.0000
# 6 0.0000 0.0000 0.0000 6.9414 0.0000 35.3982
#
#
#
# Elastic Compliance Matrix: (Units=1/GPa)
#
#
# Indices 1 2 3 4 5 6 
#
# 1 0.005525 -0.003520 -0.002915 0.000000 -0.000867 0.000000
# 2 -0.003520 0.031243 -0.003011 0.000000 -0.006869 0.000000
# 3 -0.002915 -0.003011 0.011305 0.000000 0.000414 0.000000
# 4 0.000000 0.000000 0.000000 0.042542 0.000000 -0.008342
# 5 -0.000867 -0.006869 0.000414 0.000000 0.018418 0.000000
# 6 0.000000 0.000000 0.000000 -0.008342 0.000000 0.029886
#
#
# Mechanical properties :
#
#
# Convention : Reuss Voigt Hill
#
# Bulk Modulus (GPa) = 34.26920 75.48987 54.87953
# Shear Modulus (GPa) = 29.84392 42.34136 36.09264
#
# Velocity S-wave (km/s) = 3.54195 4.21888 3.89515
# Velocity P-wave (km/s) = 5.57969 7.44752 6.58021
#
# Compressibility (1/GPa) = 0.02918073
#
# Stress axis : x y z
#
# Youngs Moduli (GPa) = 180.98160 32.00709 88.46008
#
# Poissons Ratio (x) = 0.11267 0.25782
# Poissons Ratio (y) = 0.63708 0.26639
# Poissons Ratio (z) = 0.52749 0.09639
#
# Static dielectric constant tensor:
#      x y z
#    x 1.955750 0.000000 -0.011500 
#    y 0.000000 1.971160 0.000000 
#    z -0.011500 0.000000 1.893900 
# 
# From -- ./inp_files/44292.got.cif
#   From: 2010.05.17/outbox.cif.g08.bks.cpg/sg5_23_cif.got.tgz:44292.got - 2010.06.03 18:56:24.
