data_PCOD9128972
_publ_section_title
;
Structure prediction by ZEFSAII (Michael W. Deem and Ramdas Pophale) SiO2 
 PCOD9128972
Probable space group: C 2
;
_chemical_formula_sum "Si O2"
_cell_formula_units_Z 20
_cell_length_a 19.454323
_cell_length_b 4.862494
_cell_length_c 8.456618
_cell_angle_alpha 90.000000
_cell_angle_beta 64.234339
_cell_angle_gamma 90.000000
_cell_volume 720.433583
_symmetry_space_group_name_H-M "C 2"
_symmetry_group_IT_number 5
_symmetry_cell_setting 'monoclinic'
loop_
_space_group_symop_operation_xyz
x,y,z
-x,y,-z
1/2+x,1/2+y,z
1/2-x,1/2+y,-z
loop_
_atom_site_type_symbol
_atom_site_label
_atom_site_fract_x
_atom_site_fract_y
_atom_site_fract_z
Si Si1 0.250000 0.053130 0.925271
Si Si2 0.008404 0.803138 0.741595
Si Si3 0.392016 0.461917 0.098580
Si Si4 0.607985 0.144354 0.382612
Si Si5 0.808597 0.303141 0.441401
O O1 0.187903 0.871775 0.895072
O O2 0.312095 0.234486 0.770877
O O3 0.202887 0.303129 0.047114
O O4 0.951154 0.600849 0.703150
O O5 0.066648 0.744610 0.826952
O O6 0.066648 0.861666 0.539750
O O7 0.951155 0.005426 0.894541
O O8 0.362722 0.701776 0.244069
O O9 0.637276 0.904498 0.469521
O O10 0.750000 0.553142 0.465101
#
# Coordination Sequence:
#
# PCOD9128972 Si02
#       5
#     4   4   4   4   4
#     4  12  28  48  86 128 178 228 308 382 446 536
#     4  10  25  56  80 127 178 240 292 372 457 546
#     4  11  25  52  85 127 177 239 302 370 454 545
#     4  11  25  52  85 127 177 239 302 370 454 545
#     4  12  27  50  92 135 178 236 314 386 451 548
#
# _framework density 27.761061000000002
#
# number of rings (size 3 to 8) (size 9 to 14) (size 15 to 20)
#    0.000    0.800    4.000    1.200    2.800    0.000 
#   14.400    0.000    0.000    0.000    0.000    0.000 
#    0.000    0.000    0.000    0.000    0.000    0.000 
#
# Total GULP energy -55682.273608 kJ/mol
# GULP energy per Si atom -5568.227361 kJ/mol
# Density = 2.769788 g / cm^3
# Si number density = 27.761061 Si / 1000 Ang^3
#
#
#
# Elastic Constant Matrix: (Units=GPa)
#
#
# Indices 1 2 3 4 5 6 
#
# 1 165.4552 57.1283 60.0862 0.0000 -8.3887 0.0000
# 2 57.1283 153.6279 67.0704 0.0000 7.1870 0.0000
# 3 60.0862 67.0704 142.3103 0.0000 -8.3465 0.0000
# 4 0.0000 0.0000 0.0000 41.0016 0.0000 10.3543
# 5 -8.3887 7.1870 -8.3465 0.0000 46.9134 0.0000
# 6 0.0000 0.0000 0.0000 10.3543 0.0000 26.6803
#
#
#
# Elastic Compliance Matrix: (Units=1/GPa)
#
#
# Indices 1 2 3 4 5 6 
#
# 1 0.007573 -0.001902 -0.002228 0.000000 0.001249 0.000000
# 2 -0.001902 0.008856 -0.003507 0.000000 -0.002321 0.000000
# 3 -0.002228 -0.003507 0.009730 0.000000 0.001870 0.000000
# 4 0.000000 0.000000 0.000000 0.027039 0.000000 -0.010494
# 5 0.001249 -0.002321 0.001870 0.000000 0.022227 0.000000
# 6 0.000000 0.000000 0.000000 -0.010494 0.000000 0.041553
#
#
# Mechanical properties :
#
#
# Convention : Reuss Voigt Hill
#
# Bulk Modulus (GPa) = 91.86335 92.21813 92.04074
# Shear Modulus (GPa) = 36.79687 41.39296 39.09492
#
# Velocity S-wave (km/s) = 3.64467 3.86559 3.75676
# Velocity P-wave (km/s) = 7.13261 7.29482 7.21417
#
# Compressibility (1/GPa) = 0.01088573
#
# Stress axis : x y z
#
# Youngs Moduli (GPa) = 132.04770 112.91641 102.77470
#
# Poissons Ratio (x) = 0.21476 0.22897
# Poissons Ratio (y) = 0.25115 0.36042
# Poissons Ratio (z) = 0.29418 0.39599
#
# Static dielectric constant tensor:
#      x y z
#    x 2.228860 0.000000 0.155740 
#    y 0.000000 2.036400 0.000000 
#    z 0.155740 0.000000 2.444250 
# 
# From -- ./inp_files/28267.got.cif
#   From: 2010.05.17/outbox.cif.g08.bks.cpg/sg5_15_cif.got.tgz:28267.got - 2010.06.03 18:56:24.
