data_PCOD9128040
_publ_section_title
;
Structure prediction by ZEFSAII (Michael W. Deem and Ramdas Pophale) SiO2 
 PCOD9128040
Probable space group: C 2
;
_chemical_formula_sum "Si O2"
_cell_formula_units_Z 30
_cell_length_a 11.070894
_cell_length_b 13.594040
_cell_length_c 7.849358
_cell_angle_alpha 90.000000
_cell_angle_beta 87.432787
_cell_angle_gamma 90.000000
_cell_volume 1180.128452
_symmetry_space_group_name_H-M "C 2"
_symmetry_group_IT_number 5
_symmetry_cell_setting 'monoclinic'
loop_
_space_group_symop_operation_xyz
x,y,z
-x,y,-z
1/2+x,1/2+y,z
1/2-x,1/2+y,-z
loop_
_atom_site_type_symbol
_atom_site_label
_atom_site_fract_x
_atom_site_fract_y
_atom_site_fract_z
Si Si1 0.316627 0.178130 0.149399
Si Si2 0.524925 0.040017 0.203583
Si Si3 0.802615 0.973494 0.944252
Si Si4 0.500000 0.327161 0.500000
Si Si5 0.947458 0.211067 0.320484
Si Si6 0.827189 0.712585 0.762671
Si Si7 0.032919 0.981512 0.736376
Si Si8 0.365792 0.840247 0.830479
O O1 0.416646 0.118012 0.253775
O O2 0.236545 0.084714 0.096141
O O3 0.241487 0.268209 0.235290
O O4 0.356874 0.225975 0.963802
O O5 0.645657 0.096439 0.251424
O O6 0.556229 0.929852 0.259704
O O7 0.895517 0.948083 0.788471
O O8 0.885614 0.974772 0.103791
O O9 0.420207 0.264026 0.631894
O O10 0.581841 0.404148 0.599138
O O11 0.808726 0.234286 0.285391
O O12 0.963695 0.093761 0.318810
O O13 0.000000 0.245688 0.500000
O O14 0.030553 0.258367 0.170016
O O15 0.694871 0.898562 0.003971
O O16 0.500000 0.035559 0.000000
#
# Coordination Sequence:
#
# PCOD9128040 Si02
#       8
#     4   4   4   2   4   4   4   4
#     4  11  23  43  79 116 149 192 259 324 398 470
#     4  10  23  45  71 111 151 192 254 323 387 474
#     4  11  23  44  74 116 145 190 256 326 385 469
#     4  12  28  48  76 100 152 218 248 322 400 462
#     4  12  27  47  73 107 149 206 263 314 392 484
#     4  11  26  49  67 106 154 195 257 314 393 472
#     4  11  24  47  73 106 150 197 256 314 384 469
#     4  12  25  44  79 106 158 197 246 331 403 446
#
# _framework density 25.420960000000001
#
# number of rings (size 3 to 8) (size 9 to 14) (size 15 to 20)
#    0.000    0.800    6.000    0.800    5.600    1.067 
#    1.200    0.000    0.000    0.000    0.000    0.000 
#    0.000    0.000    0.000    0.000    0.000    0.000 
#
# Total GULP energy -83608.737185 kJ/mol
# GULP energy per Si atom -5573.915812 kJ/mol
# Density = 2.536310 g / cm^3
# Si number density = 25.420960 Si / 1000 Ang^3
#
#
#
# Elastic Constant Matrix: (Units=GPa)
#
#
# Indices 1 2 3 4 5 6 
#
# 1 137.9792 68.6067 34.9107 0.0000 -7.8864 0.0000
# 2 68.6067 176.4038 40.0816 0.0000 -7.0056 0.0000
# 3 34.9107 40.0816 76.0980 0.0000 3.3004 0.0000
# 4 0.0000 0.0000 0.0000 23.0870 0.0000 7.7946
# 5 -7.8864 -7.0056 3.3004 0.0000 27.0553 0.0000
# 6 0.0000 0.0000 0.0000 7.7946 0.0000 21.3085
#
#
#
# Elastic Compliance Matrix: (Units=1/GPa)
#
#
# Indices 1 2 3 4 5 6 
#
# 1 0.009607 -0.002972 -0.002946 0.000000 0.002390 0.000000
# 2 -0.002972 0.007479 -0.002636 0.000000 0.001392 0.000000
# 3 -0.002946 -0.002636 0.016032 0.000000 -0.003497 0.000000
# 4 0.000000 0.000000 0.000000 0.049417 0.000000 -0.018077
# 5 0.002390 0.001392 -0.003497 0.000000 0.038445 0.000000
# 6 0.000000 0.000000 0.000000 -0.018077 0.000000 0.053542
#
#
# Mechanical properties :
#
#
# Convention : Reuss Voigt Hill
#
# Bulk Modulus (GPa) = 62.45772 75.29767 68.87769
# Shear Modulus (GPa) = 25.38484 30.74895 28.06690
#
# Velocity S-wave (km/s) = 3.16346 3.48169 3.32638
# Velocity P-wave (km/s) = 6.16166 6.77108 6.47354
#
# Compressibility (1/GPa) = 0.01601083
#
# Stress axis : x y z
#
# Youngs Moduli (GPa) = 104.08838 133.70775 62.37377
#
# Poissons Ratio (x) = 0.39741 0.18373
# Poissons Ratio (y) = 0.30937 0.16442
# Poissons Ratio (z) = 0.30660 0.35246
#
# Static dielectric constant tensor:
#      x y z
#    x 2.104670 0.000000 -0.039890 
#    y 0.000000 2.007490 0.000000 
#    z -0.039890 0.000000 2.067460 
# 
# From -- ./inp_files/20615.got.cif
#   From: 2010.05.17/outbox.cif.g08.bks.cpg/sg5_11_cif.got.tgz:20615.got - 2010.06.03 18:56:24.
