data_PCOD9128477
_publ_section_title
;
Structure prediction by ZEFSAII (Michael W. Deem and Ramdas Pophale) SiO2 
 PCOD9128477
Probable space group: C 2
;
_chemical_formula_sum "Si O2"
_cell_formula_units_Z 26
_cell_length_a 11.780890
_cell_length_b 8.420942
_cell_length_c 24.131083
_cell_angle_alpha 90.000000
_cell_angle_beta 27.115348
_cell_angle_gamma 90.000000
_cell_volume 1091.123857
_symmetry_space_group_name_H-M "C 2"
_symmetry_group_IT_number 5
_symmetry_cell_setting 'monoclinic'
loop_
_space_group_symop_operation_xyz
x,y,z
-x,y,-z
1/2+x,1/2+y,z
1/2-x,1/2+y,-z
loop_
_atom_site_type_symbol
_atom_site_label
_atom_site_fract_x
_atom_site_fract_y
_atom_site_fract_z
Si Si1 0.602530 0.360870 0.820148
Si Si2 0.887498 0.407369 0.256020
Si Si3 0.861006 0.263324 0.380153
Si Si4 0.194553 0.158132 0.053588
Si Si5 0.989354 0.751237 0.755151
Si Si6 0.606180 0.415961 0.595875
Si Si7 0.000000 0.426058 0.000000
O O1 0.524340 0.539417 0.871017
O O2 0.638879 0.348790 0.738044
O O3 0.841129 0.296471 0.748425
O O4 0.367749 0.245236 0.934088
O O5 0.772058 0.314775 0.358424
O O6 0.673845 0.443971 0.304550
O O7 0.084945 0.294474 0.140414
O O8 0.995587 0.569277 0.233664
O O9 0.758350 0.364089 0.476079
O O10 0.805977 0.080569 0.416182
O O11 0.367333 0.040511 0.013830
O O12 0.100993 0.784391 0.646266
O O13 0.711141 0.821394 0.878914
#
# Coordination Sequence:
#
# PCOD9128477 Si02
#       7
#     4   4   4   4   4   4   2
#     4  11  24  44  74 110 145 195 238 307 369 438
#     4  12  27  48  75 108 144 197 244 308 366 443
#     4  12  27  49  76 104 151 192 251 304 369 430
#     4  11  24  42  73 110 152 183 251 301 371 444
#     4  11  25  46  75 104 149 193 245 303 372 426
#     4  12  28  51  72 108 148 195 251 307 355 449
#     4  10  24  44  72 110 148 196 246 304 368 448
#
# _framework density 23.828643
#
# number of rings (size 3 to 8) (size 9 to 14) (size 15 to 20)
#    0.000    0.615    1.538    6.000    8.615    2.462 
#    2.769    0.000    0.000    0.000    0.000    0.000 
#    0.000    0.000    0.000    0.000    0.000    0.000 
#
# Total GULP energy -72887.117966 kJ/mol
# GULP energy per Si atom -5606.701382 kJ/mol
# Density = 2.377441 g / cm^3
# Si number density = 23.828643 Si / 1000 Ang^3
#
#
#
# Elastic Constant Matrix: (Units=GPa)
#
#
# Indices 1 2 3 4 5 6 
#
# 1 46.1142 15.8825 7.7735 0.0009 22.5252 -0.0002
# 2 15.8825 146.4947 21.3854 0.0003 8.9823 -0.0001
# 3 7.7735 21.3854 59.6209 -0.0020 22.4075 0.0002
# 4 0.0009 0.0003 -0.0020 42.6084 0.0000 9.6436
# 5 22.5252 8.9823 22.4075 0.0000 40.2540 0.0001
# 6 -0.0002 -0.0001 0.0002 9.6436 0.0001 45.7880
#
#
#
# Elastic Compliance Matrix: (Units=1/GPa)
#
#
# Indices 1 2 3 4 5 6 
#
# 1 0.031348 -0.002826 0.004150 0.000000 -0.019221 0.000000
# 2 -0.002826 0.007460 -0.002878 0.000000 0.001519 0.000000
# 3 0.004150 -0.002878 0.022630 0.000001 -0.014277 0.000000
# 4 0.000000 0.000000 0.000001 0.024644 0.000000 -0.005190
# 5 -0.019221 0.001519 -0.014277 0.000000 0.043207 0.000000
# 6 0.000000 0.000000 0.000000 -0.005190 0.000000 0.022933
#
#
# Mechanical properties :
#
#
# Convention : Reuss Voigt Hill
#
# Bulk Modulus (GPa) = 17.14382 38.03474 27.58928
# Shear Modulus (GPa) = 28.60875 39.54263 34.07569
#
# Velocity S-wave (km/s) = 3.46873 4.07806 3.78568
# Velocity P-wave (km/s) = 4.82214 6.17823 5.54182
#
# Compressibility (1/GPa) = 0.05833004
#
# Stress axis : x y z
#
# Youngs Moduli (GPa) = 31.89998 134.05581 44.18979
#
# Poissons Ratio (x) = 0.37884 -0.18341
# Poissons Ratio (y) = 0.09015 0.12718
# Poissons Ratio (z) = -0.13240 0.38582
#
# Static dielectric constant tensor:
#      x y z
#    x 1.915390 0.000000 -0.019560 
#    y 0.000000 1.872540 0.000000 
#    z -0.019560 0.000000 1.908100 
# 
# From -- ./inp_files/68254.got.cif
#   From: 2010.05.17/outbox.cif.g08.bks.cpg/sg5_35_cif.got.tgz:68254.got - 2010.06.03 18:56:24.
