data_PCOD9128340
_publ_section_title
;
Structure prediction by ZEFSAII (Michael W. Deem and Ramdas Pophale) SiO2 
 PCOD9128340
Probable space group: C 2
;
_chemical_formula_sum "Si O2"
_cell_formula_units_Z 20
_cell_length_a 11.181093
_cell_length_b 17.775740
_cell_length_c 13.732608
_cell_angle_alpha 90.000000
_cell_angle_beta 160.036074
_cell_angle_gamma 90.000000
_cell_volume 931.890020
_symmetry_space_group_name_H-M "C 2"
_symmetry_group_IT_number 5
_symmetry_cell_setting 'monoclinic'
loop_
_space_group_symop_operation_xyz
x,y,z
-x,y,-z
1/2+x,1/2+y,z
1/2-x,1/2+y,-z
loop_
_atom_site_type_symbol
_atom_site_label
_atom_site_fract_x
_atom_site_fract_y
_atom_site_fract_z
Si Si1 0.883699 0.321540 0.800579
Si Si2 0.416870 0.540521 0.832918
Si Si3 0.359561 0.682951 0.094341
Si Si4 0.288477 0.881332 0.140075
Si Si5 0.371781 0.753492 0.511749
O O1 0.500000 0.357176 0.500000
O O2 0.863776 0.234862 0.751031
O O3 0.147590 0.354529 0.921440
O O4 0.000000 0.327330 0.000000
O O5 0.544535 0.596743 0.847368
O O6 0.000000 0.522694 0.500000
O O7 0.500000 0.580472 0.000000
O O8 0.665205 0.467101 0.031620
O O9 0.382492 0.710236 0.223209
O O10 0.992641 0.708809 0.767223
O O11 0.624063 0.840725 0.447978
O O12 0.000000 0.854019 0.000000
O O13 0.500000 0.752104 0.500000
#
# Coordination Sequence:
#
# PCOD9128340 Si02
#       5
#     4   4   4   4   4
#     4  11  22  38  62  92 127 168 218 275 331 392
#     4  11  24  42  66  97 134 176 227 286 342 404
#     4  11  22  40  65  95 134 175 224 283 345 405
#     4  10  24  42  67  96 132 179 229 278 333 403
#     4  11  22  40  66  98 132 176 233 284 335 404
#
# _framework density 21.461760000000002
#
# number of rings (size 3 to 8) (size 9 to 14) (size 15 to 20)
#    0.000    1.200    0.000    7.800    0.000   12.800 
#    0.000    3.000    0.000    0.000    0.000    0.000 
#    0.000    0.000    0.000    0.000    0.000    0.000 
#
# Total GULP energy -55676.449331 kJ/mol
# GULP energy per Si atom -5567.644933 kJ/mol
# Density = 2.141291 g / cm^3
# Si number density = 21.461760 Si / 1000 Ang^3
#
#
#
# Elastic Constant Matrix: (Units=GPa)
#
#
# Indices 1 2 3 4 5 6 
#
# 1 176.6675 45.9889 37.1678 0.0052 -19.9926 -0.0071
# 2 45.9889 123.4655 45.6463 0.0151 6.7997 -0.0110
# 3 37.1678 45.6463 106.8431 0.0824 -10.1280 -0.0539
# 4 0.0052 0.0151 0.0824 22.7618 0.0143 1.6133
# 5 -19.9926 6.7997 -10.1280 0.0143 34.7857 -0.0155
# 6 -0.0071 -0.0110 -0.0539 1.6133 -0.0155 21.3730
#
#
#
# Elastic Compliance Matrix: (Units=1/GPa)
#
#
# Indices 1 2 3 4 5 6 
#
# 1 0.006986 -0.002475 -0.000974 0.000001 0.004216 0.000002
# 2 -0.002475 0.010846 -0.004225 0.000012 -0.004773 -0.000010
# 3 -0.000974 -0.004225 0.011856 -0.000045 0.003718 0.000033
# 4 0.000001 0.000012 -0.000045 0.044170 -0.000035 -0.003334
# 5 0.004216 -0.004773 0.003718 -0.000035 0.033186 0.000035
# 6 0.000002 -0.000010 0.000033 -0.003334 0.000035 0.047040
#
#
# Mechanical properties :
#
#
# Convention : Reuss Voigt Hill
#
# Bulk Modulus (GPa) = 69.72782 73.84247 71.78514
# Shear Modulus (GPa) = 28.70079 34.32898 31.51488
#
# Velocity S-wave (km/s) = 3.66088 4.00377 3.83615
# Velocity P-wave (km/s) = 7.10135 7.47360 7.28985
#
# Compressibility (1/GPa) = 0.01434148
#
# Stress axis : x y z
#
# Youngs Moduli (GPa) = 143.13554 92.19861 84.34611
#
# Poissons Ratio (x) = 0.22815 0.08212
# Poissons Ratio (y) = 0.35419 0.35639
# Poissons Ratio (z) = 0.13935 0.38957
#
# Static dielectric constant tensor:
#      x y z
#    x 1.780290 0.000010 0.016730 
#    y 0.000010 1.824650 -0.000010 
#    z 0.016730 -0.000010 1.880160 
# 
# From -- ./inp_files/53436.got.cif
#   From: 2010.05.17/outbox.cif.g08.bks.cpg/sg5_27_cif.got.tgz:53436.got - 2010.06.03 18:56:24.
