data_PCOD9128906
_publ_section_title
;
Structure prediction by ZEFSAII (Michael W. Deem and Ramdas Pophale) SiO2 
 PCOD9128906
Probable space group: C 2
;
_chemical_formula_sum "Si O2"
_cell_formula_units_Z 18
_cell_length_a 25.230959
_cell_length_b 7.274903
_cell_length_c 5.435316
_cell_angle_alpha 90.000000
_cell_angle_beta 45.625379
_cell_angle_gamma 90.000000
_cell_volume 713.115192
_symmetry_space_group_name_H-M "C 2"
_symmetry_group_IT_number 5
_symmetry_cell_setting 'monoclinic'
loop_
_space_group_symop_operation_xyz
x,y,z
-x,y,-z
1/2+x,1/2+y,z
1/2-x,1/2+y,-z
loop_
_atom_site_type_symbol
_atom_site_label
_atom_site_fract_x
_atom_site_fract_y
_atom_site_fract_z
Si Si1 0.000000 0.038401 0.500000
Si Si2 0.321279 0.969828 0.198071
Si Si3 0.136670 0.163634 0.285728
Si Si4 0.043172 0.686204 0.116098
Si Si5 0.226530 0.822804 0.888453
O O1 0.048278 0.142422 0.548806
O O2 0.053400 0.896441 0.177199
O O3 0.243862 0.928550 0.579315
O O4 0.309520 0.124723 0.028201
O O5 0.349038 0.775116 0.013329
O O6 0.382410 0.072408 0.162033
O O7 0.190402 0.284038 0.283752
O O8 0.171573 0.960413 0.204145
O O9 0.000000 0.605650 0.500000
O O10 0.000000 0.684848 0.000000
#
# Coordination Sequence:
#
# PCOD9128906 Si02
#       5
#     2   4   4   4   4
#     4  10  26  44  74 112 150 198 258 314 378 460
#     4  12  26  43  73 108 145 199 257 316 379 453
#     4  12  26  46  74 109 151 201 254 315 384 456
#     4  10  25  47  74 105 155 195 250 320 381 449
#     4  12  25  45  74 106 149 198 260 313 379 459
#
# _framework density 25.241364000000001
#
# number of rings (size 3 to 8) (size 9 to 14) (size 15 to 20)
#    0.667    0.000    6.667    0.000    4.667    5.333 
#    0.000    0.000    0.000    0.000    0.000    0.000 
#    0.000    0.000    0.000    0.000    0.000    0.000 
#
# Total GULP energy -50169.809995 kJ/mol
# GULP energy per Si atom -5574.423333 kJ/mol
# Density = 2.518391 g / cm^3
# Si number density = 25.241364 Si / 1000 Ang^3
#
#
#
# Elastic Constant Matrix: (Units=GPa)
#
#
# Indices 1 2 3 4 5 6 
#
# 1 138.0646 39.3405 6.9058 0.0000 -7.6398 0.0000
# 2 39.3405 120.6900 10.3221 0.0000 -16.6970 0.0000
# 3 6.9058 10.3221 30.3307 0.0000 -7.0966 0.0000
# 4 0.0000 0.0000 0.0000 32.7623 0.0000 -9.9830
# 5 -7.6398 -16.6970 -7.0966 0.0000 29.7026 0.0000
# 6 0.0000 0.0000 0.0000 -9.9830 0.0000 31.9526
#
#
#
# Elastic Compliance Matrix: (Units=1/GPa)
#
#
# Indices 1 2 3 4 5 6 
#
# 1 0.008017 -0.002475 -0.000875 0.000000 0.000462 0.000000
# 2 -0.002475 0.009863 -0.001742 0.000000 0.004492 0.000000
# 3 -0.000875 -0.001742 0.035463 0.000000 0.007268 0.000000
# 4 0.000000 0.000000 0.000000 0.033734 0.000000 0.010540
# 5 0.000462 0.004492 0.007268 0.000000 0.038047 0.000000
# 6 0.000000 0.000000 0.000000 0.010540 0.000000 0.034589
#
#
# Mechanical properties :
#
#
# Convention : Reuss Voigt Hill
#
# Bulk Modulus (GPa) = 23.17019 44.69135 33.93077
# Shear Modulus (GPa) = 27.13199 34.38459 30.75829
#
# Velocity S-wave (km/s) = 3.28213 3.69485 3.49458
# Velocity P-wave (km/s) = 4.85412 5.99555 5.45477
#
# Compressibility (1/GPa) = 0.04315891
#
# Stress axis : x y z
#
# Youngs Moduli (GPa) = 124.72783 101.39193 28.19865
#
# Poissons Ratio (x) = 0.25091 0.02468
# Poissons Ratio (y) = 0.30866 0.04913
# Poissons Ratio (z) = 0.10916 0.17664
#
# Static dielectric constant tensor:
#      x y z
#    x 2.207810 0.000000 0.002000 
#    y 0.000000 1.955980 0.000000 
#    z 0.002000 0.000000 2.034450 
# 
# From -- ./inp_files/10069.got.cif
#   From: 2010.05.17/outbox.cif.g08.bks.cpg/sg5_6_cif.got.tgz:10069.got - 2010.06.03 18:56:24.
