data_PCOD9128277
_publ_section_title
;
Structure prediction by ZEFSAII (Michael W. Deem and Ramdas Pophale) SiO2 
 PCOD9128277
Probable space group: C 2
;
_chemical_formula_sum "Si O2"
_cell_formula_units_Z 28
_cell_length_a 26.528824
_cell_length_b 8.771969
_cell_length_c 11.166114
_cell_angle_alpha 90.000000
_cell_angle_beta 28.581018
_cell_angle_gamma 90.000000
_cell_volume 1243.108924
_symmetry_space_group_name_H-M "C 2"
_symmetry_group_IT_number 5
_symmetry_cell_setting 'monoclinic'
loop_
_space_group_symop_operation_xyz
x,y,z
-x,y,-z
1/2+x,1/2+y,z
1/2-x,1/2+y,-z
loop_
_atom_site_type_symbol
_atom_site_label
_atom_site_fract_x
_atom_site_fract_y
_atom_site_fract_z
Si Si1 0.000000 0.111691 0.500000
Si Si2 0.500000 0.119687 0.500000
Si Si3 0.234213 0.958014 0.657819
Si Si4 0.994915 0.951474 0.257128
Si Si5 0.312835 0.620601 0.492999
Si Si6 0.300884 0.812053 0.931278
Si Si7 0.876273 0.645028 0.542040
Si Si8 0.197379 0.644620 0.965266
O O1 0.025148 0.010804 0.564839
O O2 0.091999 0.224928 0.265517
O O3 0.444380 0.046984 0.498052
O O4 0.588275 0.210769 0.242843
O O5 0.295418 0.799630 0.508385
O O6 0.208251 0.032627 0.584745
O O7 0.314461 0.056414 0.569726
O O8 0.119348 0.947778 0.963863
O O9 0.922294 0.062455 0.324642
O O10 0.947494 0.781539 0.341027
O O11 0.219960 0.594173 0.784743
O O12 0.294066 0.987086 0.979591
O O13 0.211740 0.729677 0.195041
O O14 0.279146 0.771264 0.837978
#
# Coordination Sequence:
#
# PCOD9128277 Si02
#       8
#     2   2   4   4   4   4   4   4
#     4  12  22  40  76 114 154 196 244 316 392 446
#     4  10  24  40  70 110 142 188 234 312 374 454
#     4  12  29  50  76 107 150 207 258 315 370 451
#     4  12  25  49  75 112 150 199 251 315 381 454
#     4  12  27  49  77 106 151 201 261 310 376 448
#     4  11  22  39  68 104 146 185 239 303 379 441
#     4  11  23  46  74 104 151 193 249 310 378 446
#     4  11  24  42  69 104 146 187 242 306 381 447
#
# _framework density 22.524172
#
# number of rings (size 3 to 8) (size 9 to 14) (size 15 to 20)
#    0.000    0.571    4.286    3.000    4.000    3.429 
#    0.000    6.429    0.000    0.000    0.000    0.000 
#    0.000    0.000    0.000    0.000    0.000    0.000 
#
# Total GULP energy -78143.025533 kJ/mol
# GULP energy per Si atom -5581.644681 kJ/mol
# Density = 2.247291 g / cm^3
# Si number density = 22.524172 Si / 1000 Ang^3
#
#
#
# Elastic Constant Matrix: (Units=GPa)
#
#
# Indices 1 2 3 4 5 6 
#
# 1 179.7163 78.9207 35.7231 0.0000 -5.4524 0.0000
# 2 78.9207 134.9349 38.7083 0.0000 -7.0112 0.0000
# 3 35.7231 38.7083 81.9404 0.0000 -6.5716 0.0000
# 4 0.0000 0.0000 0.0000 23.5500 0.0000 -4.5639
# 5 -5.4524 -7.0112 -6.5716 0.0000 43.6140 0.0000
# 6 0.0000 0.0000 0.0000 -4.5639 0.0000 40.2502
#
#
#
# Elastic Compliance Matrix: (Units=1/GPa)
#
#
# Indices 1 2 3 4 5 6 
#
# 1 0.007626 -0.004053 -0.001403 0.000000 0.000090 0.000000
# 2 -0.004053 0.010753 -0.003254 0.000000 0.000732 0.000000
# 3 -0.001403 -0.003254 0.014472 0.000000 0.001482 0.000000
# 4 0.000000 0.000000 0.000000 0.043417 0.000000 0.004923
# 5 0.000090 0.000732 0.001482 0.000000 0.023281 0.000000
# 6 0.000000 0.000000 0.000000 0.004923 0.000000 0.025403
#
#
# Mechanical properties :
#
#
# Convention : Reuss Voigt Hill
#
# Bulk Modulus (GPa) = 64.80526 78.14399 71.47462
# Shear Modulus (GPa) = 33.89516 37.69881 35.79698
#
# Velocity S-wave (km/s) = 3.88343 4.09553 3.99089
# Velocity P-wave (km/s) = 6.99585 7.55865 7.28269
#
# Compressibility (1/GPa) = 0.01543085
#
# Stress axis : x y z
#
# Youngs Moduli (GPa) = 131.13466 92.99709 69.10110
#
# Poissons Ratio (x) = 0.37692 0.09692
# Poissons Ratio (y) = 0.53150 0.22486
# Poissons Ratio (z) = 0.18394 0.30261
#
# Static dielectric constant tensor:
#      x y z
#    x 1.920270 0.000000 -0.068940 
#    y 0.000000 1.860750 0.000000 
#    z -0.068940 0.000000 1.891050 
# 
# From -- ./inp_files/47931.got.cif
#   From: 2010.05.17/outbox.cif.g08.bks.cpg/sg5_24_cif.got.tgz:47931.got - 2010.06.03 18:56:24.
