data_PCOD9128363
_publ_section_title
;
Structure prediction by ZEFSAII (Michael W. Deem and Ramdas Pophale) SiO2 
 PCOD9128363
Probable space group: C 2
;
_chemical_formula_sum "Si O2"
_cell_formula_units_Z 18
_cell_length_a 8.167960
_cell_length_b 20.670386
_cell_length_c 5.277495
_cell_angle_alpha 90.000000
_cell_angle_beta 115.895272
_cell_angle_gamma 90.000000
_cell_volume 801.560824
_symmetry_space_group_name_H-M "C 2"
_symmetry_group_IT_number 5
_symmetry_cell_setting 'monoclinic'
loop_
_space_group_symop_operation_xyz
x,y,z
-x,y,-z
1/2+x,1/2+y,z
1/2-x,1/2+y,-z
loop_
_atom_site_type_symbol
_atom_site_label
_atom_site_fract_x
_atom_site_fract_y
_atom_site_fract_z
Si Si1 0.000000 0.437500 0.000000
Si Si2 0.184938 0.990627 0.460266
Si Si3 0.895595 0.740650 0.681750
Si Si4 0.117148 0.132837 0.321589
Si Si5 0.297027 0.868161 0.248205
O O1 0.877575 0.483141 0.738618
O O2 0.156597 0.388569 0.005159
O O3 0.185320 0.928136 0.282633
O O4 0.000000 0.988958 0.500000
O O5 0.185659 0.059707 0.321306
O O6 0.771812 0.684460 0.482868
O O7 0.790901 0.800965 0.738170
O O8 0.000000 0.765334 0.500000
O O9 0.000000 0.713277 0.000000
O O10 0.000000 0.131025 0.500000
O O11 0.000000 0.153445 0.000000
O O12 0.500000 0.869045 0.500000
#
# Coordination Sequence:
#
# PCOD9128363 Si02
#       5
#     2   4   4   4   4
#     4  10  24  42  70 108 150 186 242 308 362 434
#     4  10  24  42  75 106 143 191 243 301 366 438
#     4  12  28  45  74 107 146 191 245 305 362 437
#     4  11  26  49  75 104 145 196 239 298 368 441
#     4  10  24  43  69 104 143 192 238 304 361 436
#
# _framework density 22.456187
#
# number of rings (size 3 to 8) (size 9 to 14) (size 15 to 20)
#    0.000    1.333    0.000    2.667   17.111    2.667 
#    4.000    0.000    0.000    0.000    0.000    0.000 
#    0.000    0.000    0.000    0.000    0.000    0.000 
#
# Total GULP energy -50247.050901 kJ/mol
# GULP energy per Si atom -5583.005656 kJ/mol
# Density = 2.240508 g / cm^3
# Si number density = 22.456187 Si / 1000 Ang^3
#
#
#
# Elastic Constant Matrix: (Units=GPa)
#
#
# Indices 1 2 3 4 5 6 
#
# 1 81.5091 37.7372 30.3623 0.0000 -0.4209 0.0000
# 2 37.7372 139.3680 40.8334 0.0000 17.6441 0.0000
# 3 30.3623 40.8334 149.9618 0.0000 16.3281 0.0000
# 4 0.0000 0.0000 0.0000 23.1964 0.0000 2.1098
# 5 -0.4209 17.6441 16.3281 0.0000 33.0881 0.0000
# 6 0.0000 0.0000 0.0000 2.1098 0.0000 52.1523
#
#
#
# Elastic Compliance Matrix: (Units=1/GPa)
#
#
# Indices 1 2 3 4 5 6 
#
# 1 0.014911 -0.003773 -0.002358 0.000000 0.003365 0.000000
# 2 -0.003773 0.009105 -0.001249 0.000000 -0.004287 0.000000
# 3 -0.002358 -0.001249 0.007838 0.000000 -0.003232 0.000000
# 4 0.000000 0.000000 0.000000 0.043269 0.000000 -0.001750
# 5 0.003365 -0.004287 -0.003232 0.000000 0.034146 0.000000
# 6 0.000000 0.000000 0.000000 -0.001750 0.000000 0.019245
#
#
# Mechanical properties :
#
#
# Convention : Reuss Voigt Hill
#
# Bulk Modulus (GPa) = 58.49591 65.41164 61.95377
# Shear Modulus (GPa) = 33.56331 39.14776 36.35553
#
# Velocity S-wave (km/s) = 3.87022 4.17981 4.02799
# Velocity P-wave (km/s) = 6.78800 7.24474 7.02008
#
# Compressibility (1/GPa) = 0.01709521
#
# Stress axis : x y z
#
# Youngs Moduli (GPa) = 67.06458 109.82497 127.58839
#
# Poissons Ratio (x) = 0.41433 0.30087
# Poissons Ratio (y) = 0.25301 0.15932
# Poissons Ratio (z) = 0.15815 0.13714
#
# Static dielectric constant tensor:
#      x y z
#    x 1.915480 0.000000 -0.062620 
#    y 0.000000 1.790700 0.000000 
#    z -0.062620 0.000000 1.935930 
# 
# From -- ./inp_files/2313.got.cif
#   From: 2010.05.17/outbox.cif.g08.bks.cpg/sg5_2_cif.got.tgz:2313.got - 2010.06.03 18:56:24.
