data_PCOD9128968
_publ_section_title
;
Structure prediction by ZEFSAII (Michael W. Deem and Ramdas Pophale) SiO2 
 PCOD9128968
Probable space group: C 2
;
_chemical_formula_sum "Si O2"
_cell_formula_units_Z 16
_cell_length_a 19.455435
_cell_length_b 4.934945
_cell_length_c 8.675424
_cell_angle_alpha 90.000000
_cell_angle_beta 41.521442
_cell_angle_gamma 90.000000
_cell_volume 552.156486
_symmetry_space_group_name_H-M "C 2"
_symmetry_group_IT_number 5
_symmetry_cell_setting 'monoclinic'
loop_
_space_group_symop_operation_xyz
x,y,z
-x,y,-z
1/2+x,1/2+y,z
1/2-x,1/2+y,-z
loop_
_atom_site_type_symbol
_atom_site_label
_atom_site_fract_x
_atom_site_fract_y
_atom_site_fract_z
Si Si1 0.010641 0.720940 0.304984
Si Si2 0.323148 0.822155 0.861217
Si Si3 0.395399 0.435700 0.130894
Si Si4 0.155219 0.337185 0.516474
O O1 0.085906 0.456860 0.189947
O O2 0.000000 0.798678 0.500000
O O3 0.900317 0.626607 0.419340
O O4 0.073359 0.939606 0.101406
O O5 0.360006 0.717999 0.630298
O O6 0.247530 0.591272 0.051244
O O7 0.278833 0.327749 0.334432
O O8 0.392283 0.687634 0.254813
O O9 0.500000 0.271670 0.000000
#
# Coordination Sequence:
#
# PCOD9128968 Si02
#       4
#     4   4   4   4
#     4  10  25  53  84 121 163 223 286 348 419 504
#     4  11  25  51  88 119 165 218 286 349 415 497
#     4  12  27  51  79 120 173 216 276 346 423 504
#     4  11  27  49  82 123 166 225 275 347 430 496
#
# _framework density 28.977295000000002
#
# number of rings (size 3 to 8) (size 9 to 14) (size 15 to 20)
#    0.000    1.000    2.500    1.500    3.500    9.000 
#    0.000    6.250    0.000    0.000    0.000    0.000 
#    0.000    0.000    0.000    0.000    0.000    0.000 
#
# Total GULP energy -44700.533990 kJ/mol
# GULP energy per Si atom -5587.566749 kJ/mol
# Density = 2.891134 g / cm^3
# Si number density = 28.977295 Si / 1000 Ang^3
#
#
#
# Elastic Constant Matrix: (Units=GPa)
#
#
# Indices 1 2 3 4 5 6 
#
# 1 140.7339 58.2014 51.5065 0.0004 -47.6532 -0.0001
# 2 58.2014 131.0590 76.3452 -0.0016 10.2685 0.0033
# 3 51.5065 76.3452 260.4136 -0.0002 26.3230 -0.0003
# 4 0.0004 -0.0016 -0.0002 43.2694 -0.0005 12.9418
# 5 -47.6532 10.2685 26.3230 -0.0005 80.5045 0.0001
# 6 -0.0001 0.0033 -0.0003 12.9418 0.0001 52.8460
#
#
#
# Elastic Compliance Matrix: (Units=1/GPa)
#
#
# Indices 1 2 3 4 5 6 
#
# 1 0.013133 -0.005422 -0.001927 0.000000 0.009096 0.000000
# 2 -0.005422 0.011447 -0.001873 0.000001 -0.004057 -0.000001
# 3 -0.001927 -0.001873 0.005028 0.000000 -0.002546 0.000000
# 4 0.000000 0.000001 0.000000 0.024938 0.000000 -0.006107
# 5 0.009096 -0.004057 -0.002546 0.000000 0.019156 0.000000
# 6 0.000000 -0.000001 0.000000 -0.006107 0.000000 0.020419
#
#
# Mechanical properties :
#
#
# Convention : Reuss Voigt Hill
#
# Bulk Modulus (GPa) = 89.58712 100.47918 95.03315
# Shear Modulus (GPa) = 42.99703 58.40089 50.69896
#
# Velocity S-wave (km/s) = 3.85621 4.49419 4.18737
# Velocity P-wave (km/s) = 7.12816 7.85371 7.49971
#
# Compressibility (1/GPa) = 0.01116232
#
# Stress axis : x y z
#
# Youngs Moduli (GPa) = 76.14244 87.35709 198.89258
#
# Poissons Ratio (x) = 0.47367 0.38335
# Poissons Ratio (y) = 0.41286 0.37261
# Poissons Ratio (z) = 0.14676 0.16366
#
# Static dielectric constant tensor:
#      x y z
#    x 2.507710 0.000000 0.164480 
#    y 0.000000 2.267970 0.000000 
#    z 0.164480 0.000000 2.286390 
# 
# From -- ./inp_files/28233.got.cif
#   From: 2010.05.17/outbox.cif.g08.bks.cpg/sg5_15_cif.got.tgz:28233.got - 2010.06.03 18:56:24.
