data_PCOD9128138
_publ_section_title
;
Structure prediction by ZEFSAII (Michael W. Deem and Ramdas Pophale) SiO2 
 PCOD9128138
Probable space group: C 2
;
_chemical_formula_sum "Si O2"
_cell_formula_units_Z 22
_cell_length_a 22.434288
_cell_length_b 8.927792
_cell_length_c 4.993700
_cell_angle_alpha 90.000000
_cell_angle_beta 122.561155
_cell_angle_gamma 90.000000
_cell_volume 842.970418
_symmetry_space_group_name_H-M "C 2"
_symmetry_group_IT_number 5
_symmetry_cell_setting 'monoclinic'
loop_
_space_group_symop_operation_xyz
x,y,z
-x,y,-z
1/2+x,1/2+y,z
1/2-x,1/2+y,-z
loop_
_atom_site_type_symbol
_atom_site_label
_atom_site_fract_x
_atom_site_fract_y
_atom_site_fract_z
Si Si1 0.884443 0.787550 0.073864
Si Si2 0.273788 0.516097 0.979337
Si Si3 0.315646 0.990098 0.727556
Si Si4 0.000000 0.699908 0.000000
Si Si5 0.394834 0.730570 0.106687
Si Si6 0.500000 0.489535 0.500000
Si Si7 0.000000 0.477810 0.500000
O O1 0.863248 0.614500 0.994205
O O2 0.811790 0.874826 0.930710
O O3 0.936488 0.872510 0.409223
O O4 0.934059 0.799556 0.933836
O O5 0.210793 0.553050 0.619667
O O6 0.247967 0.475027 0.211993
O O7 0.332468 0.646204 0.113099
O O8 0.355450 0.831277 0.787719
O O9 0.010212 0.585830 0.271701
O O10 0.455841 0.606017 0.202896
O O11 0.435164 0.861581 0.357593
#
# Coordination Sequence:
#
# PCOD9128138 Si02
#       7
#     4   4   4   2   4   2   2
#     4  11  25  45  74 108 147 191 245 299 367 431
#     4  11  27  46  70 109 146 194 240 299 359 429
#     4  12  25  44  75 103 146 196 244 291 356 444
#     4  12  26  44  74 110 144 188 250 302 364 432
#     4  10  23  47  72 105 148 186 243 297 368 427
#     4   9  23  46  72 107 145 184 234 311 365 422
#     4  11  25  44  72 109 139 194 240 307 361 432
#
# _framework density 26.098189000000001
#
# number of rings (size 3 to 8) (size 9 to 14) (size 15 to 20)
#    0.000    1.091    1.818    2.727    2.545    5.818 
#    0.000    8.182    0.000    0.000    0.000    0.000 
#    0.000    0.000    0.000    0.000    0.000    0.000 
#
# Total GULP energy -61325.168933 kJ/mol
# GULP energy per Si atom -5575.015358 kJ/mol
# Density = 2.603879 g / cm^3
# Si number density = 26.098189 Si / 1000 Ang^3
#
#
#
# Elastic Constant Matrix: (Units=GPa)
#
#
# Indices 1 2 3 4 5 6 
#
# 1 99.0052 16.4115 38.6903 0.0000 -14.8458 0.0000
# 2 16.4115 153.0842 29.5381 0.0000 5.7973 0.0000
# 3 38.6903 29.5381 96.3136 0.0000 -9.4400 0.0000
# 4 0.0000 0.0000 0.0000 24.1271 0.0000 36.2118
# 5 -14.8458 5.7973 -9.4400 0.0000 51.1457 0.0000
# 6 0.0000 0.0000 0.0000 36.2118 0.0000 48.3988
#
#
#
# Elastic Compliance Matrix: (Units=1/GPa)
#
#
# Indices 1 2 3 4 5 6 
#
# 1 0.012386 -0.000561 -0.004527 0.000000 0.002823 0.000000
# 2 -0.000561 0.007042 -0.002066 0.000000 -0.001342 0.000000
# 3 -0.004527 -0.002066 0.012963 0.000000 0.001313 0.000000
# 4 0.000000 0.000000 0.000000 -0.337113 0.000000 0.252226
# 5 0.002823 -0.001342 0.001313 0.000000 0.020766 0.000000
# 6 0.000000 0.000000 0.000000 0.252226 0.000000 -0.168053
#
#
# Mechanical properties :
#
#
# Convention : Reuss Voigt Hill
#
# Bulk Modulus (GPa) = 55.29843 57.52033 56.40938
# Shear Modulus (GPa) = -11.58283 42.31853 15.36785
#
# Velocity S-wave (km/s) = -2.10898 4.03117 2.42925
# Velocity P-wave (km/s) = 3.91206 6.61475 5.43411
#
# Compressibility (1/GPa) = 0.01808370
#
# Stress axis : x y z
#
# Youngs Moduli (GPa) = 80.73719 142.00586 77.14035
#
# Poissons Ratio (x) = 0.07971 0.34919
# Poissons Ratio (y) = 0.04532 0.15935
# Poissons Ratio (z) = 0.36547 0.29335
#
# Static dielectric constant tensor:
#      x y z
#    x 2.058220 0.000000 0.202470 
#    y 0.000000 2.057090 0.000000 
#    z 0.202470 0.000000 2.364850 
# 
# From -- ./inp_files/9295.got.cif
#   From: 2010.05.17/outbox.cif.g08.bks.cpg/sg5_5_cif.got.tgz:9295.got - 2010.06.03 18:56:24.
