data_PCOD9128453
_publ_section_title
;
Structure prediction by ZEFSAII (Michael W. Deem and Ramdas Pophale) SiO2 
 PCOD9128453
Probable space group: C 2
;
_chemical_formula_sum "Si O2"
_cell_formula_units_Z 28
_cell_length_a 16.365342
_cell_length_b 6.784963
_cell_length_c 13.026386
_cell_angle_alpha 90.000000
_cell_angle_beta 57.467899
_cell_angle_gamma 90.000000
_cell_volume 1219.468525
_symmetry_space_group_name_H-M "C 2"
_symmetry_group_IT_number 5
_symmetry_cell_setting 'monoclinic'
loop_
_space_group_symop_operation_xyz
x,y,z
-x,y,-z
1/2+x,1/2+y,z
1/2-x,1/2+y,-z
loop_
_atom_site_type_symbol
_atom_site_label
_atom_site_fract_x
_atom_site_fract_y
_atom_site_fract_z
Si Si1 0.500000 0.144970 0.000000
Si Si2 0.171602 0.037650 0.673669
Si Si3 0.000000 0.093754 0.500000
Si Si4 0.182479 0.650948 0.778123
Si Si5 0.113082 0.657654 0.125313
Si Si6 0.488758 0.788547 0.731358
Si Si7 0.806328 0.058371 0.885585
Si Si8 0.690879 0.379218 0.436581
O O1 0.411787 0.036975 0.116046
O O2 0.559759 0.234860 0.056538
O O3 0.269187 0.165306 0.620978
O O4 0.085826 0.193286 0.711920
O O5 0.154569 0.875862 0.772666
O O6 0.179537 0.907510 0.565367
O O7 0.010678 0.224630 0.389199
O O8 0.092200 0.952986 0.452615
O O9 0.262221 0.648836 0.812584
O O10 0.228728 0.537047 0.653071
O O11 0.036867 0.517654 0.234499
O O12 0.149991 0.843432 0.163500
O O13 0.214616 0.552543 0.024061
O O14 0.399246 0.685934 0.851591
#
# Coordination Sequence:
#
# PCOD9128453 Si02
#       8
#     2   4   2   4   4   4   4   4
#     4  10  24  44  70 100 140 184 234 298 354 434
#     4  11  24  42  73  99 144 189 239 302 359 429
#     4  10  24  46  68 102 146 178 248 296 360 438
#     4  11  23  45  67 106 144 182 244 294 361 437
#     4  11  23  45  72 103 141 189 240 300 365 432
#     4  11  23  45  69 105 142 188 241 301 362 440
#     4  11  23  43  72 102 144 186 238 301 358 431
#     4  11  22  45  68 102 137 188 235 302 359 429
#
# _framework density 22.960820999999999
#
# number of rings (size 3 to 8) (size 9 to 14) (size 15 to 20)
#    0.000    1.143    4.286    1.714    0.000    1.143 
#    0.000    7.857    0.000    0.000    0.000    0.000 
#    0.000    0.000    0.000    0.000    0.000    0.000 
#
# Total GULP energy -78147.690481 kJ/mol
# GULP energy per Si atom -5581.977892 kJ/mol
# Density = 2.290856 g / cm^3
# Si number density = 22.960821 Si / 1000 Ang^3
#
#
#
# Elastic Constant Matrix: (Units=GPa)
#
#
# Indices 1 2 3 4 5 6 
#
# 1 108.5695 38.1896 47.2310 0.0000 -10.7725 0.0000
# 2 38.1896 97.8924 28.3880 0.0000 2.6839 0.0000
# 3 47.2310 28.3880 75.6978 0.0000 -10.9946 0.0000
# 4 0.0000 0.0000 0.0000 27.0131 0.0000 -5.1894
# 5 -10.7725 2.6839 -10.9946 0.0000 34.9298 0.0000
# 6 0.0000 0.0000 0.0000 -5.1894 0.0000 28.8896
#
#
#
# Elastic Compliance Matrix: (Units=1/GPa)
#
#
# Indices 1 2 3 4 5 6 
#
# 1 0.013630 -0.003378 -0.006905 0.000000 0.002290 0.000000
# 2 -0.003378 0.012484 -0.003002 0.000000 -0.002946 0.000000
# 3 -0.006905 -0.003002 0.019249 0.000000 0.004160 0.000000
# 4 0.000000 0.000000 0.000000 0.038342 0.000000 0.006887
# 5 0.002290 -0.002946 0.004160 0.000000 0.030871 0.000000
# 6 0.000000 0.000000 0.000000 0.006887 0.000000 0.035852
#
#
# Mechanical properties :
#
#
# Convention : Reuss Voigt Hill
#
# Bulk Modulus (GPa) = 53.21066 56.64188 54.92627
# Shear Modulus (GPa) = 27.28335 29.38991 28.33663
#
# Velocity S-wave (km/s) = 3.45085 3.58159 3.51683
# Velocity P-wave (km/s) = 6.25321 6.46732 6.36117
#
# Compressibility (1/GPa) = 0.01879323
#
# Stress axis : x y z
#
# Youngs Moduli (GPa) = 73.36841 80.10007 51.95110
#
# Poissons Ratio (x) = 0.27055 0.35872
# Poissons Ratio (y) = 0.24781 0.15597
# Poissons Ratio (z) = 0.50661 0.24048
#
# Static dielectric constant tensor:
#      x y z
#    x 1.885100 0.000000 0.000900 
#    y 0.000000 1.884610 0.000000 
#    z 0.000900 0.000000 1.877180 
# 
# From -- ./inp_files/55430.got.cif
#   From: 2010.05.17/outbox.cif.g08.bks.cpg/sg5_28_cif.got.tgz:55430.got - 2010.06.03 18:56:24.
