data_PCOD9128593
_publ_section_title
;
Structure prediction by ZEFSAII (Michael W. Deem and Ramdas Pophale) SiO2 
 PCOD9128593
Probable space group: C 2
;
_chemical_formula_sum "Si O2"
_cell_formula_units_Z 26
_cell_length_a 18.029690
_cell_length_b 8.513110
_cell_length_c 8.967448
_cell_angle_alpha 90.000000
_cell_angle_beta 51.968902
_cell_angle_gamma 90.000000
_cell_volume 1084.159673
_symmetry_space_group_name_H-M "C 2"
_symmetry_group_IT_number 5
_symmetry_cell_setting 'monoclinic'
loop_
_space_group_symop_operation_xyz
x,y,z
-x,y,-z
1/2+x,1/2+y,z
1/2-x,1/2+y,-z
loop_
_atom_site_type_symbol
_atom_site_label
_atom_site_fract_x
_atom_site_fract_y
_atom_site_fract_z
Si Si1 0.822507 0.245860 0.059528
Si Si2 0.841995 0.228487 0.681313
Si Si3 0.500000 0.974264 0.500000
Si Si4 0.500000 0.902892 0.000000
Si Si5 0.027156 0.662599 0.730578
Si Si6 0.678283 0.411896 0.423762
Si Si7 0.206334 0.954164 0.710461
Si Si8 0.500000 0.394362 0.000000
O O1 0.747722 0.377326 0.200692
O O2 0.921706 0.299561 0.011105
O O3 0.776104 0.093521 0.196206
O O4 0.835519 0.220521 0.868060
O O5 0.916057 0.364880 0.550311
O O6 0.744659 0.292508 0.731711
O O7 0.875170 0.067701 0.563849
O O8 0.468216 0.085015 0.672790
O O9 0.452063 0.021475 0.179646
O O10 0.113041 0.763059 0.552032
O O11 0.969978 0.787219 0.898312
O O12 0.737081 0.455284 0.500351
O O13 0.093761 0.974786 0.832161
#
# Coordination Sequence:
#
# PCOD9128593 Si02
#       8
#     4   4   2   2   4   4   4   2
#     4  12  26  45  74 107 150 201 246 322 377 452
#     4  12  28  45  69 110 152 193 256 313 379 445
#     4  12  26  44  70 102 148 186 246 322 376 442
#     4  11  25  46  80 105 151 194 264 305 393 442
#     4  10  24  46  70 104 137 196 244 305 377 442
#     4  11  27  45  74 105 147 203 254 308 375 462
#     4  11  25  45  73 108 148 195 255 308 377 453
#     4   9  23  44  74  99 143 192 246 297 369 456
#
# _framework density 23.981707
#
# number of rings (size 3 to 8) (size 9 to 14) (size 15 to 20)
#    0.000    0.923    1.538    3.231   12.923    6.769 
#    0.000    0.000    0.000    0.000    0.000    0.000 
#    0.000    0.000    0.000    0.000    0.000    0.000 
#
# Total GULP energy -72594.712718 kJ/mol
# GULP energy per Si atom -5584.208671 kJ/mol
# Density = 2.392712 g / cm^3
# Si number density = 23.981707 Si / 1000 Ang^3
#
#
#
# Elastic Constant Matrix: (Units=GPa)
#
#
# Indices 1 2 3 4 5 6 
#
# 1 65.3866 29.5237 27.8366 0.0000 14.1373 0.0000
# 2 29.5237 101.0857 33.7507 0.0000 16.7596 0.0000
# 3 27.8366 33.7507 94.9082 0.0000 18.8455 0.0000
# 4 0.0000 0.0000 0.0000 32.0789 0.0000 12.0912
# 5 14.1373 16.7596 18.8455 0.0000 50.5447 0.0000
# 6 0.0000 0.0000 0.0000 12.0912 0.0000 29.2291
#
#
#
# Elastic Compliance Matrix: (Units=1/GPa)
#
#
# Indices 1 2 3 4 5 6 
#
# 1 0.019229 -0.003932 -0.003707 0.000000 -0.002692 0.000000
# 2 -0.003932 0.012309 -0.002842 0.000000 -0.001922 0.000000
# 3 -0.003707 -0.002842 0.013220 0.000000 -0.002950 0.000000
# 4 0.000000 0.000000 0.000000 0.036932 0.000000 -0.015277
# 5 -0.002692 -0.001922 -0.002950 0.000000 0.022275 0.000000
# 6 0.000000 0.000000 0.000000 -0.015277 0.000000 0.040532
#
#
# Mechanical properties :
#
#
# Convention : Reuss Voigt Hill
#
# Bulk Modulus (GPa) = 42.02477 49.28917 45.65697
# Shear Modulus (GPa) = 28.83648 33.72184 31.27916
#
# Velocity S-wave (km/s) = 3.47138 3.75393 3.61542
# Velocity P-wave (km/s) = 5.79905 6.27589 6.04218
#
# Compressibility (1/GPa) = 0.02379549
#
# Stress axis : x y z
#
# Youngs Moduli (GPa) = 52.00355 81.24378 75.64155
#
# Poissons Ratio (x) = 0.31946 0.28041
# Poissons Ratio (y) = 0.20449 0.21499
# Poissons Ratio (z) = 0.19278 0.23091
#
# Static dielectric constant tensor:
#      x y z
#    x 1.942440 0.000000 -0.010610 
#    y 0.000000 1.967440 0.000000 
#    z -0.010610 0.000000 1.886070 
# 
# From -- ./inp_files/28911.got.cif
#   From: 2010.05.17/outbox.cif.g08.bks.cpg/sg5_15_cif.got.tgz:28911.got - 2010.06.03 18:56:24.
