data_PCOD9128050
_publ_section_title
;
Structure prediction by ZEFSAII (Michael W. Deem and Ramdas Pophale) SiO2 
 PCOD9128050
Probable space group: C 2
;
_chemical_formula_sum "Si O2"
_cell_formula_units_Z 32
_cell_length_a 10.450914
_cell_length_b 11.514166
_cell_length_c 22.104475
_cell_angle_alpha 90.000000
_cell_angle_beta 32.153622
_cell_angle_gamma 90.000000
_cell_volume 1415.580640
_symmetry_space_group_name_H-M "C 2"
_symmetry_group_IT_number 5
_symmetry_cell_setting 'monoclinic'
loop_
_space_group_symop_operation_xyz
x,y,z
-x,y,-z
1/2+x,1/2+y,z
1/2-x,1/2+y,-z
loop_
_atom_site_type_symbol
_atom_site_label
_atom_site_fract_x
_atom_site_fract_y
_atom_site_fract_z
Si Si1 0.917730 0.314360 0.746008
Si Si2 0.350167 0.411663 0.349961
Si Si3 0.507098 0.681802 0.174936
Si Si4 0.785749 0.531284 0.879554
Si Si5 0.419354 0.961230 0.428845
Si Si6 0.770058 0.950893 0.895328
Si Si7 0.968097 0.679128 0.695864
Si Si8 0.386364 0.232069 0.926934
O O1 0.005796 0.203598 0.748409
O O2 0.899934 0.414328 0.805375
O O3 0.063352 0.362065 0.630007
O O4 0.653491 0.278983 0.829486
O O5 0.150138 0.448963 0.381072
O O6 0.610750 0.434729 0.217735
O O7 0.338325 0.272934 0.362725
O O8 0.299922 0.459440 0.436627
O O9 0.551846 0.544583 0.144896
O O10 0.261258 0.730441 0.247102
O O11 0.735243 0.735738 0.049272
O O12 0.848216 0.622523 0.802220
O O13 0.875066 0.602003 0.903146
O O14 0.500000 0.513544 0.000000
O O15 0.428747 0.080094 0.388409
O O16 0.767568 0.827707 0.930067
O O17 0.500000 0.997989 0.000000
#
# Coordination Sequence:
#
# PCOD9128050 Si02
#       8
#     4   4   4   4   4   4   4   4
#     4  11  24  42  58  97 139 177 225 280 343 406
#     4  11  22  44  73  99 125 183 229 285 340 404
#     4  12  25  39  62  99 142 180 218 281 354 407
#     4  11  20  37  64  89 126 176 220 274 336 402
#     4  10  23  45  72  95 133 175 235 283 342 403
#     4  12  23  41  64 101 135 168 230 278 337 416
#     4  11  21  42  67  97 127 175 231 273 341 413
#     4  12  22  39  62  95 132 180 224 278 335 409
#
# _framework density 22.605566
#
# number of rings (size 3 to 8) (size 9 to 14) (size 15 to 20)
#    0.000    0.750    5.000    3.750    1.750    1.000 
#    2.250    0.000   11.000    0.000    0.000    0.000 
#    0.000    0.000    0.000    0.000    0.000    0.000 
#
# Total GULP energy -89383.414491 kJ/mol
# GULP energy per Si atom -5586.463406 kJ/mol
# Density = 2.255411 g / cm^3
# Si number density = 22.605566 Si / 1000 Ang^3
#
#
#
# Elastic Constant Matrix: (Units=GPa)
#
#
# Indices 1 2 3 4 5 6 
#
# 1 43.9726 9.5085 16.5865 0.0000 20.3936 -0.0003
# 2 9.5085 58.2705 0.5617 0.0000 9.7378 -0.0001
# 3 16.5865 0.5617 112.0582 -0.0014 39.6028 -0.0002
# 4 0.0000 0.0000 -0.0014 18.5789 0.0004 14.4194
# 5 20.3936 9.7378 39.6028 0.0004 40.1855 0.0002
# 6 -0.0003 -0.0001 -0.0002 14.4194 0.0002 43.0795
#
#
#
# Elastic Compliance Matrix: (Units=1/GPa)
#
#
# Indices 1 2 3 4 5 6 
#
# 1 0.030173 -0.002275 0.001169 0.000000 -0.015913 0.000000
# 2 -0.002275 0.018422 0.002170 0.000000 -0.005448 0.000000
# 3 0.001169 0.002170 0.014018 0.000002 -0.014934 0.000000
# 4 0.000000 0.000000 0.000002 0.072714 -0.000003 -0.024338
# 5 -0.015913 -0.005448 -0.014934 -0.000003 0.048997 0.000001
# 6 0.000000 0.000000 0.000000 -0.024338 0.000001 0.031359
#
#
# Mechanical properties :
#
#
# Convention : Reuss Voigt Hill
#
# Bulk Modulus (GPa) = 15.44656 29.73497 22.59076
# Shear Modulus (GPa) = 21.26429 32.87842 27.07136
#
# Velocity S-wave (km/s) = 3.07036 3.81785 3.46432
# Velocity P-wave (km/s) = 4.40651 5.71113 5.10070
#
# Compressibility (1/GPa) = 0.06473935
#
# Stress axis : x y z
#
# Youngs Moduli (GPa) = 33.14262 54.28265 71.33827
#
# Poissons Ratio (x) = 0.12352 -0.08341
# Poissons Ratio (y) = 0.07542 -0.15478
# Poissons Ratio (z) = -0.03875 -0.11778
#
# Static dielectric constant tensor:
#      x y z
#    x 1.901360 0.000000 -0.003410 
#    y 0.000000 1.907390 0.000000 
#    z -0.003410 0.000000 1.833380 
# 
# From -- ./inp_files/39438.got.cif
#   From: 2010.05.17/outbox.cif.g08.bks.cpg/sg5_20_cif.got.tgz:39438.got - 2010.06.03 18:56:24.
