data_PCOD9128022
_publ_section_title
;
Structure prediction by ZEFSAII (Michael W. Deem and Ramdas Pophale) SiO2 
 PCOD9128022
Probable space group: C 2
;
_chemical_formula_sum "Si O2"
_cell_formula_units_Z 26
_cell_length_a 10.636718
_cell_length_b 9.087090
_cell_length_c 13.741406
_cell_angle_alpha 90.000000
_cell_angle_beta 117.494925
_cell_angle_gamma 90.000000
_cell_volume 1178.182569
_symmetry_space_group_name_H-M "C 2"
_symmetry_group_IT_number 5
_symmetry_cell_setting 'monoclinic'
loop_
_space_group_symop_operation_xyz
x,y,z
-x,y,-z
1/2+x,1/2+y,z
1/2-x,1/2+y,-z
loop_
_atom_site_type_symbol
_atom_site_label
_atom_site_fract_x
_atom_site_fract_y
_atom_site_fract_z
Si Si1 0.886700 0.725890 0.144016
Si Si2 0.847756 0.984278 0.992438
Si Si3 0.500000 0.815980 0.500000
Si Si4 0.279619 0.471416 0.630020
Si Si5 0.189002 0.745257 0.179665
Si Si6 0.918911 0.053506 0.333790
Si Si7 0.622613 0.253323 0.625424
O O1 0.762375 0.616632 0.063299
O O2 0.903638 0.719810 0.267977
O O3 0.033267 0.680576 0.143904
O O4 0.865820 0.896006 0.100945
O O5 0.800336 0.846118 0.909952
O O6 0.000000 0.029116 0.000000
O O7 0.464028 0.702391 0.402776
O O8 0.639286 0.911363 0.525513
O O9 0.290395 0.362437 0.725352
O O10 0.433242 0.474404 0.637525
O O11 0.245822 0.639246 0.644361
O O12 0.305135 0.618727 0.219202
O O13 0.840551 0.926397 0.367319
O O14 0.500000 0.228061 0.500000
#
# Coordination Sequence:
#
# PCOD9128022 Si02
#       7
#     4   4   2   4   4   4   4
#     4  11  24  47  71 100 140 175 229 283 342 406
#     4  10  24  46  73 101 134 179 224 288 344 403
#     4  10  24  40  62  94 130 192 230 270 342 388
#     4  11  23  42  65  94 139 177 228 277 336 405
#     4  10  23  45  69 100 134 175 224 284 344 399
#     4  11  25  40  66  98 136 179 228 281 332 406
#     4  12  25  44  68 101 139 181 225 278 337 407
#
# _framework density 22.067886000000001
#
# number of rings (size 3 to 8) (size 9 to 14) (size 15 to 20)
#    0.000    1.231    4.615    0.000    4.308    1.231 
#    2.769    0.000    0.000    0.000    0.000    0.000 
#    0.000    0.000    0.000    0.000    0.000    0.000 
#
# Total GULP energy -72456.146116 kJ/mol
# GULP energy per Si atom -5573.549701 kJ/mol
# Density = 2.201766 g / cm^3
# Si number density = 22.067886 Si / 1000 Ang^3
#
#
#
# Elastic Constant Matrix: (Units=GPa)
#
#
# Indices 1 2 3 4 5 6 
#
# 1 88.8517 74.2160 43.5559 0.0000 25.4057 0.0000
# 2 74.2160 116.4120 39.0926 0.0000 21.8677 0.0000
# 3 43.5559 39.0926 80.2167 0.0000 7.4450 0.0000
# 4 0.0000 0.0000 0.0000 46.7672 0.0000 6.7967
# 5 25.4057 21.8677 7.4450 0.0000 32.9124 0.0000
# 6 0.0000 0.0000 0.0000 6.7967 0.0000 40.8168
#
#
#
# Elastic Compliance Matrix: (Units=1/GPa)
#
#
# Indices 1 2 3 4 5 6 
#
# 1 0.031426 -0.014766 -0.008709 0.000000 -0.012477 0.000000
# 2 -0.014766 0.018428 -0.000903 0.000000 -0.000641 0.000000
# 3 -0.008709 -0.000903 0.017319 0.000000 0.003405 0.000000
# 4 0.000000 0.000000 0.000000 0.021913 0.000000 -0.003649
# 5 -0.012477 -0.000641 0.003405 0.000000 0.039671 0.000000
# 6 0.000000 0.000000 0.000000 -0.003649 0.000000 0.025107
#
#
# Mechanical properties :
#
#
# Convention : Reuss Voigt Hill
#
# Bulk Modulus (GPa) = 54.30323 66.57881 60.44102
# Shear Modulus (GPa) = 23.95097 32.67367 28.31232
#
# Velocity S-wave (km/s) = 3.29801 3.85203 3.58574
# Velocity P-wave (km/s) = 6.25806 7.07246 6.67768
#
# Compressibility (1/GPa) = 0.01841511
#
# Stress axis : x y z
#
# Youngs Moduli (GPa) = 31.82115 54.26556 57.73887
#
# Poissons Ratio (x) = 0.80130 0.50286
# Poissons Ratio (y) = 0.46988 0.05216
# Poissons Ratio (z) = 0.27714 0.04902
#
# Static dielectric constant tensor:
#      x y z
#    x 1.795340 0.000000 -0.010630 
#    y 0.000000 1.788970 0.000000 
#    z -0.010630 0.000000 1.981190 
# 
# From -- ./inp_files/52335.got.cif
#   From: 2010.05.17/outbox.cif.g08.bks.cpg/sg5_27_cif.got.tgz:52335.got - 2010.06.03 18:56:24.
