data_PCOD9128352
_publ_section_title
;
Structure prediction by ZEFSAII (Michael W. Deem and Ramdas Pophale) SiO2 
 PCOD9128352
Probable space group: C 2
;
_chemical_formula_sum "Si O2"
_cell_formula_units_Z 26
_cell_length_a 13.530410
_cell_length_b 6.871385
_cell_length_c 14.027786
_cell_angle_alpha 90.000000
_cell_angle_beta 73.582798
_cell_angle_gamma 90.000000
_cell_volume 1251.027180
_symmetry_space_group_name_H-M "C 2"
_symmetry_group_IT_number 5
_symmetry_cell_setting 'monoclinic'
loop_
_space_group_symop_operation_xyz
x,y,z
-x,y,-z
1/2+x,1/2+y,z
1/2-x,1/2+y,-z
loop_
_atom_site_type_symbol
_atom_site_label
_atom_site_fract_x
_atom_site_fract_y
_atom_site_fract_z
Si Si1 0.440668 0.377100 0.715574
Si Si2 0.363996 0.217544 0.261728
Si Si3 0.000000 0.433231 0.000000
Si Si4 0.337587 0.278156 0.059470
Si Si5 0.642809 0.503795 0.574781
Si Si6 0.889801 0.131952 0.909130
Si Si7 0.754123 0.857949 0.643150
O O1 0.513389 0.224915 0.752175
O O2 0.519818 0.476494 0.619034
O O3 0.407921 0.540087 0.800412
O O4 0.343713 0.284524 0.689289
O O5 0.340407 0.328322 0.170660
O O6 0.318378 0.334097 0.364139
O O7 0.315436 0.006297 0.278089
O O8 0.095909 0.579860 0.963858
O O9 0.974582 0.287609 0.919780
O O10 0.221643 0.234365 0.058763
O O11 0.384896 0.449320 0.983012
O O12 0.683518 0.699399 0.611566
O O13 0.686678 0.467771 0.458774
#
# Coordination Sequence:
#
# PCOD9128352 Si02
#       7
#     4   4   2   4   4   4   4
#     4  10  24  43  65  98 132 169 221 269 324 401
#     4  10  24  43  65  98 130 170 222 267 330 395
#     4  12  26  44  72  90 140 180 220 286 334 390
#     4  12  25  46  68  99 137 177 228 279 336 405
#     4  10  24  42  68  97 130 172 219 269 329 397
#     4  12  25  45  69 100 136 180 227 279 338 397
#     4  12  21  46  68  93 138 170 215 281 329 385
#
# _framework density 20.782921999999999
#
# number of rings (size 3 to 8) (size 9 to 14) (size 15 to 20)
#    0.923    0.000    4.615    2.769    2.154    1.231 
#    5.538    0.000    0.000    0.000    0.000    0.000 
#    0.000    0.000    0.000    0.000    0.000    0.000 
#
# Total GULP energy -72554.972875 kJ/mol
# GULP energy per Si atom -5581.151760 kJ/mol
# Density = 2.073562 g / cm^3
# Si number density = 20.782922 Si / 1000 Ang^3
#
#
#
# Elastic Constant Matrix: (Units=GPa)
#
#
# Indices 1 2 3 4 5 6 
#
# 1 71.9346 28.1766 -1.2302 0.0000 2.8800 0.0000
# 2 28.1766 41.9222 3.5656 0.0000 -0.7479 0.0000
# 3 -1.2302 3.5656 50.6925 0.0000 9.3995 0.0000
# 4 0.0000 0.0000 0.0000 24.5036 0.0000 2.0217
# 5 2.8800 -0.7479 9.3995 0.0000 27.7717 0.0000
# 6 0.0000 0.0000 0.0000 2.0217 0.0000 40.2675
#
#
#
# Elastic Compliance Matrix: (Units=1/GPa)
#
#
# Indices 1 2 3 4 5 6 
#
# 1 0.019194 -0.013120 0.001945 0.000000 -0.003002 0.000000
# 2 -0.013120 0.033009 -0.003262 0.000000 0.003354 0.000000
# 3 0.001945 -0.003262 0.021400 0.000000 -0.007533 0.000000
# 4 0.000000 0.000000 0.000000 0.040980 0.000000 -0.002057
# 5 -0.003002 0.003354 -0.007533 0.000000 0.038959 0.000000
# 6 0.000000 0.000000 0.000000 -0.002057 0.000000 0.024937
#
#
# Mechanical properties :
#
#
# Convention : Reuss Voigt Hill
#
# Bulk Modulus (GPa) = 22.35616 25.06369 23.70992
# Shear Modulus (GPa) = 22.49599 27.44435 24.97017
#
# Velocity S-wave (km/s) = 3.29359 3.63784 3.46999
# Velocity P-wave (km/s) = 5.02434 5.45263 5.24286
#
# Compressibility (1/GPa) = 0.04473040
#
# Stress axis : x y z
#
# Youngs Moduli (GPa) = 52.09996 30.29495 46.72863
#
# Poissons Ratio (x) = 0.39746 -0.09090
# Poissons Ratio (y) = 0.68353 0.15243
# Poissons Ratio (z) = -0.10135 0.09882
#
# Static dielectric constant tensor:
#      x y z
#    x 1.743200 0.000000 -0.000010 
#    y 0.000000 1.730160 0.000000 
#    z -0.000010 0.000000 1.734160 
# 
# From -- ./inp_files/53803.got.cif
#   From: 2010.05.17/outbox.cif.g08.bks.cpg/sg5_27_cif.got.tgz:53803.got - 2010.06.03 18:56:24.
