data_PCOD9128259
_publ_section_title
;
Structure prediction by ZEFSAII (Michael W. Deem and Ramdas Pophale) SiO2 
 PCOD9128259
Probable space group: C 2
;
_chemical_formula_sum "Si O2"
_cell_formula_units_Z 22
_cell_length_a 7.954966
_cell_length_b 15.324319
_cell_length_c 7.945875
_cell_angle_alpha 90.000000
_cell_angle_beta 81.590756
_cell_angle_gamma 90.000000
_cell_volume 958.223354
_symmetry_space_group_name_H-M "C 2"
_symmetry_group_IT_number 5
_symmetry_cell_setting 'monoclinic'
loop_
_space_group_symop_operation_xyz
x,y,z
-x,y,-z
1/2+x,1/2+y,z
1/2-x,1/2+y,-z
loop_
_atom_site_type_symbol
_atom_site_label
_atom_site_fract_x
_atom_site_fract_y
_atom_site_fract_z
Si Si1 0.500000 0.851600 0.500000
Si Si2 0.594566 0.719028 0.719659
Si Si3 0.530101 0.022737 0.679078
Si Si4 0.934884 0.028993 0.680834
Si Si5 0.251642 0.760412 0.958618
Si Si6 0.500000 0.417171 0.000000
Si Si7 0.000000 0.618141 0.000000
O O1 0.634621 0.782303 0.556484
O O2 0.472644 0.923211 0.650743
O O3 0.536913 0.621454 0.679247
O O4 0.425872 0.757767 0.833373
O O5 0.727627 0.729797 0.850167
O O6 0.500000 0.067048 0.500000
O O7 0.730382 0.029954 0.692196
O O8 0.434948 0.059512 0.855747
O O9 0.000000 0.985278 0.500000
O O10 0.981261 0.976249 0.839463
O O11 0.159937 0.852289 0.964797
O O12 0.135493 0.684053 0.900335
#
# Coordination Sequence:
#
# PCOD9128259 Si02
#       7
#     2   4   4   4   4   2   2
#     4  10  24  40  66 100 132 180 222 284 332 404
#     4  11  22  45  68  96 141 178 230 277 344 410
#     4  10  26  43  68 105 136 183 234 273 347 400
#     4  12  26  44  72 102 137 184 230 286 342 406
#     4  10  24  43  68 100 133 184 227 279 346 401
#     4  11  26  46  69 102 138 176 235 286 340 405
#     4  11  22  46  71  98 138 180 229 288 338 409
#
# _framework density 22.959157999999999
#
# number of rings (size 3 to 8) (size 9 to 14) (size 15 to 20)
#    0.545    0.727    2.727    2.182    5.091    2.909 
#    0.000    1.818    0.000    0.000    0.000    0.000 
#    0.000    0.000    0.000    0.000    0.000    0.000 
#
# Total GULP energy -61368.407984 kJ/mol
# GULP energy per Si atom -5578.946180 kJ/mol
# Density = 2.290690 g / cm^3
# Si number density = 22.959158 Si / 1000 Ang^3
#
#
#
# Elastic Constant Matrix: (Units=GPa)
#
#
# Indices 1 2 3 4 5 6 
#
# 1 54.1161 16.0170 18.3632 0.0000 11.6129 0.0000
# 2 16.0170 140.8872 77.5614 0.0000 13.1888 0.0000
# 3 18.3632 77.5614 155.9229 0.0000 23.9585 0.0000
# 4 0.0000 0.0000 0.0000 8.1171 0.0000 -23.1050
# 5 11.6129 13.1888 23.9585 0.0000 32.6630 0.0000
# 6 0.0000 0.0000 0.0000 -23.1050 0.0000 -54.1417
#
#
#
# Elastic Compliance Matrix: (Units=1/GPa)
#
#
# Indices 1 2 3 4 5 6 
#
# 1 0.020461 -0.001300 -0.000818 0.000000 -0.006150 0.000000
# 2 -0.001300 0.009863 -0.004747 0.000000 -0.000038 0.000000
# 3 -0.000818 -0.004747 0.009616 0.000000 -0.004846 0.000000
# 4 0.000000 0.000000 0.000000 0.055626 0.000000 -0.023739
# 5 -0.006150 -0.000038 -0.004846 0.000000 0.036372 0.000000
# 6 0.000000 0.000000 0.000000 -0.023739 0.000000 -0.008340
#
#
# Mechanical properties :
#
#
# Convention : Reuss Voigt Hill
#
# Bulk Modulus (GPa) = 38.15520 63.86769 51.01145
# Shear Modulus (GPa) = 34.23155 13.25997 23.74576
#
# Velocity S-wave (km/s) = 3.86550 2.40583 3.21948
# Velocity P-wave (km/s) = 6.04795 5.96621 6.00722
#
# Compressibility (1/GPa) = 0.02620875
#
# Stress axis : x y z
#
# Youngs Moduli (GPa) = 48.87384 101.39341 103.99731
#
# Poissons Ratio (x) = 0.13182 0.08508
# Poissons Ratio (y) = 0.06354 0.49368
# Poissons Ratio (z) = 0.03998 0.48131
#
# Static dielectric constant tensor:
#      x y z
#    x 2.799790 0.000000 -0.145830 
#    y 0.000000 1.843710 0.000000 
#    z -0.145830 0.000000 1.986210 
# 
# From -- ./inp_files/14793.got.cif
#   From: 2010.05.17/outbox.cif.g08.bks.cpg/sg5_8_cif.got.tgz:14793.got - 2010.06.03 18:56:24.
