data_PCOD9128938
_publ_section_title
;
Structure prediction by ZEFSAII (Michael W. Deem and Ramdas Pophale) SiO2 
 PCOD9128938
Probable space group: C 2
;
_chemical_formula_sum "Si O2"
_cell_formula_units_Z 30
_cell_length_a 22.653360
_cell_length_b 5.742546
_cell_length_c 15.074966
_cell_angle_alpha 90.000000
_cell_angle_beta 46.011719
_cell_angle_gamma 90.000000
_cell_volume 1410.955458
_symmetry_space_group_name_H-M "C 2"
_symmetry_group_IT_number 5
_symmetry_cell_setting 'monoclinic'
loop_
_space_group_symop_operation_xyz
x,y,z
-x,y,-z
1/2+x,1/2+y,z
1/2-x,1/2+y,-z
loop_
_atom_site_type_symbol
_atom_site_label
_atom_site_fract_x
_atom_site_fract_y
_atom_site_fract_z
Si Si1 0.643437 0.478820 0.418212
Si Si2 0.747482 0.109048 0.399431
Si Si3 0.475608 0.852401 0.368018
Si Si4 0.143848 0.204707 0.122559
Si Si5 0.306305 0.219094 0.220335
Si Si6 0.327128 0.207837 0.001648
Si Si7 0.363239 0.960354 0.329940
Si Si8 0.000000 0.710408 0.500000
O O1 0.674131 0.288567 0.456531
O O2 0.595279 0.685353 0.518129
O O3 0.730315 0.543946 0.286039
O O4 0.580562 0.367896 0.415501
O O5 0.838249 0.211909 0.316460
O O6 0.758197 0.947070 0.303115
O O7 0.715359 0.992326 0.522529
O O8 0.559945 0.717784 0.264892
O O9 0.441816 0.951735 0.310006
O O10 0.493308 0.051789 0.420536
O O11 0.228144 0.212274 0.090661
O O12 0.145578 0.452861 0.065147
O O13 0.143870 0.951999 0.073639
O O14 0.350388 0.229907 0.080945
O O15 0.357599 0.134940 0.252988
#
# Coordination Sequence:
#
# PCOD9128938 Si02
#       8
#     4   4   4   4   4   4   4   2
#     4  11  24  37  63 105 137 176 216 283 354 418
#     4  11  20  38  61  96 140 178 217 272 336 424
#     4  12  26  44  65 102 144 179 225 286 364 419
#     4  10  26  47  75  96 138 185 234 300 346 416
#     4  11  24  40  72  97 136 179 236 288 331 427
#     4  10  25  49  71 102 128 187 249 284 349 408
#     4  11  21  38  63  98 137 179 220 272 356 407
#     4  12  26  38  64 104 146 174 218 282 366 432
#
# _framework density 21.262187999999998
#
# number of rings (size 3 to 8) (size 9 to 14) (size 15 to 20)
#    0.000    1.067    4.000    1.200   11.200    1.067 
#    0.000    0.667    0.000    0.000    0.000    0.000 
#    0.000    0.000    0.000    0.000    0.000    0.000 
#
# Total GULP energy -83655.099112 kJ/mol
# GULP energy per Si atom -5577.006607 kJ/mol
# Density = 2.121379 g / cm^3
# Si number density = 21.262188 Si / 1000 Ang^3
#
#
#
# Elastic Constant Matrix: (Units=GPa)
#
#
# Indices 1 2 3 4 5 6 
#
# 1 121.0412 39.7736 18.8467 0.0693 7.5119 0.0057
# 2 39.7736 90.4463 13.6823 0.1724 14.6296 0.0139
# 3 18.8467 13.6823 40.0738 0.0817 11.1018 0.0123
# 4 0.0693 0.1724 0.0817 16.1081 0.0169 2.3326
# 5 7.5119 14.6296 11.1018 0.0169 28.6682 -0.0062
# 6 0.0057 0.0139 0.0123 2.3326 -0.0062 34.9079
#
#
#
# Elastic Compliance Matrix: (Units=1/GPa)
#
#
# Indices 1 2 3 4 5 6 
#
# 1 0.010094 -0.004025 -0.003595 0.000017 0.000801 0.000000
# 2 -0.004025 0.013923 -0.001327 -0.000119 -0.005536 0.000003
# 3 -0.003595 -0.001327 0.029852 -0.000111 -0.009941 -0.000004
# 4 0.000017 -0.000119 -0.000111 0.062689 0.000062 -0.004189
# 5 0.000801 -0.005536 -0.009941 0.000062 0.041347 0.000009
# 6 0.000000 0.000003 -0.000004 -0.004189 0.000009 0.028927
#
#
# Mechanical properties :
#
#
# Convention : Reuss Voigt Hill
#
# Bulk Modulus (GPa) = 27.79659 44.01850 35.90754
# Shear Modulus (GPa) = 23.07167 27.88743 25.47955
#
# Velocity S-wave (km/s) = 3.29766 3.62553 3.46548
# Velocity P-wave (km/s) = 5.25367 6.18656 5.73911
#
# Compressibility (1/GPa) = 0.03597564
#
# Stress axis : x y z
#
# Youngs Moduli (GPa) = 99.06688 71.82590 33.49867
#
# Poissons Ratio (x) = 0.28907 0.12043
# Poissons Ratio (y) = 0.39871 0.04444
# Poissons Ratio (z) = 0.35616 0.09529
#
# Static dielectric constant tensor:
#      x y z
#    x 1.782770 -0.000060 0.030270 
#    y -0.000060 1.881060 0.000000 
#    z 0.030270 0.000000 1.761260 
# 
# From -- ./inp_files/57455.got.cif
#   From: 2010.05.17/outbox.cif.g08.bks.cpg/sg5_29_cif.got.tgz:57455.got - 2010.06.03 18:56:24.
