data_PCOD9128060
_publ_section_title
;
Structure prediction by ZEFSAII (Michael W. Deem and Ramdas Pophale) SiO2 
 PCOD9128060
Probable space group: C 2
;
_chemical_formula_sum "Si O2"
_cell_formula_units_Z 18
_cell_length_a 5.178882
_cell_length_b 25.515963
_cell_length_c 5.630875
_cell_angle_alpha 90.000000
_cell_angle_beta 94.889946
_cell_angle_gamma 90.000000
_cell_volume 741.378978
_symmetry_space_group_name_H-M "C 2"
_symmetry_group_IT_number 5
_symmetry_cell_setting 'monoclinic'
loop_
_space_group_symop_operation_xyz
x,y,z
-x,y,-z
1/2+x,1/2+y,z
1/2-x,1/2+y,-z
loop_
_atom_site_type_symbol
_atom_site_label
_atom_site_fract_x
_atom_site_fract_y
_atom_site_fract_z
Si Si1 0.764660 0.952470 0.168749
Si Si2 0.727573 0.790931 0.843072
Si Si3 0.731884 0.568111 0.833564
Si Si4 0.000000 0.373422 0.500000
Si Si5 0.848388 0.680061 0.731627
O O1 0.687549 0.909997 0.357298
O O2 0.800139 0.010744 0.282479
O O3 0.500000 0.955083 0.000000
O O4 0.000000 0.942019 0.000000
O O5 0.701151 0.834102 0.641311
O O6 0.673861 0.731422 0.754080
O O7 0.500000 0.806267 0.000000
O O8 0.000000 0.791918 0.000000
O O9 0.736192 0.621815 0.687333
O O10 0.500000 0.573689 0.000000
O O11 0.000000 0.566507 0.000000
O O12 0.000000 0.691583 0.500000
O O13 0.000000 0.677301 0.000000
#
# Coordination Sequence:
#
# PCOD9128060 Si02
#       5
#     4   4   4   2   4
#     4  10  24  46  71 108 147 191 255 313 378 455
#     4  11  28  49  71 107 151 197 253 315 379 459
#     4   9  19  42  72 103 144 186 237 311 378 448
#     4  12  28  46  80 106 150 210 256 314 386 462
#     4  10  23  45  75 110 150 193 248 313 386 458
#
# _framework density 24.279081000000001
#
# number of rings (size 3 to 8) (size 9 to 14) (size 15 to 20)
#    0.000    1.778    0.000    1.333    7.778    6.222 
#    0.000    0.000    0.000    0.000    0.000    0.000 
#    0.000    0.000    0.000    0.000    0.000    0.000 
#
# Total GULP energy -50296.027973 kJ/mol
# GULP energy per Si atom -5588.447553 kJ/mol
# Density = 2.422382 g / cm^3
# Si number density = 24.279081 Si / 1000 Ang^3
#
#
#
# Elastic Constant Matrix: (Units=GPa)
#
#
# Indices 1 2 3 4 5 6 
#
# 1 141.8313 10.1789 28.8669 0.0000 3.1345 0.0000
# 2 10.1789 205.3744 50.8593 0.0000 -9.5358 0.0000
# 3 28.8669 50.8593 83.5310 0.0000 8.5134 0.0000
# 4 0.0000 0.0000 0.0000 115.4218 0.0000 -4.1125
# 5 3.1345 -9.5358 8.5134 0.0000 30.7176 0.0000
# 6 0.0000 0.0000 0.0000 -4.1125 0.0000 40.8865
#
#
#
# Elastic Compliance Matrix: (Units=1/GPa)
#
#
# Indices 1 2 3 4 5 6 
#
# 1 0.007603 0.000332 -0.002841 0.000000 0.000115 0.000000
# 2 0.000332 0.005997 -0.004067 0.000000 0.002955 0.000000
# 3 -0.002841 -0.004067 0.015981 0.000000 -0.005402 0.000000
# 4 0.000000 0.000000 0.000000 0.008695 0.000000 0.000875
# 5 0.000115 0.002955 -0.005402 0.000000 0.034957 0.000000
# 6 0.000000 0.000000 0.000000 0.000875 0.000000 0.024546
#
#
# Mechanical properties :
#
#
# Convention : Reuss Voigt Hill
#
# Bulk Modulus (GPa) = 60.87473 67.83856 64.35664
# Shear Modulus (GPa) = 42.95258 60.12727 51.53993
#
# Velocity S-wave (km/s) = 4.21065 4.98185 4.61240
# Velocity P-wave (km/s) = 6.98332 7.81624 7.41149
#
# Compressibility (1/GPa) = 0.01642718
#
# Stress axis : x y z
#
# Youngs Moduli (GPa) = 131.53507 166.74525 62.57607
#
# Poissons Ratio (x) = -0.05538 0.17779
# Poissons Ratio (y) = -0.04369 0.25452
# Poissons Ratio (z) = 0.37372 0.67823
#
# Static dielectric constant tensor:
#      x y z
#    x 1.858700 0.000000 -0.000200 
#    y 0.000000 1.963740 0.000000 
#    z -0.000200 0.000000 1.790390 
# 
# From -- ./inp_files/1080.got.cif
#   From: 2010.05.17/outbox.cif.g08.bks.cpg/sg5_1_cif.got.tgz:1080.got - 2010.06.03 18:56:24.
