data_PCOD9128883
_publ_section_title
;
Structure prediction by ZEFSAII (Michael W. Deem and Ramdas Pophale) SiO2 
 PCOD9128883
Probable space group: C 2
;
_chemical_formula_sum "Si O2"
_cell_formula_units_Z 24
_cell_length_a 21.030111
_cell_length_b 5.930402
_cell_length_c 13.553034
_cell_angle_alpha 90.000000
_cell_angle_beta 146.041535
_cell_angle_gamma 90.000000
_cell_volume 944.184264
_symmetry_space_group_name_H-M "C 2"
_symmetry_group_IT_number 5
_symmetry_cell_setting 'monoclinic'
loop_
_space_group_symop_operation_xyz
x,y,z
-x,y,-z
1/2+x,1/2+y,z
1/2-x,1/2+y,-z
loop_
_atom_site_type_symbol
_atom_site_label
_atom_site_fract_x
_atom_site_fract_y
_atom_site_fract_z
Si Si1 0.814273 0.933900 0.219176
Si Si2 0.275366 0.435700 0.869279
Si Si3 0.409228 0.800576 0.710557
Si Si4 0.510776 0.218684 0.162647
Si Si5 0.207889 0.944174 0.325430
Si Si6 0.948536 0.943179 0.592233
O O1 0.755597 0.684090 0.127091
O O2 0.761811 0.188535 0.134228
O O3 0.855481 0.935641 0.386571
O O4 0.928461 0.931647 0.300246
O O5 0.230841 0.440176 0.699630
O O6 0.410043 0.396069 0.028310
O O7 0.369177 0.660437 0.752711
O O8 0.436325 0.656618 0.648136
O O9 0.515782 0.956493 0.875021
O O10 0.292462 0.921045 0.525818
O O11 0.610883 0.253027 0.212778
O O12 0.558307 0.247461 0.335456
#
# Coordination Sequence:
#
# PCOD9128883 Si02
#       6
#     4   4   4   4   4   4
#     4  11  27  47  75 104 143 189 245 299 355 428
#     4  12  28  46  70 108 148 189 232 301 369 432
#     4  11  22  42  76 102 141 191 245 300 357 434
#     4  11  26  44  69 103 146 191 236 298 366 432
#     4  11  23  42  69 106 138 190 239 296 359 430
#     4  10  25  46  74 104 136 192 250 298 353 432
#
# _framework density 25.418768
#
# number of rings (size 3 to 8) (size 9 to 14) (size 15 to 20)
#    0.000    1.000    3.333    1.500   11.667    2.667 
#    0.000    0.000    0.000    0.000    0.000    0.000 
#    0.000    0.000    0.000    0.000    0.000    0.000 
#
# Total GULP energy -66930.486730 kJ/mol
# GULP energy per Si atom -5577.540561 kJ/mol
# Density = 2.536091 g / cm^3
# Si number density = 25.418768 Si / 1000 Ang^3
#
#
#
# Elastic Constant Matrix: (Units=GPa)
#
#
# Indices 1 2 3 4 5 6 
#
# 1 87.6328 32.4860 1.7967 0.0000 -3.5467 0.0000
# 2 32.4860 190.0453 38.7064 0.0000 23.8716 0.0000
# 3 1.7967 38.7064 47.4438 0.0000 4.2949 0.0000
# 4 0.0000 0.0000 0.0000 40.4193 0.0000 2.1288
# 5 -3.5467 23.8716 4.2949 0.0000 36.3471 0.0000
# 6 0.0000 0.0000 0.0000 2.1288 0.0000 -10.0475
#
#
#
# Elastic Compliance Matrix: (Units=1/GPa)
#
#
# Indices 1 2 3 4 5 6 
#
# 1 0.012545 -0.002828 0.001570 0.000000 0.002896 0.000000
# 2 -0.002828 0.007443 -0.005557 0.000000 -0.004508 0.000000
# 3 0.001570 -0.005557 0.025480 0.000000 0.000792 0.000000
# 4 0.000000 0.000000 0.000000 0.024468 0.000000 0.005184
# 5 0.002896 -0.004508 0.000792 0.000000 0.030662 0.000000
# 6 0.000000 0.000000 0.000000 0.005184 0.000000 -0.098428
#
#
# Mechanical properties :
#
#
# Convention : Reuss Voigt Hill
#
# Bulk Modulus (GPa) = 31.40953 52.34445 41.87699
# Shear Modulus (GPa) = 189.30271 30.15263 109.72767
#
# Velocity S-wave (km/s) = 8.63917 3.44791 6.57736
# Velocity P-wave (km/s) = 10.57815 6.04056 8.61353
#
# Compressibility (1/GPa) = 0.03183747
#
# Stress axis : x y z
#
# Youngs Moduli (GPa) = 79.71587 134.34750 39.24595
#
# Poissons Ratio (x) = 0.37991 -0.06161
# Poissons Ratio (y) = 0.22542 0.21811
# Poissons Ratio (z) = -0.12514 0.74662
#
# Static dielectric constant tensor:
#      x y z
#    x 1.955440 0.000000 -0.035040 
#    y 0.000000 2.139210 0.000000 
#    z -0.035040 0.000000 2.092040 
# 
# From -- ./inp_files/63183.got.cif
#   From: 2010.05.17/outbox.cif.g08.bks.cpg/sg5_32_cif.got.tgz:63183.got - 2010.06.03 18:56:24.
