data_PCOD9128904
_publ_section_title
;
Structure prediction by ZEFSAII (Michael W. Deem and Ramdas Pophale) SiO2 
 PCOD9128904
Probable space group: C 2
;
_chemical_formula_sum "Si O2"
_cell_formula_units_Z 20
_cell_length_a 9.674287
_cell_length_b 11.643279
_cell_length_c 10.174244
_cell_angle_alpha 90.000000
_cell_angle_beta 138.292222
_cell_angle_gamma 90.000000
_cell_volume 762.490856
_symmetry_space_group_name_H-M "C 2"
_symmetry_group_IT_number 5
_symmetry_cell_setting 'monoclinic'
loop_
_space_group_symop_operation_xyz
x,y,z
-x,y,-z
1/2+x,1/2+y,z
1/2-x,1/2+y,-z
loop_
_atom_site_type_symbol
_atom_site_label
_atom_site_fract_x
_atom_site_fract_y
_atom_site_fract_z
Si Si1 0.754847 0.192890 0.792961
Si Si2 0.868467 0.333912 0.640947
Si Si3 0.173297 0.155655 0.722646
Si Si4 0.193287 0.500728 0.934305
Si Si5 0.971733 0.827933 0.787803
O O1 0.744576 0.240066 0.638835
O O2 0.641175 0.283661 0.804274
O O3 0.000000 0.188273 0.000000
O O4 0.661075 0.074961 0.779434
O O5 0.714796 0.385873 0.424917
O O6 0.047394 0.261952 0.696556
O O7 0.982829 0.429428 0.808038
O O8 0.363687 0.218568 0.782072
O O9 0.000000 0.102161 0.500000
O O10 0.243162 0.074799 0.892374
O O11 0.387897 0.419371 0.039219
#
# Coordination Sequence:
#
# PCOD9128904 Si02
#       5
#     4   4   4   4   4
#     4  12  25  48  74 110 147 194 243 300 366 435
#     4  11  26  50  73 111 148 193 245 302 369 435
#     4  10  25  47  72 110 150 191 244 303 368 435
#     4  12  26  48  80 105 147 193 253 294 370 436
#     4  11  27  49  75 105 155 191 240 310 361 434
#
# _framework density 26.229821999999999
#
# number of rings (size 3 to 8) (size 9 to 14) (size 15 to 20)
#    0.000    0.800    4.000    0.600    2.800   10.400 
#    3.600    2.000    0.000    0.000    0.000    0.000 
#    0.000    0.000    0.000    0.000    0.000    0.000 
#
# Total GULP energy -56019.804015 kJ/mol
# GULP energy per Si atom -5601.980401 kJ/mol
# Density = 2.617012 g / cm^3
# Si number density = 26.229822 Si / 1000 Ang^3
#
#
#
# Elastic Constant Matrix: (Units=GPa)
#
#
# Indices 1 2 3 4 5 6 
#
# 1 137.5908 12.5252 13.2005 0.0003 4.8679 0.0001
# 2 12.5252 69.9814 55.5493 0.0001 8.8897 0.0001
# 3 13.2005 55.5493 131.7337 0.0003 3.1642 0.0004
# 4 0.0003 0.0001 0.0003 38.5145 0.0003 -6.4195
# 5 4.8679 8.8897 3.1642 0.0003 30.2847 0.0002
# 6 0.0001 0.0001 0.0004 -6.4195 0.0002 19.7977
#
#
#
# Elastic Compliance Matrix: (Units=1/GPa)
#
#
# Indices 1 2 3 4 5 6 
#
# 1 0.007417 -0.000967 -0.000315 0.000000 -0.000876 0.000000
# 2 -0.000967 0.022513 -0.009265 0.000000 -0.005485 0.000000
# 3 -0.000315 -0.009265 0.011492 0.000000 0.001569 0.000000
# 4 0.000000 0.000000 0.000000 0.027448 0.000000 0.008900
# 5 -0.000876 -0.005485 0.001569 0.000000 0.034607 -0.000001
# 6 0.000000 0.000000 0.000000 0.008900 -0.000001 0.053397
#
#
# Mechanical properties :
#
#
# Convention : Reuss Voigt Hill
#
# Bulk Modulus (GPa) = 49.18787 55.76175 52.47481
# Shear Modulus (GPa) = 27.06473 34.92145 30.99309
#
# Velocity S-wave (km/s) = 3.21570 3.65274 3.44117
# Velocity P-wave (km/s) = 5.70797 6.25261 5.98649
#
# Compressibility (1/GPa) = 0.02033021
#
# Stress axis : x y z
#
# Youngs Moduli (GPa) = 134.82399 44.41791 87.01935
#
# Poissons Ratio (x) = 0.04293 0.02738
# Poissons Ratio (y) = 0.13031 0.80622
# Poissons Ratio (z) = 0.04242 0.41153
#
# Static dielectric constant tensor:
#      x y z
#    x 1.990940 0.000000 -0.038330 
#    y 0.000000 2.119150 0.000000 
#    z -0.038330 0.000000 2.070250 
# 
# From -- ./inp_files/38984.got.cif
#   From: 2010.05.17/outbox.cif.g08.bks.cpg/sg5_20_cif.got.tgz:38984.got - 2010.06.03 18:56:24.
