data_PCOD9128841
_publ_section_title
;
Structure prediction by ZEFSAII (Michael W. Deem and Ramdas Pophale) SiO2 
 PCOD9128841
Probable space group: C 2
;
_chemical_formula_sum "Si O2"
_cell_formula_units_Z 18
_cell_length_a 18.027005
_cell_length_b 9.567161
_cell_length_c 5.157475
_cell_angle_alpha 90.000000
_cell_angle_beta 58.527917
_cell_angle_gamma 90.000000
_cell_volume 758.646017
_symmetry_space_group_name_H-M "C 2"
_symmetry_group_IT_number 5
_symmetry_cell_setting 'monoclinic'
loop_
_space_group_symop_operation_xyz
x,y,z
-x,y,-z
1/2+x,1/2+y,z
1/2-x,1/2+y,-z
loop_
_atom_site_type_symbol
_atom_site_label
_atom_site_fract_x
_atom_site_fract_y
_atom_site_fract_z
Si Si1 0.000000 0.410430 0.000000
Si Si2 0.914764 0.187362 0.827630
Si Si3 0.421608 0.370417 0.853578
Si Si4 0.133386 0.623473 0.709870
Si Si5 0.225131 0.685453 0.037764
O O1 0.940267 0.520021 0.265465
O O2 0.071403 0.310476 0.995067
O O3 0.000000 0.200549 0.500000
O O4 0.919079 0.031661 0.935227
O O5 0.827224 0.202639 0.822922
O O6 0.500000 0.346082 0.500000
O O7 0.330754 0.328414 0.879823
O O8 0.412171 0.269371 0.120938
O O9 0.206117 0.634051 0.360814
O O10 0.180432 0.589256 0.898240
#
# Coordination Sequence:
#
# PCOD9128841 Si02
#       5
#     2   4   4   4   4
#     4  12  28  42  74 106 154 180 244 298 368 414
#     4  11  28  45  70 108 149 188 235 305 362 421
#     4   9  22  46  74 101 141 186 243 287 355 424
#     4  10  25  44  78 100 141 187 249 284 356 425
#     4  10  25  46  76 103 140 193 243 290 353 433
#
# _framework density 23.726482000000001
#
# number of rings (size 3 to 8) (size 9 to 14) (size 15 to 20)
#    1.333    0.444    0.000    1.333    9.333    6.222 
#    0.000    0.000    0.000    0.000    0.000    0.000 
#    0.000    0.000    0.000    0.000    0.000    0.000 
#
# Total GULP energy -50168.884814 kJ/mol
# GULP energy per Si atom -5574.320535 kJ/mol
# Density = 2.367248 g / cm^3
# Si number density = 23.726482 Si / 1000 Ang^3
#
#
#
# Elastic Constant Matrix: (Units=GPa)
#
#
# Indices 1 2 3 4 5 6 
#
# 1 116.1476 15.2456 33.7661 0.0000 -25.9524 0.0000
# 2 15.2456 95.9224 22.4532 0.0000 -0.0792 0.0000
# 3 33.7661 22.4532 99.1367 0.0000 -10.0049 0.0000
# 4 0.0000 0.0000 0.0000 0.1359 0.0000 -7.3557
# 5 -25.9524 -0.0792 -10.0049 0.0000 48.9035 0.0000
# 6 0.0000 0.0000 0.0000 -7.3557 0.0000 8.6791
#
#
#
# Elastic Compliance Matrix: (Units=1/GPa)
#
#
# Indices 1 2 3 4 5 6 
#
# 1 0.010728 -0.001020 -0.002909 0.000000 0.005096 0.000000
# 2 -0.001020 0.011118 -0.002270 0.000000 -0.000988 0.000000
# 3 -0.002909 -0.002270 0.011677 0.000000 0.000842 0.000000
# 4 0.000000 0.000000 0.000000 -0.163983 0.000000 -0.138979
# 5 0.005096 -0.000988 0.000842 0.000000 0.023324 0.000000
# 6 0.000000 0.000000 0.000000 -0.138979 0.000000 -0.002568
#
#
# Mechanical properties :
#
#
# Convention : Reuss Voigt Hill
#
# Bulk Modulus (GPa) = 47.33769 50.45962 48.89866
# Shear Modulus (GPa) = -55.39213 27.52649 -13.93282
#
# Velocity S-wave (km/s) = -4.83702 3.40981 -2.42590
# Velocity P-wave (km/s) = 3.34679 6.06760 3.57874
#
# Compressibility (1/GPa) = 0.02112482
#
# Stress axis : x y z
#
# Youngs Moduli (GPa) = 93.21427 89.94562 85.63921
#
# Poissons Ratio (x) = 0.09175 0.24909
# Poissons Ratio (y) = 0.09508 0.19443
# Poissons Ratio (z) = 0.27112 0.20421
#
# Static dielectric constant tensor:
#      x y z
#    x 1.986260 0.000000 0.014830 
#    y 0.000000 1.932130 0.000000 
#    z 0.014830 0.000000 1.931600 
# 
# From -- ./inp_files/7981.got.cif
#   From: 2010.05.17/outbox.cif.g08.bks.cpg/sg5_4_cif.got.tgz:7981.got - 2010.06.03 18:56:24.
