data_PCOD9128665
_publ_section_title
;
Structure prediction by ZEFSAII (Michael W. Deem and Ramdas Pophale) SiO2 
 PCOD9128665
Probable space group: C 2
;
_chemical_formula_sum "Si O2"
_cell_formula_units_Z 20
_cell_length_a 13.427262
_cell_length_b 5.393551
_cell_length_c 25.692981
_cell_angle_alpha 90.000000
_cell_angle_beta 28.262355
_cell_angle_gamma 90.000000
_cell_volume 881.060120
_symmetry_space_group_name_H-M "C 2"
_symmetry_group_IT_number 5
_symmetry_cell_setting 'monoclinic'
loop_
_space_group_symop_operation_xyz
x,y,z
-x,y,-z
1/2+x,1/2+y,z
1/2-x,1/2+y,-z
loop_
_atom_site_type_symbol
_atom_site_label
_atom_site_fract_x
_atom_site_fract_y
_atom_site_fract_z
Si Si1 0.365123 0.301430 0.264264
Si Si2 0.000000 0.673666 0.000000
Si Si3 0.572130 0.814025 0.158195
Si Si4 0.309563 0.561581 0.442653
Si Si5 0.799773 0.519906 0.196159
Si Si6 0.500000 0.950501 0.500000
O O1 0.480433 0.557716 0.221418
O O2 0.337457 0.265500 0.214714
O O3 0.143991 0.294419 0.394871
O O4 0.491502 0.059611 0.224241
O O5 0.821798 0.815052 0.048867
O O6 0.872543 0.532199 0.103582
O O7 0.461151 0.840331 0.152804
O O8 0.287392 0.820706 0.483512
O O9 0.549737 0.483921 0.318333
O O10 0.164106 0.601472 0.459021
#
# Coordination Sequence:
#
# PCOD9128665 Si02
#       6
#     4   2   4   4   4   2
#     4  10  24  47  72 103 153 182 240 302 353 436
#     4  12  26  50  80 106 140 208 236 306 370 420
#     4  10  25  49  69 107 144 186 246 300 352 435
#     4  12  26  47  76 109 149 193 239 301 363 435
#     4  10  26  48  73 109 148 189 247 298 362 433
#     4  12  24  46  76 110 148 196 238 296 368 434
#
# _framework density 22.699928
#
# number of rings (size 3 to 8) (size 9 to 14) (size 15 to 20)
#    1.200    0.000    2.000    2.400    2.800    5.600 
#    3.600    0.000    0.000    0.000    0.000    0.000 
#    0.000    0.000    0.000    0.000    0.000    0.000 
#
# Total GULP energy -55726.562630 kJ/mol
# GULP energy per Si atom -5572.656263 kJ/mol
# Density = 2.264826 g / cm^3
# Si number density = 22.699928 Si / 1000 Ang^3
#
#
#
# Elastic Constant Matrix: (Units=GPa)
#
#
# Indices 1 2 3 4 5 6 
#
# 1 140.9698 41.5659 57.1022 0.0071 -34.8505 -0.0175
# 2 41.5659 100.8588 40.3028 -0.0022 6.8882 0.0125
# 3 57.1022 40.3028 145.5723 0.0049 -8.9330 -0.0152
# 4 0.0071 -0.0022 0.0049 29.9322 0.0017 -44.2864
# 5 -34.8505 6.8882 -8.9330 0.0017 48.3021 -0.0097
# 6 -0.0175 0.0125 -0.0152 -44.2864 -0.0097 145.9266
#
#
#
# Elastic Compliance Matrix: (Units=1/GPa)
#
#
# Indices 1 2 3 4 5 6 
#
# 1 0.011572 -0.004202 -0.002859 0.000000 0.008420 0.000002
# 2 -0.004202 0.012907 -0.002250 -0.000001 -0.005288 -0.000003
# 3 -0.002859 -0.002250 0.008605 0.000000 -0.000151 0.000001
# 4 0.000000 -0.000001 0.000000 0.060636 0.000002 0.018402
# 5 0.008420 -0.005288 -0.000151 0.000002 0.027504 0.000004
# 6 0.000002 -0.000003 0.000001 0.018402 0.000004 0.012437
#
#
# Mechanical properties :
#
#
# Convention : Reuss Voigt Hill
#
# Bulk Modulus (GPa) = 69.14602 73.92696 71.53649
# Shear Modulus (GPa) = 31.82619 61.39417 46.61018
#
# Velocity S-wave (km/s) = 3.74844 5.20622 4.53627
# Velocity P-wave (km/s) = 7.01865 8.29321 7.68241
#
# Compressibility (1/GPa) = 0.01446215
#
# Stress axis : x y z
#
# Youngs Moduli (GPa) = 86.41199 77.48005 116.21611
#
# Poissons Ratio (x) = 0.32554 0.33232
# Poissons Ratio (y) = 0.36307 0.26144
# Poissons Ratio (z) = 0.24709 0.17430
#
# Static dielectric constant tensor:
#      x y z
#    x 1.671940 -0.000040 -0.003640 
#    y -0.000040 1.845950 0.000000 
#    z -0.003640 0.000000 1.846080 
# 
# From -- ./inp_files/45341.got.cif
#   From: 2010.05.17/outbox.cif.g08.bks.cpg/sg5_23_cif.got.tgz:45341.got - 2010.06.03 18:56:24.
