data_PCOD9128078
_publ_section_title
;
Structure prediction by ZEFSAII (Michael W. Deem and Ramdas Pophale) SiO2 
 PCOD9128078
Probable space group: C 2
;
_chemical_formula_sum "Si O2"
_cell_formula_units_Z 28
_cell_length_a 31.715410
_cell_length_b 7.205131
_cell_length_c 5.623151
_cell_angle_alpha 90.000000
_cell_angle_beta 120.732262
_cell_angle_gamma 90.000000
_cell_volume 1104.512179
_symmetry_space_group_name_H-M "C 2"
_symmetry_group_IT_number 5
_symmetry_cell_setting 'monoclinic'
loop_
_space_group_symop_operation_xyz
x,y,z
-x,y,-z
1/2+x,1/2+y,z
1/2-x,1/2+y,-z
loop_
_atom_site_type_symbol
_atom_site_label
_atom_site_fract_x
_atom_site_fract_y
_atom_site_fract_z
Si Si1 0.000000 0.107100 0.500000
Si Si2 0.592235 0.343094 0.763329
Si Si3 0.891353 0.259146 0.649848
Si Si4 0.110522 0.809633 0.302154
Si Si5 0.308646 0.023941 0.533000
Si Si6 0.323597 0.610811 0.095480
Si Si7 0.500000 0.814180 0.000000
Si Si8 0.760464 0.442905 0.874360
O O1 0.994678 0.215139 0.239982
O O2 0.951764 0.985256 0.388169
O O3 0.593807 0.243989 0.514712
O O4 0.645125 0.449071 0.939426
O O5 0.583310 0.241508 0.985450
O O6 0.850694 0.364570 0.689313
O O7 0.866140 0.246241 0.317107
O O8 0.896385 0.036143 0.719252
O O9 0.942330 0.369354 0.805018
O O10 0.163103 0.714844 0.427453
O O11 0.283798 0.968585 0.208119
O O12 0.278908 0.048046 0.692751
O O13 0.280559 0.737712 0.864536
O O14 0.294380 0.509868 0.226607
#
# Coordination Sequence:
#
# PCOD9128078 Si02
#       8
#     2   4   4   4   4   4   2   4
#     4  12  20  40  66 104 124 174 232 266 336 404
#     4  11  22  40  67  99 129 173 223 273 329 398
#     4  10  23  46  67 101 131 178 221 279 330 397
#     4  11  22  40  70  92 133 175 212 273 335 380
#     4  11  26  45  66 100 137 174 227 277 325 402
#     4  10  24  44  66  99 136 174 225 275 331 396
#     4  12  22  40  72  98 132 176 222 274 338 396
#     4  11  26  43  66  98 134 179 224 274 329 399
#
# _framework density 25.350557999999999
#
# number of rings (size 3 to 8) (size 9 to 14) (size 15 to 20)
#    0.000    1.143    4.286    1.714    6.000    4.571 
#    0.000    2.143    0.000    0.000    0.000    0.000 
#    0.000    0.000    0.000    0.000    0.000    0.000 
#
# Total GULP energy -77942.061909 kJ/mol
# GULP energy per Si atom -5567.290136 kJ/mol
# Density = 2.529286 g / cm^3
# Si number density = 25.350558 Si / 1000 Ang^3
#
#
#
# Elastic Constant Matrix: (Units=GPa)
#
#
# Indices 1 2 3 4 5 6 
#
# 1 142.0669 22.7921 36.0218 0.0000 -14.8530 0.0000
# 2 22.7921 74.9561 26.5106 0.0000 2.1485 0.0000
# 3 36.0218 26.5106 117.8909 0.0000 -26.1356 0.0000
# 4 0.0000 0.0000 0.0000 19.5058 0.0000 -8.7166
# 5 -14.8530 2.1485 -26.1356 0.0000 51.5881 0.0000
# 6 0.0000 0.0000 0.0000 -8.7166 0.0000 37.2942
#
#
#
# Elastic Compliance Matrix: (Units=1/GPa)
#
#
# Indices 1 2 3 4 5 6 
#
# 1 0.007918 -0.001862 -0.001665 0.000000 0.001514 0.000000
# 2 -0.001862 0.015233 -0.003510 0.000000 -0.002949 0.000000
# 3 -0.001665 -0.003510 0.010935 0.000000 0.005207 0.000000
# 4 0.000000 0.000000 0.000000 0.057246 0.000000 0.013380
# 5 0.001514 -0.002949 0.005207 0.000000 0.022581 0.000000
# 6 0.000000 0.000000 0.000000 0.013380 0.000000 0.029941
#
#
# Mechanical properties :
#
#
# Convention : Reuss Voigt Hill
#
# Bulk Modulus (GPa) = 49.97204 56.17366 53.07285
# Shear Modulus (GPa) = 30.37669 38.31690 34.34679
#
# Velocity S-wave (km/s) = 3.46535 3.89200 3.68485
# Velocity P-wave (km/s) = 5.98053 6.51181 6.25182
#
# Compressibility (1/GPa) = 0.02001119
#
# Stress axis : x y z
#
# Youngs Moduli (GPa) = 126.29237 65.64495 91.45076
#
# Poissons Ratio (x) = 0.12224 0.15227
# Poissons Ratio (y) = 0.23518 0.32103
# Poissons Ratio (z) = 0.21028 0.23044
#
# Static dielectric constant tensor:
#      x y z
#    x 2.010470 0.000000 0.003220 
#    y 0.000000 2.087890 0.000000 
#    z 0.003220 0.000000 2.145480 
# 
# From -- ./inp_files/11287.got.cif
#   From: 2010.05.17/outbox.cif.g08.bks.cpg/sg5_6_cif.got.tgz:11287.got - 2010.06.03 18:56:24.
