data_PCOD9128254
_publ_section_title
;
Structure prediction by ZEFSAII (Michael W. Deem and Ramdas Pophale) SiO2 
 PCOD9128254
Probable space group: C 2
;
_chemical_formula_sum "Si O2"
_cell_formula_units_Z 22
_cell_length_a 23.956334
_cell_length_b 7.676285
_cell_length_c 14.708765
_cell_angle_alpha 90.000000
_cell_angle_beta 20.203175
_cell_angle_gamma 90.000000
_cell_volume 934.130122
_symmetry_space_group_name_H-M "C 2"
_symmetry_group_IT_number 5
_symmetry_cell_setting 'monoclinic'
loop_
_space_group_symop_operation_xyz
x,y,z
-x,y,-z
1/2+x,1/2+y,z
1/2-x,1/2+y,-z
loop_
_atom_site_type_symbol
_atom_site_label
_atom_site_fract_x
_atom_site_fract_y
_atom_site_fract_z
Si Si1 0.558790 0.645030 0.308945
Si Si2 0.723346 0.819393 0.513774
Si Si3 0.240192 0.580187 0.710830
Si Si4 0.500000 0.795314 0.000000
Si Si5 0.566991 0.061875 0.298470
Si Si6 0.468979 0.165340 0.255765
O O1 0.500000 0.596350 0.500000
O O2 0.428116 0.557853 0.442904
O O3 0.541263 0.854251 0.327118
O O4 0.741654 0.596266 0.004990
O O5 0.775871 0.723349 0.342849
O O6 0.879280 0.821631 0.340957
O O7 0.631475 0.995903 0.626738
O O8 0.589983 0.711163 0.777473
O O9 0.138818 0.415646 0.831748
O O10 0.149392 0.646702 0.940265
O O11 0.500000 0.114237 0.500000
O O12 0.477760 0.155388 0.350691
#
# Coordination Sequence:
#
# PCOD9128254 Si02
#       6
#     4   4   4   2   4   4
#     4  11  24  44  69  96 136 183 226 283 342 402
#     4  11  21  42  66  97 134 173 216 289 332 398
#     4  11  20  42  70  92 133 181 222 274 345 407
#     4  10  24  40  62 104 134 172 230 268 348 410
#     4  11  26  46  67 105 137 179 237 284 336 411
#     4  11  23  44  69  99 139 175 234 276 344 411
#
# _framework density 23.551321999999999
#
# number of rings (size 3 to 8) (size 9 to 14) (size 15 to 20)
#    0.000    1.091    7.273    0.000    0.000    3.636 
#    3.273    0.000    0.000    0.000    0.000    0.000 
#    0.000    0.000    0.000    0.000    0.000    0.000 
#
# Total GULP energy -61489.716384 kJ/mol
# GULP energy per Si atom -5589.974217 kJ/mol
# Density = 2.349772 g / cm^3
# Si number density = 23.551322 Si / 1000 Ang^3
#
#
#
# Elastic Constant Matrix: (Units=GPa)
#
#
# Indices 1 2 3 4 5 6 
#
# 1 192.1969 38.0677 77.9933 0.0000 -4.0611 0.0000
# 2 38.0677 62.7328 32.1983 0.0000 1.9104 0.0000
# 3 77.9933 32.1983 142.8327 0.0000 -1.2319 0.0000
# 4 0.0000 0.0000 0.0000 40.6988 0.0000 -4.5338
# 5 -4.0611 1.9104 -1.2319 0.0000 60.5547 0.0000
# 6 0.0000 0.0000 0.0000 -4.5338 0.0000 17.3455
#
#
#
# Elastic Compliance Matrix: (Units=1/GPa)
#
#
# Indices 1 2 3 4 5 6 
#
# 1 0.007055 -0.002624 -0.003256 0.000000 0.000490 0.000000
# 2 -0.002624 0.019028 -0.002864 0.000000 -0.000835 0.000000
# 3 -0.003256 -0.002864 0.009425 0.000000 0.000064 0.000000
# 4 0.000000 0.000000 0.000000 0.025308 0.000000 0.006615
# 5 0.000490 -0.000835 0.000064 0.000000 0.016574 0.000000
# 6 0.000000 0.000000 0.000000 0.006615 0.000000 0.059381
#
#
# Mechanical properties :
#
#
# Convention : Reuss Voigt Hill
#
# Bulk Modulus (GPa) = 55.49508 77.14233 66.31871
# Shear Modulus (GPa) = 31.19802 40.35334 35.77568
#
# Velocity S-wave (km/s) = 3.64357 4.14384 3.90173
# Velocity P-wave (km/s) = 6.42771 7.46467 6.96551
#
# Compressibility (1/GPa) = 0.01801961
#
# Stress axis : x y z
#
# Youngs Moduli (GPa) = 141.75251 52.55298 106.09677
#
# Poissons Ratio (x) = 0.13792 0.34548
# Poissons Ratio (y) = 0.37202 0.30382
# Poissons Ratio (z) = 0.46158 0.15049
#
# Static dielectric constant tensor:
#      x y z
#    x 1.890880 0.000000 0.024810 
#    y 0.000000 1.944660 0.000000 
#    z 0.024810 0.000000 1.908270 
# 
# From -- ./inp_files/57570.got.cif
#   From: 2010.05.17/outbox.cif.g08.bks.cpg/sg5_29_cif.got.tgz:57570.got - 2010.06.03 18:56:24.
