data_PCOD9128873
_publ_section_title
;
Structure prediction by ZEFSAII (Michael W. Deem and Ramdas Pophale) SiO2 
 PCOD9128873
Probable space group: C 2
;
_chemical_formula_sum "Si O2"
_cell_formula_units_Z 26
_cell_length_a 16.122035
_cell_length_b 11.615582
_cell_length_c 7.136809
_cell_angle_alpha 90.000000
_cell_angle_beta 61.762195
_cell_angle_gamma 90.000000
_cell_volume 1177.434096
_symmetry_space_group_name_H-M "C 2"
_symmetry_group_IT_number 5
_symmetry_cell_setting 'monoclinic'
loop_
_space_group_symop_operation_xyz
x,y,z
-x,y,-z
1/2+x,1/2+y,z
1/2-x,1/2+y,-z
loop_
_atom_site_type_symbol
_atom_site_label
_atom_site_fract_x
_atom_site_fract_y
_atom_site_fract_z
Si Si1 0.500000 0.645041 0.000000
Si Si2 0.516477 0.465489 0.264985
Si Si3 0.220931 0.718669 0.629460
Si Si4 0.516448 0.197891 0.702712
Si Si5 0.277992 0.405439 0.059102
Si Si6 0.155372 0.549932 0.966576
Si Si7 0.329338 0.800633 0.152336
O O1 0.462886 0.559067 0.199481
O O2 0.418416 0.724179 0.002304
O O3 0.500000 0.485587 0.500000
O O4 0.490940 0.333996 0.248561
O O5 0.625918 0.468514 0.093706
O O6 0.122793 0.673238 0.647708
O O7 0.236432 0.620460 0.769840
O O8 0.288938 0.747377 0.385721
O O9 0.214268 0.836248 0.757579
O O10 0.500000 0.181137 0.500000
O O11 0.434839 0.128542 0.897093
O O12 0.195455 0.498865 0.119845
O O13 0.251768 0.314151 0.919773
O O14 0.136517 0.433407 0.868758
#
# Coordination Sequence:
#
# PCOD9128873 Si02
#       7
#     2   4   4   4   4   4   4
#     4  12  28  44  72  98 154 188 238 306 376 434
#     4  11  24  41  72 103 139 186 249 298 360 440
#     4  12  24  46  80 101 147 199 243 304 375 428
#     4  11  24  45  77 115 142 192 255 311 362 437
#     4  10  25  46  69 104 147 186 245 306 362 445
#     4  10  26  45  73 109 153 185 252 309 365 442
#     4  10  28  47  68 108 147 195 246 298 381 440
#
# _framework density 22.081913
#
# number of rings (size 3 to 8) (size 9 to 14) (size 15 to 20)
#    0.923    0.308    1.538    3.231    6.462    2.462 
#    0.000    0.000    0.000    0.000    0.000    0.000 
#    0.000    0.000    0.000    0.000    0.000    0.000 
#
# Total GULP energy -72555.441047 kJ/mol
# GULP energy per Si atom -5581.187773 kJ/mol
# Density = 2.203165 g / cm^3
# Si number density = 22.081913 Si / 1000 Ang^3
#
#
#
# Elastic Constant Matrix: (Units=GPa)
#
#
# Indices 1 2 3 4 5 6 
#
# 1 67.7061 7.9924 3.6052 0.0000 13.4429 0.0000
# 2 7.9924 92.1386 24.7715 0.0000 6.4195 0.0000
# 3 3.6052 24.7715 77.8481 0.0000 11.7801 0.0000
# 4 0.0000 0.0000 0.0000-2219.1315 0.0000 1551.1218
# 5 13.4429 6.4195 11.7801 0.0000 20.9887 0.0000
# 6 0.0000 0.0000 0.0000 1551.1218 0.0000-1029.5727
#
#
#
# Elastic Compliance Matrix: (Units=1/GPa)
#
#
# Indices 1 2 3 4 5 6 
#
# 1 0.017072 -0.001028 0.001250 0.000000 -0.011322 0.000000
# 2 -0.001028 0.011983 -0.003618 0.000000 -0.000976 0.000000
# 3 0.001250 -0.003618 0.015182 0.000000 -0.008215 0.000000
# 4 0.000000 0.000000 0.000000 0.008493 0.000000 0.012796
# 5 -0.011322 -0.000976 -0.008215 0.000000 0.059805 0.000000
# 6 0.000000 0.000000 0.000000 0.012796 0.000000 0.018306
#
#
# Mechanical properties :
#
#
# Convention : Reuss Voigt Hill
#
# Bulk Modulus (GPa) = 26.70579 34.49235 30.59907
# Shear Modulus (GPa) = 33.30757 -632.12151 -299.40697
#
# Velocity S-wave (km/s) = 3.88798 -16.93764 -11.65691
# Velocity P-wave (km/s) = 5.68114 19.15352 12.93410
#
# Compressibility (1/GPa) = 0.03744507
#
# Stress axis : x y z
#
# Youngs Moduli (GPa) = 58.57413 83.45137 65.86790
#
# Poissons Ratio (x) = 0.08580 -0.08231
# Poissons Ratio (y) = 0.06022 0.23829
# Poissons Ratio (z) = -0.07320 0.30190
#
# Static dielectric constant tensor:
#      x y z
#    x 2.483140 0.000000 -1.219350 
#    y 0.000000 1.832320 0.000000 
#    z -1.219350 0.000000 4.339750 
# 
# From -- ./inp_files/27220.got.cif
#   From: 2010.05.17/outbox.cif.g08.bks.cpg/sg5_14_cif.got.tgz:27220.got - 2010.06.03 18:56:24.
