data_PCOD9128880
_publ_section_title
;
Structure prediction by ZEFSAII (Michael W. Deem and Ramdas Pophale) SiO2 
 PCOD9128880
Probable space group: C 2
;
_chemical_formula_sum "Si O2"
_cell_formula_units_Z 28
_cell_length_a 8.099167
_cell_length_b 9.619737
_cell_length_c 18.308676
_cell_angle_alpha 90.000000
_cell_angle_beta 123.091633
_cell_angle_gamma 90.000000
_cell_volume 1195.088446
_symmetry_space_group_name_H-M "C 2"
_symmetry_group_IT_number 5
_symmetry_cell_setting 'monoclinic'
loop_
_space_group_symop_operation_xyz
x,y,z
-x,y,-z
1/2+x,1/2+y,z
1/2-x,1/2+y,-z
loop_
_atom_site_type_symbol
_atom_site_label
_atom_site_fract_x
_atom_site_fract_y
_atom_site_fract_z
Si Si1 0.058647 0.702790 0.668469
Si Si2 0.613101 0.330241 0.832406
Si Si3 0.799148 0.421657 0.227855
Si Si4 0.146993 0.268721 0.385071
Si Si5 0.293140 0.540220 0.491205
Si Si6 0.304733 0.617788 0.991411
Si Si7 0.952557 0.386647 0.102343
O O1 0.019099 0.788740 0.731775
O O2 0.173750 0.567847 0.725499
O O3 0.194673 0.781346 0.642508
O O4 0.863379 0.641586 0.585344
O O5 0.433565 0.398672 0.831717
O O6 0.685536 0.205017 0.901524
O O7 0.816939 0.402246 0.857639
O O8 0.895190 0.421643 0.170989
O O9 0.930367 0.307754 0.303455
O O10 0.204499 0.385514 0.459709
O O11 0.170953 0.113089 0.422125
O O12 0.500000 0.542853 0.500000
O O13 0.169280 0.489616 0.979453
O O14 0.500000 0.561386 0.000000
O O15 0.378938 0.730177 0.067814
#
# Coordination Sequence:
#
# PCOD9128880 Si02
#       7
#     4   4   4   4   4   4   4
#     4  11  23  44  69 104 144 181 243 296 347 423
#     4  11  24  45  70 106 141 186 239 292 352 423
#     4  11  25  44  74 103 143 194 234 293 357 417
#     4  11  25  46  71 103 143 191 232 299 353 423
#     4  11  24  42  70 102 141 187 237 292 357 421
#     4  10  25  46  72 105 145 185 238 297 350 426
#     4  11  24  50  71 104 148 185 239 297 352 422
#
# _framework density 23.429226
#
# number of rings (size 3 to 8) (size 9 to 14) (size 15 to 20)
#    0.000    1.143    2.857    2.143    2.000    5.714 
#    7.714    0.000    0.000    0.000    0.000    0.000 
#    0.000    0.000    0.000    0.000    0.000    0.000 
#
# Total GULP energy -78315.965825 kJ/mol
# GULP energy per Si atom -5593.997559 kJ/mol
# Density = 2.337590 g / cm^3
# Si number density = 23.429226 Si / 1000 Ang^3
#
#
#
# Elastic Constant Matrix: (Units=GPa)
#
#
# Indices 1 2 3 4 5 6 
#
# 1 120.6342 39.6401 41.6783 0.0000 27.6874 0.0000
# 2 39.6401 58.6609 44.2402 0.0000 10.0334 0.0000
# 3 41.6783 44.2402 74.0331 0.0000 8.3325 0.0000
# 4 0.0000 0.0000 0.0000 35.8280 0.0000 -8.1570
# 5 27.6874 10.0334 8.3325 0.0000 54.1733 0.0000
# 6 0.0000 0.0000 0.0000 -8.1570 0.0000 28.9143
#
#
#
# Elastic Compliance Matrix: (Units=1/GPa)
#
#
# Indices 1 2 3 4 5 6 
#
# 1 0.012154 -0.004806 -0.003431 0.000000 -0.004794 0.000000
# 2 -0.004806 0.033402 -0.017131 0.000000 -0.001095 0.000000
# 3 -0.003431 -0.017131 0.025564 0.000000 0.000994 0.000000
# 4 0.000000 0.000000 0.000000 0.029827 0.000000 0.008414
# 5 -0.004794 -0.001095 0.000994 0.000000 0.020959 0.000000
# 6 0.000000 0.000000 0.000000 0.008414 0.000000 0.036959
#
#
# Mechanical properties :
#
#
# Convention : Reuss Voigt Hill
#
# Bulk Modulus (GPa) = 49.05745 56.04948 52.55346
# Shear Modulus (GPa) = 23.10569 32.30110 27.70339
#
# Velocity S-wave (km/s) = 3.14377 3.71707 3.44238
# Velocity P-wave (km/s) = 5.84481 6.51129 6.18703
#
# Compressibility (1/GPa) = 0.02038427
#
# Stress axis : x y z
#
# Youngs Moduli (GPa) = 82.27433 29.93852 39.11680
#
# Poissons Ratio (x) = 0.14387 0.13422
# Poissons Ratio (y) = 0.39538 0.67012
# Poissons Ratio (z) = 0.28231 0.51289
#
# Static dielectric constant tensor:
#      x y z
#    x 1.815280 0.000000 -0.009280 
#    y 0.000000 1.911220 0.000000 
#    z -0.009280 0.000000 1.901420 
# 
# From -- ./inp_files/64402.got.cif
#   From: 2010.05.17/outbox.cif.g08.bks.cpg/sg5_33_cif.got.tgz:64402.got - 2010.06.03 18:56:24.
