data_PCOD9128677
_publ_section_title
;
Structure prediction by ZEFSAII (Michael W. Deem and Ramdas Pophale) SiO2 
 PCOD9128677
Probable space group: C 2
;
_chemical_formula_sum "Si O2"
_cell_formula_units_Z 20
_cell_length_a 20.431409
_cell_length_b 5.804062
_cell_length_c 14.285234
_cell_angle_alpha 90.000000
_cell_angle_beta 153.837535
_cell_angle_gamma 90.000000
_cell_volume 746.922436
_symmetry_space_group_name_H-M "C 2"
_symmetry_group_IT_number 5
_symmetry_cell_setting 'monoclinic'
loop_
_space_group_symop_operation_xyz
x,y,z
-x,y,-z
1/2+x,1/2+y,z
1/2-x,1/2+y,-z
loop_
_atom_site_type_symbol
_atom_site_label
_atom_site_fract_x
_atom_site_fract_y
_atom_site_fract_z
Si Si1 0.678465 0.364890 0.803269
Si Si2 0.617312 0.587566 0.409631
Si Si3 0.391865 0.349398 0.781141
Si Si4 0.676279 0.778885 0.199646
Si Si5 0.394070 0.863089 0.244662
O O1 0.798290 0.321686 0.876344
O O2 0.623325 0.629362 0.715806
O O3 0.587112 0.121891 0.690754
O O4 0.743434 0.383881 0.991013
O O5 0.537007 0.475625 0.216983
O O6 0.688895 0.420940 0.579547
O O7 0.518693 0.781135 0.331341
O O8 0.774182 0.691112 0.577087
O O9 0.302196 0.523893 0.732456
O O10 0.500000 0.249641 0.000000
O O11 0.500000 0.807712 0.000000
#
# Coordination Sequence:
#
# PCOD9128677 Si02
#       5
#     4   4   4   4   4
#     4  10  24  48  74 110 149 207 252 323 387 457
#     4  12  25  46  75 113 148 204 258 319 389 472
#     4  11  25  46  72 111 152 193 256 326 385 459
#     4  11  25  47  73 109 150 199 258 321 389 457
#     4  10  24  47  76 107 155 200 261 313 387 471
#
# _framework density 26.776543
#
# number of rings (size 3 to 8) (size 9 to 14) (size 15 to 20)
#    0.000    1.200    2.000    3.000    5.600    0.800 
#   10.800    0.000    0.000    0.000    0.000    0.000 
#    0.000    0.000    0.000    0.000    0.000    0.000 
#
# Total GULP energy -55706.007388 kJ/mol
# GULP energy per Si atom -5570.600739 kJ/mol
# Density = 2.671560 g / cm^3
# Si number density = 26.776543 Si / 1000 Ang^3
#
#
#
# Elastic Constant Matrix: (Units=GPa)
#
#
# Indices 1 2 3 4 5 6 
#
# 1 134.0667 14.4383 20.7800 0.0000 -2.3926 0.0000
# 2 14.4383 130.8134 17.9343 0.0000 0.9444 0.0000
# 3 20.7800 17.9343 112.5687 0.0000 -27.7143 0.0000
# 4 0.0000 0.0000 0.0000 -93.3170 0.0000 12.9252
# 5 -2.3926 0.9444 -27.7143 0.0000 33.2367 0.0000
# 6 0.0000 0.0000 0.0000 12.9252 0.0000 21.6428
#
#
#
# Elastic Compliance Matrix: (Units=1/GPa)
#
#
# Indices 1 2 3 4 5 6 
#
# 1 0.007748 -0.000646 -0.001492 0.000000 -0.000668 0.000000
# 2 -0.000646 0.007936 -0.001525 0.000000 -0.001544 0.000000
# 3 -0.001492 -0.001525 0.011811 0.000000 0.009784 0.000000
# 4 0.000000 0.000000 0.000000 -0.009897 0.000000 0.005911
# 5 -0.000668 -0.001544 0.009784 0.000000 0.038242 0.000000
# 6 0.000000 0.000000 0.000000 0.005911 0.000000 0.042675
#
#
# Mechanical properties :
#
#
# Convention : Reuss Voigt Hill
#
# Bulk Modulus (GPa) = 49.58111 53.75043 51.66577
# Shear Modulus (GPa) = 44.41992 13.93223 29.17608
#
# Velocity S-wave (km/s) = 4.07739 2.28352 3.30451
# Velocity P-wave (km/s) = 6.38151 5.20287 5.82209
#
# Compressibility (1/GPa) = 0.02016897
#
# Stress axis : x y z
#
# Youngs Moduli (GPa) = 129.06844 126.00802 84.66885
#
# Poissons Ratio (x) = 0.08138 0.12631
# Poissons Ratio (y) = 0.08335 0.12914
# Poissons Ratio (z) = 0.19254 0.19219
#
# Static dielectric constant tensor:
#      x y z
#    x 2.192560 0.000000 0.063650 
#    y 0.000000 2.288580 0.000000 
#    z 0.063650 0.000000 2.140510 
# 
# From -- ./inp_files/56618.got.cif
#   From: 2010.05.17/outbox.cif.g08.bks.cpg/sg5_29_cif.got.tgz:56618.got - 2010.06.03 18:56:24.
