data_PCOD9128395
_publ_section_title
;
Structure prediction by ZEFSAII (Michael W. Deem and Ramdas Pophale) SiO2 
 PCOD9128395
Probable space group: C 2
;
_chemical_formula_sum "Si O2"
_cell_formula_units_Z 24
_cell_length_a 9.394365
_cell_length_b 12.136907
_cell_length_c 8.257683
_cell_angle_alpha 90.000000
_cell_angle_beta 79.700431
_cell_angle_gamma 90.000000
_cell_volume 926.357476
_symmetry_space_group_name_H-M "C 2"
_symmetry_group_IT_number 5
_symmetry_cell_setting 'monoclinic'
loop_
_space_group_symop_operation_xyz
x,y,z
-x,y,-z
1/2+x,1/2+y,z
1/2-x,1/2+y,-z
loop_
_atom_site_type_symbol
_atom_site_label
_atom_site_fract_x
_atom_site_fract_y
_atom_site_fract_z
Si Si1 0.836251 0.993630 0.201434
Si Si2 0.593460 0.651747 0.224121
Si Si3 0.859771 0.325589 0.354031
Si Si4 0.326296 0.845711 0.008260
Si Si5 0.906772 0.792697 0.375753
Si Si6 0.821595 0.562779 0.429087
O O1 0.739342 0.952972 0.068689
O O2 0.908268 0.875360 0.229910
O O3 0.744418 0.041871 0.375856
O O4 0.972078 0.075455 0.165515
O O5 0.492754 0.744918 0.323714
O O6 0.688809 0.729910 0.086519
O O7 0.687795 0.582777 0.331989
O O8 0.754691 0.294334 0.519488
O O9 0.902374 0.451169 0.367851
O O10 0.772934 0.322412 0.201306
O O11 0.500000 0.861026 0.000000
O O12 0.929775 0.662966 0.363078
O O13 0.000000 0.843371 0.500000
#
# Coordination Sequence:
#
# PCOD9128395 Si02
#       6
#     4   4   4   4   4   4
#     4  11  22  41  74 101 138 185 237 289 347 421
#     4  11  22  45  77 102 138 190 231 294 356 417
#     4  10  24  43  68 104 140 182 240 284 354 421
#     4  10  24  44  69 104 144 188 235 283 357 432
#     4  11  23  43  65 104 143 179 243 295 352 411
#     4  11  23  42  73 102 140 184 237 297 349 412
#
# _framework density 25.907924999999999
#
# number of rings (size 3 to 8) (size 9 to 14) (size 15 to 20)
#    0.000    1.333    3.333    2.500    0.000    6.667 
#    0.000    2.500    0.000    0.000    0.000    0.000 
#    0.000    0.000    0.000    0.000    0.000    0.000 
#
# Total GULP energy -67080.439111 kJ/mol
# GULP energy per Si atom -5590.036593 kJ/mol
# Density = 2.584896 g / cm^3
# Si number density = 25.907925 Si / 1000 Ang^3
#
#
#
# Elastic Constant Matrix: (Units=GPa)
#
#
# Indices 1 2 3 4 5 6 
#
# 1 88.1802 29.3023 25.6589 0.0000 41.0058 0.0000
# 2 29.3023 158.3491 39.1462 0.0000 9.5721 0.0000
# 3 25.6589 39.1462 101.5080 0.0000 25.5632 0.0000
# 4 0.0000 0.0000 0.0000 34.6096 0.0000 16.3873
# 5 41.0058 9.5721 25.5632 0.0000 41.7553 0.0000
# 6 0.0000 0.0000 0.0000 16.3873 0.0000 -1.9929
#
#
#
# Elastic Compliance Matrix: (Units=1/GPa)
#
#
# Indices 1 2 3 4 5 6 
#
# 1 0.022123 -0.003040 0.001036 0.000000 -0.021663 0.000000
# 2 -0.003040 0.007399 -0.002849 0.000000 0.003034 0.000000
# 3 0.001036 -0.002849 0.012745 0.000000 -0.008167 0.000000
# 4 0.000000 0.000000 0.000000 0.005905 0.000000 0.048553
# 5 -0.021663 0.003034 -0.008167 0.000000 0.049528 0.000000
# 6 0.000000 0.000000 0.000000 0.048553 0.000000 -0.102543
#
#
# Mechanical properties :
#
#
# Convention : Reuss Voigt Hill
#
# Bulk Modulus (GPa) = 30.71244 59.58356 45.14800
# Shear Modulus (GPa) = 318.13781 31.80309 174.97045
#
# Velocity S-wave (km/s) = 11.09334 3.50743 8.22691
# Velocity P-wave (km/s) = 13.26511 6.28099 10.37820
#
# Compressibility (1/GPa) = 0.03256010
#
# Stress axis : x y z
#
# Youngs Moduli (GPa) = 45.20137 135.16003 78.46293
#
# Poissons Ratio (x) = 0.41094 -0.08127
# Poissons Ratio (y) = 0.13743 0.22352
# Poissons Ratio (z) = -0.04682 0.38503
#
# Static dielectric constant tensor:
#      x y z
#    x 2.060140 0.000000 0.016840 
#    y 0.000000 2.124030 0.000000 
#    z 0.016840 0.000000 2.174290 
# 
# From -- ./inp_files/19324.got.cif
#   From: 2010.05.17/outbox.cif.g08.bks.cpg/sg5_10_cif.got.tgz:19324.got - 2010.06.03 18:56:24.
