data_PCOD9128146
_publ_section_title
;
Structure prediction by ZEFSAII (Michael W. Deem and Ramdas Pophale) SiO2 
 PCOD9128146
Probable space group: C 2
;
_chemical_formula_sum "Si O2"
_cell_formula_units_Z 16
_cell_length_a 5.187886
_cell_length_b 22.529985
_cell_length_c 5.450538
_cell_angle_alpha 90.000000
_cell_angle_beta 87.048614
_cell_angle_gamma 90.000000
_cell_volume 636.230170
_symmetry_space_group_name_H-M "C 2"
_symmetry_group_IT_number 5
_symmetry_cell_setting 'monoclinic'
loop_
_space_group_symop_operation_xyz
x,y,z
-x,y,-z
1/2+x,1/2+y,z
1/2-x,1/2+y,-z
loop_
_atom_site_type_symbol
_atom_site_label
_atom_site_fract_x
_atom_site_fract_y
_atom_site_fract_z
Si Si1 0.000000 0.207470 0.000000
Si Si2 0.774155 0.104177 0.345252
Si Si3 0.246964 0.783507 0.353655
Si Si4 0.747846 0.905901 0.843963
Si Si5 0.500000 0.017560 0.000000
O O1 0.919688 0.160836 0.217586
O O2 0.778130 0.255684 0.080694
O O3 0.500000 0.116655 0.500000
O O4 0.000000 0.077121 0.500000
O O5 0.693145 0.059118 0.136338
O O6 0.500000 0.769439 0.500000
O O7 0.220745 0.854817 0.354103
O O8 0.000000 0.757555 0.500000
O O9 0.650134 0.973050 0.805550
O O10 0.500000 0.881412 0.000000
O O11 0.000000 0.908891 0.000000
#
# Coordination Sequence:
#
# PCOD9128146 Si02
#       5
#     2   4   4   4   2
#     4  12  27  52  76 106 161 194 244 332 364 442
#     4  12  28  48  76 115 149 205 260 301 379 453
#     4  12  27  47  78 112 147 197 252 303 381 457
#     4  10  23  47  74 106 148 197 233 308 385 429
#     4  10  27  50  78 106 165 194 242 328 366 448
#
# _framework density 25.148133999999999
#
# number of rings (size 3 to 8) (size 9 to 14) (size 15 to 20)
#    0.750    0.000    1.250    4.500    5.250    5.000 
#    0.000    0.000    0.000    0.000    0.000    0.000 
#    0.000    0.000    0.000    0.000    0.000    0.000 
#
# Total GULP energy -44572.971182 kJ/mol
# GULP energy per Si atom -5571.621398 kJ/mol
# Density = 2.509090 g / cm^3
# Si number density = 25.148134 Si / 1000 Ang^3
#
#
#
# Elastic Constant Matrix: (Units=GPa)
#
#
# Indices 1 2 3 4 5 6 
#
# 1 207.6596 37.7311 70.4030 0.0000 -3.8690 0.0000
# 2 37.7311 166.9912 45.0864 0.0000 15.6213 0.0000
# 3 70.4030 45.0864 87.9007 0.0000 -30.7582 0.0000
# 4 0.0000 0.0000 0.0000 46.8752 0.0000 -68.5825
# 5 -3.8690 15.6213 -30.7582 0.0000 70.1582 0.0000
# 6 0.0000 0.0000 0.0000 -68.5825 0.0000 350.0112
#
#
#
# Elastic Compliance Matrix: (Units=1/GPa)
#
#
# Indices 1 2 3 4 5 6 
#
# 1 0.006977 0.000513 -0.006800 0.000000 -0.002711 0.000000
# 2 0.000513 0.007895 -0.005984 0.000000 -0.004353 0.000000
# 3 -0.006800 -0.005984 0.023892 0.000000 0.011432 0.000000
# 4 0.000000 0.000000 0.000000 0.029907 0.000000 0.005860
# 5 -0.002711 -0.004353 0.011432 0.000000 0.020085 0.000000
# 6 0.000000 0.000000 0.000000 0.005860 0.000000 0.004005
#
#
# Mechanical properties :
#
#
# Convention : Reuss Voigt Hill
#
# Bulk Modulus (GPa) = 70.30681 85.44361 77.87521
# Shear Modulus (GPa) = 40.96851 114.03099 77.49975
#
# Velocity S-wave (km/s) = 4.04057 6.74108 5.55736
# Velocity P-wave (km/s) = 7.05592 9.72828 8.49781
#
# Compressibility (1/GPa) = 0.01422337
#
# Stress axis : x y z
#
# Youngs Moduli (GPa) = 143.32247 126.65939 41.85435
#
# Poissons Ratio (x) = -0.06498 0.28461
# Poissons Ratio (y) = -0.07353 0.25045
# Poissons Ratio (z) = 0.97460 0.75790
#
# Static dielectric constant tensor:
#      x y z
#    x 1.936000 0.000000 -0.018680 
#    y 0.000000 2.016070 0.000000 
#    z -0.018680 0.000000 1.860790 
# 
# From -- ./inp_files/746.got.cif
#   From: 2010.05.17/outbox.cif.g08.bks.cpg/sg5_1_cif.got.tgz:746.got - 2010.06.03 18:56:24.
