data_PCOD9128724
_publ_section_title
;
Structure prediction by ZEFSAII (Michael W. Deem and Ramdas Pophale) SiO2 
 PCOD9128724
Probable space group: C 2
;
_chemical_formula_sum "Si O2"
_cell_formula_units_Z 24
_cell_length_a 13.261016
_cell_length_b 4.962004
_cell_length_c 18.411330
_cell_angle_alpha 90.000000
_cell_angle_beta 129.454216
_cell_angle_gamma 90.000000
_cell_volume 935.429300
_symmetry_space_group_name_H-M "C 2"
_symmetry_group_IT_number 5
_symmetry_cell_setting 'monoclinic'
loop_
_space_group_symop_operation_xyz
x,y,z
-x,y,-z
1/2+x,1/2+y,z
1/2-x,1/2+y,-z
loop_
_atom_site_type_symbol
_atom_site_label
_atom_site_fract_x
_atom_site_fract_y
_atom_site_fract_z
Si Si1 0.500000 0.168340 0.000000
Si Si2 0.665069 0.826518 0.967803
Si Si3 0.166580 0.835095 0.480519
Si Si4 0.590048 0.865607 0.245374
Si Si5 0.500000 0.023748 0.500000
Si Si6 0.182841 0.867127 0.208341
Si Si7 0.530226 0.697075 0.663073
O O1 0.576185 0.338521 0.095686
O O2 0.395403 0.970580 0.989720
O O3 0.550192 0.819835 0.856844
O O4 0.722686 0.532053 0.007190
O O5 0.434725 0.803562 0.682329
O O6 0.242287 0.117185 0.516607
O O7 0.123271 0.711976 0.537328
O O8 0.028042 0.899259 0.377802
O O9 0.682900 0.662830 0.242809
O O10 0.635295 0.166919 0.250311
O O11 0.520488 0.842311 0.580310
O O12 0.321798 0.752794 0.246031
#
# Coordination Sequence:
#
# PCOD9128724 Si02
#       7
#     2   4   4   4   2   4   4
#     4  10  24  48  76 108 154 202 246 312 372 450
#     4  11  23  43  72 102 147 195 253 306 377 446
#     4  12  29  51  79 110 151 202 255 325 395 461
#     4  11  28  45  71 111 149 198 247 319 375 450
#     4  12  30  52  80 116 146 214 260 324 392 466
#     4  11  28  48  76 114 154 197 258 307 381 454
#     4  12  30  50  81 111 156 202 259 316 389 456
#
# _framework density 25.656669000000001
#
# number of rings (size 3 to 8) (size 9 to 14) (size 15 to 20)
#    0.000    0.667    1.667    3.500    7.000   10.000 
#    0.000    0.000    0.000    0.000    0.000    0.000 
#    0.000    0.000    0.000    0.000    0.000    0.000 
#
# Total GULP energy -67296.785457 kJ/mol
# GULP energy per Si atom -5608.065455 kJ/mol
# Density = 2.559827 g / cm^3
# Si number density = 25.656669 Si / 1000 Ang^3
#
#
#
# Elastic Constant Matrix: (Units=GPa)
#
#
# Indices 1 2 3 4 5 6 
#
# 1 124.6465 10.7699 19.8975 0.0000 -3.4843 0.0000
# 2 10.7699 100.0881 17.4782 0.0000 1.5383 0.0000
# 3 19.8975 17.4782 78.3065 0.0000 7.6689 0.0000
# 4 0.0000 0.0000 0.0000 -9.0740 0.0000 26.1127
# 5 -3.4843 1.5383 7.6689 0.0000 58.6119 0.0000
# 6 0.0000 0.0000 0.0000 26.1127 0.0000 49.3756
#
#
#
# Elastic Compliance Matrix: (Units=1/GPa)
#
#
# Indices 1 2 3 4 5 6 
#
# 1 0.008427 -0.000553 -0.002095 0.000000 0.000790 0.000000
# 2 -0.000553 0.010433 -0.002186 0.000000 -0.000021 0.000000
# 3 -0.002095 -0.002186 0.013976 0.000000 -0.001896 0.000000
# 4 0.000000 0.000000 0.000000 -0.043699 0.000000 0.023111
# 5 0.000790 -0.000021 -0.001896 0.000000 0.017357 0.000000
# 6 0.000000 0.000000 0.000000 0.023111 0.000000 0.008031
#
#
# Mechanical properties :
#
#
# Convention : Reuss Voigt Hill
#
# Bulk Modulus (GPa) = 43.16387 44.37026 43.76706
# Shear Modulus (GPa) = 156.66135 36.77572 96.71853
#
# Velocity S-wave (km/s) = 7.82261 3.79011 6.14647
# Velocity P-wave (km/s) = 9.92225 6.04025 8.21388
#
# Compressibility (1/GPa) = 0.02316752
#
# Stress axis : x y z
#
# Youngs Moduli (GPa) = 118.66616 95.85174 71.54958
#
# Poissons Ratio (x) = 0.05301 0.14991
# Poissons Ratio (y) = 0.06563 0.15641
# Poissons Ratio (z) = 0.24863 0.20954
#
# Static dielectric constant tensor:
#      x y z
#    x 2.068180 0.000000 0.014400 
#    y 0.000000 1.972770 0.000000 
#    z 0.014400 0.000000 2.068650 
# 
# From -- ./inp_files/53661.got.cif
#   From: 2010.05.17/outbox.cif.g08.bks.cpg/sg5_27_cif.got.tgz:53661.got - 2010.06.03 18:56:24.
