data_PCOD9128307
_publ_section_title
;
Structure prediction by ZEFSAII (Michael W. Deem and Ramdas Pophale) SiO2 
 PCOD9128307
Probable space group: C 2
;
_chemical_formula_sum "Si O2"
_cell_formula_units_Z 26
_cell_length_a 13.760866
_cell_length_b 16.686399
_cell_length_c 10.979782
_cell_angle_alpha 90.000000
_cell_angle_beta 148.218885
_cell_angle_gamma 90.000000
_cell_volume 1327.838746
_symmetry_space_group_name_H-M "C 2"
_symmetry_group_IT_number 5
_symmetry_cell_setting 'monoclinic'
loop_
_space_group_symop_operation_xyz
x,y,z
-x,y,-z
1/2+x,1/2+y,z
1/2-x,1/2+y,-z
loop_
_atom_site_type_symbol
_atom_site_label
_atom_site_fract_x
_atom_site_fract_y
_atom_site_fract_z
Si Si1 0.500000 0.208251 0.000000
Si Si2 0.150755 0.455665 0.481040
Si Si3 0.561216 0.655042 0.924395
Si Si4 0.736516 0.481210 0.120566
Si Si5 0.956885 0.841681 0.754292
Si Si6 0.301688 0.116009 0.598912
Si Si7 0.058172 0.713988 0.696870
O O1 0.471288 0.271563 0.078712
O O2 0.654777 0.148616 0.219825
O O3 0.234048 0.479436 0.701923
O O4 0.248794 0.371324 0.556518
O O5 0.205192 0.521583 0.437277
O O6 0.931313 0.458590 0.266535
O O7 0.382674 0.656163 0.649741
O O8 0.500000 0.662822 0.000000
O O9 0.660857 0.569245 0.012783
O O10 0.721428 0.716901 0.061756
O O11 0.585624 0.417239 0.917305
O O12 0.975479 0.799969 0.644016
O O13 0.467484 0.148778 0.689964
O O14 0.000000 0.689266 0.500000
#
# Coordination Sequence:
#
# PCOD9128307 Si02
#       7
#     2   4   4   4   4   4   4
#     4  10  24  42  60  96 136 176 198 272 338 394
#     4  11  20  36  65  93 121 168 214 275 310 388
#     4  12  20  36  68  99 122 164 221 277 321 378
#     4  11  20  35  64 100 121 153 230 268 319 377
#     4  11  22  41  62  90 133 169 216 270 335 374
#     4  11  22  40  66  90 134 166 218 266 334 385
#     4  11  23  40  61  94 130 169 215 275 329 393
#
# _framework density 19.580691000000002
#
# number of rings (size 3 to 8) (size 9 to 14) (size 15 to 20)
#    0.000    0.923    7.692    0.000    0.000    2.462 
#    0.000    3.846    0.000    0.000    0.000    0.000 
#    0.000    0.000    0.000    0.000    0.000    0.000 
#
# Total GULP energy -72514.250451 kJ/mol
# GULP energy per Si atom -5578.019265 kJ/mol
# Density = 1.953612 g / cm^3
# Si number density = 19.580691 Si / 1000 Ang^3
#
#
#
# Elastic Constant Matrix: (Units=GPa)
#
#
# Indices 1 2 3 4 5 6 
#
# 1 50.8778 27.1756 29.5506 0.0000 18.8233 0.0000
# 2 27.1756 66.2793 10.8024 0.0000 -0.7818 0.0000
# 3 29.5506 10.8024 89.0533 0.0000 16.7167 0.0000
# 4 0.0000 0.0000 0.0000 22.8165 0.0000 -9.2023
# 5 18.8233 -0.7818 16.7167 0.0000 30.2541 0.0000
# 6 0.0000 0.0000 0.0000 -9.2023 0.0000 27.5042
#
#
#
# Elastic Compliance Matrix: (Units=1/GPa)
#
#
# Indices 1 2 3 4 5 6 
#
# 1 0.040105 -0.015481 -0.007443 0.000000 -0.021240 0.000000
# 2 -0.015481 0.021437 0.000697 0.000000 0.009801 0.000000
# 3 -0.007443 0.000697 0.014216 0.000000 -0.003206 0.000000
# 4 0.000000 0.000000 0.000000 0.050665 0.000000 0.016951
# 5 -0.021240 0.009801 -0.003206 0.000000 0.048293 0.000000
# 6 0.000000 0.000000 0.000000 0.016951 0.000000 0.042030
#
#
# Mechanical properties :
#
#
# Convention : Reuss Voigt Hill
#
# Bulk Modulus (GPa) = 31.94478 37.91860 34.93169
# Shear Modulus (GPa) = 18.40702 25.36042 21.88372
#
# Velocity S-wave (km/s) = 3.06937 3.60276 3.34671
# Velocity P-wave (km/s) = 5.37691 6.05919 5.72822
#
# Compressibility (1/GPa) = 0.03130402
#
# Stress axis : x y z
#
# Youngs Moduli (GPa) = 24.93445 46.64780 70.34126
#
# Poissons Ratio (x) = 0.72216 0.52356
# Poissons Ratio (y) = 0.38602 -0.04903
# Poissons Ratio (z) = 0.18559 -0.03251
#
# Static dielectric constant tensor:
#      x y z
#    x 1.714780 0.000000 0.004870 
#    y 0.000000 1.725340 0.000000 
#    z 0.004870 0.000000 1.698690 
# 
# From -- ./inp_files/43260.got.cif
#   From: 2010.05.17/outbox.cif.g08.bks.cpg/sg5_22_cif.got.tgz:43260.got - 2010.06.03 18:56:24.
