data_PCOD9128041
_publ_section_title
;
Structure prediction by ZEFSAII (Michael W. Deem and Ramdas Pophale) SiO2 
 PCOD9128041
Probable space group: C 2
;
_chemical_formula_sum "Si O2"
_cell_formula_units_Z 28
_cell_length_a 18.546332
_cell_length_b 5.032539
_cell_length_c 14.886810
_cell_angle_alpha 90.000000
_cell_angle_beta 65.662235
_cell_angle_gamma 90.000000
_cell_volume 1265.983508
_symmetry_space_group_name_H-M "C 2"
_symmetry_group_IT_number 5
_symmetry_cell_setting 'monoclinic'
loop_
_space_group_symop_operation_xyz
x,y,z
-x,y,-z
1/2+x,1/2+y,z
1/2-x,1/2+y,-z
loop_
_atom_site_type_symbol
_atom_site_label
_atom_site_fract_x
_atom_site_fract_y
_atom_site_fract_z
Si Si1 0.907157 0.733810 0.204832
Si Si2 0.005099 0.978891 0.302712
Si Si3 0.000000 0.028102 0.000000
Si Si4 0.773153 0.207452 0.754570
Si Si5 0.283707 0.008238 0.939378
Si Si6 0.050255 0.358245 0.133238
Si Si7 0.500000 0.473476 0.500000
Si Si8 0.126348 0.691390 0.339781
O O1 0.814943 0.692919 0.239629
O O2 0.962619 0.476365 0.186114
O O3 0.929804 0.905295 0.281437
O O4 0.944568 0.865135 0.095983
O O5 0.994075 0.113487 0.406151
O O6 0.059456 0.152705 0.209695
O O7 0.053915 0.713934 0.305535
O O8 0.946960 0.206872 0.962434
O O9 0.767964 0.352104 0.854495
O O10 0.812303 0.916983 0.725757
O O11 0.830861 0.413111 0.672898
O O12 0.377251 0.059566 0.902554
O O13 0.259103 0.787741 0.025862
O O14 0.579430 0.295579 0.451124
#
# Coordination Sequence:
#
# PCOD9128041 Si02
#       8
#     4   4   2   4   4   4   2   4
#     4  11  25  40  66  96 139 181 227 280 349 407
#     4   9  21  43  68  97 124 181 221 281 335 429
#     4  10  24  40  62  88 132 186 236 266 322 422
#     4  12  25  43  65 103 138 177 220 295 343 394
#     4  12  26  39  64  94 133 180 236 283 328 399
#     4  11  23  41  64  95 135 183 230 282 342 410
#     4   8  20  44  76 100 120 182 226 282 336 438
#     4  10  23  45  71  97 132 174 227 278 344 411
#
# _framework density 22.117191999999999
#
# number of rings (size 3 to 8) (size 9 to 14) (size 15 to 20)
#    0.857    0.571    1.429    3.000   12.000    0.571 
#    2.571    1.429    0.000    0.000    0.000    0.000 
#    0.000    0.000    0.000    0.000    0.000    0.000 
#
# Total GULP energy -78144.528456 kJ/mol
# GULP energy per Si atom -5581.752033 kJ/mol
# Density = 2.206685 g / cm^3
# Si number density = 22.117192 Si / 1000 Ang^3
#
#
#
# Elastic Constant Matrix: (Units=GPa)
#
#
# Indices 1 2 3 4 5 6 
#
# 1 129.5592 10.9766 31.6669 0.0001 -4.0608 0.0000
# 2 10.9766 68.6513 11.6252 0.0000 2.3303 -0.0005
# 3 31.6669 11.6252 103.2686 0.0000 15.1030 -0.0001
# 4 0.0001 0.0000 0.0000 9.5616 0.0000 -6.4271
# 5 -4.0608 2.3303 15.1030 0.0000 28.4489 -0.0002
# 6 0.0000 -0.0005 -0.0001 -6.4271 -0.0002 29.7790
#
#
#
# Elastic Compliance Matrix: (Units=1/GPa)
#
#
# Indices 1 2 3 4 5 6 
#
# 1 0.008613 -0.000975 -0.002952 0.000000 0.002876 0.000000
# 2 -0.000975 0.014963 -0.001286 0.000000 -0.000682 0.000000
# 3 -0.002952 -0.001286 0.011687 0.000000 -0.006520 0.000000
# 4 0.000000 0.000000 0.000000 0.122332 0.000000 0.026403
# 5 0.002876 -0.000682 -0.006520 0.000000 0.039079 0.000000
# 6 0.000000 0.000000 0.000000 0.026403 0.000000 0.039279
#
#
# Mechanical properties :
#
#
# Convention : Reuss Voigt Hill
#
# Bulk Modulus (GPa) = 40.26123 45.55739 42.90931
# Shear Modulus (GPa) = 19.63422 30.03860 24.83641
#
# Velocity S-wave (km/s) = 2.98272 3.68932 3.35467
# Velocity P-wave (km/s) = 5.48683 6.22824 5.86925
#
# Compressibility (1/GPa) = 0.02483779
#
# Stress axis : x y z
#
# Youngs Moduli (GPa) = 116.10695 66.83101 85.56474
#
# Poissons Ratio (x) = 0.06515 0.25259
# Poissons Ratio (y) = 0.11319 0.11001
# Poissons Ratio (z) = 0.34275 0.08593
#
# Static dielectric constant tensor:
#      x y z
#    x 1.805750 0.000000 0.013570 
#    y 0.000000 1.873590 0.000000 
#    z 0.013570 0.000000 1.869750 
# 
# From -- ./inp_files/55283.got.cif
#   From: 2010.05.17/outbox.cif.g08.bks.cpg/sg5_28_cif.got.tgz:55283.got - 2010.06.03 18:56:24.
