data_PCOD9128976
_publ_section_title
;
Structure prediction by ZEFSAII (Michael W. Deem and Ramdas Pophale) SiO2 
 PCOD9128976
Probable space group: C 2
;
_chemical_formula_sum "Si O2"
_cell_formula_units_Z 30
_cell_length_a 28.492796
_cell_length_b 9.643794
_cell_length_c 10.329266
_cell_angle_alpha 90.000000
_cell_angle_beta 31.852849
_cell_angle_gamma 90.000000
_cell_volume 1497.862882
_symmetry_space_group_name_H-M "C 2"
_symmetry_group_IT_number 5
_symmetry_cell_setting 'monoclinic'
loop_
_space_group_symop_operation_xyz
x,y,z
-x,y,-z
1/2+x,1/2+y,z
1/2-x,1/2+y,-z
loop_
_atom_site_type_symbol
_atom_site_label
_atom_site_fract_x
_atom_site_fract_y
_atom_site_fract_z
Si Si1 0.007978 0.223570 0.838221
Si Si2 0.979116 0.810590 0.198872
Si Si3 0.865241 0.024726 0.123743
Si Si4 0.245862 0.466338 0.156052
Si Si5 0.460138 0.998846 0.325062
Si Si6 0.201299 0.649345 0.015532
Si Si7 0.667851 0.538163 0.490511
Si Si8 0.500000 0.051433 0.500000
O O1 0.997516 0.386967 0.867569
O O2 0.104683 0.162003 0.580467
O O3 0.000000 0.159743 0.000000
O O4 0.926065 0.158888 0.955225
O O5 0.975246 0.660801 0.271586
O O6 0.887737 0.899975 0.419983
O O7 0.000000 0.786830 0.000000
O O8 0.062554 0.900488 0.051711
O O9 0.797790 0.007664 0.164707
O O10 0.827039 0.035012 0.362448
O O11 0.143464 0.468812 0.436445
O O12 0.276057 0.312235 0.043640
O O13 0.247356 0.572982 0.030998
O O14 0.495697 0.959984 0.382566
O O15 0.239521 0.569125 0.798544
O O16 0.094004 0.632968 0.277182
#
# Coordination Sequence:
#
# PCOD9128976 Si02
#       8
#     4   4   4   4   4   4   4   2
#     4   9  18  38  65  90 126 161 201 259 315 372
#     4   9  19  38  65  92 129 168 205 251 316 384
#     4   9  20  42  65  94 123 167 215 249 313 394
#     4  11  25  42  64  92 129 166 216 268 317 376
#     4  11  21  40  58  92 127 160 213 259 317 365
#     4  11  24  46  64  88 129 170 216 266 320 377
#     4   9  19  41  67  91 124 169 209 255 313 383
#     4  10  26  40  58  82 126 166 210 258 316 372
#
# _framework density 20.028535000000002
#
# number of rings (size 3 to 8) (size 9 to 14) (size 15 to 20)
#    0.000    2.133    1.333    2.800    3.733    2.133 
#    9.600    0.000    0.000    0.000    0.000    0.000 
#    0.000    0.000    0.000    0.000    0.000    0.000 
#
# Total GULP energy -83510.570267 kJ/mol
# GULP energy per Si atom -5567.371351 kJ/mol
# Density = 1.998295 g / cm^3
# Si number density = 20.028535 Si / 1000 Ang^3
#
#
#
# Elastic Constant Matrix: (Units=GPa)
#
#
# Indices 1 2 3 4 5 6 
#
# 1 153.8670 57.2592 39.3489 0.0000 -9.9795 0.0000
# 2 57.2592 105.7503 37.5865 0.0000 8.9625 0.0000
# 3 39.3489 37.5865 42.7460 0.0000 1.6339 0.0000
# 4 0.0000 0.0000 0.0000 12.7285 0.0000 11.4516
# 5 -9.9795 8.9625 1.6339 0.0000 17.4242 0.0000
# 6 0.0000 0.0000 0.0000 11.4516 0.0000 12.9214
#
#
#
# Elastic Compliance Matrix: (Units=1/GPa)
#
#
# Indices 1 2 3 4 5 6 
#
# 1 0.010096 -0.004018 -0.006082 0.000000 0.008420 0.000000
# 2 -0.004018 0.016001 -0.010004 0.000000 -0.009594 0.000000
# 3 -0.006082 -0.010004 0.037861 0.000000 -0.001888 0.000000
# 4 0.000000 0.000000 0.000000 0.387657 0.000000 -0.343559
# 5 0.008420 -0.009594 -0.001888 0.000000 0.067326 0.000000
# 6 0.000000 0.000000 0.000000 -0.343559 0.000000 0.381868
#
#
# Mechanical properties :
#
#
# Convention : Reuss Voigt Hill
#
# Bulk Modulus (GPa) = 42.10614 63.41695 52.76154
# Shear Modulus (GPa) = 5.26908 19.82607 12.54757
#
# Velocity S-wave (km/s) = 1.62373 3.14967 2.50568
# Velocity P-wave (km/s) = 4.95823 6.70516 5.89675
#
# Compressibility (1/GPa) = 0.02374951
#
# Stress axis : x y z
#
# Youngs Moduli (GPa) = 99.04936 62.49748 26.41237
#
# Poissons Ratio (x) = 0.25114 0.16064
# Poissons Ratio (y) = 0.39802 0.26422
# Poissons Ratio (z) = 0.60243 0.62520
#
# Static dielectric constant tensor:
#      x y z
#    x 1.712620 0.000000 0.008840 
#    y 0.000000 1.731300 0.000000 
#    z 0.008840 0.000000 1.759060 
# 
# From -- ./inp_files/48331.got.cif
#   From: 2010.05.17/outbox.cif.g08.bks.cpg/sg5_25_cif.got.tgz:48331.got - 2010.06.03 18:56:24.
