data_PCOD9128096
_publ_section_title
;
Structure prediction by ZEFSAII (Michael W. Deem and Ramdas Pophale) SiO2 
 PCOD9128096
Probable space group: C 2
;
_chemical_formula_sum "Si O2"
_cell_formula_units_Z 28
_cell_length_a 16.991962
_cell_length_b 5.411655
_cell_length_c 13.768918
_cell_angle_alpha 90.000000
_cell_angle_beta 56.873253
_cell_angle_gamma 90.000000
_cell_volume 1060.326050
_symmetry_space_group_name_H-M "C 2"
_symmetry_group_IT_number 5
_symmetry_cell_setting 'monoclinic'
loop_
_space_group_symop_operation_xyz
x,y,z
-x,y,-z
1/2+x,1/2+y,z
1/2-x,1/2+y,-z
loop_
_atom_site_type_symbol
_atom_site_label
_atom_site_fract_x
_atom_site_fract_y
_atom_site_fract_z
Si Si1 0.000000 0.337770 0.500000
Si Si2 0.500000 0.902858 0.000000
Si Si3 0.830791 0.763523 0.173809
Si Si4 0.157399 0.086902 0.651005
Si Si5 0.872319 0.588106 0.430102
Si Si6 0.881772 0.254795 0.909495
Si Si7 0.644203 0.515164 0.284568
Si Si8 0.793414 0.610192 0.861674
O O1 0.942201 0.508070 0.466512
O O2 0.933662 0.153787 0.604344
O O3 0.583749 0.085220 0.909308
O O4 0.459368 0.735540 0.939719
O O5 0.778830 0.891794 0.118090
O O6 0.852081 0.982619 0.234059
O O7 0.741964 0.602794 0.268475
O O8 0.109634 0.863557 0.621682
O O9 0.266270 0.084974 0.543906
O O10 0.120947 0.362493 0.652965
O O11 0.875894 0.084287 0.817277
O O12 0.883109 0.526492 0.861949
O O13 0.781115 0.275944 0.032107
O O14 0.662145 0.224962 0.264651
#
# Coordination Sequence:
#
# PCOD9128096 Si02
#       8
#     2   2   4   4   4   4   4   4
#     4  12  26  48  72 110 142 208 258 310 368 470
#     4  12  26  42  70 114 146 180 248 318 388 454
#     4  11  25  44  70 106 147 194 240 310 390 459
#     4  10  23  46  71 101 146 194 240 318 382 442
#     4  10  24  44  72 102 141 192 257 307 370 447
#     4  11  23  44  71 109 142 190 244 309 377 458
#     4  11  25  47  72 104 149 201 246 307 380 463
#     4  11  22  46  75  99 150 197 242 304 386 467
#
# _framework density 26.406969
#
# number of rings (size 3 to 8) (size 9 to 14) (size 15 to 20)
#    0.000    1.143    4.286    0.857    4.000    3.429 
#    2.571    0.000    0.000    0.000    0.000    0.000 
#    0.000    0.000    0.000    0.000    0.000    0.000 
#
# Total GULP energy -78320.622221 kJ/mol
# GULP energy per Si atom -5594.330159 kJ/mol
# Density = 2.634687 g / cm^3
# Si number density = 26.406969 Si / 1000 Ang^3
#
#
#
# Elastic Constant Matrix: (Units=GPa)
#
#
# Indices 1 2 3 4 5 6 
#
# 1 151.2268 27.1542 43.5979 -0.0007 12.6020 -0.0001
# 2 27.1542 62.6783 11.2865 -0.0002 -8.7907 0.0022
# 3 43.5979 11.2865 66.0158 -0.0013 -4.4290 0.0003
# 4 -0.0007 -0.0002 -0.0013 31.5294 0.0005 0.3029
# 5 12.6020 -8.7907 -4.4290 0.0005 34.1112 -0.0003
# 6 -0.0001 0.0022 0.0003 0.3029 -0.0003 39.9579
#
#
#
# Elastic Compliance Matrix: (Units=1/GPa)
#
#
# Indices 1 2 3 4 5 6 
#
# 1 0.009433 -0.003750 -0.005939 0.000000 -0.005223 0.000000
# 2 -0.003750 0.018486 -0.000274 0.000000 0.006114 -0.000001
# 3 -0.005939 -0.000274 0.019429 0.000001 0.004646 0.000000
# 4 0.000000 0.000000 0.000001 0.031719 0.000000 -0.000240
# 5 -0.005223 0.006114 0.004646 0.000000 0.033424 0.000000
# 6 0.000000 -0.000001 0.000000 -0.000240 0.000000 0.025028
#
#
# Mechanical properties :
#
#
# Convention : Reuss Voigt Hill
#
# Bulk Modulus (GPa) = 36.46685 49.33312 42.89999
# Shear Modulus (GPa) = 30.01462 34.31185 32.16324
#
# Velocity S-wave (km/s) = 3.37503 3.60856 3.49375
# Velocity P-wave (km/s) = 5.38770 6.00705 5.70579
#
# Compressibility (1/GPa) = 0.02742216
#
# Stress axis : x y z
#
# Youngs Moduli (GPa) = 106.00688 54.09558 51.47004
#
# Poissons Ratio (x) = 0.20285 0.30569
# Poissons Ratio (y) = 0.39751 0.01409
# Poissons Ratio (z) = 0.62960 0.01481
#
# Static dielectric constant tensor:
#      x y z
#    x 2.016510 0.000000 0.050000 
#    y 0.000000 2.255230 0.000000 
#    z 0.050000 0.000000 2.336820 
# 
# From -- ./inp_files/55424.got.cif
#   From: 2010.05.17/outbox.cif.g08.bks.cpg/sg5_28_cif.got.tgz:55424.got - 2010.06.03 18:56:24.
