data_PCOD9128645
_publ_section_title
;
Structure prediction by ZEFSAII (Michael W. Deem and Ramdas Pophale) SiO2 
 PCOD9128645
Probable space group: C 2
;
_chemical_formula_sum "Si O2"
_cell_formula_units_Z 20
_cell_length_a 13.699951
_cell_length_b 8.108275
_cell_length_c 7.415156
_cell_angle_alpha 90.000000
_cell_angle_beta 105.213076
_cell_angle_gamma 90.000000
_cell_volume 794.832417
_symmetry_space_group_name_H-M "C 2"
_symmetry_group_IT_number 5
_symmetry_cell_setting 'monoclinic'
loop_
_space_group_symop_operation_xyz
x,y,z
-x,y,-z
1/2+x,1/2+y,z
1/2-x,1/2+y,-z
loop_
_atom_site_type_symbol
_atom_site_label
_atom_site_fract_x
_atom_site_fract_y
_atom_site_fract_z
Si Si1 0.108311 0.389980 0.741992
Si Si2 0.688772 0.572818 0.593103
Si Si3 0.500000 0.165210 0.500000
Si Si4 0.671113 0.459923 0.977886
Si Si5 0.126159 0.803689 0.283786
Si Si6 0.000000 0.231589 0.000000
O O1 0.121960 0.231860 0.617150
O O2 0.086050 0.544536 0.608787
O O3 0.212566 0.434740 0.897965
O O4 0.015764 0.348600 0.833680
O O5 0.798386 0.654572 0.641147
O O6 0.667161 0.469803 0.403084
O O7 0.676671 0.460520 0.765874
O O8 0.525469 0.274932 0.342414
O O9 0.619001 0.316549 0.067158
O O10 0.600717 0.615477 0.014820
#
# Coordination Sequence:
#
# PCOD9128645 Si02
#       6
#     4   4   2   4   4   2
#     4  10  25  47  71 107 145 192 248 304 371 445
#     4  10  24  47  74 103 141 192 241 304 375 433
#     4  12  28  42  68 114 144 196 246 296 376 444
#     4  10  24  47  73 108 141 192 246 304 371 442
#     4  11  25  44  71 108 143 189 240 306 367 446
#     4  10  24  46  78 102 142 204 234 318 378 432
#
# _framework density 25.162537
#
# number of rings (size 3 to 8) (size 9 to 14) (size 15 to 20)
#    0.000    1.600    0.000    2.400   11.200    9.600 
#    0.000    0.000    0.000    0.000    0.000    0.000 
#    0.000    0.000    0.000    0.000    0.000    0.000 
#
# Total GULP energy -55807.470971 kJ/mol
# GULP energy per Si atom -5580.747097 kJ/mol
# Density = 2.510527 g / cm^3
# Si number density = 25.162537 Si / 1000 Ang^3
#
#
#
# Elastic Constant Matrix: (Units=GPa)
#
#
# Indices 1 2 3 4 5 6 
#
# 1 73.3772 16.9404 23.7168 0.0000 -11.1148 0.0000
# 2 16.9404 57.1482 14.2288 0.0000 -2.6591 0.0000
# 3 23.7168 14.2288 115.3091 0.0000 -26.7172 0.0000
# 4 0.0000 0.0000 0.0000 33.5439 0.0000 -10.3659
# 5 -11.1148 -2.6591 -26.7172 0.0000 48.0694 0.0000
# 6 0.0000 0.0000 0.0000 -10.3659 0.0000 27.9142
#
#
#
# Elastic Compliance Matrix: (Units=1/GPa)
#
#
# Indices 1 2 3 4 5 6 
#
# 1 0.015587 -0.003968 -0.002218 0.000000 0.002152 0.000000
# 2 -0.003968 0.019066 -0.001727 0.000000 -0.000823 0.000000
# 3 -0.002218 -0.001727 0.010561 0.000000 0.005261 0.000000
# 4 0.000000 0.000000 0.000000 0.033676 0.000000 0.012506
# 5 0.002152 -0.000823 0.005261 0.000000 0.024180 0.000000
# 6 0.000000 0.000000 0.000000 0.012506 0.000000 0.040468
#
#
# Mechanical properties :
#
#
# Convention : Reuss Voigt Hill
#
# Bulk Modulus (GPa) = 34.02744 39.51182 36.76963
# Shear Modulus (GPa) = 29.55779 34.63542 32.09660
#
# Velocity S-wave (km/s) = 3.43107 3.71410 3.57539
# Velocity P-wave (km/s) = 5.40821 5.84204 5.62931
#
# Compressibility (1/GPa) = 0.02938804
#
# Stress axis : x y z
#
# Youngs Moduli (GPa) = 64.15557 52.44822 94.69103
#
# Poissons Ratio (x) = 0.20812 0.20999
# Poissons Ratio (y) = 0.25458 0.16355
# Poissons Ratio (z) = 0.14228 0.09059
#
# Static dielectric constant tensor:
#      x y z
#    x 2.082630 0.000000 0.007910 
#    y 0.000000 2.010680 0.000000 
#    z 0.007910 0.000000 1.966600 
# 
# From -- ./inp_files/25839.got.cif
#   From: 2010.05.17/outbox.cif.g08.bks.cpg/sg5_13_cif.got.tgz:25839.got - 2010.06.03 18:56:24.
