data_PCOD9128308
_publ_section_title
;
Structure prediction by ZEFSAII (Michael W. Deem and Ramdas Pophale) SiO2 
 PCOD9128308
Probable space group: C 2
;
_chemical_formula_sum "Si O2"
_cell_formula_units_Z 28
_cell_length_a 8.774125
_cell_length_b 13.939247
_cell_length_c 12.741412
_cell_angle_alpha 90.000000
_cell_angle_beta 121.792773
_cell_angle_gamma 90.000000
_cell_volume 1324.520686
_symmetry_space_group_name_H-M "C 2"
_symmetry_group_IT_number 5
_symmetry_cell_setting 'monoclinic'
loop_
_space_group_symop_operation_xyz
x,y,z
-x,y,-z
1/2+x,1/2+y,z
1/2-x,1/2+y,-z
loop_
_atom_site_type_symbol
_atom_site_label
_atom_site_fract_x
_atom_site_fract_y
_atom_site_fract_z
Si Si1 0.890255 0.826200 0.320719
Si Si2 0.738083 0.885542 0.480799
Si Si3 0.192755 0.822916 0.099725
Si Si4 0.746753 0.627387 0.196282
Si Si5 0.831230 0.133835 0.073630
Si Si6 0.706038 0.933519 0.065474
Si Si7 0.338465 0.937218 0.329421
O O1 0.808319 0.890322 0.386732
O O2 0.804763 0.720975 0.281799
O O3 0.828095 0.878910 0.193002
O O4 0.104390 0.816515 0.416685
O O5 0.523058 0.875280 0.393764
O O6 0.730152 0.959379 0.577520
O O7 0.324417 0.734229 0.131237
O O8 0.201753 0.871715 0.215210
O O9 0.233940 0.905381 0.029700
O O10 0.000000 0.782778 0.000000
O O11 0.538367 0.603244 0.141024
O O12 0.861223 0.536143 0.274933
O O13 0.750187 0.648130 0.072845
O O14 0.725867 0.046889 0.088281
O O15 0.500000 0.902155 0.000000
#
# Coordination Sequence:
#
# PCOD9128308 Si02
#       7
#     4   4   4   4   4   4   4
#     4  11  23  43  66  93 128 175 219 271 318 391
#     4  10  24  42  62  88 124 172 226 256 314 372
#     4  12  23  40  66  97 135 169 212 275 335 390
#     4  11  22  39  69  95 132 170 220 267 327 405
#     4  11  23  38  61 108 133 167 210 267 345 397
#     4  12  23  40  66  97 135 169 212 275 335 390
#     4  11  23  43  66  93 128 175 219 271 318 391
#
# _framework density 21.139721999999999
#
# number of rings (size 3 to 8) (size 9 to 14) (size 15 to 20)
#    0.000    0.857    2.857    5.571    0.000    2.286 
#    0.000    2.857    0.000    6.857    0.000    0.000 
#    0.000    0.000    0.000    0.000    0.000    0.000 
#
# Total GULP energy -78007.282523 kJ/mol
# GULP energy per Si atom -5571.948752 kJ/mol
# Density = 2.109161 g / cm^3
# Si number density = 21.139722 Si / 1000 Ang^3
#
#
#
# Elastic Constant Matrix: (Units=GPa)
#
#
# Indices 1 2 3 4 5 6 
#
# 1 71.8738 7.2440 35.9626 0.0000 10.1586 0.0000
# 2 7.2440 75.3409 27.2544 0.0000 -4.3286 0.0000
# 3 35.9626 27.2544 109.1706 0.0000 0.6675 0.0000
# 4 0.0000 0.0000 0.0000 3.9744 0.0000 -1.2921
# 5 10.1586 -4.3286 0.6675 0.0000 40.5708 0.0000
# 6 0.0000 0.0000 0.0000 -1.2921 0.0000 24.4334
#
#
#
# Elastic Compliance Matrix: (Units=1/GPa)
#
#
# Indices 1 2 3 4 5 6 
#
# 1 0.017365 0.000161 -0.005735 0.000000 -0.004237 0.000000
# 2 0.000161 0.014699 -0.003733 0.000000 0.001589 0.000000
# 3 -0.005735 -0.003733 0.011976 0.000000 0.000841 0.000000
# 4 0.000000 0.000000 0.000000 0.256012 0.000000 0.013539
# 5 -0.004237 0.001589 0.000841 0.000000 0.025865 0.000000
# 6 0.000000 0.000000 0.000000 0.013539 0.000000 0.041643
#
#
# Mechanical properties :
#
#
# Convention : Reuss Voigt Hill
#
# Bulk Modulus (GPa) = 39.32616 44.14527 41.73571
# Shear Modulus (GPa) = 12.66951 26.19068 19.43010
#
# Velocity S-wave (km/s) = 2.45076 3.52367 3.03500
# Velocity P-wave (km/s) = 5.16253 6.12233 5.66280
#
# Compressibility (1/GPa) = 0.02542837
#
# Stress axis : x y z
#
# Youngs Moduli (GPa) = 57.58636 68.03180 83.50179
#
# Poissons Ratio (x) = -0.01099 0.47887
# Poissons Ratio (y) = -0.00930 0.31167
# Poissons Ratio (z) = 0.33025 0.25393
#
# Static dielectric constant tensor:
#      x y z
#    x 1.791980 0.000000 -0.007180 
#    y 0.000000 1.708350 0.000000 
#    z -0.007180 0.000000 1.776190 
# 
# From -- ./inp_files/36477.got.cif
#   From: 2010.05.17/outbox.cif.g08.bks.cpg/sg5_19_cif.got.tgz:36477.got - 2010.06.03 18:56:24.
