data_PCOD9128064
_publ_section_title
;
Structure prediction by ZEFSAII (Michael W. Deem and Ramdas Pophale) SiO2 
 PCOD9128064
Probable space group: C 2
;
_chemical_formula_sum "Si O2"
_cell_formula_units_Z 28
_cell_length_a 32.154736
_cell_length_b 7.748650
_cell_length_c 5.706562
_cell_angle_alpha 90.000000
_cell_angle_beta 56.522861
_cell_angle_gamma 90.000000
_cell_volume 1185.951058
_symmetry_space_group_name_H-M "C 2"
_symmetry_group_IT_number 5
_symmetry_cell_setting 'monoclinic'
loop_
_space_group_symop_operation_xyz
x,y,z
-x,y,-z
1/2+x,1/2+y,z
1/2-x,1/2+y,-z
loop_
_atom_site_type_symbol
_atom_site_label
_atom_site_fract_x
_atom_site_fract_y
_atom_site_fract_z
Si Si1 0.684068 0.773060 0.231490
Si Si2 0.191120 0.125278 0.662147
Si Si3 0.025504 0.914109 0.168874
Si Si4 0.128181 0.428394 0.047694
Si Si5 0.279495 0.126545 0.655905
Si Si6 0.138102 0.798787 0.877370
Si Si7 0.025025 0.332007 0.170914
O O1 0.674106 0.623960 0.448640
O O2 0.703957 0.951203 0.277933
O O3 0.630684 0.828210 0.285614
O O4 0.733389 0.707725 0.940785
O O5 0.172153 0.313838 0.798030
O O6 0.249920 0.101846 0.501039
O O7 0.163928 0.973733 0.888409
O O8 0.000000 0.863822 0.500000
O O9 0.026848 0.123317 0.163416
O O10 0.081494 0.842615 0.995840
O O11 0.000000 0.860990 0.000000
O O12 0.138844 0.629792 0.038525
O O13 0.080677 0.403200 0.032676
O O14 0.327397 0.239956 0.447869
O O15 0.000000 0.382848 0.500000
O O16 0.000000 0.386205 0.000000
#
# Coordination Sequence:
#
# PCOD9128064 Si02
#       7
#     4   4   4   4   4   4   4
#     4  11  25  44  70 103 153 193 261 313 382 468
#     4  11  24  47  66  99 154 188 247 312 377 461
#     4  10  24  47  72 110 148 195 258 316 390 471
#     4  11  26  44  68 108 138 196 253 310 384 468
#     4  11  25  41  69 105 144 201 249 310 383 459
#     4  12  25  44  76 103 146 198 245 318 386 452
#     4  10  23  45  77 104 148 199 252 326 396 464
#
# _framework density 23.609743999999999
#
# number of rings (size 3 to 8) (size 9 to 14) (size 15 to 20)
#    0.000    1.143    2.857    1.714    8.000    3.429 
#    0.000    0.000    0.000    0.000    0.000    0.000 
#    0.000    0.000    0.000    0.000    0.000    0.000 
#
# Total GULP energy -78046.911074 kJ/mol
# GULP energy per Si atom -5574.779362 kJ/mol
# Density = 2.355601 g / cm^3
# Si number density = 23.609744 Si / 1000 Ang^3
#
#
#
# Elastic Constant Matrix: (Units=GPa)
#
#
# Indices 1 2 3 4 5 6 
#
# 1 142.5554 38.5009 37.8103 0.0000 -1.2067 0.0000
# 2 38.5009 85.0168 20.7421 0.0000 0.1972 0.0000
# 3 37.8103 20.7421 37.8390 0.0000 2.5388 0.0000
# 4 0.0000 0.0000 0.0000 19.5693 0.0000 -6.4496
# 5 -1.2067 0.1972 2.5388 0.0000 37.2972 0.0000
# 6 0.0000 0.0000 0.0000 -6.4496 0.0000 11.7980
#
#
#
# Elastic Compliance Matrix: (Units=1/GPa)
#
#
# Indices 1 2 3 4 5 6 
#
# 1 0.009984 -0.002394 -0.008726 0.000000 0.000930 0.000000
# 2 -0.002394 0.014160 -0.005384 0.000000 0.000214 0.000000
# 3 -0.008726 -0.005384 0.038290 0.000000 -0.002860 0.000000
# 4 0.000000 0.000000 0.000000 0.062331 0.000000 0.034074
# 5 0.000930 0.000214 -0.002860 0.000000 0.027035 0.000000
# 6 0.000000 0.000000 0.000000 0.034074 0.000000 0.103388
#
#
# Mechanical properties :
#
#
# Convention : Reuss Voigt Hill
#
# Bulk Modulus (GPa) = 33.98414 51.05753 42.52083
# Shear Modulus (GPa) = 16.77831 24.95675 20.86753
#
# Velocity S-wave (km/s) = 2.66870 3.25476 2.97619
# Velocity P-wave (km/s) = 4.89094 5.98308 5.46436
#
# Compressibility (1/GPa) = 0.02942549
#
# Stress axis : x y z
#
# Youngs Moduli (GPa) = 100.16228 70.62275 26.11635
#
# Poissons Ratio (x) = 0.16911 0.22789
# Poissons Ratio (y) = 0.23984 0.14060
# Poissons Ratio (z) = 0.87402 0.38021
#
# Static dielectric constant tensor:
#      x y z
#    x 2.062620 0.000000 0.291960 
#    y 0.000000 1.882200 0.000000 
#    z 0.291960 0.000000 2.217950 
# 
# From -- ./inp_files/11198.got.cif
#   From: 2010.05.17/outbox.cif.g08.bks.cpg/sg5_6_cif.got.tgz:11198.got - 2010.06.03 18:56:24.
