data_PCOD9128589
_publ_section_title
;
Structure prediction by ZEFSAII (Michael W. Deem and Ramdas Pophale) SiO2 
 PCOD9128589
Probable space group: C 2
;
_chemical_formula_sum "Si O2"
_cell_formula_units_Z 20
_cell_length_a 14.244084
_cell_length_b 5.112313
_cell_length_c 16.716118
_cell_angle_alpha 90.000000
_cell_angle_beta 141.495223
_cell_angle_gamma 90.000000
_cell_volume 757.848637
_symmetry_space_group_name_H-M "C 2"
_symmetry_group_IT_number 5
_symmetry_cell_setting 'monoclinic'
loop_
_space_group_symop_operation_xyz
x,y,z
-x,y,-z
1/2+x,1/2+y,z
1/2-x,1/2+y,-z
loop_
_atom_site_type_symbol
_atom_site_label
_atom_site_fract_x
_atom_site_fract_y
_atom_site_fract_z
Si Si1 0.777488 0.744440 0.935930
Si Si2 0.048731 0.655819 0.797942
Si Si3 0.500000 0.848368 0.500000
Si Si4 0.729511 0.604759 0.538283
Si Si5 0.000000 0.379411 0.000000
Si Si6 0.772716 0.634270 0.233958
O O1 0.870697 0.493452 0.971638
O O2 0.608629 0.854442 0.836446
O O3 0.808368 0.917567 0.876960
O O4 0.861558 0.814510 0.074766
O O5 0.872599 0.672816 0.688741
O O6 0.104220 0.754316 0.746917
O O7 0.578782 0.670312 0.485500
O O8 0.370844 0.020965 0.371163
O O9 0.753037 0.311815 0.522655
O O10 0.877453 0.293769 0.848854
#
# Coordination Sequence:
#
# PCOD9128589 Si02
#       6
#     4   4   2   4   2   4
#     4  10  24  46  69 117 148 209 271 341 415 490
#     4  10  24  48  77 108 161 207 277 339 417 483
#     4  12  28  56  84 120 174 218 290 336 436 506
#     4  12  29  56  83 122 170 228 280 349 418 514
#     4  12  24  44  80 114 164 198 284 342 424 490
#     4  10  26  49  72 120 153 216 265 348 408 502
#
# _framework density 26.390495000000001
#
# number of rings (size 3 to 8) (size 9 to 14) (size 15 to 20)
#    1.200    0.000    2.000    1.800    5.600    8.800 
#    0.000    0.000    0.000    0.000    0.000    0.000 
#    0.000    0.000    0.000    0.000    0.000    0.000 
#
# Total GULP energy -55670.263368 kJ/mol
# GULP energy per Si atom -5567.026337 kJ/mol
# Density = 2.633043 g / cm^3
# Si number density = 26.390495 Si / 1000 Ang^3
#
#
#
# Elastic Constant Matrix: (Units=GPa)
#
#
# Indices 1 2 3 4 5 6 
#
# 1 96.4025 20.4466 34.9642 0.0000 -2.2824 0.0000
# 2 20.4466 22.6742 22.9551 0.0005 9.3936 0.0006
# 3 34.9642 22.9551 138.0328 -0.0001 6.1293 0.0000
# 4 0.0000 0.0005 -0.0001 44.3627 0.0000 -6.8210
# 5 -2.2824 9.3936 6.1293 0.0000 47.2844 0.0000
# 6 0.0000 0.0006 0.0000 -6.8210 0.0000 22.1855
#
#
#
# Elastic Compliance Matrix: (Units=1/GPa)
#
#
# Indices 1 2 3 4 5 6 
#
# 1 0.013564 -0.011963 -0.001590 0.000000 0.003237 0.000000
# 2 -0.011963 0.068137 -0.007719 -0.000001 -0.013113 -0.000002
# 3 -0.001590 -0.007719 0.008918 0.000000 0.000301 0.000000
# 4 0.000000 -0.000001 0.000000 0.023660 0.000000 0.007274
# 5 0.003237 -0.013113 0.000301 0.000000 0.023871 0.000000
# 6 0.000000 -0.000002 0.000000 0.007274 0.000000 0.047311
#
#
# Mechanical properties :
#
#
# Convention : Reuss Voigt Hill
#
# Bulk Modulus (GPa) = 20.80054 45.98239 33.39147
# Shear Modulus (GPa) = 20.48935 34.68277 27.58606
#
# Velocity S-wave (km/s) = 2.78940 3.62914 3.23662
# Velocity P-wave (km/s) = 4.27473 5.91799 5.16216
#
# Compressibility (1/GPa) = 0.04807567
#
# Stress axis : x y z
#
# Youngs Moduli (GPa) = 73.72586 14.67623 112.13596
#
# Poissons Ratio (x) = 0.17557 0.17831
# Poissons Ratio (y) = 0.88195 0.86557
# Poissons Ratio (z) = 0.11723 0.11328
#
# Static dielectric constant tensor:
#      x y z
#    x 2.147580 0.000000 -0.133240 
#    y 0.000000 2.404950 0.000000 
#    z -0.133240 0.000000 2.024030 
# 
# From -- ./inp_files/65592.got.cif
#   From: 2010.05.17/outbox.cif.g08.bks.cpg/sg5_33_cif.got.tgz:65592.got - 2010.06.03 18:56:24.
