data_PCOD9128046
_publ_section_title
;
Structure prediction by ZEFSAII (Michael W. Deem and Ramdas Pophale) SiO2 
 PCOD9128046
Probable space group: C 2
;
_chemical_formula_sum "Si O2"
_cell_formula_units_Z 18
_cell_length_a 6.807297
_cell_length_b 12.423477
_cell_length_c 8.550396
_cell_angle_alpha 90.000000
_cell_angle_beta 69.208521
_cell_angle_gamma 90.000000
_cell_volume 676.019541
_symmetry_space_group_name_H-M "C 2"
_symmetry_group_IT_number 5
_symmetry_cell_setting 'monoclinic'
loop_
_space_group_symop_operation_xyz
x,y,z
-x,y,-z
1/2+x,1/2+y,z
1/2-x,1/2+y,-z
loop_
_atom_site_type_symbol
_atom_site_label
_atom_site_fract_x
_atom_site_fract_y
_atom_site_fract_z
Si Si1 0.258563 0.366490 0.420997
Si Si2 0.500000 0.186508 0.500000
Si Si3 0.275497 0.040383 0.809110
Si Si4 0.743648 0.235952 0.974711
Si Si5 0.107592 0.371425 0.779991
O O1 0.367387 0.250989 0.405531
O O2 0.334614 0.443131 0.258358
O O3 0.280183 0.396004 0.599681
O O4 0.000000 0.370511 0.500000
O O5 0.342619 0.116343 0.646781
O O6 0.205109 0.119018 0.967830
O O7 0.476016 0.979758 0.825279
O O8 0.779140 0.324604 0.100919
O O9 0.500000 0.237178 0.000000
O O10 0.925873 0.277038 0.803973
#
# Coordination Sequence:
#
# PCOD9128046 Si02
#       5
#     4   2   4   4   4
#     4  10  23  45  72 106 143 177 249 303 343 434
#     4  12  22  46  76 104 144 188 238 298 372 414
#     4  11  24  47  73 106 146 192 232 310 363 419
#     4  11  26  46  71 101 152 196 231 291 373 433
#     4  10  23  48  67 106 144 182 247 297 342 444
#
# _framework density 26.626449999999998
#
# number of rings (size 3 to 8) (size 9 to 14) (size 15 to 20)
#    0.000    1.333    5.556    0.000    9.333    0.000 
#    6.000   11.111    0.000    0.000    0.000    0.000 
#    0.000    0.000    0.000    0.000    0.000    0.000 
#
# Total GULP energy -50154.652043 kJ/mol
# GULP energy per Si atom -5572.739116 kJ/mol
# Density = 2.656585 g / cm^3
# Si number density = 26.626450 Si / 1000 Ang^3
#
#
#
# Elastic Constant Matrix: (Units=GPa)
#
#
# Indices 1 2 3 4 5 6 
#
# 1 156.3813 48.2358 21.3917 0.0000 15.3095 0.0000
# 2 48.2358 131.0316 39.7516 0.0000 -4.4128 0.0000
# 3 21.3917 39.7516 96.5324 0.0000 4.3492 0.0000
# 4 0.0000 0.0000 0.0000 68.4607 0.0000 15.0530
# 5 15.3095 -4.4128 4.3492 0.0000 46.4575 0.0000
# 6 0.0000 0.0000 0.0000 15.0530 0.0000 37.5164
#
#
#
# Elastic Compliance Matrix: (Units=1/GPa)
#
#
# Indices 1 2 3 4 5 6 
#
# 1 0.007566 -0.002748 -0.000423 0.000000 -0.002715 0.000000
# 2 -0.002748 0.009783 -0.003517 0.000000 0.002164 0.000000
# 3 -0.000423 -0.003517 0.011960 0.000000 -0.001315 0.000000
# 4 0.000000 0.000000 0.000000 0.016020 0.000000 -0.006428
# 5 -0.002715 0.002164 -0.001315 0.000000 0.022748 0.000000
# 6 0.000000 0.000000 0.000000 -0.006428 0.000000 0.029234
#
#
# Mechanical properties :
#
#
# Convention : Reuss Voigt Hill
#
# Bulk Modulus (GPa) = 62.76098 66.96706 64.86402
# Shear Modulus (GPa) = 43.10339 48.79132 45.94736
#
# Velocity S-wave (km/s) = 4.02782 4.28534 4.15857
# Velocity P-wave (km/s) = 6.72705 7.04916 6.88999
#
# Compressibility (1/GPa) = 0.01593347
#
# Stress axis : x y z
#
# Youngs Moduli (GPa) = 132.17095 102.21359 83.60888
#
# Poissons Ratio (x) = 0.28093 0.03533
# Poissons Ratio (y) = 0.36327 0.29407
# Poissons Ratio (z) = 0.05584 0.35951
#
# Static dielectric constant tensor:
#      x y z
#    x 2.260640 0.000000 0.022130 
#    y 0.000000 2.101900 0.000000 
#    z 0.022130 0.000000 2.425150 
# 
# From -- ./inp_files/13969.got.cif
#   From: 2010.05.17/outbox.cif.g08.bks.cpg/sg5_7_cif.got.tgz:13969.got - 2010.06.03 18:56:24.
