data_PCOD9128218
_publ_section_title
;
Structure prediction by ZEFSAII (Michael W. Deem and Ramdas Pophale) SiO2 
 PCOD9128218
Probable space group: C 2
;
_chemical_formula_sum "Si O2"
_cell_formula_units_Z 26
_cell_length_a 10.492251
_cell_length_b 15.479323
_cell_length_c 9.027871
_cell_angle_alpha 90.000000
_cell_angle_beta 68.321971
_cell_angle_gamma 90.000000
_cell_volume 1362.542005
_symmetry_space_group_name_H-M "C 2"
_symmetry_group_IT_number 5
_symmetry_cell_setting 'monoclinic'
loop_
_space_group_symop_operation_xyz
x,y,z
-x,y,-z
1/2+x,1/2+y,z
1/2-x,1/2+y,-z
loop_
_atom_site_type_symbol
_atom_site_label
_atom_site_fract_x
_atom_site_fract_y
_atom_site_fract_z
Si Si1 0.146287 0.295660 0.523401
Si Si2 0.243661 0.550407 0.091984
Si Si3 0.385992 0.708547 0.161346
Si Si4 0.500000 0.089823 0.000000
Si Si5 0.456461 0.549331 0.757504
Si Si6 0.758375 0.984123 0.412875
Si Si7 0.785586 0.627561 0.335416
O O1 0.148646 0.277295 0.698926
O O2 0.201486 0.391304 0.476399
O O3 0.240512 0.220072 0.415000
O O4 0.000000 0.287856 0.500000
O O5 0.272770 0.652801 0.118198
O O6 0.230874 0.503417 0.252555
O O7 0.110323 0.538577 0.049692
O O8 0.372494 0.518949 0.938180
O O9 0.459041 0.632656 0.224205
O O10 0.500000 0.743146 0.000000
O O11 0.406996 0.137036 0.163697
O O12 0.575327 0.488505 0.644111
O O13 0.343430 0.583061 0.692452
O O14 0.689650 0.060001 0.541333
#
# Coordination Sequence:
#
# PCOD9128218 Si02
#       7
#     4   4   4   2   4   4   4
#     4  12  23  39  64  97 127 165 211 260 317 378
#     4   9  19  38  65  89 123 166 214 259 314 371
#     4   9  17  36  65  92 114 158 217 255 304 374
#     4  10  24  38  62  90 126 182 202 256 324 364
#     4   9  17  39  68  87 114 167 213 255 310 373
#     4  11  22  36  66  95 122 161 216 266 309 370
#     4  11  21  43  64  84 131 167 214 256 313 384
#
# _framework density 19.081979
#
# number of rings (size 3 to 8) (size 9 to 14) (size 15 to 20)
#    0.000    1.846    4.615    1.846    2.154    0.000 
#    4.154    3.077    0.000    0.000    0.000    0.000 
#    0.000    0.000    0.000    0.000    0.000    0.000 
#
# Total GULP energy -72451.837542 kJ/mol
# GULP energy per Si atom -5573.218272 kJ/mol
# Density = 1.903855 g / cm^3
# Si number density = 19.081979 Si / 1000 Ang^3
#
#
#
# Elastic Constant Matrix: (Units=GPa)
#
#
# Indices 1 2 3 4 5 6 
#
# 1 67.3310 19.1799 22.6277 0.0000 -6.9267 0.0000
# 2 19.1799 103.6049 60.2290 0.0000 -21.8907 0.0000
# 3 22.6277 60.2290 132.2731 0.0000 -17.9876 0.0000
# 4 0.0000 0.0000 0.0000 23.9468 0.0000 -7.8649
# 5 -6.9267 -21.8907 -17.9876 0.0000 31.2136 0.0000
# 6 0.0000 0.0000 0.0000 -7.8649 0.0000 15.4569
#
#
#
# Elastic Compliance Matrix: (Units=1/GPa)
#
#
# Indices 1 2 3 4 5 6 
#
# 1 0.016069 -0.001625 -0.001822 0.000000 0.001376 0.000000
# 2 -0.001625 0.014521 -0.005423 0.000000 0.006698 0.000000
# 3 -0.001822 -0.005423 0.010600 0.000000 0.001901 0.000000
# 4 0.000000 0.000000 0.000000 0.050138 0.000000 0.025512
# 5 0.001376 0.006698 0.001901 0.000000 0.038135 0.000000
# 6 0.000000 0.000000 0.000000 0.025512 0.000000 0.077677
#
#
# Mechanical properties :
#
#
# Convention : Reuss Voigt Hill
#
# Bulk Modulus (GPa) = 42.64467 56.36468 49.50468
# Shear Modulus (GPa) = 21.48734 27.53498 24.51116
#
# Velocity S-wave (km/s) = 3.35931 3.80278 3.58791
# Velocity P-wave (km/s) = 6.11909 6.99170 6.56990
#
# Compressibility (1/GPa) = 0.02344959
#
# Stress axis : x y z
#
# Youngs Moduli (GPa) = 62.23281 68.86759 94.34365
#
# Poissons Ratio (x) = 0.11190 0.17188
# Poissons Ratio (y) = 0.10112 0.51163
# Poissons Ratio (z) = 0.11338 0.37347
#
# Static dielectric constant tensor:
#      x y z
#    x 1.709580 0.000000 0.001740 
#    y 0.000000 1.645660 0.000000 
#    z 0.001740 0.000000 1.740830 
# 
# From -- ./inp_files/19983.got.cif
#   From: 2010.05.17/outbox.cif.g08.bks.cpg/sg5_10_cif.got.tgz:19983.got - 2010.06.03 18:56:24.
