data_PCOD9128695
_publ_section_title
;
Structure prediction by ZEFSAII (Michael W. Deem and Ramdas Pophale) SiO2 
 PCOD9128695
Probable space group: C 2
;
_chemical_formula_sum "Si O2"
_cell_formula_units_Z 28
_cell_length_a 13.045793
_cell_length_b 21.910890
_cell_length_c 7.858590
_cell_angle_alpha 90.000000
_cell_angle_beta 145.283945
_cell_angle_gamma 90.000000
_cell_volume 1279.311762
_symmetry_space_group_name_H-M "C 2"
_symmetry_group_IT_number 5
_symmetry_cell_setting 'monoclinic'
loop_
_space_group_symop_operation_xyz
x,y,z
-x,y,-z
1/2+x,1/2+y,z
1/2-x,1/2+y,-z
loop_
_atom_site_type_symbol
_atom_site_label
_atom_site_fract_x
_atom_site_fract_y
_atom_site_fract_z
Si Si1 0.500000 0.175560 0.500000
Si Si2 0.000000 0.216237 0.500000
Si Si3 0.886523 0.104972 0.580151
Si Si4 0.467654 0.389753 0.661200
Si Si5 0.080090 0.757215 0.927363
Si Si6 0.756225 0.078929 0.751536
Si Si7 0.303820 0.991242 0.809162
Si Si8 0.318658 0.953482 0.221166
O O1 0.505899 0.215868 0.674564
O O2 0.662730 0.128862 0.739536
O O3 0.049288 0.168237 0.414319
O O4 0.195551 0.252832 0.780837
O O5 0.754124 0.108269 0.561508
O O6 0.801796 0.055486 0.339343
O O7 0.051912 0.071823 0.898826
O O8 0.500000 0.383887 0.500000
O O9 0.481299 0.322067 0.755538
O O10 0.300982 0.437256 0.436633
O O11 0.631189 0.420637 0.986226
O O12 0.000000 0.736315 0.000000
O O13 0.669882 0.012640 0.642759
O O14 0.500000 0.999229 0.000000
O O15 0.314429 0.972286 0.018794
O O16 0.500000 0.915494 0.500000
#
# Coordination Sequence:
#
# PCOD9128695 Si02
#       8
#     2   2   4   4   4   4   4   4
#     4  12  24  48  68 100 144 184 246 302 344 432
#     4  12  26  48  72 108 146 192 240 304 362 442
#     4  11  23  40  67 103 143 178 229 294 366 439
#     4  10  24  48  69  95 145 185 238 311 359 426
#     4  12  28  49  75 103 142 200 253 303 359 427
#     4  11  22  38  67 103 138 183 226 291 367 428
#     4  11  24  41  70 108 143 188 233 301 380 434
#     4  11  22  40  67 102 141 183 230 296 369 436
#
# _framework density 21.886768
#
# number of rings (size 3 to 8) (size 9 to 14) (size 15 to 20)
#    0.000    0.857    4.286    2.571    2.000    2.857 
#    2.571    0.000    0.000    0.000    0.000    0.000 
#    0.000    0.000    0.000    0.000    0.000    0.000 
#
# Total GULP energy -78046.564064 kJ/mol
# GULP energy per Si atom -5574.754576 kJ/mol
# Density = 2.183695 g / cm^3
# Si number density = 21.886768 Si / 1000 Ang^3
#
#
#
# Elastic Constant Matrix: (Units=GPa)
#
#
# Indices 1 2 3 4 5 6 
#
# 1 79.8548 23.6387 11.7231 0.0000 -3.6171 0.0000
# 2 23.6387 78.3578 29.0230 0.0000 0.8311 0.0000
# 3 11.7231 29.0230 109.0241 0.0000 9.6941 0.0000
# 4 0.0000 0.0000 0.0000 17.9957 0.0000 -3.5017
# 5 -3.6171 0.8311 9.6941 0.0000 30.8057 0.0000
# 6 0.0000 0.0000 0.0000 -3.5017 0.0000 16.1257
#
#
#
# Elastic Compliance Matrix: (Units=1/GPa)
#
#
# Indices 1 2 3 4 5 6 
#
# 1 0.013878 -0.003984 -0.000603 0.000000 0.001927 0.000000
# 2 -0.003984 0.015322 -0.003675 0.000000 0.000275 0.000000
# 3 -0.000603 -0.003675 0.010507 0.000000 -0.003278 0.000000
# 4 0.000000 0.000000 0.000000 0.058020 0.000000 0.012599
# 5 0.001927 0.000275 -0.003278 0.000000 0.033712 0.000000
# 6 0.000000 0.000000 0.000000 0.012599 0.000000 0.064749
#
#
# Mechanical properties :
#
#
# Convention : Reuss Voigt Hill
#
# Bulk Modulus (GPa) = 43.13449 44.00067 43.56758
# Shear Modulus (GPa) = 22.68203 26.50887 24.59545
#
# Velocity S-wave (km/s) = 3.22271 3.48398 3.35589
# Velocity P-wave (km/s) = 5.79643 6.02757 5.91313
#
# Compressibility (1/GPa) = 0.02318330
#
# Stress axis : x y z
#
# Youngs Moduli (GPa) = 72.05757 65.26564 95.17555
#
# Poissons Ratio (x) = 0.26000 0.05740
# Poissons Ratio (y) = 0.28705 0.34977
# Poissons Ratio (z) = 0.04346 0.23985
#
# Static dielectric constant tensor:
#      x y z
#    x 1.919020 0.000000 0.069470 
#    y 0.000000 1.800580 0.000000 
#    z 0.069470 0.000000 1.466860 
# 
# From -- ./inp_files/25524.got.cif
#   From: 2010.05.17/outbox.cif.g08.bks.cpg/sg5_13_cif.got.tgz:25524.got - 2010.06.03 18:56:24.
