data_PCOD9128237
_publ_section_title
;
Structure prediction by ZEFSAII (Michael W. Deem and Ramdas Pophale) SiO2 
 PCOD9128237
Probable space group: C 2
;
_chemical_formula_sum "Si O2"
_cell_formula_units_Z 24
_cell_length_a 16.812965
_cell_length_b 15.655657
_cell_length_c 8.949245
_cell_angle_alpha 90.000000
_cell_angle_beta 30.955054
_cell_angle_gamma 90.000000
_cell_volume 1211.640668
_symmetry_space_group_name_H-M "C 2"
_symmetry_group_IT_number 5
_symmetry_cell_setting 'monoclinic'
loop_
_space_group_symop_operation_xyz
x,y,z
-x,y,-z
1/2+x,1/2+y,z
1/2-x,1/2+y,-z
loop_
_atom_site_type_symbol
_atom_site_label
_atom_site_fract_x
_atom_site_fract_y
_atom_site_fract_z
Si Si1 0.070327 0.357710 0.726876
Si Si2 0.441704 0.218312 0.763343
Si Si3 0.830933 0.950911 0.715127
Si Si4 0.600113 0.362530 0.704609
Si Si5 0.478964 0.029398 0.711801
Si Si6 0.641660 0.795847 0.160847
O O1 0.244449 0.327798 0.468244
O O2 0.064866 0.448154 0.646508
O O3 0.955500 0.288954 0.835831
O O4 0.000000 0.377598 0.000000
O O5 0.500000 0.235752 0.500000
O O6 0.502056 0.289212 0.780310
O O7 0.514615 0.127448 0.692124
O O8 0.255110 0.224528 0.044909
O O9 0.847626 0.923355 0.515674
O O10 0.000000 0.973584 0.500000
O O11 0.759473 0.873232 0.930834
O O12 0.699157 0.020047 0.951424
O O13 0.500000 0.402368 0.000000
O O14 0.500000 0.022249 0.500000
O O15 0.500000 0.815965 0.500000
#
# Coordination Sequence:
#
# PCOD9128237 Si02
#       6
#     4   4   4   4   4   4
#     4  11  20  37  60  91 121 158 200 257 303 366
#     4  11  21  44  63  91 126 166 205 261 309 368
#     4  11  20  39  62  90 125 162 218 255 288 377
#     4  12  23  36  64  94 121 163 208 255 309 367
#     4  10  24  39  66  90 126 166 208 252 317 365
#     4  11  20  36  65  88 119 159 216 252 296 371
#
# _framework density 19.807853000000001
#
# number of rings (size 3 to 8) (size 9 to 14) (size 15 to 20)
#    0.000    1.000    6.667    3.000    2.333    1.333 
#    0.000    0.000    0.000    1.000    0.000    0.000 
#    0.000    0.000    0.000    0.000    0.000    0.000 
#
# Total GULP energy -66841.680236 kJ/mol
# GULP energy per Si atom -5570.140020 kJ/mol
# Density = 1.976277 g / cm^3
# Si number density = 19.807853 Si / 1000 Ang^3
#
#
#
# Elastic Constant Matrix: (Units=GPa)
#
#
# Indices 1 2 3 4 5 6 
#
# 1 105.4496 20.7875 31.6702 0.0000 -16.9539 0.0000
# 2 20.7875 40.9695 17.7588 0.0000 12.1289 0.0000
# 3 31.6702 17.7588 120.8846 0.0000 11.1352 0.0000
# 4 0.0000 0.0000 0.0000 -2.8210 0.0000 -0.2941
# 5 -16.9539 12.1289 11.1352 0.0000 44.9723 0.0000
# 6 0.0000 0.0000 0.0000 -0.2941 0.0000 10.2327
#
#
#
# Elastic Compliance Matrix: (Units=1/GPa)
#
#
# Indices 1 2 3 4 5 6 
#
# 1 0.013156 -0.007661 -0.003038 0.000000 0.007778 0.000000
# 2 -0.007661 0.032351 -0.001715 0.000000 -0.011189 0.000000
# 3 -0.003038 -0.001715 0.009602 0.000000 -0.003060 0.000000
# 4 0.000000 0.000000 0.000000 -0.353424 0.000000 -0.010157
# 5 0.007778 -0.011189 -0.003060 0.000000 0.028943 0.000000
# 6 0.000000 0.000000 0.000000 -0.010157 0.000000 0.097434
#
#
# Mechanical properties :
#
#
# Convention : Reuss Voigt Hill
#
# Bulk Modulus (GPa) = 33.02304 45.30406 39.16355
# Shear Modulus (GPa) = -36.49225 23.61596 -6.43815
#
# Velocity S-wave (km/s) = -4.29687 3.45665 -1.80481
# Velocity P-wave (km/s) = 2.81240 6.23319 3.93338
#
# Compressibility (1/GPa) = 0.03028189
#
# Stress axis : x y z
#
# Youngs Moduli (GPa) = 76.00866 30.91058 104.14475
#
# Poissons Ratio (x) = 0.23682 0.31637
# Poissons Ratio (y) = 0.58233 0.17859
# Poissons Ratio (z) = 0.23090 0.05301
#
# Static dielectric constant tensor:
#      x y z
#    x 1.772870 0.000000 -0.002220 
#    y 0.000000 1.698930 0.000000 
#    z -0.002220 0.000000 1.739760 
# 
# From -- ./inp_files/27860.got.cif
#   From: 2010.05.17/outbox.cif.g08.bks.cpg/sg5_14_cif.got.tgz:27860.got - 2010.06.03 18:56:24.
