data_PCOD9128465
_publ_section_title
;
Structure prediction by ZEFSAII (Michael W. Deem and Ramdas Pophale) SiO2 
 PCOD9128465
Probable space group: C 2
;
_chemical_formula_sum "Si O2"
_cell_formula_units_Z 22
_cell_length_a 11.192561
_cell_length_b 11.226065
_cell_length_c 8.923741
_cell_angle_alpha 90.000000
_cell_angle_beta 64.093016
_cell_angle_gamma 90.000000
_cell_volume 1008.572991
_symmetry_space_group_name_H-M "C 2"
_symmetry_group_IT_number 5
_symmetry_cell_setting 'monoclinic'
loop_
_space_group_symop_operation_xyz
x,y,z
-x,y,-z
1/2+x,1/2+y,z
1/2-x,1/2+y,-z
loop_
_atom_site_type_symbol
_atom_site_label
_atom_site_fract_x
_atom_site_fract_y
_atom_site_fract_z
Si Si1 0.235158 0.438850 0.412371
Si Si2 0.180860 0.758204 0.170706
Si Si3 0.429654 0.635658 0.186677
Si Si4 0.500000 0.118149 0.500000
Si Si5 0.350640 0.472847 0.639393
Si Si6 0.809787 0.220004 0.786227
O O1 0.356466 0.524572 0.300440
O O2 0.113568 0.529256 0.492942
O O3 0.275066 0.395860 0.554920
O O4 0.205142 0.335814 0.309717
O O5 0.315734 0.721030 0.183039
O O6 0.062078 0.694590 0.328822
O O7 0.156955 0.898515 0.203704
O O8 0.209270 0.725547 0.982627
O O9 0.540384 0.700697 0.228606
O O10 0.500000 0.587964 0.000000
O O11 0.500000 0.485921 0.500000
O O12 0.288148 0.601893 0.699418
#
# Coordination Sequence:
#
# PCOD9128465 Si02
#       6
#     4   4   4   2   4   4
#     4  11  26  42  73 104 143 188 245 293 366 427
#     4  10  24  46  69 101 144 188 244 299 360 435
#     4   9  21  45  71 100 140 189 239 294 356 427
#     4  10  24  44  70  98 144 182 242 302 358 422
#     4  12  26  44  70 103 150 192 246 296 367 432
#     4  11  26  45  74 104 142 196 242 294 368 430
#
# _framework density 21.812996999999999
#
# number of rings (size 3 to 8) (size 9 to 14) (size 15 to 20)
#    0.000    1.455    2.727    0.000   16.545    0.000 
#    0.000    2.727    0.000    0.000    0.000    0.000 
#    0.000    0.000    0.000    0.000    0.000    0.000 
#
# Total GULP energy -61440.352022 kJ/mol
# GULP energy per Si atom -5585.486547 kJ/mol
# Density = 2.176335 g / cm^3
# Si number density = 21.812997 Si / 1000 Ang^3
#
#
#
# Elastic Constant Matrix: (Units=GPa)
#
#
# Indices 1 2 3 4 5 6 
#
# 1 84.2794 38.7527 67.3098 0.0000 3.3607 0.0000
# 2 38.7527 86.9427 48.6263 0.0000 -3.4556 0.0000
# 3 67.3098 48.6263 108.1307 0.0000 -3.0030 0.0000
# 4 0.0000 0.0000 0.0000 21.4114 0.0000 19.0609
# 5 3.3607 -3.4556 -3.0030 0.0000 37.6264 0.0000
# 6 0.0000 0.0000 0.0000 19.0609 0.0000 21.9935
#
#
#
# Elastic Compliance Matrix: (Units=1/GPa)
#
#
# Indices 1 2 3 4 5 6 
#
# 1 0.024712 -0.003339 -0.013982 0.000000 -0.003630 0.000000
# 2 -0.003339 0.015846 -0.005010 0.000000 0.001354 0.000000
# 3 -0.013982 -0.005010 0.020272 0.000000 0.002407 0.000000
# 4 0.000000 0.000000 0.000000 0.204414 0.000000 -0.177158
# 5 -0.003630 0.001354 0.002407 0.000000 0.027218 0.000000
# 6 0.000000 0.000000 0.000000 -0.177158 0.000000 0.199004
#
#
# Mechanical properties :
#
#
# Convention : Reuss Voigt Hill
#
# Bulk Modulus (GPa) = 61.85234 65.41446 63.63340
# Shear Modulus (GPa) = 9.23332 24.51719 16.87525
#
# Velocity S-wave (km/s) = 2.05964 3.35621 2.78444
# Velocity P-wave (km/s) = 5.83725 6.71362 6.29071
#
# Compressibility (1/GPa) = 0.01616754
#
# Stress axis : x y z
#
# Youngs Moduli (GPa) = 40.46554 63.10796 49.33007
#
# Poissons Ratio (x) = 0.21072 0.68975
# Poissons Ratio (y) = 0.13512 0.24713
# Poissons Ratio (z) = 0.56580 0.31616
#
# Static dielectric constant tensor:
#      x y z
#    x 1.886630 0.000000 -0.016670 
#    y 0.000000 1.768250 0.000000 
#    z -0.016670 0.000000 1.813380 
# 
# From -- ./inp_files/19265.got.cif
#   From: 2010.05.17/outbox.cif.g08.bks.cpg/sg5_10_cif.got.tgz:19265.got - 2010.06.03 18:56:24.
