data_PCOD9128455
_publ_section_title
;
Structure prediction by ZEFSAII (Michael W. Deem and Ramdas Pophale) SiO2 
 PCOD9128455
Probable space group: C 2
;
_chemical_formula_sum "Si O2"
_cell_formula_units_Z 24
_cell_length_a 23.669723
_cell_length_b 5.003254
_cell_length_c 22.649962
_cell_angle_alpha 90.000000
_cell_angle_beta 158.054104
_cell_angle_gamma 90.000000
_cell_volume 1002.471890
_symmetry_space_group_name_H-M "C 2"
_symmetry_group_IT_number 5
_symmetry_cell_setting 'monoclinic'
loop_
_space_group_symop_operation_xyz
x,y,z
-x,y,-z
1/2+x,1/2+y,z
1/2-x,1/2+y,-z
loop_
_atom_site_type_symbol
_atom_site_label
_atom_site_fract_x
_atom_site_fract_y
_atom_site_fract_z
Si Si1 0.000000 0.455451 0.500000
Si Si2 0.478598 0.410902 0.097225
Si Si3 0.995696 0.983138 0.648692
Si Si4 0.741914 0.292483 0.808230
Si Si5 0.000000 0.570276 0.000000
Si Si6 0.847158 0.716626 0.088047
Si Si7 0.672655 0.963684 0.555413
O O1 0.118288 0.613313 0.655713
O O2 0.112668 0.335712 0.559675
O O3 0.424958 0.236575 0.100258
O O4 0.648798 0.499464 0.275282
O O5 0.352241 0.634203 0.959980
O O6 0.494423 0.244208 0.052869
O O7 0.146089 0.008248 0.753015
O O8 0.050020 0.851362 0.762192
O O9 0.894430 0.756703 0.519590
O O10 0.902127 0.255171 0.562846
O O11 0.850164 0.396058 0.861476
O O12 0.797330 0.416681 0.054434
#
# Coordination Sequence:
#
# PCOD9128455 Si02
#       7
#     2   4   4   4   2   4   4
#     4  10  24  44  70 102 154 194 248 300 388 448
#     4  12  28  46  75 112 149 199 255 313 382 448
#     4  11  26  47  74 105 150 197 253 302 381 441
#     4  11  25  46  70 107 152 194 254 311 379 457
#     4  12  26  42  74 108 150 192 250 322 372 458
#     4  12  26  49  79 110 147 200 251 312 372 453
#     4  11  27  44  72 109 148 200 245 313 372 452
#
# _framework density 23.940819999999999
#
# number of rings (size 3 to 8) (size 9 to 14) (size 15 to 20)
#    0.000    0.667    1.667    4.500   16.333    2.000 
#    0.000    0.000    0.000    0.000    0.000    0.000 
#    0.000    0.000    0.000    0.000    0.000    0.000 
#
# Total GULP energy -67160.110137 kJ/mol
# GULP energy per Si atom -5596.675845 kJ/mol
# Density = 2.388633 g / cm^3
# Si number density = 23.940820 Si / 1000 Ang^3
#
#
#
# Elastic Constant Matrix: (Units=GPa)
#
#
# Indices 1 2 3 4 5 6 
#
# 1 112.3381 -6.5785 16.8070 0.0002 9.3688 0.0004
# 2 -6.5785 65.9311 26.2517 0.0032 16.6575 0.0012
# 3 16.8070 26.2517 153.0408 -0.0003 18.5749 0.0002
# 4 0.0002 0.0032 -0.0003 19.2756 0.0001 -2.6988
# 5 9.3688 16.6575 18.5749 0.0001 29.7960 0.0000
# 6 0.0004 0.0012 0.0002 -2.6988 0.0000 11.7869
#
#
#
# Elastic Compliance Matrix: (Units=1/GPa)
#
#
# Indices 1 2 3 4 5 6 
#
# 1 0.009484 0.002256 -0.000988 -0.000001 -0.003627 -0.000001
# 2 0.002256 0.018772 -0.002281 -0.000004 -0.009782 -0.000003
# 3 -0.000988 -0.002281 0.007401 0.000001 -0.003028 0.000000
# 4 -0.000001 -0.000004 0.000001 0.053597 0.000002 0.012272
# 5 -0.003627 -0.009782 -0.003028 0.000002 0.042059 0.000002
# 6 -0.000001 -0.000003 0.000000 0.012272 0.000002 0.087649
#
#
# Mechanical properties :
#
#
# Convention : Reuss Voigt Hill
#
# Bulk Modulus (GPa) = 29.73308 44.91894 37.32601
# Shear Modulus (GPa) = 21.53325 31.82705 26.68015
#
# Velocity S-wave (km/s) = 3.00231 3.65006 3.34192
# Velocity P-wave (km/s) = 4.94620 6.04707 5.52413
#
# Compressibility (1/GPa) = 0.03363258
#
# Stress axis : x y z
#
# Youngs Moduli (GPa) = 105.43845 53.27086 135.10789
#
# Poissons Ratio (x) = -0.12020 0.13353
# Poissons Ratio (y) = -0.23790 0.30812
# Poissons Ratio (z) = 0.10421 0.12149
#
# Static dielectric constant tensor:
#      x y z
#    x 1.945620 0.000000 0.028070 
#    y 0.000000 1.939410 0.000000 
#    z 0.028070 0.000000 1.992970 
# 
# From -- ./inp_files/30267.got.cif
#   From: 2010.05.17/outbox.cif.g08.bks.cpg/sg5_16_cif.got.tgz:30267.got - 2010.06.03 18:56:24.
