data_PCOD9128127
_publ_section_title
;
Structure prediction by ZEFSAII (Michael W. Deem and Ramdas Pophale) SiO2 
 PCOD9128127
Probable space group: C 2
;
_chemical_formula_sum "Si O2"
_cell_formula_units_Z 20
_cell_length_a 11.876214
_cell_length_b 7.681572
_cell_length_c 9.829201
_cell_angle_alpha 90.000000
_cell_angle_beta 65.515235
_cell_angle_gamma 90.000000
_cell_volume 816.059554
_symmetry_space_group_name_H-M "C 2"
_symmetry_group_IT_number 5
_symmetry_cell_setting 'monoclinic'
loop_
_space_group_symop_operation_xyz
x,y,z
-x,y,-z
1/2+x,1/2+y,z
1/2-x,1/2+y,-z
loop_
_atom_site_type_symbol
_atom_site_label
_atom_site_fract_x
_atom_site_fract_y
_atom_site_fract_z
Si Si1 0.201938 0.171340 0.188567
Si Si2 0.875771 0.388820 0.008180
Si Si3 0.189016 0.476779 0.414977
Si Si4 0.986802 0.600043 0.708783
Si Si5 0.542639 0.486422 0.634915
O O1 0.216800 0.275433 0.038707
O O2 0.204515 0.303275 0.315099
O O3 0.062488 0.101580 0.245167
O O4 0.295223 0.008794 0.149946
O O5 0.938723 0.522548 0.871201
O O6 0.000000 0.293691 0.000000
O O7 0.128608 0.610245 0.337866
O O8 0.317368 0.543823 0.410492
O O9 0.086544 0.473089 0.585438
O O10 0.039267 0.791408 0.694151
O O11 0.500000 0.481397 0.500000
#
# Coordination Sequence:
#
# PCOD9128127 Si02
#       5
#     4   4   4   4   4
#     4  11  27  44  68 102 134 181 229 273 344 404
#     4  11  25  45  71  94 139 179 225 276 341 403
#     4  10  24  45  68 101 139 169 232 284 329 402
#     4  10  23  47  67 101 135 180 223 285 335 400
#     4  12  26  39  71 102 136 177 225 278 345 393
#
# _framework density 24.508015
#
# number of rings (size 3 to 8) (size 9 to 14) (size 15 to 20)
#    0.000    1.200    2.000    2.400   11.200    4.800 
#    0.000    1.000    0.000    0.000    0.000    0.000 
#    0.000    0.000    0.000    0.000    0.000    0.000 
#
# Total GULP energy -55937.774363 kJ/mol
# GULP energy per Si atom -5593.777436 kJ/mol
# Density = 2.445223 g / cm^3
# Si number density = 24.508015 Si / 1000 Ang^3
#
#
#
# Elastic Constant Matrix: (Units=GPa)
#
#
# Indices 1 2 3 4 5 6 
#
# 1 168.1171 18.5205 10.5387 0.0000 -24.5405 0.0000
# 2 18.5205 58.5819 17.6957 0.0000 -2.2109 0.0000
# 3 10.5387 17.6957 72.3739 0.0000 -4.5618 0.0000
# 4 0.0000 0.0000 0.0000 37.5750 0.0000 -11.8385
# 5 -24.5405 -2.2109 -4.5618 0.0000 29.2718 0.0000
# 6 0.0000 0.0000 0.0000 -11.8385 0.0000 23.6478
#
#
#
# Elastic Compliance Matrix: (Units=1/GPa)
#
#
# Indices 1 2 3 4 5 6 
#
# 1 0.007006 -0.001944 -0.000186 0.000000 0.005698 0.000000
# 2 -0.001944 0.018985 -0.004415 0.000000 -0.000884 0.000000
# 3 -0.000186 -0.004415 0.015040 0.000000 0.001855 0.000000
# 4 0.000000 0.000000 0.000000 0.031597 0.000000 0.015818
# 5 0.005698 -0.000884 0.001855 0.000000 0.039162 0.000000
# 6 0.000000 0.000000 0.000000 0.015818 0.000000 0.050206
#
#
# Mechanical properties :
#
#
# Convention : Reuss Voigt Hill
#
# Bulk Modulus (GPa) = 35.78717 43.62031 39.70374
# Shear Modulus (GPa) = 27.11527 34.92011 31.01769
#
# Velocity S-wave (km/s) = 3.32984 3.77881 3.56141
# Velocity P-wave (km/s) = 5.42381 6.07258 5.75734
#
# Compressibility (1/GPa) = 0.02794298
#
# Stress axis : x y z
#
# Youngs Moduli (GPa) = 142.74101 52.67392 66.48731
#
# Poissons Ratio (x) = 0.10238 0.01235
# Poissons Ratio (y) = 0.27744 0.29351
# Poissons Ratio (z) = 0.02652 0.23253
#
# Static dielectric constant tensor:
#      x y z
#    x 1.977860 0.000000 0.032260 
#    y 0.000000 1.918870 0.000000 
#    z 0.032260 0.000000 1.943820 
# 
# From -- ./inp_files/38031.got.cif
#   From: 2010.05.17/outbox.cif.g08.bks.cpg/sg5_20_cif.got.tgz:38031.got - 2010.06.03 18:56:24.
