data_PCOD9128149
_publ_section_title
;
Structure prediction by ZEFSAII (Michael W. Deem and Ramdas Pophale) SiO2 
 PCOD9128149
Probable space group: C 2
;
_chemical_formula_sum "Si O2"
_cell_formula_units_Z 20
_cell_length_a 5.453867
_cell_length_b 20.870199
_cell_length_c 7.963181
_cell_angle_alpha 90.000000
_cell_angle_beta 64.716593
_cell_angle_gamma 90.000000
_cell_volume 819.568461
_symmetry_space_group_name_H-M "C 2"
_symmetry_group_IT_number 5
_symmetry_cell_setting 'monoclinic'
loop_
_space_group_symop_operation_xyz
x,y,z
-x,y,-z
1/2+x,1/2+y,z
1/2-x,1/2+y,-z
loop_
_atom_site_type_symbol
_atom_site_label
_atom_site_fract_x
_atom_site_fract_y
_atom_site_fract_z
Si Si1 0.332429 0.444280 0.724096
Si Si2 0.482668 0.052687 0.302895
Si Si3 0.500000 0.636397 0.500000
Si Si4 0.186569 0.808587 0.098212
Si Si5 0.500000 0.528662 0.000000
Si Si6 0.785547 0.757474 0.441319
O O1 0.500000 0.447932 0.500000
O O2 0.058528 0.480597 0.751756
O O3 0.288750 0.372325 0.795456
O O4 0.448313 0.484796 0.848742
O O5 0.500000 0.054208 0.500000
O O6 0.210691 0.092331 0.341459
O O7 0.748916 0.073247 0.128242
O O8 0.686374 0.688934 0.540823
O O9 0.974582 0.753977 0.224323
O O10 0.500000 0.785354 0.000000
O O11 0.000000 0.833260 0.000000
O O12 0.500000 0.793302 0.500000
O O13 0.000000 0.788528 0.500000
#
# Coordination Sequence:
#
# PCOD9128149 Si02
#       6
#     4   4   2   4   2   4
#     4  12  25  44  73 111 155 208 248 317 393 470
#     4  12  23  46  73 111 158 205 258 323 392 465
#     4  10  24  46  76 110 150 204 266 316 388 472
#     4  12  26  46  73 113 157 200 262 324 385 470
#     4  12  24  44  70 108 158 192 264 308 386 468
#     4  10  23  47  75 103 150 202 258 316 384 456
#
# _framework density 24.403086999999999
#
# number of rings (size 3 to 8) (size 9 to 14) (size 15 to 20)
#    0.600    0.000    4.000    4.200    0.000    0.000 
#    1.800    2.000    0.000    0.000    0.000    0.000 
#    0.000    0.000    0.000    0.000    0.000    0.000 
#
# Total GULP energy -55683.355452 kJ/mol
# GULP energy per Si atom -5568.335545 kJ/mol
# Density = 2.434754 g / cm^3
# Si number density = 24.403087 Si / 1000 Ang^3
#
#
#
# Elastic Constant Matrix: (Units=GPa)
#
#
# Indices 1 2 3 4 5 6 
#
# 1 171.7704 32.4164 77.5663 0.0000 -41.4315 0.0000
# 2 32.4164 59.1611 29.8061 0.0000 -10.8140 0.0000
# 3 77.5663 29.8061 146.2320 0.0000 -35.4802 0.0000
# 4 0.0000 0.0000 0.0000 -6.6601 0.0000 -18.0014
# 5 -41.4315 -10.8140 -35.4802 0.0000 61.8663 0.0000
# 6 0.0000 0.0000 0.0000 -18.0014 0.0000 -38.1409
#
#
#
# Elastic Compliance Matrix: (Units=1/GPa)
#
#
# Indices 1 2 3 4 5 6 
#
# 1 0.008568 -0.002446 -0.003203 0.000000 0.003473 0.000000
# 2 -0.002446 0.019622 -0.002634 0.000000 0.000281 0.000000
# 3 -0.003203 -0.002634 0.009807 0.000000 0.003019 0.000000
# 4 0.000000 0.000000 0.000000 0.544644 0.000000 -0.257057
# 5 0.003473 0.000281 0.003019 0.000000 0.020270 0.000000
# 6 0.000000 0.000000 0.000000 -0.257057 0.000000 0.095105
#
#
# Mechanical properties :
#
#
# Convention : Reuss Voigt Hill
#
# Bulk Modulus (GPa) = 46.66340 72.97124 59.81732
# Shear Modulus (GPa) = 6.92786 19.23804 13.08295
#
# Velocity S-wave (km/s) = 1.68674 2.81079 2.31794
# Velocity P-wave (km/s) = 4.79133 6.36408 5.63287
#
# Compressibility (1/GPa) = 0.02143007
#
# Stress axis : x y z
#
# Youngs Moduli (GPa) = 116.72009 50.96449 101.96969
#
# Poissons Ratio (x) = 0.12465 0.32664
# Poissons Ratio (y) = 0.28547 0.26857
# Poissons Ratio (z) = 0.37389 0.13423
#
# Static dielectric constant tensor:
#      x y z
#    x 2.235140 0.000000 0.154040 
#    y 0.000000 1.902680 0.000000 
#    z 0.154040 0.000000 2.342520 
# 
# From -- ./inp_files/12681.got.cif
#   From: 2010.05.17/outbox.cif.g08.bks.cpg/sg5_7_cif.got.tgz:12681.got - 2010.06.03 18:56:24.
