data_PCOD9128273
_publ_section_title
;
Structure prediction by ZEFSAII (Michael W. Deem and Ramdas Pophale) SiO2 
 PCOD9128273
Probable space group: C 2
;
_chemical_formula_sum "Si O2"
_cell_formula_units_Z 26
_cell_length_a 17.814102
_cell_length_b 8.422130
_cell_length_c 16.238907
_cell_angle_alpha 90.000000
_cell_angle_beta 33.728482
_cell_angle_gamma 90.000000
_cell_volume 1352.811970
_symmetry_space_group_name_H-M "C 2"
_symmetry_group_IT_number 5
_symmetry_cell_setting 'monoclinic'
loop_
_space_group_symop_operation_xyz
x,y,z
-x,y,-z
1/2+x,1/2+y,z
1/2-x,1/2+y,-z
loop_
_atom_site_type_symbol
_atom_site_label
_atom_site_fract_x
_atom_site_fract_y
_atom_site_fract_z
Si Si1 0.602605 0.958800 0.186526
Si Si2 0.500000 0.798615 0.000000
Si Si3 0.087948 0.193744 0.339469
Si Si4 0.848838 0.668025 0.374903
Si Si5 0.131828 0.610809 0.833700
Si Si6 0.641351 0.677498 0.028153
Si Si7 0.062421 0.016460 0.660931
O O1 0.597496 0.842571 0.269370
O O2 0.643512 0.848515 0.071528
O O3 0.457402 0.035961 0.302542
O O4 0.713705 0.094501 0.098663
O O5 0.585300 0.700088 0.987641
O O6 0.401636 0.922140 0.137923
O O7 0.235968 0.142261 0.233514
O O8 0.000000 0.230777 0.500000
O O9 0.014341 0.056788 0.353855
O O10 0.851289 0.675098 0.273327
O O11 0.698748 0.620579 0.538944
O O12 0.895243 0.835065 0.369106
O O13 0.000000 0.680746 0.000000
O O14 0.536941 0.570606 0.175600
#
# Coordination Sequence:
#
# PCOD9128273 Si02
#       7
#     4   2   4   4   4   4   4
#     4  11  25  42  68  96 131 170 219 270 319 392
#     4  10  24  42  66  98 132 164 216 280 312 384
#     4  11  24  46  65  96 132 173 216 265 332 386
#     4  12  24  45  67  96 131 173 218 265 330 384
#     4  10  24  40  69  92 135 170 214 269 332 377
#     4  11  24  43  67  97 130 171 223 264 326 379
#     4  11  26  41  72  93 131 176 215 268 323 393
#
# _framework density 19.219228000000001
#
# number of rings (size 3 to 8) (size 9 to 14) (size 15 to 20)
#    0.462    0.615    3.077    2.769   12.923    1.231 
#    0.000    0.769    0.000    0.000    0.000    0.000 
#    0.000    0.000    0.000    0.000    0.000    0.000 
#
# Total GULP energy -72667.947836 kJ/mol
# GULP energy per Si atom -5589.842141 kJ/mol
# Density = 1.917548 g / cm^3
# Si number density = 19.219228 Si / 1000 Ang^3
#
#
#
# Elastic Constant Matrix: (Units=GPa)
#
#
# Indices 1 2 3 4 5 6 
#
# 1 139.0487 30.4119 37.8595 0.0000 -23.5438 0.0000
# 2 30.4119 49.9411 -0.7466 0.0000 -14.4393 0.0000
# 3 37.8595 -0.7466 72.3416 0.0000 -17.7234 0.0000
# 4 0.0000 0.0000 0.0000 27.1518 0.0000 -17.1955
# 5 -23.5438 -14.4393 -17.7234 0.0000 41.4733 0.0000
# 6 0.0000 0.0000 0.0000 -17.1955 0.0000 25.4169
#
#
#
# Elastic Compliance Matrix: (Units=1/GPa)
#
#
# Indices 1 2 3 4 5 6 
#
# 1 0.010061 -0.005736 -0.004931 0.000000 0.001607 0.000000
# 2 -0.005736 0.025907 0.005229 0.000000 0.007998 0.000000
# 3 -0.004931 0.005229 0.018114 0.000000 0.006762 0.000000
# 4 0.000000 0.000000 0.000000 0.064440 0.000000 0.043596
# 5 0.001607 0.007998 0.006762 0.000000 0.030699 0.000000
# 6 0.000000 0.000000 0.000000 0.043596 0.000000 0.068838
#
#
# Mechanical properties :
#
#
# Convention : Reuss Voigt Hill
#
# Bulk Modulus (GPa) = 23.14448 44.04232 33.59340
# Shear Modulus (GPa) = 20.54768 31.72885 26.13827
#
# Velocity S-wave (km/s) = 3.27329 4.06752 3.69183
# Velocity P-wave (km/s) = 5.13365 6.71008 5.97409
#
# Compressibility (1/GPa) = 0.04320684
#
# Stress axis : x y z
#
# Youngs Moduli (GPa) = 99.39541 38.59972 55.20460
#
# Poissons Ratio (x) = 0.22139 0.27219
# Poissons Ratio (y) = 0.57009 -0.28864
# Poissons Ratio (z) = 0.49008 -0.20182
#
# Static dielectric constant tensor:
#      x y z
#    x 1.639320 0.000000 0.001810 
#    y 0.000000 1.661850 0.000000 
#    z 0.001810 0.000000 1.655870 
# 
# From -- ./inp_files/29154.got.cif
#   From: 2010.05.17/outbox.cif.g08.bks.cpg/sg5_15_cif.got.tgz:29154.got - 2010.06.03 18:56:24.
