data_PCOD9128066
_publ_section_title
;
Structure prediction by ZEFSAII (Michael W. Deem and Ramdas Pophale) SiO2 
 PCOD9128066
Probable space group: C 2
;
_chemical_formula_sum "Si O2"
_cell_formula_units_Z 20
_cell_length_a 25.026363
_cell_length_b 5.057043
_cell_length_c 8.982165
_cell_angle_alpha 90.000000
_cell_angle_beta 134.455737
_cell_angle_gamma 90.000000
_cell_volume 811.422258
_symmetry_space_group_name_H-M "C 2"
_symmetry_group_IT_number 5
_symmetry_cell_setting 'monoclinic'
loop_
_space_group_symop_operation_xyz
x,y,z
-x,y,-z
1/2+x,1/2+y,z
1/2-x,1/2+y,-z
loop_
_atom_site_type_symbol
_atom_site_label
_atom_site_fract_x
_atom_site_fract_y
_atom_site_fract_z
Si Si1 0.072211 0.250000 0.077294
Si Si2 0.542926 0.064573 0.725146
Si Si3 0.302153 0.086140 0.125022
Si Si4 0.202124 0.956819 0.414892
Si Si5 0.600890 0.158254 0.409363
O O1 0.087552 0.472646 0.236908
O O2 0.144334 0.074846 0.186092
O O3 0.053470 0.376420 0.884724
O O4 0.000000 0.096960 0.000000
O O5 0.500000 0.937593 0.500000
O O6 0.475600 0.246884 0.658563
O O7 0.625153 0.155317 0.835533
O O8 0.342762 0.024004 0.362233
O O9 0.254567 0.833491 0.978478
O O10 0.237668 0.681379 0.439020
O O11 0.148307 0.907999 0.448641
#
# Coordination Sequence:
#
# PCOD9128066 Si02
#       5
#     4   4   4   4   4
#     4  10  23  45  77 107 146 190 251 298 361 432
#     4   9  22  50  74 106 146 197 239 300 363 441
#     4  11  27  47  73 108 148 190 240 298 369 429
#     4  12  26  44  71 113 148 185 238 310 362 419
#     4  10  24  48  74 106 148 191 248 292 362 435
#
# _framework density 24.648078999999999
#
# number of rings (size 3 to 8) (size 9 to 14) (size 15 to 20)
#    0.000    1.600    2.000    0.000    5.600    4.000 
#    7.200    3.000    0.000    0.000    0.000    0.000 
#    0.000    0.000    0.000    0.000    0.000    0.000 
#
# Total GULP energy -55852.421378 kJ/mol
# GULP energy per Si atom -5585.242138 kJ/mol
# Density = 2.459198 g / cm^3
# Si number density = 24.648079 Si / 1000 Ang^3
#
#
#
# Elastic Constant Matrix: (Units=GPa)
#
#
# Indices 1 2 3 4 5 6 
#
# 1 165.9130 55.5461 75.7551 0.0000 35.9339 0.0000
# 2 55.5461 86.1590 28.6372 -0.0001 12.4384 -0.0001
# 3 75.7551 28.6372 131.8872 0.0000 -3.7004 0.0000
# 4 0.0000 -0.0001 0.0000 -297.5457 0.0000 -328.9050
# 5 35.9339 12.4384 -3.7004 0.0000 56.3269 0.0000
# 6 0.0000 -0.0001 0.0000 -328.9050 0.0000 -315.0596
#
#
#
# Elastic Compliance Matrix: (Units=1/GPa)
#
#
# Indices 1 2 3 4 5 6 
#
# 1 0.011790 -0.004625 -0.005961 0.000000 -0.006892 0.000000
# 2 -0.004625 0.014831 -0.000574 0.000000 -0.000362 0.000000
# 3 -0.005961 -0.000574 0.011262 0.000000 0.004670 0.000000
# 4 0.000000 0.000000 0.000000 0.021828 0.000000 -0.022787
# 5 -0.006892 -0.000362 0.004670 0.000000 0.022537 0.000000
# 6 0.000000 0.000000 0.000000 -0.022787 0.000000 0.020614
#
#
# Mechanical properties :
#
#
# Convention : Reuss Voigt Hill
#
# Bulk Modulus (GPa) = 64.25493 78.20397 71.22945
# Shear Modulus (GPa) = 38.35214 -96.32097 -28.98442
#
# Velocity S-wave (km/s) = 3.94888 -6.25806 -3.43290
# Velocity P-wave (km/s) = 6.84961 4.51892 3.63981
#
# Compressibility (1/GPa) = 0.01556301
#
# Stress axis : x y z
#
# Youngs Moduli (GPa) = 84.81640 67.42591 88.79335
#
# Poissons Ratio (x) = 0.31182 0.52933
# Poissons Ratio (y) = 0.39225 0.05098
# Poissons Ratio (z) = 0.50562 0.03871
#
# Static dielectric constant tensor:
#      x y z
#    x 2.132200 0.000000 0.161890 
#    y 0.000000 1.991240 0.000000 
#    z 0.161890 0.000000 2.262440 
# 
# From -- ./inp_files/30211.got.cif
#   From: 2010.05.17/outbox.cif.g08.bks.cpg/sg5_16_cif.got.tgz:30211.got - 2010.06.03 18:56:24.
