data_PCOD9128574
_publ_section_title
;
Structure prediction by ZEFSAII (Michael W. Deem and Ramdas Pophale) SiO2 
 PCOD9128574
Probable space group: C 2
;
_chemical_formula_sum "Si O2"
_cell_formula_units_Z 28
_cell_length_a 11.568554
_cell_length_b 8.466739
_cell_length_c 15.189936
_cell_angle_alpha 90.000000
_cell_angle_beta 60.745077
_cell_angle_gamma 90.000000
_cell_volume 1298.056937
_symmetry_space_group_name_H-M "C 2"
_symmetry_group_IT_number 5
_symmetry_cell_setting 'monoclinic'
loop_
_space_group_symop_operation_xyz
x,y,z
-x,y,-z
1/2+x,1/2+y,z
1/2-x,1/2+y,-z
loop_
_atom_site_type_symbol
_atom_site_label
_atom_site_fract_x
_atom_site_fract_y
_atom_site_fract_z
Si Si1 0.897304 0.580690 0.678038
Si Si2 0.000000 0.152998 0.000000
Si Si3 0.881116 0.746118 0.866353
Si Si4 0.620287 0.514703 0.608210
Si Si5 0.130227 0.448115 0.007022
Si Si6 0.605114 0.859839 0.538728
Si Si7 0.000000 0.801616 0.500000
Si Si8 0.880188 0.949350 0.195296
O O1 0.887085 0.701025 0.762081
O O2 0.897599 0.682091 0.587181
O O3 0.778404 0.455408 0.734872
O O4 0.036337 0.488549 0.627531
O O5 0.071650 0.270697 0.043191
O O6 0.909480 0.048878 0.096660
O O7 0.845973 0.584031 0.930933
O O8 0.027220 0.796425 0.845644
O O9 0.774976 0.889689 0.917648
O O10 0.628259 0.694045 0.575285
O O11 0.759996 0.426041 0.549570
O O12 0.540266 0.415020 0.565079
O O13 0.572514 0.514729 0.726899
O O14 0.000000 0.509095 0.000000
O O15 0.500000 0.837300 0.500000
#
# Coordination Sequence:
#
# PCOD9128574 Si02
#       8
#     4   2   4   4   4   4   2   4
#     4  12  24  47  71 107 149 185 241 298 361 429
#     4  10  24  46  68 102 148 174 240 302 350 422
#     4  12  26  45  77 103 140 193 236 297 371 423
#     4  12  26  47  76 104 150 191 245 296 365 429
#     4  10  25  48  69 104 140 184 239 297 348 429
#     4  12  25  45  72 107 146 193 239 296 359 434
#     4  12  24  50  76 108 152 190 242 306 354 434
#     4  12  25  46  73 105 143 193 233 303 358 427
#
# _framework density 21.570703999999999
#
# number of rings (size 3 to 8) (size 9 to 14) (size 15 to 20)
#    0.429    0.000    5.714    2.571    3.000    0.000 
#    5.143    0.000    0.000    0.000    0.000    0.000 
#    0.000    0.000    0.000    0.000    0.000    0.000 
#
# Total GULP energy -77941.083048 kJ/mol
# GULP energy per Si atom -5567.220218 kJ/mol
# Density = 2.152161 g / cm^3
# Si number density = 21.570704 Si / 1000 Ang^3
#
#
#
# Elastic Constant Matrix: (Units=GPa)
#
#
# Indices 1 2 3 4 5 6 
#
# 1 70.5249 15.4391 25.9431 0.0000 5.9020 0.0000
# 2 15.4391 98.9655 61.0883 0.0000 9.9750 0.0000
# 3 25.9431 61.0883 139.2880 0.0000 3.2187 0.0000
# 4 0.0000 0.0000 0.0000 25.2312 0.0000 7.6897
# 5 5.9020 9.9750 3.2187 0.0000 29.9180 0.0000
# 6 0.0000 0.0000 0.0000 7.6897 0.0000 16.3080
#
#
#
# Elastic Compliance Matrix: (Units=1/GPa)
#
#
# Indices 1 2 3 4 5 6 
#
# 1 0.015466 -0.000563 -0.002574 0.000000 -0.002586 0.000000
# 2 -0.000563 0.014364 -0.006102 0.000000 -0.004022 0.000000
# 3 -0.002574 -0.006102 0.010302 0.000000 0.001434 0.000000
# 4 0.000000 0.000000 0.000000 0.046285 0.000000 -0.021825
# 5 -0.002586 -0.004022 0.001434 0.000000 0.035121 0.000000
# 6 0.000000 0.000000 0.000000 -0.021825 0.000000 0.071611
#
#
# Mechanical properties :
#
#
# Convention : Reuss Voigt Hill
#
# Bulk Modulus (GPa) = 46.18125 57.07994 51.63060
# Shear Modulus (GPa) = 22.84715 28.04530 25.44623
#
# Velocity S-wave (km/s) = 3.25803 3.60968 3.43835
# Velocity P-wave (km/s) = 5.96730 6.62513 6.30480
#
# Compressibility (1/GPa) = 0.02165381
#
# Stress axis : x y z
#
# Youngs Moduli (GPa) = 64.65827 69.61686 97.07051
#
# Poissons Ratio (x) = 0.03922 0.24984
# Poissons Ratio (y) = 0.03643 0.59232
# Poissons Ratio (z) = 0.16642 0.42480
#
# Static dielectric constant tensor:
#      x y z
#    x 1.868440 0.000000 -0.016030 
#    y 0.000000 1.775930 0.000000 
#    z -0.016030 0.000000 1.787210 
# 
# From -- ./inp_files/52409.got.cif
#   From: 2010.05.17/outbox.cif.g08.bks.cpg/sg5_27_cif.got.tgz:52409.got - 2010.06.03 18:56:24.
