data_PCOD9128756
_publ_section_title
;
Structure prediction by ZEFSAII (Michael W. Deem and Ramdas Pophale) SiO2 
 PCOD9128756
Probable space group: C 2
;
_chemical_formula_sum "Si O2"
_cell_formula_units_Z 18
_cell_length_a 8.344192
_cell_length_b 7.231845
_cell_length_c 11.746382
_cell_angle_alpha 90.000000
_cell_angle_beta 102.309756
_cell_angle_gamma 90.000000
_cell_volume 692.526203
_symmetry_space_group_name_H-M "C 2"
_symmetry_group_IT_number 5
_symmetry_cell_setting 'monoclinic'
loop_
_space_group_symop_operation_xyz
x,y,z
-x,y,-z
1/2+x,1/2+y,z
1/2-x,1/2+y,-z
loop_
_atom_site_type_symbol
_atom_site_label
_atom_site_fract_x
_atom_site_fract_y
_atom_site_fract_z
Si Si1 0.016568 0.601570 0.873097
Si Si2 0.603254 0.679782 0.126954
Si Si3 0.466741 0.396974 0.690411
Si Si4 0.283240 0.503283 0.428986
Si Si5 0.000000 0.343296 0.500000
O O1 0.208435 0.622346 0.869510
O O2 0.940493 0.396598 0.864002
O O3 0.924574 0.728019 0.766724
O O4 0.000000 0.673056 0.000000
O O5 0.540592 0.570803 0.227279
O O6 0.500000 0.622233 0.000000
O O7 0.360669 0.442413 0.562805
O O8 0.646048 0.374488 0.659489
O O9 0.407372 0.971976 0.576105
O O10 0.131426 0.201642 0.574188
#
# Coordination Sequence:
#
# PCOD9128756 Si02
#       5
#     4   4   4   4   2
#     4  11  28  48  79 110 153 201 259 317 383 452
#     4  11  28  49  75 114 151 199 262 315 382 454
#     4  10  25  50  79 111 154 206 245 327 373 464
#     4  10  26  50  74 116 150 197 258 301 388 456
#     4  10  24  50  70 106 160 192 248 316 356 464
#
# _framework density 25.991796999999998
#
# number of rings (size 3 to 8) (size 9 to 14) (size 15 to 20)
#    0.000    1.778    0.000    0.667   18.667    9.778 
#    0.000    0.000    0.000    0.000    0.000    0.000 
#    0.000    0.000    0.000    0.000    0.000    0.000 
#
# Total GULP energy -50379.866462 kJ/mol
# GULP energy per Si atom -5597.762940 kJ/mol
# Density = 2.593264 g / cm^3
# Si number density = 25.991797 Si / 1000 Ang^3
#
#
#
# Elastic Constant Matrix: (Units=GPa)
#
#
# Indices 1 2 3 4 5 6 
#
# 1 141.7152 52.8510 50.9143 0.0000 -14.7717 0.0000
# 2 52.8510 125.1460 51.7086 0.0000 -19.0873 0.0000
# 3 50.9143 51.7086 195.4144 0.0000 -30.3565 0.0000
# 4 0.0000 0.0000 0.0000 -5.6165 0.0000 -10.4531
# 5 -14.7717 -19.0873 -30.3565 0.0000 55.1866 0.0000
# 6 0.0000 0.0000 0.0000 -10.4531 0.0000 52.8572
#
#
#
# Elastic Compliance Matrix: (Units=1/GPa)
#
#
# Indices 1 2 3 4 5 6 
#
# 1 0.008744 -0.003037 -0.001393 0.000000 0.000524 0.000000
# 2 -0.003037 0.010226 -0.001631 0.000000 0.001827 0.000000
# 3 -0.001393 -0.001631 0.006305 0.000000 0.002531 0.000000
# 4 0.000000 0.000000 0.000000 -0.130145 0.000000 -0.025738
# 5 0.000524 0.001827 0.002531 0.000000 0.020285 0.000000
# 6 0.000000 0.000000 0.000000 -0.025738 0.000000 0.013829
#
#
# Mechanical properties :
#
#
# Convention : Reuss Voigt Hill
#
# Bulk Modulus (GPa) = 76.03047 85.91373 80.97210
# Shear Modulus (GPa) = -92.16603 40.93892 -25.61355
#
# Velocity S-wave (km/s) = -5.96126 3.97302 -3.14259
# Velocity P-wave (km/s) = 4.25053 7.36019 4.24885
#
# Compressibility (1/GPa) = 0.01315262
#
# Stress axis : x y z
#
# Youngs Moduli (GPa) = 114.36067 97.79216 158.60302
#
# Poissons Ratio (x) = 0.29702 0.22097
# Poissons Ratio (y) = 0.34735 0.25863
# Poissons Ratio (z) = 0.15933 0.15947
#
# Static dielectric constant tensor:
#      x y z
#    x 2.209550 0.000000 0.088740 
#    y 0.000000 2.117410 0.000000 
#    z 0.088740 0.000000 2.003610 
# 
# From -- ./inp_files/34674.got.cif
#   From: 2010.05.17/outbox.cif.g08.bks.cpg/sg5_18_cif.got.tgz:34674.got - 2010.06.03 18:56:24.
