data_PCOD9128183
_publ_section_title
;
Structure prediction by ZEFSAII (Michael W. Deem and Ramdas Pophale) SiO2 
 PCOD9128183
Probable space group: C 2
;
_chemical_formula_sum "Si O2"
_cell_formula_units_Z 26
_cell_length_a 19.631945
_cell_length_b 7.254599
_cell_length_c 7.645436
_cell_angle_alpha 90.000000
_cell_angle_beta 85.003705
_cell_angle_gamma 90.000000
_cell_volume 1084.740061
_symmetry_space_group_name_H-M "C 2"
_symmetry_group_IT_number 5
_symmetry_cell_setting 'monoclinic'
loop_
_space_group_symop_operation_xyz
x,y,z
-x,y,-z
1/2+x,1/2+y,z
1/2-x,1/2+y,-z
loop_
_atom_site_type_symbol
_atom_site_label
_atom_site_fract_x
_atom_site_fract_y
_atom_site_fract_z
Si Si1 0.000000 0.729470 0.500000
Si Si2 0.194812 0.546449 0.812481
Si Si3 0.626347 0.443577 0.495815
Si Si4 0.540118 0.976259 0.820856
Si Si5 0.203912 0.973736 0.907279
Si Si6 0.248041 0.645283 0.463565
Si Si7 0.440697 0.561578 0.131260
O O1 0.061382 0.859061 0.407999
O O2 0.025344 0.593786 0.650585
O O3 0.118792 0.485177 0.857340
O O4 0.197626 0.764559 0.844313
O O5 0.212411 0.500663 0.608150
O O6 0.249235 0.467267 0.933767
O O7 0.673288 0.630408 0.471046
O O8 0.685249 0.289448 0.476191
O O9 0.588314 0.460846 0.691494
O O10 0.528638 0.756062 0.807933
O O11 0.500000 0.043253 0.000000
O O12 0.238828 0.080079 0.736981
O O13 0.130398 0.065795 0.962637
O O14 0.500000 0.476125 0.000000
#
# Coordination Sequence:
#
# PCOD9128183 Si02
#       7
#     2   4   4   4   4   4   4
#     4  12  26  50  70 114 142 196 248 300 382 442
#     4  12  25  44  70 108 141 197 239 308 361 446
#     4  11  26  43  79 105 148 197 241 306 376 429
#     4  11  26  44  73 101 148 189 249 305 368 434
#     4  11  26  42  73 104 146 192 247 293 381 428
#     4  11  23  47  66 107 145 189 241 307 357 441
#     4  10  23  49  70 108 148 193 249 313 360 448
#
# _framework density 23.968876000000002
#
# number of rings (size 3 to 8) (size 9 to 14) (size 15 to 20)
#    0.000    0.923    4.615    0.923    8.615    4.308 
#    0.000    0.000    0.000    0.000    0.000    0.000 
#    0.000    0.000    0.000    0.000    0.000    0.000 
#
# Total GULP energy -72432.667906 kJ/mol
# GULP energy per Si atom -5571.743685 kJ/mol
# Density = 2.391432 g / cm^3
# Si number density = 23.968876 Si / 1000 Ang^3
#
#
#
# Elastic Constant Matrix: (Units=GPa)
#
#
# Indices 1 2 3 4 5 6 
#
# 1 161.0195 37.4419 36.3333 0.0000 -27.3625 0.0000
# 2 37.4419 80.6409 10.2521 0.0000 -0.5803 0.0000
# 3 36.3333 10.2521 74.1957 0.0000 -19.4091 0.0000
# 4 0.0000 0.0000 0.0000 44.5710 0.0000 -38.4091
# 5 -27.3625 -0.5803 -19.4091 0.0000 54.6794 0.0000
# 6 0.0000 0.0000 0.0000 -38.4091 0.0000 152.9611
#
#
#
# Elastic Compliance Matrix: (Units=1/GPa)
#
#
# Indices 1 2 3 4 5 6 
#
# 1 0.008138 -0.003412 -0.002709 0.000000 0.003074 0.000000
# 2 -0.003412 0.014067 -0.000750 0.000000 -0.001824 0.000000
# 3 -0.002709 -0.000750 0.016041 0.000000 0.004330 0.000000
# 4 0.000000 0.000000 0.000000 0.028632 0.000000 0.007190
# 5 0.003074 -0.001824 0.004330 0.000000 0.021345 0.000000
# 6 0.000000 0.000000 0.000000 0.007190 0.000000 0.008343
#
#
# Mechanical properties :
#
#
# Convention : Reuss Voigt Hill
#
# Bulk Modulus (GPa) = 40.81130 53.76788 47.28959
# Shear Modulus (GPa) = 42.20305 65.89755 54.05030
#
# Velocity S-wave (km/s) = 4.20067 5.24906 4.75386
# Velocity P-wave (km/s) = 6.37113 7.69532 7.06432
#
# Compressibility (1/GPa) = 0.02450301
#
# Stress axis : x y z
#
# Youngs Moduli (GPa) = 122.88775 71.08843 62.34015
#
# Poissons Ratio (x) = 0.24253 0.16890
# Poissons Ratio (y) = 0.41926 0.04677
# Poissons Ratio (z) = 0.33294 0.05333
#
# Static dielectric constant tensor:
#      x y z
#    x 1.956850 0.000000 0.077770 
#    y 0.000000 2.130260 0.000000 
#    z 0.077770 0.000000 1.962430 
# 
# From -- ./inp_files/26539.got.cif
#   From: 2010.05.17/outbox.cif.g08.bks.cpg/sg5_14_cif.got.tgz:26539.got - 2010.06.03 18:56:24.
