data_PCOD9128946
_publ_section_title
;
Structure prediction by ZEFSAII (Michael W. Deem and Ramdas Pophale) SiO2 
 PCOD9128946
Probable space group: C 2
;
_chemical_formula_sum "Si O2"
_cell_formula_units_Z 16
_cell_length_a 8.513552
_cell_length_b 16.781311
_cell_length_c 5.028575
_cell_angle_alpha 90.000000
_cell_angle_beta 67.210662
_cell_angle_gamma 90.000000
_cell_volume 662.341596
_symmetry_space_group_name_H-M "C 2"
_symmetry_group_IT_number 5
_symmetry_cell_setting 'monoclinic'
loop_
_space_group_symop_operation_xyz
x,y,z
-x,y,-z
1/2+x,1/2+y,z
1/2-x,1/2+y,-z
loop_
_atom_site_type_symbol
_atom_site_label
_atom_site_fract_x
_atom_site_fract_y
_atom_site_fract_z
Si Si1 0.854565 0.968860 0.799218
Si Si2 0.812363 0.214869 0.664193
Si Si3 0.500000 0.031503 0.000000
Si Si4 0.746316 0.108732 0.204696
Si Si5 0.000000 0.822982 0.000000
O O1 0.903401 0.880840 0.857934
O O2 0.000000 0.995879 0.500000
O O3 0.663208 0.979158 0.808252
O O4 0.833618 0.024804 0.073119
O O5 0.782310 0.145581 0.465706
O O6 0.648264 0.271701 0.765075
O O7 0.000000 0.251974 0.500000
O O8 0.814995 0.173681 0.950075
O O9 0.561170 0.087974 0.200061
#
# Coordination Sequence:
#
# PCOD9128946 Si02
#       5
#     4   4   2   4   2
#     4  10  25  49  79 118 160 212 272 330 402 484
#     4  12  28  51  77 119 168 215 265 336 409 480
#     4   8  23  46  82 119 152 212 276 344 383 476
#     4  10  25  51  81 115 156 214 281 327 392 482
#     4  12  31  48  78 123 174 210 262 340 427 488
#
# _framework density 24.15672
#
# number of rings (size 3 to 8) (size 9 to 14) (size 15 to 20)
#    1.500    0.000    0.000    2.250   10.500    5.000 
#    9.000    0.000    0.000    0.000    0.000    0.000 
#    0.000    0.000    0.000    0.000    0.000    0.000 
#
# Total GULP energy -44681.581319 kJ/mol
# GULP energy per Si atom -5585.197665 kJ/mol
# Density = 2.410174 g / cm^3
# Si number density = 24.156720 Si / 1000 Ang^3
#
#
#
# Elastic Constant Matrix: (Units=GPa)
#
#
# Indices 1 2 3 4 5 6 
#
# 1 168.0265 41.6182 51.7186 0.0000 -53.5409 0.0000
# 2 41.6182 110.9518 36.5008 0.0000 -29.6342 0.0000
# 3 51.7186 36.5008 103.0198 0.0000 -25.9154 0.0000
# 4 0.0000 0.0000 0.0000 34.0207 0.0000 3.2022
# 5 -53.5409 -29.6342 -25.9154 0.0000 56.4669 0.0000
# 6 0.0000 0.0000 0.0000 3.2022 0.0000 38.6444
#
#
#
# Elastic Compliance Matrix: (Units=1/GPa)
#
#
# Indices 1 2 3 4 5 6 
#
# 1 0.009202 -0.000688 -0.002568 0.000000 0.007186 0.000000
# 2 -0.000688 0.011207 -0.002611 0.000000 0.004031 0.000000
# 3 -0.002568 -0.002611 0.012395 0.000000 0.001883 0.000000
# 4 0.000000 0.000000 0.000000 0.029625 0.000000 -0.002455
# 5 0.007186 0.004031 0.001883 0.000000 0.027502 0.000000
# 6 0.000000 0.000000 0.000000 -0.002455 0.000000 0.026080
#
#
# Mechanical properties :
#
#
# Convention : Reuss Voigt Hill
#
# Bulk Modulus (GPa) = 47.46331 71.29702 59.38017
# Shear Modulus (GPa) = 37.10052 42.63708 39.86880
#
# Velocity S-wave (km/s) = 3.92321 4.20577 4.06695
# Velocity P-wave (km/s) = 6.34136 7.29130 6.83286
#
# Compressibility (1/GPa) = 0.02106890
#
# Stress axis : x y z
#
# Youngs Moduli (GPa) = 108.67280 89.23386 80.67630
#
# Poissons Ratio (x) = 0.06135 0.20721
# Poissons Ratio (y) = 0.07471 0.21068
# Poissons Ratio (z) = 0.27912 0.23303
#
# Static dielectric constant tensor:
#      x y z
#    x 2.050010 0.000000 0.006750 
#    y 0.000000 1.893990 0.000000 
#    z 0.006750 0.000000 2.045490 
# 
# From -- ./inp_files/2079.got.cif
#   From: 2010.05.17/outbox.cif.g08.bks.cpg/sg5_2_cif.got.tgz:2079.got - 2010.06.03 18:56:24.
