data_PCOD9128433
_publ_section_title
;
Structure prediction by ZEFSAII (Michael W. Deem and Ramdas Pophale) SiO2 
 PCOD9128433
Probable space group: C 2
;
_chemical_formula_sum "Si O2"
_cell_formula_units_Z 22
_cell_length_a 7.984060
_cell_length_b 9.952923
_cell_length_c 13.870536
_cell_angle_alpha 90.000000
_cell_angle_beta 57.011383
_cell_angle_gamma 90.000000
_cell_volume 924.517427
_symmetry_space_group_name_H-M "C 2"
_symmetry_group_IT_number 5
_symmetry_cell_setting 'monoclinic'
loop_
_space_group_symop_operation_xyz
x,y,z
-x,y,-z
1/2+x,1/2+y,z
1/2-x,1/2+y,-z
loop_
_atom_site_type_symbol
_atom_site_label
_atom_site_fract_x
_atom_site_fract_y
_atom_site_fract_z
Si Si1 0.743677 0.680440 0.106082
Si Si2 0.785903 0.251445 0.279231
Si Si3 0.235980 0.020748 0.409197
Si Si4 0.000000 0.570336 0.500000
Si Si5 0.893166 0.938479 0.943163
Si Si6 0.051584 0.743547 0.764553
O O1 0.512193 0.703135 0.203778
O O2 0.764240 0.539987 0.047499
O O3 0.874083 0.674590 0.161021
O O4 0.801382 0.805346 0.019941
O O5 0.781443 0.406682 0.315240
O O6 0.665664 0.231261 0.216546
O O7 0.659752 0.165035 0.395692
O O8 0.372032 0.989474 0.460551
O O9 0.000000 0.016820 0.500000
O O10 0.302787 0.171723 0.357349
O O11 0.043963 0.895646 0.809378
O O12 0.000000 0.007744 0.000000
#
# Coordination Sequence:
#
# PCOD9128433 Si02
#       6
#     4   4   4   2   4   4
#     4  11  25  46  71 101 145 185 228 297 345 411
#     4  11  24  43  70 102 137 182 235 289 346 414
#     4  11  23  43  71 101 142 182 234 288 347 415
#     4  10  24  44  66 104 136 182 234 284 348 420
#     4  10  25  45  70 107 140 181 242 281 349 424
#     4  10  24  44  69 103 138 180 236 278 352 414
#
# _framework density 23.796199999999999
#
# number of rings (size 3 to 8) (size 9 to 14) (size 15 to 20)
#    0.000    1.455    0.909    2.182    5.091    5.818 
#    4.909    0.000    0.000    0.000    0.000    0.000 
#    0.000    0.000    0.000    0.000    0.000    0.000 
#
# Total GULP energy -61409.045664 kJ/mol
# GULP energy per Si atom -5582.640515 kJ/mol
# Density = 2.374204 g / cm^3
# Si number density = 23.796200 Si / 1000 Ang^3
#
#
#
# Elastic Constant Matrix: (Units=GPa)
#
#
# Indices 1 2 3 4 5 6 
#
# 1 200.9447 46.7533 67.4997 0.0000 14.8805 0.0000
# 2 46.7533 72.4131 32.6281 0.0000 9.2980 0.0000
# 3 67.4997 32.6281 93.6194 0.0000 -21.1895 0.0000
# 4 0.0000 0.0000 0.0000 20.5658 0.0000 2.9945
# 5 14.8805 9.2980 -21.1895 0.0000 47.3536 0.0000
# 6 0.0000 0.0000 0.0000 2.9945 0.0000 32.5755
#
#
#
# Elastic Compliance Matrix: (Units=1/GPa)
#
#
# Indices 1 2 3 4 5 6 
#
# 1 0.007781 -0.001628 -0.006146 0.000000 -0.004876 0.000000
# 2 -0.001628 0.018689 -0.006736 0.000000 -0.006172 0.000000
# 3 -0.006146 -0.006736 0.020248 0.000000 0.012314 0.000000
# 4 0.000000 0.000000 0.000000 0.049284 0.000000 -0.004530
# 5 -0.004876 -0.006172 0.012314 0.000000 0.029372 0.000000
# 6 0.000000 0.000000 0.000000 -0.004530 0.000000 0.031114
#
#
# Mechanical properties :
#
#
# Convention : Reuss Voigt Hill
#
# Bulk Modulus (GPa) = 56.50992 73.41549 64.96270
# Shear Modulus (GPa) = 26.12216 34.77206 30.44711
#
# Velocity S-wave (km/s) = 3.31682 3.82677 3.58088
# Velocity P-wave (km/s) = 6.20221 7.10242 6.66752
#
# Compressibility (1/GPa) = 0.01769601
#
# Stress axis : x y z
#
# Youngs Moduli (GPa) = 128.51879 53.50792 49.38803
#
# Poissons Ratio (x) = 0.08713 0.30354
# Poissons Ratio (y) = 0.20928 0.33269
# Poissons Ratio (z) = 0.78989 0.36045
#
# Static dielectric constant tensor:
#      x y z
#    x 1.880090 0.000000 0.025820 
#    y 0.000000 1.905540 0.000000 
#    z 0.025820 0.000000 1.948770 
# 
# From -- ./inp_files/59293.got.cif
#   From: 2010.05.17/outbox.cif.g08.bks.cpg/sg5_30_cif.got.tgz:59293.got - 2010.06.03 18:56:24.
