data_PCOD9128672
_publ_section_title
;
Structure prediction by ZEFSAII (Michael W. Deem and Ramdas Pophale) SiO2 
 PCOD9128672
Probable space group: C 2
;
_chemical_formula_sum "Si O2"
_cell_formula_units_Z 20
_cell_length_a 8.034447
_cell_length_b 22.061815
_cell_length_c 5.602375
_cell_angle_alpha 90.000000
_cell_angle_beta 59.038598
_cell_angle_gamma 90.000000
_cell_volume 851.550989
_symmetry_space_group_name_H-M "C 2"
_symmetry_group_IT_number 5
_symmetry_cell_setting 'monoclinic'
loop_
_space_group_symop_operation_xyz
x,y,z
-x,y,-z
1/2+x,1/2+y,z
1/2-x,1/2+y,-z
loop_
_atom_site_type_symbol
_atom_site_label
_atom_site_fract_x
_atom_site_fract_y
_atom_site_fract_z
Si Si1 0.500000 0.523190 0.000000
Si Si2 0.766902 0.246251 0.689871
Si Si3 0.264716 0.808412 0.187553
Si Si4 0.263274 0.947975 0.164304
Si Si5 0.000000 0.636316 0.000000
Si Si6 0.333590 0.042168 0.481715
O O1 0.352040 0.478250 0.969348
O O2 0.654259 0.568025 0.760518
O O3 0.703710 0.271815 0.473833
O O4 0.000000 0.244231 0.500000
O O5 0.706026 0.285894 0.966485
O O6 0.680003 0.181363 0.828744
O O7 0.209334 0.878804 0.248284
O O8 0.500000 0.805283 0.000000
O O9 0.219001 0.994233 0.408025
O O10 0.500000 0.949804 0.000000
O O11 0.963978 0.590503 0.245193
O O12 0.500000 0.006717 0.500000
#
# Coordination Sequence:
#
# PCOD9128672 Si02
#       6
#     2   4   4   4   2   4
#     4  12  26  45  76 112 157 202 262 310 412 470
#     4  10  24  47  73 109 150 204 261 317 393 464
#     4   9  22  44  75 109 153 203 253 323 396 464
#     4  11  23  46  76 113 157 200 253 326 394 471
#     4  12  28  47  76 108 153 202 266 326 376 476
#     4  12  26  48  73 110 155 207 257 327 394 460
#
# _framework density 23.486554000000002
#
# number of rings (size 3 to 8) (size 9 to 14) (size 15 to 20)
#    0.000    1.200    3.000    0.600    5.600    4.800 
#    5.400    0.000    0.000    0.000    0.000    0.000 
#    0.000    0.000    0.000    0.000    0.000    0.000 
#
# Total GULP energy -55717.074119 kJ/mol
# GULP energy per Si atom -5571.707412 kJ/mol
# Density = 2.343310 g / cm^3
# Si number density = 23.486554 Si / 1000 Ang^3
#
#
#
# Elastic Constant Matrix: (Units=GPa)
#
#
# Indices 1 2 3 4 5 6 
#
# 1 138.0917 27.2696 68.8140 0.0000 5.5274 0.0000
# 2 27.2696 92.6109 39.6220 0.0000 9.3220 0.0000
# 3 68.8140 39.6220 169.3405 0.0000 -21.2449 0.0000
# 4 0.0000 0.0000 0.0000 129.5257 0.0000 21.4687
# 5 5.5274 9.3220 -21.2449 0.0000 45.8451 0.0000
# 6 0.0000 0.0000 0.0000 21.4687 0.0000 27.9512
#
#
#
# Elastic Compliance Matrix: (Units=1/GPa)
#
#
# Indices 1 2 3 4 5 6 
#
# 1 0.009528 -0.000786 -0.004048 0.000000 -0.002865 0.000000
# 2 -0.000786 0.012786 -0.003171 0.000000 -0.003975 0.000000
# 3 -0.004048 -0.003171 0.008955 0.000000 0.005282 0.000000
# 4 0.000000 0.000000 0.000000 0.008847 0.000000 -0.006795
# 5 -0.002865 -0.003975 0.005282 0.000000 0.025414 0.000000
# 6 0.000000 0.000000 0.000000 -0.006795 0.000000 0.040996
#
#
# Mechanical properties :
#
#
# Convention : Reuss Voigt Hill
#
# Bulk Modulus (GPa) = 65.52824 74.60601 70.06713
# Shear Modulus (GPa) = 39.17855 58.28691 48.73273
#
# Velocity S-wave (km/s) = 4.08870 4.98708 4.56007
# Velocity P-wave (km/s) = 7.08878 8.06199 7.59100
#
# Compressibility (1/GPa) = 0.01526060
#
# Stress axis : x y z
#
# Youngs Moduli (GPa) = 104.94990 78.21097 111.67297
#
# Poissons Ratio (x) = 0.06144 0.45200
# Poissons Ratio (y) = 0.08245 0.35412
# Poissons Ratio (z) = 0.42479 0.24801
#
# Static dielectric constant tensor:
#      x y z
#    x 1.922320 0.000000 0.086600 
#    y 0.000000 1.841920 0.000000 
#    z 0.086600 0.000000 2.073730 
# 
# From -- ./inp_files/3209.got.cif
#   From: 2010.05.17/outbox.cif.g08.bks.cpg/sg5_2_cif.got.tgz:3209.got - 2010.06.03 18:56:24.
