data_PCOD9128559
_publ_section_title
;
Structure prediction by ZEFSAII (Michael W. Deem and Ramdas Pophale) SiO2 
 PCOD9128559
Probable space group: C 2
;
_chemical_formula_sum "Si O2"
_cell_formula_units_Z 18
_cell_length_a 5.550525
_cell_length_b 18.910013
_cell_length_c 7.760957
_cell_angle_alpha 90.000000
_cell_angle_beta 112.162620
_cell_angle_gamma 90.000000
_cell_volume 754.409196
_symmetry_space_group_name_H-M "C 2"
_symmetry_group_IT_number 5
_symmetry_cell_setting 'monoclinic'
loop_
_space_group_symop_operation_xyz
x,y,z
-x,y,-z
1/2+x,1/2+y,z
1/2-x,1/2+y,-z
loop_
_atom_site_type_symbol
_atom_site_label
_atom_site_fract_x
_atom_site_fract_y
_atom_site_fract_z
Si Si1 0.999575 0.250000 0.796417
Si Si2 0.191271 0.617636 0.215554
Si Si3 0.350602 0.891228 0.278151
Si Si4 0.645295 0.455451 0.717946
Si Si5 0.000000 0.702400 0.500000
O O1 0.081083 0.170907 0.772849
O O2 0.189351 0.308294 0.767258
O O3 0.722707 0.254555 0.630204
O O4 0.000000 0.258788 0.000000
O O5 0.293850 0.538626 0.263609
O O6 0.074010 0.651232 0.359125
O O7 0.000000 0.619583 0.000000
O O8 0.500000 0.901064 0.500000
O O9 0.573506 0.917755 0.205909
O O10 0.076468 0.931579 0.207358
O O11 0.500000 0.438790 0.500000
#
# Coordination Sequence:
#
# PCOD9128559 Si02
#       5
#     4   4   4   4   2
#     4  12  27  48  78 116 154 208 266 324 399 475
#     4  12  27  48  78 116 154 208 266 324 399 475
#     4  10  24  45  77 108 151 205 255 319 393 463
#     4  10  24  45  77 108 151 205 255 319 393 463
#     4  12  26  48  84 112 160 204 256 344 386 474
#
# _framework density 23.859729000000002
#
# number of rings (size 3 to 8) (size 9 to 14) (size 15 to 20)
#    0.000    0.889    2.222    3.333   15.556    0.889 
#    0.000    2.222    0.000    0.000    0.000    0.000 
#    0.000    0.000    0.000    0.000    0.000    0.000 
#
# Total GULP energy -50379.428750 kJ/mol
# GULP energy per Si atom -5597.714306 kJ/mol
# Density = 2.380542 g / cm^3
# Si number density = 23.859729 Si / 1000 Ang^3
#
#
#
# Elastic Constant Matrix: (Units=GPa)
#
#
# Indices 1 2 3 4 5 6 
#
# 1 104.9433 16.9172 57.3902 0.0000 -9.7319 0.0000
# 2 16.9172 81.3896 -6.6735 0.0000 -9.1418 0.0000
# 3 57.3902 -6.6735 137.1589 0.0000 -26.8230 0.0000
# 4 0.0000 0.0000 0.0000 77.6682 0.0000 14.2723
# 5 -9.7319 -9.1418 -26.8230 0.0000 17.0097 0.0000
# 6 0.0000 0.0000 0.0000 14.2723 0.0000 32.2676
#
#
#
# Elastic Compliance Matrix: (Units=1/GPa)
#
#
# Indices 1 2 3 4 5 6 
#
# 1 0.013409 -0.003929 -0.006816 0.000000 -0.005189 0.000000
# 2 -0.003929 0.015081 0.005094 0.000000 0.013891 0.000000
# 3 -0.006816 0.005094 0.014695 0.000000 0.022011 0.000000
# 4 0.000000 0.000000 0.000000 0.014014 0.000000 -0.006199
# 5 -0.005189 0.013891 0.022011 0.000000 0.097997 0.000000
# 6 0.000000 0.000000 0.000000 -0.006199 0.000000 0.033733
#
#
# Mechanical properties :
#
#
# Convention : Reuss Voigt Hill
#
# Bulk Modulus (GPa) = 31.36459 50.97329 41.16894
# Shear Modulus (GPa) = 23.71252 42.44627 33.07939
#
# Velocity S-wave (km/s) = 3.15593 4.22239 3.72749
# Velocity P-wave (km/s) = 5.14332 6.72172 5.98478
#
# Compressibility (1/GPa) = 0.03188309
#
# Stress axis : x y z
#
# Youngs Moduli (GPa) = 74.57790 66.30815 68.04858
#
# Poissons Ratio (x) = 0.26051 0.46385
# Poissons Ratio (y) = 0.29300 -0.34665
# Poissons Ratio (z) = 0.50835 -0.33778
#
# Static dielectric constant tensor:
#      x y z
#    x 1.985280 0.000000 0.021850 
#    y 0.000000 1.843250 0.000000 
#    z 0.021850 0.000000 1.939090 
# 
# From -- ./inp_files/12016.got.cif
#   From: 2010.05.17/outbox.cif.g08.bks.cpg/sg5_7_cif.got.tgz:12016.got - 2010.06.03 18:56:24.
