data_PCOD9128457
_publ_section_title
;
Structure prediction by ZEFSAII (Michael W. Deem and Ramdas Pophale) SiO2 
 PCOD9128457
Probable space group: C 2
;
_chemical_formula_sum "Si O2"
_cell_formula_units_Z 22
_cell_length_a 12.790281
_cell_length_b 6.810320
_cell_length_c 11.781549
_cell_angle_alpha 90.000000
_cell_angle_beta 112.178178
_cell_angle_gamma 90.000000
_cell_volume 950.315363
_symmetry_space_group_name_H-M "C 2"
_symmetry_group_IT_number 5
_symmetry_cell_setting 'monoclinic'
loop_
_space_group_symop_operation_xyz
x,y,z
-x,y,-z
1/2+x,1/2+y,z
1/2-x,1/2+y,-z
loop_
_atom_site_type_symbol
_atom_site_label
_atom_site_fract_x
_atom_site_fract_y
_atom_site_fract_z
Si Si1 0.800171 0.939830 0.661103
Si Si2 0.333612 0.427514 0.927186
Si Si3 0.903473 0.731556 0.368705
Si Si4 0.000000 0.284593 0.000000
Si Si5 0.380350 0.628963 0.475673
Si Si6 0.414120 0.084896 0.127268
O O1 0.849871 0.873225 0.801537
O O2 0.726792 0.767254 0.575842
O O3 0.708630 0.106595 0.654587
O O4 0.881948 0.027371 0.599670
O O5 0.395257 0.636796 0.966221
O O6 0.202320 0.463115 0.900643
O O7 0.384781 0.261265 0.028910
O O8 0.945669 0.675665 0.261215
O O9 0.000000 0.688094 0.500000
O O10 0.872154 0.958198 0.378085
O O11 0.999318 0.430406 0.892164
O O12 0.500000 0.731613 0.500000
#
# Coordination Sequence:
#
# PCOD9128457 Si02
#       6
#     4   4   4   2   4   4
#     4  11  24  44  70 103 140 183 233 289 349 410
#     4  11  26  45  73 105 141 189 237 290 354 417
#     4  10  24  44  70 104 141 182 231 289 349 411
#     4  12  26  46  74 102 140 190 230 292 356 416
#     4  11  24  43  70 102 138 182 231 289 346 420
#     4  11  25  47  72 107 144 182 239 294 345 425
#
# _framework density 23.150210999999999
#
# number of rings (size 3 to 8) (size 9 to 14) (size 15 to 20)
#    0.000    1.091    3.636    1.091    2.545   10.182 
#    0.000    0.000    0.000    0.000    0.000    0.000 
#    0.000    0.000    0.000    0.000    0.000    0.000 
#
# Total GULP energy -61586.703746 kJ/mol
# GULP energy per Si atom -5598.791250 kJ/mol
# Density = 2.309752 g / cm^3
# Si number density = 23.150211 Si / 1000 Ang^3
#
#
#
# Elastic Constant Matrix: (Units=GPa)
#
#
# Indices 1 2 3 4 5 6 
#
# 1 65.3462 7.8144 21.9985 0.0000 -20.9890 0.0000
# 2 7.8144 74.2110 22.9010 0.0000 -13.8503 0.0000
# 3 21.9985 22.9010 144.5112 0.0000 -19.8367 0.0000
# 4 0.0000 0.0000 0.0000 33.0671 0.0000 -2.3299
# 5 -20.9890 -13.8503 -19.8367 0.0000 38.4079 0.0000
# 6 0.0000 0.0000 0.0000 -2.3299 0.0000 35.9685
#
#
#
# Elastic Compliance Matrix: (Units=1/GPa)
#
#
# Indices 1 2 3 4 5 6 
#
# 1 0.018892 0.000298 -0.001605 0.000000 0.009603 0.000000
# 2 0.000298 0.014848 -0.001766 0.000000 0.004605 0.000000
# 3 -0.001605 -0.001766 0.007788 0.000000 0.002508 0.000000
# 4 0.000000 0.000000 0.000000 0.030380 0.000000 0.001968
# 5 0.009603 0.004605 0.002508 0.000000 0.034240 0.000000
# 6 0.000000 0.000000 0.000000 0.001968 0.000000 0.027930
#
#
# Mechanical properties :
#
#
# Convention : Reuss Voigt Hill
#
# Bulk Modulus (GPa) = 28.26254 43.27736 35.76995
# Shear Modulus (GPa) = 32.89060 36.91235 34.90148
#
# Velocity S-wave (km/s) = 3.77337 3.99742 3.88701
# Velocity P-wave (km/s) = 5.58742 6.32776 5.96908
#
# Compressibility (1/GPa) = 0.03538252
#
# Stress axis : x y z
#
# Youngs Moduli (GPa) = 52.93208 67.34809 128.39537
#
# Poissons Ratio (x) = -0.02008 0.20608
# Poissons Ratio (y) = -0.01578 0.22678
# Poissons Ratio (z) = 0.08496 0.11896
#
# Static dielectric constant tensor:
#      x y z
#    x 1.869120 0.000000 -0.019450 
#    y 0.000000 1.850150 0.000000 
#    z -0.019450 0.000000 1.853050 
# 
# From -- ./inp_files/41157.got.cif
#   From: 2010.05.17/outbox.cif.g08.bks.cpg/sg5_21_cif.got.tgz:41157.got - 2010.06.03 18:56:24.
