data_PCOD9128671
_publ_section_title
;
Structure prediction by ZEFSAII (Michael W. Deem and Ramdas Pophale) SiO2 
 PCOD9128671
Probable space group: C 2
;
_chemical_formula_sum "Si O2"
_cell_formula_units_Z 18
_cell_length_a 7.682068
_cell_length_b 10.888453
_cell_length_c 9.318898
_cell_angle_alpha 90.000000
_cell_angle_beta 83.580579
_cell_angle_gamma 90.000000
_cell_volume 774.599695
_symmetry_space_group_name_H-M "C 2"
_symmetry_group_IT_number 5
_symmetry_cell_setting 'monoclinic'
loop_
_space_group_symop_operation_xyz
x,y,z
-x,y,-z
1/2+x,1/2+y,z
1/2-x,1/2+y,-z
loop_
_atom_site_type_symbol
_atom_site_label
_atom_site_fract_x
_atom_site_fract_y
_atom_site_fract_z
Si Si1 0.801608 0.082090 0.466877
Si Si2 0.500000 0.092887 0.000000
Si Si3 0.290139 0.783464 0.036238
Si Si4 0.176738 0.342866 0.642766
Si Si5 0.650709 0.942239 0.220055
O O1 0.752698 0.226727 0.456717
O O2 0.764082 0.026483 0.312351
O O3 0.000000 0.079661 0.500000
O O4 0.711990 0.977438 0.573810
O O5 0.324459 0.169253 0.999728
O O6 0.498535 0.015448 0.854631
O O7 0.249424 0.820279 0.203372
O O8 0.500000 0.762617 0.000000
O O9 0.242919 0.883934 0.920268
O O10 0.964097 0.341981 0.682389
#
# Coordination Sequence:
#
# PCOD9128671 Si02
#       5
#     4   2   4   4   4
#     4  12  27  44  69 107 142 195 238 285 366 435
#     4  12  22  44  78 104 142 188 240 298 370 418
#     4  10  24  47  73 108 144 183 245 306 358 423
#     4  11  25  49  68 103 148 186 237 300 353 430
#     4  11  24  48  71 104 142 185 241 311 352 423
#
# _framework density 23.23781
#
# number of rings (size 3 to 8) (size 9 to 14) (size 15 to 20)
#    0.000    0.889    5.556    2.000    3.111    7.111 
#    2.000    0.000    0.000    0.000    0.000    0.000 
#    0.000    0.000    0.000    0.000    0.000    0.000 
#
# Total GULP energy -50199.471405 kJ/mol
# GULP energy per Si atom -5577.719045 kJ/mol
# Density = 2.318492 g / cm^3
# Si number density = 23.237810 Si / 1000 Ang^3
#
#
#
# Elastic Constant Matrix: (Units=GPa)
#
#
# Indices 1 2 3 4 5 6 
#
# 1 42.9322 21.9114 36.2539 0.0000 18.2103 0.0000
# 2 21.9114 137.1809 75.0569 0.0000 -8.0850 0.0000
# 3 36.2539 75.0569 144.4896 0.0000 10.0489 0.0000
# 4 0.0000 0.0000 0.0000 52.8624 0.0000 15.9970
# 5 18.2103 -8.0850 10.0489 0.0000 28.0622 0.0000
# 6 0.0000 0.0000 0.0000 15.9970 0.0000 36.0038
#
#
#
# Elastic Compliance Matrix: (Units=1/GPa)
#
#
# Indices 1 2 3 4 5 6 
#
# 1 0.042390 -0.004948 -0.006208 0.000000 -0.026711 0.000000
# 2 -0.004948 0.011480 -0.005307 0.000000 0.008419 0.000000
# 3 -0.006208 -0.005307 0.011344 0.000000 -0.001563 0.000000
# 4 0.000000 0.000000 0.000000 0.021856 0.000000 -0.009711
# 5 -0.026711 0.008419 -0.001563 0.000000 0.055954 0.000000
# 6 0.000000 0.000000 0.000000 -0.009711 0.000000 0.032089
#
#
# Mechanical properties :
#
#
# Convention : Reuss Voigt Hill
#
# Bulk Modulus (GPa) = 30.97235 65.67192 48.32213
# Shear Modulus (GPa) = 22.85158 36.14438 29.49798
#
# Velocity S-wave (km/s) = 3.13929 3.94815 3.56672
# Velocity P-wave (km/s) = 5.14758 7.00757 6.14832
#
# Compressibility (1/GPa) = 0.03228687
#
# Stress axis : x y z
#
# Youngs Moduli (GPa) = 23.59045 87.10694 88.15051
#
# Poissons Ratio (x) = 0.43105 0.54723
# Poissons Ratio (y) = 0.11674 0.46785
# Poissons Ratio (z) = 0.14645 0.46231
#
# Static dielectric constant tensor:
#      x y z
#    x 1.880870 0.000000 -0.063720 
#    y 0.000000 2.026960 0.000000 
#    z -0.063720 0.000000 1.963800 
# 
# From -- ./inp_files/13958.got.cif
#   From: 2010.05.17/outbox.cif.g08.bks.cpg/sg5_7_cif.got.tgz:13958.got - 2010.06.03 18:56:24.
