data_PCOD9128824
_publ_section_title
;
Structure prediction by ZEFSAII (Michael W. Deem and Ramdas Pophale) SiO2 
 PCOD9128824
Probable space group: C 2
;
_chemical_formula_sum "Si O2"
_cell_formula_units_Z 32
_cell_length_a 9.128437
_cell_length_b 16.588156
_cell_length_c 10.932477
_cell_angle_alpha 90.000000
_cell_angle_beta 124.599619
_cell_angle_gamma 90.000000
_cell_volume 1362.658058
_symmetry_space_group_name_H-M "C 2"
_symmetry_group_IT_number 5
_symmetry_cell_setting 'monoclinic'
loop_
_space_group_symop_operation_xyz
x,y,z
-x,y,-z
1/2+x,1/2+y,z
1/2-x,1/2+y,-z
loop_
_atom_site_type_symbol
_atom_site_label
_atom_site_fract_x
_atom_site_fract_y
_atom_site_fract_z
Si Si1 0.905572 0.220020 0.291265
Si Si2 0.253129 0.649055 0.469242
Si Si3 0.320280 0.855663 0.623003
Si Si4 0.836492 0.808153 0.010642
Si Si5 0.692056 0.571304 0.151233
Si Si6 0.424149 0.960591 0.095714
Si Si7 0.706508 0.982214 0.562611
Si Si8 0.109973 0.736394 0.700770
O O1 0.801697 0.183954 0.358380
O O2 0.071950 0.159723 0.363601
O O3 0.020554 0.302379 0.360815
O O4 0.780703 0.240570 0.117812
O O5 0.209058 0.556074 0.467576
O O6 0.083190 0.701456 0.426041
O O7 0.417172 0.923596 0.748741
O O8 0.203019 0.802583 0.658860
O O9 0.219965 0.901967 0.466726
O O10 0.902295 0.773635 0.169652
O O11 0.714984 0.886095 0.978131
O O12 0.000000 0.829495 0.000000
O O13 0.828083 0.533789 0.117299
O O14 0.695771 0.510241 0.268243
O O15 0.766418 0.657531 0.227718
O O16 0.500000 0.578227 0.000000
O O17 0.500000 0.982921 0.000000
O O18 0.500000 0.969189 0.500000
#
# Coordination Sequence:
#
# PCOD9128824 Si02
#       8
#     4   4   4   4   4   4   4   4
#     4  10  25  43  74 109 153 202 259 321 383 455
#     4  11  24  47  72 109 151 199 262 319 384 465
#     4  11  25  46  79 108 152 210 258 322 384 466
#     4  11  23  43  74 112 158 210 259 317 391 467
#     4  12  29  49  79 115 160 208 257 323 402 470
#     4  11  23  47  73 112 157 202 258 321 387 469
#     4  12  25  51  78 104 154 209 255 318 401 458
#     4  12  25  47  77 117 153 206 268 320 387 466
#
# _framework density 23.483515000000001
#
# number of rings (size 3 to 8) (size 9 to 14) (size 15 to 20)
#    0.000    0.750    5.000    1.125    7.000    0.500 
#    4.500    5.000    0.000    0.000    0.000    0.000 
#    0.000    0.000    0.000    0.000    0.000    0.000 
#
# Total GULP energy -89563.719197 kJ/mol
# GULP energy per Si atom -5597.732450 kJ/mol
# Density = 2.343007 g / cm^3
# Si number density = 23.483515 Si / 1000 Ang^3
#
#
#
# Elastic Constant Matrix: (Units=GPa)
#
#
# Indices 1 2 3 4 5 6 
#
# 1 176.4340 76.0859 71.2181 0.0000 -20.9392 0.0000
# 2 76.0859 102.0749 27.4376 0.0000 -18.1196 0.0000
# 3 71.2181 27.4376 78.4864 0.0000 0.8194 0.0000
# 4 0.0000 0.0000 0.0000 8.9537 0.0000 -17.3724
# 5 -20.9392 -18.1196 0.8194 0.0000 52.0136 0.0000
# 6 0.0000 0.0000 0.0000 -17.3724 0.0000 37.0776
#
#
#
# Elastic Compliance Matrix: (Units=1/GPa)
#
#
# Indices 1 2 3 4 5 6 
#
# 1 0.012385 -0.006269 -0.009077 0.000000 0.002945 0.000000
# 2 -0.006269 0.014805 0.000485 0.000000 0.002626 0.000000
# 3 -0.009077 0.000485 0.020848 0.000000 -0.003814 0.000000
# 4 0.000000 0.000000 0.000000 1.228646 0.000000 0.575674
# 5 0.002945 0.002626 -0.003814 0.000000 0.021386 0.000000
# 6 0.000000 0.000000 0.000000 0.575674 0.000000 0.296699
#
#
# Mechanical properties :
#
#
# Convention : Reuss Voigt Hill
#
# Bulk Modulus (GPa) = 54.59623 78.49762 66.54693
# Shear Modulus (GPa) = 3.06636 31.75920 17.41278
#
# Velocity S-wave (km/s) = 1.14393 3.68149 2.72598
# Velocity P-wave (km/s) = 5.00440 7.18126 6.18928
#
# Compressibility (1/GPa) = 0.01831628
#
# Stress axis : x y z
#
# Youngs Moduli (GPa) = 80.74462 67.54369 47.96678
#
# Poissons Ratio (x) = 0.42342 0.43540
# Poissons Ratio (y) = 0.50617 -0.02327
# Poissons Ratio (z) = 0.73293 -0.03277
#
# Static dielectric constant tensor:
#      x y z
#    x 1.881850 0.000000 -0.037330 
#    y 0.000000 1.887340 0.000000 
#    z -0.037330 0.000000 1.949110 
# 
# From -- ./inp_files/37019.got.cif
#   From: 2010.05.17/outbox.cif.g08.bks.cpg/sg5_19_cif.got.tgz:37019.got - 2010.06.03 18:56:24.
