data_PCOD9128369
_publ_section_title
;
Structure prediction by ZEFSAII (Michael W. Deem and Ramdas Pophale) SiO2 
 PCOD9128369
Probable space group: C 2
;
_chemical_formula_sum "Si O2"
_cell_formula_units_Z 28
_cell_length_a 19.638970
_cell_length_b 9.930509
_cell_length_c 7.996235
_cell_angle_alpha 90.000000
_cell_angle_beta 57.825550
_cell_angle_gamma 90.000000
_cell_volume 1319.979469
_symmetry_space_group_name_H-M "C 2"
_symmetry_group_IT_number 5
_symmetry_cell_setting 'monoclinic'
loop_
_space_group_symop_operation_xyz
x,y,z
-x,y,-z
1/2+x,1/2+y,z
1/2-x,1/2+y,-z
loop_
_atom_site_type_symbol
_atom_site_label
_atom_site_fract_x
_atom_site_fract_y
_atom_site_fract_z
Si Si1 0.936028 0.543260 0.934891
Si Si2 0.822828 0.330136 0.691529
Si Si3 0.000000 0.944812 0.500000
Si Si4 0.338305 0.538613 0.569324
Si Si5 0.292786 0.836773 0.121030
Si Si6 0.191301 0.034094 0.772055
Si Si7 0.000000 0.438497 0.500000
Si Si8 0.061654 0.843691 0.075593
O O1 0.975780 0.518651 0.700504
O O2 0.901011 0.694370 0.982366
O O3 0.870406 0.429106 0.055186
O O4 0.000000 0.536766 0.000000
O O5 0.802747 0.187618 0.636144
O O6 0.775435 0.454027 0.670406
O O7 0.918684 0.356381 0.563673
O O8 0.793533 0.322261 0.920682
O O9 0.017921 0.858932 0.310582
O O10 0.077273 0.032610 0.445889
O O11 0.282998 0.421556 0.716835
O O12 0.345822 0.516917 0.362619
O O13 0.297975 0.689491 0.194708
O O14 0.128914 0.958620 0.975002
O O15 0.000000 0.856768 0.000000
#
# Coordination Sequence:
#
# PCOD9128369 Si02
#       8
#     4   4   2   4   4   4   2   4
#     4  10  24  42  71  98 138 176 223 286 340 406
#     4  11  24  46  70  99 139 178 233 281 343 415
#     4  12  24  44  74 100 140 182 228 290 340 414
#     4  12  26  44  70 103 137 185 229 285 348 407
#     4  11  25  45  68 100 134 185 227 281 346 408
#     4  12  26  44  71 102 140 180 233 286 341 414
#     4  10  24  44  70 106 128 182 226 284 342 414
#     4  11  23  45  67 104 136 179 229 283 344 409
#
# _framework density 21.212451999999999
#
# number of rings (size 3 to 8) (size 9 to 14) (size 15 to 20)
#    0.000    0.857    1.429    5.143    4.000    6.286 
#    0.000    0.000    0.000    0.000    0.000    0.000 
#    0.000    0.000    0.000    0.000    0.000    0.000 
#
# Total GULP energy -78314.750975 kJ/mol
# GULP energy per Si atom -5593.910784 kJ/mol
# Density = 2.116417 g / cm^3
# Si number density = 21.212452 Si / 1000 Ang^3
#
#
#
# Elastic Constant Matrix: (Units=GPa)
#
#
# Indices 1 2 3 4 5 6 
#
# 1 96.9578 46.7132 45.5474 0.0000 2.1703 0.0000
# 2 46.7132 164.4131 55.0600 0.0000 -22.4404 0.0000
# 3 45.5474 55.0600 94.5583 0.0000 -1.3103 0.0000
# 4 0.0000 0.0000 0.0000 17.8908 0.0000 17.5708
# 5 2.1703 -22.4404 -1.3103 0.0000 32.2399 0.0000
# 6 0.0000 0.0000 0.0000 17.5708 0.0000 73.5967
#
#
#
# Elastic Compliance Matrix: (Units=1/GPa)
#
#
# Indices 1 2 3 4 5 6 
#
# 1 0.014157 -0.002654 -0.005316 0.000000 -0.003016 0.000000
# 2 -0.002654 0.008989 -0.003869 0.000000 0.006278 0.000000
# 3 -0.005316 -0.003869 0.015365 0.000000 -0.001710 0.000000
# 4 0.000000 0.000000 0.000000 0.073015 0.000000 -0.017432
# 5 -0.003016 0.006278 -0.001710 0.000000 0.035521 0.000000
# 6 0.000000 0.000000 0.000000 -0.017432 0.000000 0.017749
#
#
# Mechanical properties :
#
#
# Convention : Reuss Voigt Hill
#
# Bulk Modulus (GPa) = 67.41183 72.28559 69.84871
# Shear Modulus (GPa) = 25.85092 38.65272 32.25182
#
# Velocity S-wave (km/s) = 3.49473 4.27332 3.90349
# Velocity P-wave (km/s) = 6.93776 7.64848 7.30177
#
# Compressibility (1/GPa) = 0.01483419
#
# Stress axis : x y z
#
# Youngs Moduli (GPa) = 70.63640 111.25103 65.08302
#
# Poissons Ratio (x) = 0.29524 0.34597
# Poissons Ratio (y) = 0.18745 0.25179
# Poissons Ratio (z) = 0.37549 0.43040
#
# Static dielectric constant tensor:
#      x y z
#    x 1.758140 0.000000 -0.002780 
#    y 0.000000 1.740360 0.000000 
#    z -0.002780 0.000000 1.751480 
# 
# From -- ./inp_files/29123.got.cif
#   From: 2010.05.17/outbox.cif.g08.bks.cpg/sg5_15_cif.got.tgz:29123.got - 2010.06.03 18:56:24.
