data_PCOD9128448
_publ_section_title
;
Structure prediction by ZEFSAII (Michael W. Deem and Ramdas Pophale) SiO2 
 PCOD9128448
Probable space group: C 2
;
_chemical_formula_sum "Si O2"
_cell_formula_units_Z 22
_cell_length_a 16.262051
_cell_length_b 11.171790
_cell_length_c 12.841505
_cell_angle_alpha 90.000000
_cell_angle_beta 24.158090
_cell_angle_gamma 90.000000
_cell_volume 954.792029
_symmetry_space_group_name_H-M "C 2"
_symmetry_group_IT_number 5
_symmetry_cell_setting 'monoclinic'
loop_
_space_group_symop_operation_xyz
x,y,z
-x,y,-z
1/2+x,1/2+y,z
1/2-x,1/2+y,-z
loop_
_atom_site_type_symbol
_atom_site_label
_atom_site_fract_x
_atom_site_fract_y
_atom_site_fract_z
Si Si1 0.266786 0.314660 0.755343
Si Si2 0.821867 0.113354 0.287294
Si Si3 0.229484 0.073870 0.189601
Si Si4 0.000000 0.755970 0.000000
Si Si5 0.094284 0.389596 0.506434
Si Si6 0.088580 0.177864 0.150648
O O1 0.500000 0.333285 0.500000
O O2 0.219674 0.250198 0.700963
O O3 0.184633 0.446327 0.872952
O O4 0.208202 0.220166 0.911548
O O5 0.896743 0.114391 0.319374
O O6 0.632155 0.027266 0.492915
O O7 0.000000 0.074941 0.000000
O O8 0.382871 0.173397 0.052890
O O9 0.197590 0.089198 0.103504
O O10 0.000000 0.093013 0.500000
O O11 0.819201 0.834913 0.253582
O O12 0.000000 0.386348 0.500000
O O13 0.964993 0.299601 0.726086
#
# Coordination Sequence:
#
# PCOD9128448 Si02
#       6
#     4   4   4   2   4   4
#     4  10  25  45  67  96 143 182 222 281 343 401
#     4  10  24  44  68  98 143 182 223 278 347 399
#     4  11  24  45  70 103 141 174 232 283 338 411
#     4  12  22  40  74  98 136 184 210 288 348 380
#     4  12  24  45  72 103 139 176 233 284 338 411
#     4  11  24  43  66 109 130 177 238 277 330 415
#
# _framework density 23.041668999999999
#
# number of rings (size 3 to 8) (size 9 to 14) (size 15 to 20)
#    0.000    1.091    4.545    0.545    3.818   11.636 
#    0.000    0.000    0.000    0.000    0.000    0.000 
#    0.000    0.000    0.000    0.000    0.000    0.000 
#
# Total GULP energy -61461.216742 kJ/mol
# GULP energy per Si atom -5587.383340 kJ/mol
# Density = 2.298923 g / cm^3
# Si number density = 23.041669 Si / 1000 Ang^3
#
#
#
# Elastic Constant Matrix: (Units=GPa)
#
#
# Indices 1 2 3 4 5 6 
#
# 1 166.8362 47.0706 6.3480 -0.0001 -10.1376 0.0003
# 2 47.0706 118.8530 -0.0296 -0.0001 -9.1363 0.0003
# 3 6.3480 -0.0296 35.5709 -0.0006 -11.0665 0.0003
# 4 -0.0001 -0.0001 -0.0006 21.7061 0.0004 -21.6091
# 5 -10.1376 -9.1363 -11.0665 0.0004 22.8406 -0.0003
# 6 0.0003 0.0003 0.0003 -21.6091 -0.0003 29.0020
#
#
#
# Elastic Compliance Matrix: (Units=1/GPa)
#
#
# Indices 1 2 3 4 5 6 
#
# 1 0.006851 -0.002586 -0.000707 0.000000 0.001664 0.000000
# 2 -0.002586 0.009706 0.001555 0.000000 0.003488 0.000000
# 3 -0.000707 0.001555 0.033366 0.000001 0.016474 0.000001
# 4 0.000000 0.000000 0.000001 0.178398 -0.000001 0.132922
# 5 0.001664 0.003488 0.016474 -0.000001 0.053897 0.000000
# 6 0.000000 0.000000 0.000001 0.132922 0.000000 0.133519
#
#
# Mechanical properties :
#
#
# Convention : Reuss Voigt Hill
#
# Bulk Modulus (GPa) = 21.52987 47.55980 34.54483
# Shear Modulus (GPa) = 11.50228 32.56782 22.03505
#
# Velocity S-wave (km/s) = 2.23669 3.76364 3.09579
# Velocity P-wave (km/s) = 4.00432 6.29065 5.27289
#
# Compressibility (1/GPa) = 0.04644710
#
# Stress axis : x y z
#
# Youngs Moduli (GPa) = 145.95460 103.02564 29.97097
#
# Poissons Ratio (x) = 0.26639 0.02119
# Poissons Ratio (y) = 0.37740 -0.04660
# Poissons Ratio (z) = 0.10321 -0.16018
#
# Static dielectric constant tensor:
#      x y z
#    x 1.835380 0.000000 -0.006860 
#    y 0.000000 1.928190 0.000000 
#    z -0.006860 0.000000 1.921230 
# 
# From -- ./inp_files/42658.got.cif
#   From: 2010.05.17/outbox.cif.g08.bks.cpg/sg5_22_cif.got.tgz:42658.got - 2010.06.03 18:56:24.
