data_PCOD9128514
_publ_section_title
;
Structure prediction by ZEFSAII (Michael W. Deem and Ramdas Pophale) SiO2 
 PCOD9128514
Probable space group: C 2
;
_chemical_formula_sum "Si O2"
_cell_formula_units_Z 28
_cell_length_a 8.137118
_cell_length_b 12.613849
_cell_length_c 13.585484
_cell_angle_alpha 90.000000
_cell_angle_beta 63.596029
_cell_angle_gamma 90.000000
_cell_volume 1248.954711
_symmetry_space_group_name_H-M "C 2"
_symmetry_group_IT_number 5
_symmetry_cell_setting 'monoclinic'
loop_
_space_group_symop_operation_xyz
x,y,z
-x,y,-z
1/2+x,1/2+y,z
1/2-x,1/2+y,-z
loop_
_atom_site_type_symbol
_atom_site_label
_atom_site_fract_x
_atom_site_fract_y
_atom_site_fract_z
Si Si1 0.638345 0.497340 0.555589
Si Si2 0.037278 0.438053 0.649959
Si Si3 0.650021 0.382344 0.071148
Si Si4 0.194498 0.641976 0.337768
Si Si5 0.827460 0.872183 0.721298
Si Si6 0.967288 0.125837 0.895665
Si Si7 0.255246 0.802999 0.843415
O O1 0.500000 0.512746 0.500000
O O2 0.812599 0.425158 0.477446
O O3 0.714605 0.604688 0.583862
O O4 0.515061 0.438262 0.669239
O O5 0.169915 0.437107 0.708747
O O6 0.952174 0.552210 0.649643
O O7 0.880238 0.353569 0.723344
O O8 0.737932 0.353098 0.151077
O O9 0.592866 0.504338 0.085257
O O10 0.461429 0.312708 0.120322
O O11 0.769571 0.368024 0.941947
O O12 0.135680 0.763898 0.348612
O O13 0.344064 0.633478 0.212702
O O14 0.826253 0.190285 0.863458
O O15 0.000000 0.161202 0.000000
#
# Coordination Sequence:
#
# PCOD9128514 Si02
#       7
#     4   4   4   4   4   4   4
#     4  10  24  45  66  97 144 180 235 296 347 414
#     4  11  23  40  67 102 135 180 235 282 350 409
#     4  11  23  45  69 100 149 177 233 295 347 428
#     4  12  23  45  72  99 138 185 236 290 357 421
#     4  11  24  44  70 102 137 184 234 296 350 422
#     4  12  22  42  74 101 140 188 231 292 357 420
#     4  11  23  41  69 104 139 188 229 283 358 419
#
# _framework density 22.418747
#
# number of rings (size 3 to 8) (size 9 to 14) (size 15 to 20)
#    0.000    0.857    5.714    1.286    0.000    4.571 
#    0.000    4.286    0.000    0.000    0.000    0.000 
#    0.000    0.000    0.000    0.000    0.000    0.000 
#
# Total GULP energy -78146.272867 kJ/mol
# GULP energy per Si atom -5581.876633 kJ/mol
# Density = 2.236772 g / cm^3
# Si number density = 22.418747 Si / 1000 Ang^3
#
#
#
# Elastic Constant Matrix: (Units=GPa)
#
#
# Indices 1 2 3 4 5 6 
#
# 1 77.3760 32.1137 7.7034 0.0000 4.4235 0.0000
# 2 32.1137 67.2651 -14.0210 0.0000 6.2480 0.0000
# 3 7.7034 -14.0210 83.4415 0.0000 6.0660 0.0000
# 4 0.0000 0.0000 0.0000 15.0234 0.0000 8.2788
# 5 4.4235 6.2480 6.0660 0.0000 33.9244 0.0000
# 6 0.0000 0.0000 0.0000 8.2788 0.0000 35.7175
#
#
#
# Elastic Compliance Matrix: (Units=1/GPa)
#
#
# Indices 1 2 3 4 5 6 
#
# 1 0.016815 -0.008648 -0.003001 0.000000 -0.000063 0.000000
# 2 -0.008648 0.020237 0.004446 0.000000 -0.003394 0.000000
# 3 -0.003001 0.004446 0.013211 0.000000 -0.002790 0.000000
# 4 0.000000 0.000000 0.000000 0.076310 0.000000 -0.017687
# 5 -0.000063 -0.003394 -0.002790 0.000000 0.030610 0.000000
# 6 0.000000 0.000000 0.000000 -0.017687 0.000000 0.032097
#
#
# Mechanical properties :
#
#
# Convention : Reuss Voigt Hill
#
# Bulk Modulus (GPa) = 27.88777 31.07497 29.48137
# Shear Modulus (GPa) = 23.18696 30.41884 26.80290
#
# Velocity S-wave (km/s) = 3.21949 3.68754 3.46143
# Velocity P-wave (km/s) = 5.12705 5.65878 5.39947
#
# Compressibility (1/GPa) = 0.03585801
#
# Stress axis : x y z
#
# Youngs Moduli (GPa) = 59.46946 49.41428 75.69261
#
# Poissons Ratio (x) = 0.42732 0.22715
# Poissons Ratio (y) = 0.51427 -0.33650
# Poissons Ratio (z) = 0.17846 -0.21968
#
# Static dielectric constant tensor:
#      x y z
#    x 1.871930 0.000000 0.002410 
#    y 0.000000 1.846210 0.000000 
#    z 0.002410 0.000000 1.870780 
# 
# From -- ./inp_files/50425.got.cif
#   From: 2010.05.17/outbox.cif.g08.bks.cpg/sg5_26_cif.got.tgz:50425.got - 2010.06.03 18:56:24.
