data_PCOD9128436
_publ_section_title
;
Structure prediction by ZEFSAII (Michael W. Deem and Ramdas Pophale) SiO2 
 PCOD9128436
Probable space group: C 2
;
_chemical_formula_sum "Si O2"
_cell_formula_units_Z 24
_cell_length_a 7.483231
_cell_length_b 11.955989
_cell_length_c 18.473174
_cell_angle_alpha 90.000000
_cell_angle_beta 130.550292
_cell_angle_gamma 90.000000
_cell_volume 1255.844373
_symmetry_space_group_name_H-M "C 2"
_symmetry_group_IT_number 5
_symmetry_cell_setting 'monoclinic'
loop_
_space_group_symop_operation_xyz
x,y,z
-x,y,-z
1/2+x,1/2+y,z
1/2-x,1/2+y,-z
loop_
_atom_site_type_symbol
_atom_site_label
_atom_site_fract_x
_atom_site_fract_y
_atom_site_fract_z
Si Si1 0.133617 0.426340 0.167404
Si Si2 0.187126 0.926187 0.336881
Si Si3 0.768330 0.682695 0.581886
Si Si4 0.500000 0.106046 0.500000
Si Si5 0.000000 0.587884 0.000000
Si Si6 0.495062 0.677792 0.085166
Si Si7 0.607026 0.012913 0.752656
O O1 0.410227 0.443604 0.253333
O O2 0.088567 0.299886 0.130470
O O3 0.993382 0.450158 0.204211
O O4 0.047002 0.509712 0.081868
O O5 0.227927 0.806466 0.384179
O O6 0.316037 0.933623 0.293142
O O7 0.300094 0.024224 0.415061
O O8 0.500000 0.646232 0.500000
O O9 0.897930 0.678250 0.538649
O O10 0.909776 0.598029 0.670653
O O11 0.768418 0.659951 0.955246
O O12 0.666460 0.585633 0.165067
O O13 0.500000 0.665081 0.000000
#
# Coordination Sequence:
#
# PCOD9128436 Si02
#       7
#     4   4   4   2   2   4   4
#     4  12  25  42  68  97 131 172 220 270 325 388
#     4  11  23  44  68  99 131 173 220 266 324 390
#     4  11  23  44  69  97 136 173 213 268 326 387
#     4  10  24  44  66  98 136 170 216 266 324 392
#     4  12  26  42  68  94 132 172 216 276 328 384
#     4  12  25  43  66  96 128 172 221 269 330 386
#     4  11  25  43  68  96 133 171 218 272 323 386
#
# _framework density 19.110647
#
# number of rings (size 3 to 8) (size 9 to 14) (size 15 to 20)
#    0.000    0.667    6.667    1.000    0.000    5.333 
#    1.500    0.000    0.000    0.000    0.000    0.000 
#    0.000    0.000    0.000    0.000    0.000    0.000 
#
# Total GULP energy -67134.140113 kJ/mol
# GULP energy per Si atom -5594.511676 kJ/mol
# Density = 1.906715 g / cm^3
# Si number density = 19.110647 Si / 1000 Ang^3
#
#
#
# Elastic Constant Matrix: (Units=GPa)
#
#
# Indices 1 2 3 4 5 6 
#
# 1 113.9027 54.8847 60.6586 0.0000 -7.0292 0.0000
# 2 54.8847 76.6029 41.2249 0.0000 -8.7230 0.0000
# 3 60.6586 41.2249 128.9393 0.0000 6.5339 0.0000
# 4 0.0000 0.0000 0.0000 1.3173 0.0000 -6.8953
# 5 -7.0292 -8.7230 6.5339 0.0000 50.4117 0.0000
# 6 0.0000 0.0000 0.0000 -6.8953 0.0000 28.6674
#
#
#
# Elastic Compliance Matrix: (Units=1/GPa)
#
#
# Indices 1 2 3 4 5 6 
#
# 1 0.015346 -0.008367 -0.004609 0.000000 0.001289 0.000000
# 2 -0.008367 0.020932 -0.002900 0.000000 0.002831 0.000000
# 3 -0.004609 -0.002900 0.010981 -0.000001 -0.002568 0.000000
# 4 0.000000 0.000000 -0.000001 -2.930762 -0.000001 -0.704934
# 5 0.001289 0.002831 -0.002568 -0.000001 0.020839 0.000000
# 6 0.000000 0.000000 0.000000 -0.704934 0.000000 -0.134674
#
#
# Mechanical properties :
#
#
# Convention : Reuss Voigt Hill
#
# Bulk Modulus (GPa) = 64.48962 70.33127 67.41045
# Shear Modulus (GPa) = -1.68895 26.92441 12.61773
#
# Velocity S-wave (km/s) = -0.94111 3.75756 2.57231
# Velocity P-wave (km/s) = 5.71294 7.46376 6.64626
#
# Compressibility (1/GPa) = 0.01550637
#
# Stress axis : x y z
#
# Youngs Moduli (GPa) = 65.16542 47.77296 91.06500
#
# Poissons Ratio (x) = 0.39974 0.41974
# Poissons Ratio (y) = 0.54527 0.26405
# Poissons Ratio (z) = 0.30036 0.13852
#
# Static dielectric constant tensor:
#      x y z
#    x 1.635670 0.000000 -0.000730 
#    y 0.000000 1.620270 0.000000 
#    z -0.000730 0.000000 1.656770 
# 
# From -- ./inp_files/58592.got.cif
#   From: 2010.05.17/outbox.cif.g08.bks.cpg/sg5_30_cif.got.tgz:58592.got - 2010.06.03 18:56:24.
