data_PCOD9128862
_publ_section_title
;
Structure prediction by ZEFSAII (Michael W. Deem and Ramdas Pophale) SiO2 
 PCOD9128862
Probable space group: C 2
;
_chemical_formula_sum "Si O2"
_cell_formula_units_Z 28
_cell_length_a 8.509342
_cell_length_b 12.986349
_cell_length_c 11.093959
_cell_angle_alpha 90.000000
_cell_angle_beta 79.897576
_cell_angle_gamma 90.000000
_cell_volume 1206.933816
_symmetry_space_group_name_H-M "C 2"
_symmetry_group_IT_number 5
_symmetry_cell_setting 'monoclinic'
loop_
_space_group_symop_operation_xyz
x,y,z
-x,y,-z
1/2+x,1/2+y,z
1/2-x,1/2+y,-z
loop_
_atom_site_type_symbol
_atom_site_label
_atom_site_fract_x
_atom_site_fract_y
_atom_site_fract_z
Si Si1 0.664300 0.356100 0.912833
Si Si2 0.651467 0.756247 0.918955
Si Si3 0.150138 0.483771 0.308799
Si Si4 0.645318 0.220383 0.557114
Si Si5 0.993398 0.687659 0.796604
Si Si6 0.140562 0.345508 0.657315
Si Si7 0.314941 0.527819 0.545707
O O1 0.724138 0.434952 0.802360
O O2 0.624304 0.238805 0.869115
O O3 0.500000 0.389557 0.000000
O O4 0.804704 0.347330 0.993175
O O5 0.822113 0.703011 0.880323
O O6 0.615840 0.790598 0.787533
O O7 0.500000 0.701076 0.000000
O O8 0.043564 0.574998 0.259832
O O9 0.233909 0.515834 0.423399
O O10 0.029075 0.391517 0.357289
O O11 0.500000 0.173768 0.500000
O O12 0.537283 0.265442 0.678804
O O13 0.764517 0.279813 0.454487
O O14 0.758217 0.136971 0.602911
O O15 0.255737 0.443854 0.647477
O O16 0.500000 0.520845 0.500000
#
# Coordination Sequence:
#
# PCOD9128862 Si02
#       7
#     4   4   4   4   4   4   4
#     4  10  25  45  72 103 145 193 250 302 370 433
#     4  11  23  46  68 105 140 190 248 299 361 436
#     4  12  24  49  73 106 147 195 248 305 376 458
#     4  12  22  46  72 102 146 181 235 306 373 442
#     4  11  24  47  73 101 147 191 238 311 370 441
#     4  12  24  43  77 101 149 191 236 307 372 447
#     4  12  27  42  68 112 144 182 247 298 376 457
#
# _framework density 23.199285
#
# number of rings (size 3 to 8) (size 9 to 14) (size 15 to 20)
#    0.000    0.571    5.714    1.714    4.000    2.857 
#   10.286    0.000    0.000    0.000    0.000    0.000 
#    0.000    0.000    0.000    0.000    0.000    0.000 
#
# Total GULP energy -77944.140127 kJ/mol
# GULP energy per Si atom -5567.438581 kJ/mol
# Density = 2.314648 g / cm^3
# Si number density = 23.199285 Si / 1000 Ang^3
#
#
#
# Elastic Constant Matrix: (Units=GPa)
#
#
# Indices 1 2 3 4 5 6 
#
# 1 103.0929 14.7705 47.1690 0.0000 -20.6025 0.0000
# 2 14.7705 67.4730 31.9430 0.0000 -4.8187 0.0000
# 3 47.1690 31.9430 145.7046 0.0000 -24.2416 0.0000
# 4 0.0000 0.0000 0.0000 27.0674 0.0000 -9.2032
# 5 -20.6025 -4.8187 -24.2416 0.0000 49.7589 0.0000
# 6 0.0000 0.0000 0.0000 -9.2032 0.0000 26.4729
#
#
#
# Elastic Compliance Matrix: (Units=1/GPa)
#
#
# Indices 1 2 3 4 5 6 
#
# 1 0.011916 -0.000900 -0.003106 0.000000 0.003334 0.000000
# 2 -0.000900 0.016607 -0.003421 0.000000 -0.000431 0.000000
# 3 -0.003106 -0.003421 0.009086 0.000000 0.002809 0.000000
# 4 0.000000 0.000000 0.000000 0.041897 0.000000 0.014565
# 5 0.003334 -0.000431 0.002809 0.000000 0.022804 0.000000
# 6 0.000000 0.000000 0.000000 0.014565 0.000000 0.042838
#
#
# Mechanical properties :
#
#
# Convention : Reuss Voigt Hill
#
# Bulk Modulus (GPa) = 43.94632 56.00395 49.97514
# Shear Modulus (GPa) = 29.83529 35.48571 32.66050
#
# Velocity S-wave (km/s) = 3.59004 3.91526 3.75617
# Velocity P-wave (km/s) = 6.01403 6.68070 6.35611
#
# Compressibility (1/GPa) = 0.02275503
#
# Stress axis : x y z
#
# Youngs Moduli (GPa) = 83.92001 60.21705 110.05968
#
# Poissons Ratio (x) = 0.05421 0.34180
# Poissons Ratio (y) = 0.07555 0.37651
# Poissons Ratio (z) = 0.26062 0.20600
#
# Static dielectric constant tensor:
#      x y z
#    x 1.904390 0.000000 0.035600 
#    y 0.000000 1.972890 0.000000 
#    z 0.035600 0.000000 1.989830 
# 
# From -- ./inp_files/36078.got.cif
#   From: 2010.05.17/outbox.cif.g08.bks.cpg/sg5_19_cif.got.tgz:36078.got - 2010.06.03 18:56:24.
