data_PCOD9128434
_publ_section_title
;
Structure prediction by ZEFSAII (Michael W. Deem and Ramdas Pophale) SiO2 
 PCOD9128434
Probable space group: C 2
;
_chemical_formula_sum "Si O2"
_cell_formula_units_Z 22
_cell_length_a 12.921864
_cell_length_b 7.417980
_cell_length_c 8.678201
_cell_angle_alpha 90.000000
_cell_angle_beta 83.229478
_cell_angle_gamma 90.000000
_cell_volume 826.040378
_symmetry_space_group_name_H-M "C 2"
_symmetry_group_IT_number 5
_symmetry_cell_setting 'monoclinic'
loop_
_space_group_symop_operation_xyz
x,y,z
-x,y,-z
1/2+x,1/2+y,z
1/2-x,1/2+y,-z
loop_
_atom_site_type_symbol
_atom_site_label
_atom_site_fract_x
_atom_site_fract_y
_atom_site_fract_z
Si Si1 0.528815 0.459930 0.675165
Si Si2 0.000000 0.068721 0.000000
Si Si3 0.143364 0.664715 0.207795
Si Si4 0.119771 0.408617 0.500026
Si Si5 0.234063 0.995662 0.057333
Si Si6 0.284497 0.202276 0.332583
O O1 0.500000 0.484787 0.500000
O O2 0.510110 0.613087 0.810298
O O3 0.457275 0.291649 0.750830
O O4 0.643126 0.375136 0.662532
O O5 0.878905 0.993290 0.008441
O O6 0.149008 0.544932 0.356871
O O7 0.232717 0.811885 0.155890
O O8 0.163153 0.528345 0.063003
O O9 0.190258 0.233986 0.467050
O O10 0.146815 0.527770 0.641824
O O11 0.000000 0.369623 0.500000
O O12 0.236403 0.162503 0.175572
#
# Coordination Sequence:
#
# PCOD9128434 Si02
#       6
#     4   2   4   4   4   4
#     4  11  21  44  76 102 143 207 246 311 395 463
#     4  10  24  44  66 106 152 188 262 310 384 462
#     4  11  21  46  69 105 147 194 259 308 395 455
#     4  12  25  48  72 115 152 196 259 321 387 477
#     4  11  25  44  72 103 148 210 249 330 386 462
#     4  12  24  46  73 106 149 200 254 314 401 457
#
# _framework density 26.63308
#
# number of rings (size 3 to 8) (size 9 to 14) (size 15 to 20)
#    0.000    0.727    3.636    5.455    2.545    0.000 
#   13.091    0.000    0.000    0.000    0.000    0.000 
#    0.000    0.000    0.000    0.000    0.000    0.000 
#
# Total GULP energy -61344.997726 kJ/mol
# GULP energy per Si atom -5576.817975 kJ/mol
# Density = 2.657246 g / cm^3
# Si number density = 26.633080 Si / 1000 Ang^3
#
#
#
# Elastic Constant Matrix: (Units=GPa)
#
#
# Indices 1 2 3 4 5 6 
#
# 1 140.8803 42.5317 49.7822 0.0000 -10.0698 0.0000
# 2 42.5317 89.9889 21.2060 0.0000 -5.8617 0.0000
# 3 49.7822 21.2060 141.4589 0.0000 4.7025 0.0000
# 4 0.0000 0.0000 0.0000 31.9277 0.0000 -17.1381
# 5 -10.0698 -5.8617 4.7025 0.0000 32.9397 0.0000
# 6 0.0000 0.0000 0.0000 -17.1381 0.0000 30.8367
#
#
#
# Elastic Compliance Matrix: (Units=1/GPa)
#
#
# Indices 1 2 3 4 5 6 
#
# 1 0.009377 -0.003589 -0.002850 0.000000 0.002635 0.000000
# 2 -0.003589 0.013070 -0.000741 0.000000 0.001335 0.000000
# 3 -0.002850 -0.000741 0.008256 0.000000 -0.002181 0.000000
# 4 0.000000 0.000000 0.000000 0.044637 0.000000 0.024808
# 5 0.002635 0.001335 -0.002181 0.000000 0.031713 0.000000
# 6 0.000000 0.000000 0.000000 0.024808 0.000000 0.046216
#
#
# Mechanical properties :
#
#
# Convention : Reuss Voigt Hill
#
# Bulk Modulus (GPa) = 61.18232 66.59643 63.88937
# Shear Modulus (GPa) = 28.88917 36.39470 32.64194
#
# Velocity S-wave (km/s) = 3.29707 3.70066 3.50468
# Velocity P-wave (km/s) = 6.12506 6.58174 6.35750
#
# Compressibility (1/GPa) = 0.01634459
#
# Stress axis : x y z
#
# Youngs Moduli (GPa) = 106.64501 76.51042 121.13052
#
# Poissons Ratio (x) = 0.27457 0.34516
# Poissons Ratio (y) = 0.38272 0.08973
# Poissons Ratio (z) = 0.30389 0.05668
#
# Static dielectric constant tensor:
#      x y z
#    x 2.018150 0.000000 -0.047150 
#    y 0.000000 2.154960 0.000000 
#    z -0.047150 0.000000 2.182090 
# 
# From -- ./inp_files/22793.got.cif
#   From: 2010.05.17/outbox.cif.g08.bks.cpg/sg5_12_cif.got.tgz:22793.got - 2010.06.03 18:56:24.
