data_PCOD9128765
_publ_section_title
;
Structure prediction by ZEFSAII (Michael W. Deem and Ramdas Pophale) SiO2 
 PCOD9128765
Probable space group: C 2
;
_chemical_formula_sum "Si O2"
_cell_formula_units_Z 28
_cell_length_a 18.814809
_cell_length_b 6.061967
_cell_length_c 10.479920
_cell_angle_alpha 90.000000
_cell_angle_beta 116.322099
_cell_angle_gamma 90.000000
_cell_volume 1071.352141
_symmetry_space_group_name_H-M "C 2"
_symmetry_group_IT_number 5
_symmetry_cell_setting 'monoclinic'
loop_
_space_group_symop_operation_xyz
x,y,z
-x,y,-z
1/2+x,1/2+y,z
1/2-x,1/2+y,-z
loop_
_atom_site_type_symbol
_atom_site_label
_atom_site_fract_x
_atom_site_fract_y
_atom_site_fract_z
Si Si1 0.344463 0.323250 0.078029
Si Si2 0.989464 0.050778 0.778803
Si Si3 0.218522 0.613673 0.500470
Si Si4 0.500000 0.407361 0.500000
Si Si5 0.861295 0.565402 0.317895
Si Si6 0.000000 0.411125 0.000000
Si Si7 0.777381 0.174410 0.220519
Si Si8 0.875498 0.685719 0.765890
O O1 0.432403 0.409192 0.124326
O O2 0.350992 0.094017 0.157855
O O3 0.304640 0.480255 0.152069
O O4 0.286588 0.314798 0.912861
O O5 0.983315 0.041861 0.619210
O O6 0.913093 0.926061 0.778268
O O7 0.003217 0.269751 0.872584
O O8 0.259043 0.372879 0.510830
O O9 0.212749 0.625203 0.651271
O O10 0.125595 0.587194 0.378576
O O11 0.429344 0.236436 0.408365
O O12 0.856442 0.300615 0.328323
O O13 0.076234 0.560839 0.087905
O O14 0.717646 0.125259 0.287889
#
# Coordination Sequence:
#
# PCOD9128765 Si02
#       8
#     4   4   4   2   4   2   4   4
#     4  11  25  42  72 108 150 198 259 325 405 483
#     4  11  26  50  75 112 158 205 269 336 421 496
#     4  12  27  48  79 114 156 206 266 335 410 483
#     4  10  24  50  78 110 152 206 266 336 410 502
#     4  11  24  47  71 103 153 198 253 326 401 476
#     4  12  28  46  80 110 160 214 258 342 422 492
#     4  12  24  44  74 109 147 199 266 329 396 492
#     4  12  27  48  77 113 156 205 272 335 409 504
#
# _framework density 26.135196000000001
#
# number of rings (size 3 to 8) (size 9 to 14) (size 15 to 20)
#    0.000    0.571    4.286    3.000    4.000    4.571 
#    2.571    1.429    0.000    0.000    0.000    0.000 
#    0.000    0.000    0.000    0.000    0.000    0.000 
#
# Total GULP energy -78016.048883 kJ/mol
# GULP energy per Si atom -5572.574920 kJ/mol
# Density = 2.607571 g / cm^3
# Si number density = 26.135196 Si / 1000 Ang^3
#
#
#
# Elastic Constant Matrix: (Units=GPa)
#
#
# Indices 1 2 3 4 5 6 
#
# 1 59.2147 38.7884 5.7258 0.0000 -2.7904 0.0000
# 2 38.7884 87.3279 62.8590 0.0000 -11.4904 0.0000
# 3 5.7258 62.8590 153.4979 0.0000 4.1063 0.0000
# 4 0.0000 0.0000 0.0000 46.5501 0.0000 -3.7424
# 5 -2.7904 -11.4904 4.1063 0.0000 35.0667 0.0000
# 6 0.0000 0.0000 0.0000 -3.7424 0.0000 36.9006
#
#
#
# Elastic Compliance Matrix: (Units=1/GPa)
#
#
# Indices 1 2 3 4 5 6 
#
# 1 0.027245 -0.017002 0.006056 0.000000 -0.004112 0.000000
# 2 -0.017002 0.028270 -0.011189 0.000000 0.009221 0.000000
# 3 0.006056 -0.011189 0.010991 0.000000 -0.004472 0.000000
# 4 0.000000 0.000000 0.000000 0.021659 0.000000 0.002197
# 5 -0.004112 0.009221 -0.004472 0.000000 0.031735 0.000000
# 6 0.000000 0.000000 0.000000 0.002197 0.000000 0.027323
#
#
# Mechanical properties :
#
#
# Convention : Reuss Voigt Hill
#
# Bulk Modulus (GPa) = 44.97226 57.19853 51.08540
# Shear Modulus (GPa) = 25.13772 36.54798 30.84285
#
# Velocity S-wave (km/s) = 3.10471 3.74360 3.43902
# Velocity P-wave (km/s) = 5.48609 6.37332 5.94628
#
# Compressibility (1/GPa) = 0.02223593
#
# Stress axis : x y z
#
# Youngs Moduli (GPa) = 36.70365 35.37302 90.98664
#
# Poissons Ratio (x) = 0.60140 -0.55102
# Poissons Ratio (y) = 0.62403 1.01808
# Poissons Ratio (z) = -0.22228 0.39580
#
# Static dielectric constant tensor:
#      x y z
#    x 2.432460 0.000000 -0.236520 
#    y 0.000000 2.178290 0.000000 
#    z -0.236520 0.000000 2.425810 
# 
# From -- ./inp_files/45757.got.cif
#   From: 2010.05.17/outbox.cif.g08.bks.cpg/sg5_23_cif.got.tgz:45757.got - 2010.06.03 18:56:24.
