data_PCOD9128234
_publ_section_title
;
Structure prediction by ZEFSAII (Michael W. Deem and Ramdas Pophale) SiO2 
 PCOD9128234
Probable space group: C 2
;
_chemical_formula_sum "Si O2"
_cell_formula_units_Z 24
_cell_length_a 17.081975
_cell_length_b 8.893695
_cell_length_c 10.534318
_cell_angle_alpha 90.000000
_cell_angle_beta 47.256980
_cell_angle_gamma 90.000000
_cell_volume 1175.337195
_symmetry_space_group_name_H-M "C 2"
_symmetry_group_IT_number 5
_symmetry_cell_setting 'monoclinic'
loop_
_space_group_symop_operation_xyz
x,y,z
-x,y,-z
1/2+x,1/2+y,z
1/2-x,1/2+y,-z
loop_
_atom_site_type_symbol
_atom_site_label
_atom_site_fract_x
_atom_site_fract_y
_atom_site_fract_z
Si Si1 0.966673 0.060390 0.179695
Si Si2 0.943798 0.794744 0.761674
Si Si3 0.660193 0.218302 0.379211
Si Si4 0.869687 0.367420 0.267673
Si Si5 0.115469 0.668737 0.913481
Si Si6 0.245899 0.426553 0.355912
O O1 0.961135 0.241578 0.186847
O O2 0.846311 0.998789 0.320154
O O3 0.036168 0.959848 0.198795
O O4 0.000000 0.030143 0.000000
O O5 0.871579 0.798588 0.716139
O O6 0.058339 0.732704 0.585301
O O7 0.891976 0.687470 0.926347
O O8 0.762872 0.289551 0.331850
O O9 0.697420 0.047158 0.311767
O O10 0.883794 0.507660 0.157362
O O11 0.843198 0.412859 0.439634
O O12 0.209441 0.774091 0.754941
O O13 0.000000 0.730900 0.000000
#
# Coordination Sequence:
#
# PCOD9128234 Si02
#       6
#     4   4   4   4   4   4
#     4  11  20  38  63  91 120 166 210 261 307 384
#     4  11  21  42  64  87 135 166 208 262 336 362
#     4  10  24  39  64  92 124 171 208 265 317 387
#     4  11  23  37  64  97 122 160 225 258 311 385
#     4  12  21  38  65  91 124 169 207 261 318 375
#     4  11  20  38  64  91 121 161 215 255 311 378
#
# _framework density 20.419671000000001
#
# number of rings (size 3 to 8) (size 9 to 14) (size 15 to 20)
#    0.000    1.000    5.000    3.500    0.000    1.333 
#    0.000    0.000   11.000    0.000    0.000    0.000 
#    0.000    0.000    0.000    0.000    0.000    0.000 
#
# Total GULP energy -66876.016187 kJ/mol
# GULP energy per Si atom -5573.001349 kJ/mol
# Density = 2.037320 g / cm^3
# Si number density = 20.419671 Si / 1000 Ang^3
#
#
#
# Elastic Constant Matrix: (Units=GPa)
#
#
# Indices 1 2 3 4 5 6 
#
# 1 74.8511 26.8698 8.4040 0.0000 17.9976 0.0000
# 2 26.8698 131.9528 41.0343 0.0000 12.7771 0.0000
# 3 8.4040 41.0343 76.3601 0.0000 25.5664 0.0000
# 4 0.0000 0.0000 0.0000 33.5195 0.0000 -1.4855
# 5 17.9976 12.7771 25.5664 0.0000 27.2024 0.0000
# 6 0.0000 0.0000 0.0000 -1.4855 0.0000 27.8987
#
#
#
# Elastic Compliance Matrix: (Units=1/GPa)
#
#
# Indices 1 2 3 4 5 6 
#
# 1 0.017641 -0.003716 0.004930 0.000000 -0.014560 0.000000
# 2 -0.003716 0.009886 -0.006087 0.000000 0.003536 0.000000
# 3 0.004930 -0.006087 0.023287 0.000000 -0.022289 0.000000
# 4 0.000000 0.000000 0.000000 0.029904 0.000000 0.001592
# 5 -0.014560 0.003536 -0.022289 0.000000 0.065682 0.000000
# 6 0.000000 0.000000 0.000000 0.001592 0.000000 0.035929
#
#
# Mechanical properties :
#
#
# Convention : Reuss Voigt Hill
#
# Bulk Modulus (GPa) = 24.34990 48.42002 36.38496
# Shear Modulus (GPa) = 24.29968 31.51452 27.90710
#
# Velocity S-wave (km/s) = 3.45340 3.93280 3.70087
# Velocity P-wave (km/s) = 5.27749 6.66232 6.00992
#
# Compressibility (1/GPa) = 0.04106792
#
# Stress axis : x y z
#
# Youngs Moduli (GPa) = 56.68626 101.15621 42.94199
#
# Poissons Ratio (x) = 0.37585 -0.21170
# Poissons Ratio (y) = 0.21062 0.26141
# Poissons Ratio (z) = -0.27946 0.61578
#
# Static dielectric constant tensor:
#      x y z
#    x 1.690990 0.000000 0.049840 
#    y 0.000000 1.823310 0.000000 
#    z 0.049840 0.000000 1.778530 
# 
# From -- ./inp_files/45955.got.cif
#   From: 2010.05.17/outbox.cif.g08.bks.cpg/sg5_23_cif.got.tgz:45955.got - 2010.06.03 18:56:24.
