data_PCOD9128092
_publ_section_title
;
Structure prediction by ZEFSAII (Michael W. Deem and Ramdas Pophale) SiO2 
 PCOD9128092
Probable space group: C 2
;
_chemical_formula_sum "Si O2"
_cell_formula_units_Z 26
_cell_length_a 8.153565
_cell_length_b 22.827078
_cell_length_c 8.773132
_cell_angle_alpha 90.000000
_cell_angle_beta 51.439678
_cell_angle_gamma 90.000000
_cell_volume 1276.829187
_symmetry_space_group_name_H-M "C 2"
_symmetry_group_IT_number 5
_symmetry_cell_setting 'monoclinic'
loop_
_space_group_symop_operation_xyz
x,y,z
-x,y,-z
1/2+x,1/2+y,z
1/2-x,1/2+y,-z
loop_
_atom_site_type_symbol
_atom_site_label
_atom_site_fract_x
_atom_site_fract_y
_atom_site_fract_z
Si Si1 0.254730 0.736440 0.869309
Si Si2 0.216576 0.352871 0.311959
Si Si3 0.727783 0.955714 0.074749
Si Si4 0.898602 0.104864 0.728757
Si Si5 0.500000 0.020666 0.000000
Si Si6 0.000000 0.300046 0.000000
Si Si7 0.500000 0.559496 0.000000
Si Si8 0.393381 0.384557 0.719210
O O1 0.326678 0.787830 0.716651
O O2 0.332904 0.672772 0.776743
O O3 0.366513 0.758663 0.961795
O O4 0.000000 0.736874 0.000000
O O5 0.256019 0.396381 0.148868
O O6 0.419038 0.351195 0.300868
O O7 0.000000 0.378042 0.500000
O O8 0.850840 0.941316 0.847525
O O9 0.506439 0.976922 0.141026
O O10 0.810866 0.012723 0.110469
O O11 0.696532 0.063157 0.863821
O O12 0.000000 0.094922 0.500000
O O13 0.009756 0.092956 0.831473
O O14 0.182840 0.344174 0.828789
O O15 0.500000 0.400514 0.500000
#
# Coordination Sequence:
#
# PCOD9128092 Si02
#       8
#     4   4   4   4   2   2   2   4
#     4  12  23  46  74 102 143 185 235 304 361 425
#     4  12  24  41  68 106 146 185 229 294 363 431
#     4  11  22  44  67  96 144 181 226 294 358 419
#     4  11  25  48  76 100 135 191 242 298 361 422
#     4  10  25  42  70  98 136 183 240 298 344 426
#     4  12  24  44  72 102 148 190 230 292 362 432
#     4  10  23  46  70 100 140 181 240 294 350 424
#     4  12  25  41  65 106 145 189 239 280 355 444
#
# _framework density 20.362943000000001
#
# number of rings (size 3 to 8) (size 9 to 14) (size 15 to 20)
#    0.000    0.615    5.385    2.308    2.154    3.692 
#    0.000    2.308    0.000    0.000    0.000    0.000 
#    0.000    0.000    0.000    0.000    0.000    0.000 
#
# Total GULP energy -72368.182296 kJ/mol
# GULP energy per Si atom -5566.783254 kJ/mol
# Density = 2.031660 g / cm^3
# Si number density = 20.362943 Si / 1000 Ang^3
#
#
#
# Elastic Constant Matrix: (Units=GPa)
#
#
# Indices 1 2 3 4 5 6 
#
# 1 130.0795 31.8623 49.1580 0.0000 4.7397 0.0000
# 2 31.8623 111.4143 40.8252 0.0000 13.9723 0.0000
# 3 49.1580 40.8252 132.8635 0.0000 8.3105 0.0000
# 4 0.0000 0.0000 0.0000 28.4419 0.0000 6.5184
# 5 4.7397 13.9723 8.3105 0.0000 29.9002 0.0000
# 6 0.0000 0.0000 0.0000 6.5184 0.0000 40.0853
#
#
#
# Elastic Compliance Matrix: (Units=1/GPa)
#
#
# Indices 1 2 3 4 5 6 
#
# 1 0.009170 -0.001564 -0.002918 0.000000 0.000088 0.000000
# 2 -0.001564 0.010857 -0.002499 0.000000 -0.004131 0.000000
# 3 -0.002918 -0.002499 0.009436 0.000000 -0.000992 0.000000
# 4 0.000000 0.000000 0.000000 0.036520 0.000000 -0.005939
# 5 0.000088 -0.004131 -0.000992 0.000000 0.035637 0.000000
# 6 0.000000 0.000000 0.000000 -0.005939 0.000000 0.025913
#
#
# Mechanical properties :
#
#
# Convention : Reuss Voigt Hill
#
# Bulk Modulus (GPa) = 64.51221 68.67202 66.59211
# Shear Modulus (GPa) = 34.09221 36.51959 35.30590
#
# Velocity S-wave (km/s) = 4.09617 4.23949 4.16845
# Velocity P-wave (km/s) = 7.35673 7.60010 7.47941
#
# Compressibility (1/GPa) = 0.01550094
#
# Stress axis : x y z
#
# Youngs Moduli (GPa) = 109.04877 92.11038 105.97833
#
# Poissons Ratio (x) = 0.14410 0.30921
# Poissons Ratio (y) = 0.17060 0.26481
# Poissons Ratio (z) = 0.31817 0.23016
#
# Static dielectric constant tensor:
#      x y z
#    x 1.828410 0.000000 0.051850 
#    y 0.000000 1.694170 0.000000 
#    z 0.051850 0.000000 1.769420 
# 
# From -- ./inp_files/17033.got.cif
#   From: 2010.05.17/outbox.cif.g08.bks.cpg/sg5_9_cif.got.tgz:17033.got - 2010.06.03 18:56:24.
