data_PCOD9128536
_publ_section_title
;
Structure prediction by ZEFSAII (Michael W. Deem and Ramdas Pophale) SiO2 
 PCOD9128536
Probable space group: C 2
;
_chemical_formula_sum "Si O2"
_cell_formula_units_Z 30
_cell_length_a 19.808026
_cell_length_b 11.752400
_cell_length_c 11.282856
_cell_angle_alpha 90.000000
_cell_angle_beta 145.547420
_cell_angle_gamma 90.000000
_cell_volume 1485.906168
_symmetry_space_group_name_H-M "C 2"
_symmetry_group_IT_number 5
_symmetry_cell_setting 'monoclinic'
loop_
_space_group_symop_operation_xyz
x,y,z
-x,y,-z
1/2+x,1/2+y,z
1/2-x,1/2+y,-z
loop_
_atom_site_type_symbol
_atom_site_label
_atom_site_fract_x
_atom_site_fract_y
_atom_site_fract_z
Si Si1 0.860869 0.229180 0.317893
Si Si2 0.500000 0.222774 0.000000
Si Si3 0.812242 0.698569 0.147450
Si Si4 0.262129 0.080654 0.657578
Si Si5 0.140955 0.110728 0.233038
Si Si6 0.247432 0.972915 0.172716
Si Si7 0.528770 0.336895 0.789119
Si Si8 0.764019 0.835638 0.314421
O O1 0.809241 0.147947 0.344415
O O2 0.823105 0.358375 0.294146
O O3 0.000000 0.217795 0.500000
O O4 0.795855 0.200071 0.101272
O O5 0.616634 0.148116 0.195982
O O6 0.470848 0.295692 0.074450
O O7 0.819130 0.573308 0.212087
O O8 0.924191 0.739304 0.232089
O O9 0.784070 0.788023 0.211166
O O10 0.179286 0.077908 0.420947
O O11 0.297643 0.957189 0.759745
O O12 0.194060 0.235935 0.281610
O O13 0.204740 0.023694 0.235555
O O14 0.000000 0.108653 0.000000
O O15 0.127054 0.937028 0.926633
O O16 0.394795 0.359449 0.557380
#
# Coordination Sequence:
#
# PCOD9128536 Si02
#       8
#     4   2   4   4   4   4   4   4
#     4  11  27  44  68  98 135 178 223 277 342 402
#     4  12  24  46  66 100 138 184 228 270 342 410
#     4  10  24  46  67 100 129 177 229 283 337 394
#     4  12  27  45  71 101 139 180 227 282 340 405
#     4  11  26  45  68 102 137 179 225 279 345 409
#     4  10  24  45  70  95 134 180 221 280 337 404
#     4  11  23  44  72  95 137 176 231 276 338 419
#     4  11  26  42  69 102 131 179 228 282 341 400
#
# _framework density 20.189699000000001
#
# number of rings (size 3 to 8) (size 9 to 14) (size 15 to 20)
#    0.000    1.067    4.000    1.200   14.933    2.133 
#    2.400    0.000    0.000    0.000    0.000    0.000 
#    0.000    0.000    0.000    0.000    0.000    0.000 
#
# Total GULP energy -83866.494412 kJ/mol
# GULP energy per Si atom -5591.099627 kJ/mol
# Density = 2.014375 g / cm^3
# Si number density = 20.189699 Si / 1000 Ang^3
#
#
#
# Elastic Constant Matrix: (Units=GPa)
#
#
# Indices 1 2 3 4 5 6 
#
# 1 105.5010 53.7026 19.6602 0.0000 -16.1028 0.0000
# 2 53.7026 106.6675 -5.1186 0.0000 -15.0611 0.0000
# 3 19.6602 -5.1186 70.2423 0.0000 -4.4674 0.0000
# 4 0.0000 0.0000 0.0000 9.6332 0.0000 -1.8138
# 5 -16.1028 -15.0611 -4.4674 0.0000 39.7534 0.0000
# 6 0.0000 0.0000 0.0000 -1.8138 0.0000 18.5433
#
#
#
# Elastic Compliance Matrix: (Units=1/GPa)
#
#
# Indices 1 2 3 4 5 6 
#
# 1 0.014259 -0.007015 -0.004335 0.000000 0.002631 0.000000
# 2 -0.007015 0.013422 0.003106 0.000000 0.002593 0.000000
# 3 -0.004335 0.003106 0.015752 0.000000 0.001191 0.000000
# 4 0.000000 0.000000 0.000000 0.105756 0.000000 0.010345
# 5 0.002631 0.002593 0.001191 0.000000 0.027337 0.000000
# 6 0.000000 0.000000 0.000000 0.010345 0.000000 0.054940
#
#
# Mechanical properties :
#
#
# Convention : Reuss Voigt Hill
#
# Bulk Modulus (GPa) = 37.11210 46.54435 41.82823
# Shear Modulus (GPa) = 19.46027 27.86376 23.66201
#
# Velocity S-wave (km/s) = 3.10800 3.71900 3.42714
# Velocity P-wave (km/s) = 5.59474 6.44553 6.03514
#
# Compressibility (1/GPa) = 0.02694539
#
# Stress axis : x y z
#
# Youngs Moduli (GPa) = 70.13172 74.50479 63.48466
#
# Poissons Ratio (x) = 0.52267 0.27519
# Poissons Ratio (y) = 0.49199 -0.19721
# Poissons Ratio (z) = 0.30401 -0.23145
#
# Static dielectric constant tensor:
#      x y z
#    x 1.690170 0.000000 0.007600 
#    y 0.000000 1.719410 0.000000 
#    z 0.007600 0.000000 1.711180 
# 
# From -- ./inp_files/46503.got.cif
#   From: 2010.05.17/outbox.cif.g08.bks.cpg/sg5_24_cif.got.tgz:46503.got - 2010.06.03 18:56:24.
