data_PCOD9128095
_publ_section_title
;
Structure prediction by ZEFSAII (Michael W. Deem and Ramdas Pophale) SiO2 
 PCOD9128095
Probable space group: C 2
;
_chemical_formula_sum "Si O2"
_cell_formula_units_Z 22
_cell_length_a 11.848587
_cell_length_b 8.793256
_cell_length_c 11.349809
_cell_angle_alpha 90.000000
_cell_angle_beta 68.877472
_cell_angle_gamma 90.000000
_cell_volume 1103.059444
_symmetry_space_group_name_H-M "C 2"
_symmetry_group_IT_number 5
_symmetry_cell_setting 'monoclinic'
loop_
_space_group_symop_operation_xyz
x,y,z
-x,y,-z
1/2+x,1/2+y,z
1/2-x,1/2+y,-z
loop_
_atom_site_type_symbol
_atom_site_label
_atom_site_fract_x
_atom_site_fract_y
_atom_site_fract_z
Si Si1 0.448871 0.327710 0.137161
Si Si2 0.947132 0.126247 0.279314
Si Si3 0.159385 0.580917 0.056945
Si Si4 0.831271 0.313568 0.762688
Si Si5 0.138783 0.295960 0.910050
Si Si6 0.500000 0.748775 0.500000
O O1 0.444325 0.452928 0.240435
O O2 0.850042 0.460820 0.833986
O O3 0.309985 0.277769 0.179610
O O4 0.500000 0.410258 0.000000
O O5 0.865342 0.232959 0.223874
O O6 0.085469 0.181638 0.215740
O O7 0.929509 0.153926 0.425300
O O8 0.040735 0.687295 0.109007
O O9 0.168873 0.469970 0.938712
O O10 0.269565 0.690330 0.051515
O O11 0.896080 0.337298 0.611562
O O12 0.000000 0.277755 0.000000
#
# Coordination Sequence:
#
# PCOD9128095 Si02
#       6
#     4   4   4   4   4   2
#     4  12  26  40  70 109 141 177 225 298 356 426
#     4  10  23  46  70  95 137 191 231 285 344 396
#     4  12  27  39  68 107 141 183 231 281 367 421
#     4  10  23  48  67  98 141 185 233 289 340 413
#     4  12  24  43  67 101 148 186 220 289 353 418
#     4   8  22  50  72  92 140 188 248 280 334 402
#
# _framework density 19.944528999999999
#
# number of rings (size 3 to 8) (size 9 to 14) (size 15 to 20)
#    1.091    0.000    3.636    2.182    2.545    1.455 
#    3.273    2.727    0.000    0.000    0.000    0.000 
#    0.000    0.000    0.000    0.000    0.000    0.000 
#
# Total GULP energy -61247.730048 kJ/mol
# GULP energy per Si atom -5567.975459 kJ/mol
# Density = 1.989913 g / cm^3
# Si number density = 19.944529 Si / 1000 Ang^3
#
#
#
# Elastic Constant Matrix: (Units=GPa)
#
#
# Indices 1 2 3 4 5 6 
#
# 1 146.8231 55.2123 18.6585 0.0000 6.4872 0.0000
# 2 55.2123 130.1463 23.3599 0.0000 21.8978 0.0000
# 3 18.6585 23.3599 100.9677 0.0000 20.9757 0.0000
# 4 0.0000 0.0000 0.0000 17.5492 0.0000 -4.7343
# 5 6.4872 21.8978 20.9757 0.0000 35.8500 0.0000
# 6 0.0000 0.0000 0.0000 -4.7343 0.0000 32.2649
#
#
#
# Elastic Compliance Matrix: (Units=1/GPa)
#
#
# Indices 1 2 3 4 5 6 
#
# 1 0.008199 -0.003512 -0.000956 0.000000 0.001221 0.000000
# 2 -0.003512 0.010161 -0.000620 0.000000 -0.005208 0.000000
# 3 -0.000956 -0.000620 0.011509 0.000000 -0.006182 0.000000
# 4 0.000000 0.000000 0.000000 0.059331 0.000000 0.008706
# 5 0.001221 -0.005208 -0.006182 0.000000 0.034471 0.000000
# 6 0.000000 0.000000 0.000000 0.008706 0.000000 0.032271
#
#
# Mechanical properties :
#
#
# Convention : Reuss Voigt Hill
#
# Bulk Modulus (GPa) = 50.78100 63.59982 57.19041
# Shear Modulus (GPa) = 28.95474 35.84659 32.40067
#
# Velocity S-wave (km/s) = 3.81434 4.24407 4.03493
# Velocity P-wave (km/s) = 6.70189 7.48156 7.10243
#
# Compressibility (1/GPa) = 0.01969240
#
# Stress axis : x y z
#
# Youngs Moduli (GPa) = 121.96245 98.41303 86.89183
#
# Poissons Ratio (x) = 0.34565 0.08309
# Poissons Ratio (y) = 0.42836 0.05386
# Poissons Ratio (z) = 0.11663 0.06100
#
# Static dielectric constant tensor:
#      x y z
#    x 1.734320 0.000000 0.046340 
#    y 0.000000 1.735320 0.000000 
#    z 0.046340 0.000000 1.754150 
# 
# From -- ./inp_files/38276.got.cif
#   From: 2010.05.17/outbox.cif.g08.bks.cpg/sg5_20_cif.got.tgz:38276.got - 2010.06.03 18:56:24.
