data_PCOD9128426
_publ_section_title
;
Structure prediction by ZEFSAII (Michael W. Deem and Ramdas Pophale) SiO2 
 PCOD9128426
Probable space group: C 2
;
_chemical_formula_sum "Si O2"
_cell_formula_units_Z 22
_cell_length_a 24.343892
_cell_length_b 7.516926
_cell_length_c 4.925810
_cell_angle_alpha 90.000000
_cell_angle_beta 100.191200
_cell_angle_gamma 90.000000
_cell_volume 887.158796
_symmetry_space_group_name_H-M "C 2"
_symmetry_group_IT_number 5
_symmetry_cell_setting 'monoclinic'
loop_
_space_group_symop_operation_xyz
x,y,z
-x,y,-z
1/2+x,1/2+y,z
1/2-x,1/2+y,-z
loop_
_atom_site_type_symbol
_atom_site_label
_atom_site_fract_x
_atom_site_fract_y
_atom_site_fract_z
Si Si1 0.594016 0.890070 0.241611
Si Si2 0.252007 0.774649 0.905941
Si Si3 0.538029 0.393507 0.768460
Si Si4 0.372770 0.674738 0.221137
Si Si5 0.697173 0.124562 0.328156
Si Si6 0.000000 0.545848 0.500000
O O1 0.622283 0.742696 0.465832
O O2 0.633149 0.064604 0.284927
O O3 0.535162 0.934851 0.318908
O O4 0.593592 0.812647 0.940578
O O5 0.271436 0.956176 0.780215
O O6 0.220749 0.664446 0.645171
O O7 0.309673 0.691164 0.066349
O O8 0.211884 0.782259 0.132840
O O9 0.500000 0.480419 0.500000
O O10 0.597237 0.488231 0.806908
O O11 0.540263 0.185623 0.692976
O O12 0.500000 0.412467 0.000000
#
# Coordination Sequence:
#
# PCOD9128426 Si02
#       6
#     4   4   4   4   4   2
#     4  11  25  43  71  97 136 176 229 270 333 396
#     4  11  23  44  69  98 138 172 222 277 332 397
#     4  10  24  44  64  97 136 164 228 272 325 397
#     4  11  24  44  70  99 131 182 226 266 331 409
#     4  11  23  44  67 102 133 176 223 274 331 400
#     4  10  28  44  68  98 138 170 222 286 334 376
#
# _framework density 24.798265000000001
#
# number of rings (size 3 to 8) (size 9 to 14) (size 15 to 20)
#    0.545    0.727    0.000    6.545    6.364    1.455 
#    6.545    0.000    0.000    0.000    0.000    0.000 
#    0.000    0.000    0.000    0.000    0.000    0.000 
#
# Total GULP energy -61627.788176 kJ/mol
# GULP energy per Si atom -5602.526198 kJ/mol
# Density = 2.474182 g / cm^3
# Si number density = 24.798265 Si / 1000 Ang^3
#
#
#
# Elastic Constant Matrix: (Units=GPa)
#
#
# Indices 1 2 3 4 5 6 
#
# 1 87.3232 16.1374 7.7658 0.0000 -13.5323 0.0000
# 2 16.1374 36.1881 -6.3028 0.0000 9.7008 0.0000
# 3 7.7658 -6.3028 115.3424 0.0000 -7.1162 0.0000
# 4 0.0000 0.0000 0.0000 -27.0072 0.0000 15.9284
# 5 -13.5323 9.7008 -7.1162 0.0000 41.0368 0.0000
# 6 0.0000 0.0000 0.0000 15.9284 0.0000 38.3907
#
#
#
# Elastic Compliance Matrix: (Units=1/GPa)
#
#
# Indices 1 2 3 4 5 6 
#
# 1 0.014033 -0.008142 -0.000996 0.000000 0.006380 0.000000
# 2 -0.008142 0.034390 0.001779 0.000000 -0.010506 0.000000
# 3 -0.000996 0.001779 0.008883 0.000000 0.000791 0.000000
# 4 0.000000 0.000000 0.000000 -0.029748 0.000000 0.012342
# 5 0.006380 -0.010506 0.000791 0.000000 0.029093 0.000000
# 6 0.000000 0.000000 0.000000 0.012342 0.000000 0.020927
#
#
# Mechanical properties :
#
#
# Convention : Reuss Voigt Hill
#
# Bulk Modulus (GPa) = 23.47996 30.45050 26.96523
# Shear Modulus (GPa) = 46.95178 25.23429 36.09303
#
# Velocity S-wave (km/s) = 4.35598 3.19342 3.81920
# Velocity P-wave (km/s) = 5.89817 5.08952 5.50870
#
# Compressibility (1/GPa) = 0.04258951
#
# Stress axis : x y z
#
# Youngs Moduli (GPa) = 71.25807 29.07809 112.57522
#
# Poissons Ratio (x) = 0.23674 0.11214
# Poissons Ratio (y) = 0.58016 -0.20030
# Poissons Ratio (z) = 0.07098 -0.05174
#
# Static dielectric constant tensor:
#      x y z
#    x 2.035380 0.000000 -0.033060 
#    y 0.000000 2.032450 0.000000 
#    z -0.033060 0.000000 1.965970 
# 
# From -- ./inp_files/10670.got.cif
#   From: 2010.05.17/outbox.cif.g08.bks.cpg/sg5_6_cif.got.tgz:10670.got - 2010.06.03 18:56:24.
