data_PCOD9128053
_publ_section_title
;
Structure prediction by ZEFSAII (Michael W. Deem and Ramdas Pophale) SiO2 
 PCOD9128053
Probable space group: C 2
;
_chemical_formula_sum "Si O2"
_cell_formula_units_Z 28
_cell_length_a 13.859040
_cell_length_b 5.283127
_cell_length_c 17.755652
_cell_angle_alpha 90.000000
_cell_angle_beta 128.033117
_cell_angle_gamma 90.000000
_cell_volume 1023.992393
_symmetry_space_group_name_H-M "C 2"
_symmetry_group_IT_number 5
_symmetry_cell_setting 'monoclinic'
loop_
_space_group_symop_operation_xyz
x,y,z
-x,y,-z
1/2+x,1/2+y,z
1/2-x,1/2+y,-z
loop_
_atom_site_type_symbol
_atom_site_label
_atom_site_fract_x
_atom_site_fract_y
_atom_site_fract_z
Si Si1 0.000000 0.472580 0.000000
Si Si2 0.177233 0.076252 0.155538
Si Si3 0.173098 0.458722 0.475981
Si Si4 0.745800 0.674893 0.899405
Si Si5 0.182358 0.953544 0.700418
Si Si6 0.518769 0.418625 0.840524
Si Si7 0.427263 0.938208 0.726681
Si Si8 0.500000 0.687172 0.500000
O O1 0.920512 0.299127 0.905516
O O2 0.884570 0.597800 0.985845
O O3 0.046166 0.148372 0.238162
O O4 0.237000 0.970262 0.109320
O O5 0.078975 0.876839 0.139375
O O6 0.235818 0.732780 0.507076
O O7 0.073759 0.465524 0.362595
O O8 0.107424 0.363981 0.519226
O O9 0.716054 0.163396 0.737609
O O10 0.651881 0.545197 0.910788
O O11 0.198991 0.081077 0.792010
O O12 0.294745 0.014974 0.697529
O O13 0.059490 0.020816 0.596403
O O14 0.518874 0.150642 0.800394
#
# Coordination Sequence:
#
# PCOD9128053 Si02
#       8
#     2   4   4   4   4   4   4   2
#     4  10  24  46  72 108 150 182 250 310 384 454
#     4  10  23  48  73 108 151 201 243 321 382 454
#     4  12  27  49  72 106 154 198 261 330 382 449
#     4  11  23  47  75 106 146 198 244 312 379 459
#     4  10  23  45  73 100 154 197 255 313 386 439
#     4  11  25  44  77 106 143 197 253 300 383 459
#     4  11  23  48  70 103 150 195 253 325 367 449
#     4  12  26  50  72 114 148 210 262 322 384 458
#
# _framework density 27.343951000000001
#
# number of rings (size 3 to 8) (size 9 to 14) (size 15 to 20)
#    0.000    1.143    2.857    2.143    4.000    0.571 
#   10.286    0.000    0.000    0.000    0.000    0.000 
#    0.000    0.000    0.000    0.000    0.000    0.000 
#
# Total GULP energy -78278.446290 kJ/mol
# GULP energy per Si atom -5591.317592 kJ/mol
# Density = 2.728171 g / cm^3
# Si number density = 27.343951 Si / 1000 Ang^3
#
#
#
# Elastic Constant Matrix: (Units=GPa)
#
#
# Indices 1 2 3 4 5 6 
#
# 1 130.9505 29.1344 19.1634 0.0000 9.2701 0.0000
# 2 29.1344 62.1234 10.1396 0.0000 6.3489 0.0000
# 3 19.1634 10.1396 123.1373 0.0000 -1.7085 0.0000
# 4 0.0000 0.0000 0.0000 34.8807 0.0000 2.4670
# 5 9.2701 6.3489 -1.7085 0.0000 38.0215 0.0000
# 6 0.0000 0.0000 0.0000 2.4670 0.0000 36.6778
#
#
#
# Elastic Compliance Matrix: (Units=1/GPa)
#
#
# Indices 1 2 3 4 5 6 
#
# 1 0.008741 -0.003766 -0.001072 0.000000 -0.001550 0.000000
# 2 -0.003766 0.018239 -0.000946 0.000000 -0.002170 0.000000
# 3 -0.001072 -0.000946 0.008377 0.000000 0.000796 0.000000
# 4 0.000000 0.000000 0.000000 0.028806 0.000000 -0.001938
# 5 -0.001550 -0.002170 0.000796 0.000000 0.027077 0.000000
# 6 0.000000 0.000000 0.000000 -0.001938 0.000000 0.027395
#
#
# Mechanical properties :
#
#
# Convention : Reuss Voigt Hill
#
# Bulk Modulus (GPa) = 42.03480 48.12066 45.07773
# Shear Modulus (GPa) = 36.19726 39.10091 37.64909
#
# Velocity S-wave (km/s) = 3.64232 3.78559 3.71465
# Velocity P-wave (km/s) = 5.75279 6.06169 5.90926
#
# Compressibility (1/GPa) = 0.02378981
#
# Stress axis : x y z
#
# Youngs Moduli (GPa) = 114.40442 54.82679 119.37828
#
# Poissons Ratio (x) = 0.20647 0.12794
# Poissons Ratio (y) = 0.43084 0.11292
# Poissons Ratio (z) = 0.12261 0.05186
#
# Static dielectric constant tensor:
#      x y z
#    x 2.173860 0.000000 -0.042320 
#    y 0.000000 2.223590 0.000000 
#    z -0.042320 0.000000 2.148200 
# 
# From -- ./inp_files/61271.got.cif
#   From: 2010.05.17/outbox.cif.g08.bks.cpg/sg5_31_cif.got.tgz:61271.got - 2010.06.03 18:56:24.
