data_PCOD9128551
_publ_section_title
;
Structure prediction by ZEFSAII (Michael W. Deem and Ramdas Pophale) SiO2 
 PCOD9128551
Probable space group: C 2
;
_chemical_formula_sum "Si O2"
_cell_formula_units_Z 24
_cell_length_a 24.635105
_cell_length_b 4.979632
_cell_length_c 13.396348
_cell_angle_alpha 90.000000
_cell_angle_beta 147.139797
_cell_angle_gamma 90.000000
_cell_volume 891.683594
_symmetry_space_group_name_H-M "C 2"
_symmetry_group_IT_number 5
_symmetry_cell_setting 'monoclinic'
loop_
_space_group_symop_operation_xyz
x,y,z
-x,y,-z
1/2+x,1/2+y,z
1/2-x,1/2+y,-z
loop_
_atom_site_type_symbol
_atom_site_label
_atom_site_fract_x
_atom_site_fract_y
_atom_site_fract_z
Si Si1 0.500000 0.553071 0.000000
Si Si2 0.230130 0.600479 0.658410
Si Si3 0.818955 0.481678 0.086396
Si Si4 0.360211 0.587605 0.430186
Si Si5 0.500000 0.912678 0.500000
Si Si6 0.914332 0.812859 0.710230
Si Si7 0.407746 0.924425 0.006926
O O1 0.593038 0.373113 0.183054
O O2 0.509792 0.735972 0.918589
O O3 0.161747 0.778674 0.629917
O O4 0.321831 0.806007 0.800038
O O5 0.170281 0.609080 0.461622
O O6 0.231236 0.302249 0.703534
O O7 0.916595 0.554577 0.302578
O O8 0.744353 0.735128 0.964371
O O9 0.860686 0.384188 0.043381
O O10 0.440585 0.721730 0.484832
O O11 0.398728 0.539094 0.601912
O O12 0.027659 0.695840 0.880847
#
# Coordination Sequence:
#
# PCOD9128551 Si02
#       7
#     2   4   4   4   2   4   4
#     4  12  26  46  78 110 156 204 272 328 408 484
#     4  10  24  48  72 105 157 197 264 328 393 486
#     4  12  30  48  81 119 155 211 272 324 405 484
#     4  10  24  45  73 110 152 205 262 321 404 475
#     4  12  24  46  74 108 162 200 258 338 388 462
#     4  10  25  47  72 112 153 208 262 324 408 475
#     4  12  27  51  78 114 165 210 269 338 406 490
#
# _framework density 26.915379000000001
#
# number of rings (size 3 to 8) (size 9 to 14) (size 15 to 20)
#    1.000    0.000    0.000    5.500    7.000    1.333 
#    9.000    0.000    0.000    0.000    0.000    0.000 
#    0.000    0.000    0.000    0.000    0.000    0.000 
#
# Total GULP energy -66844.577074 kJ/mol
# GULP energy per Si atom -5570.381423 kJ/mol
# Density = 2.685412 g / cm^3
# Si number density = 26.915379 Si / 1000 Ang^3
#
#
#
# Elastic Constant Matrix: (Units=GPa)
#
#
# Indices 1 2 3 4 5 6 
#
# 1 55.0828 18.1270 30.1608 0.0000 -7.1896 0.0000
# 2 18.1270 124.1408 23.6483 0.0000 -4.1392 0.0000
# 3 30.1608 23.6483 158.3447 0.0000 -8.1119 0.0000
# 4 0.0000 0.0000 0.0000 32.7385 0.0000 -3.4154
# 5 -7.1896 -4.1392 -8.1119 0.0000 34.1577 0.0000
# 6 0.0000 0.0000 0.0000 -3.4154 0.0000 38.3866
#
#
#
# Elastic Compliance Matrix: (Units=1/GPa)
#
#
# Indices 1 2 3 4 5 6 
#
# 1 0.021294 -0.002324 -0.003537 0.000000 0.003361 0.000000
# 2 -0.002324 0.008562 -0.000818 0.000000 0.000354 0.000000
# 3 -0.003537 -0.000818 0.007155 0.000000 0.000856 0.000000
# 4 0.000000 0.000000 0.000000 0.030831 0.000000 0.002743
# 5 0.003361 0.000354 0.000856 0.000000 0.030229 0.000000
# 6 0.000000 0.000000 0.000000 0.002743 0.000000 0.026295
#
#
# Mechanical properties :
#
#
# Convention : Reuss Voigt Hill
#
# Bulk Modulus (GPa) = 42.27480 53.49339 47.88410
# Shear Modulus (GPa) = 34.33850 38.76537 36.55193
#
# Velocity S-wave (km/s) = 3.57570 3.79920 3.68915
# Velocity P-wave (km/s) = 5.72610 6.25804 5.99797
#
# Compressibility (1/GPa) = 0.02365475
#
# Stress axis : x y z
#
# Youngs Moduli (GPa) = 46.96069 116.79112 139.76183
#
# Poissons Ratio (x) = 0.27137 0.49432
# Poissons Ratio (y) = 0.10912 0.11433
# Poissons Ratio (z) = 0.16609 0.09554
#
# Static dielectric constant tensor:
#      x y z
#    x 2.321740 0.000000 0.186250 
#    y 0.000000 2.231550 0.000000 
#    z 0.186250 0.000000 2.360050 
# 
# From -- ./inp_files/47012.got.cif
#   From: 2010.05.17/outbox.cif.g08.bks.cpg/sg5_24_cif.got.tgz:47012.got - 2010.06.03 18:56:24.
