data_PCOD9128622
_publ_section_title
;
Structure prediction by ZEFSAII (Michael W. Deem and Ramdas Pophale) SiO2 
 PCOD9128622
Probable space group: C 2
;
_chemical_formula_sum "Si O2"
_cell_formula_units_Z 28
_cell_length_a 27.256889
_cell_length_b 7.879136
_cell_length_c 10.840322
_cell_angle_alpha 90.000000
_cell_angle_beta 29.311655
_cell_angle_gamma 90.000000
_cell_volume 1139.732273
_symmetry_space_group_name_H-M "C 2"
_symmetry_group_IT_number 5
_symmetry_cell_setting 'monoclinic'
loop_
_space_group_symop_operation_xyz
x,y,z
-x,y,-z
1/2+x,1/2+y,z
1/2-x,1/2+y,-z
loop_
_atom_site_type_symbol
_atom_site_label
_atom_site_fract_x
_atom_site_fract_y
_atom_site_fract_z
Si Si1 0.155147 0.076770 0.792859
Si Si2 0.687368 0.795224 0.480785
Si Si3 0.177209 0.756461 0.274281
Si Si4 0.032735 0.556627 0.750634
Si Si5 0.160449 0.129192 0.278331
Si Si6 0.500000 0.852312 0.500000
Si Si7 0.500000 0.340882 0.000000
Si Si8 0.639680 0.891135 0.982346
O O1 0.195959 0.182410 0.585045
O O2 0.236020 0.952488 0.677485
O O3 0.069888 0.956979 0.927512
O O4 0.110103 0.211618 0.986319
O O5 0.697567 0.686737 0.333109
O O6 0.579893 0.887590 0.704533
O O7 0.096833 0.615696 0.491029
O O8 0.130765 0.932316 0.328812
O O9 0.252775 0.674577 0.010087
O O10 0.247463 0.837821 0.229425
O O11 0.056443 0.712479 0.787381
O O12 0.913604 0.528890 0.990415
O O13 0.064933 0.239846 0.451129
O O14 0.583674 0.938558 0.232014
#
# Coordination Sequence:
#
# PCOD9128622 Si02
#       8
#     4   4   4   4   4   2   2   4
#     4  12  27  45  72 107 147 194 249 304 373 442
#     4  12  25  47  75 103 148 198 241 309 370 444
#     4  11  26  46  74 109 146 195 245 306 377 448
#     4  12  24  48  72 107 147 193 249 302 373 448
#     4  11  25  47  75 105 148 190 249 306 373 448
#     4  10  24  46  74 100 142 186 240 300 374 428
#     4  12  28  44  68 108 144 192 252 306 366 450
#     4  11  25  46  75 102 148 193 240 305 376 445
#
# _framework density 24.567173
#
# number of rings (size 3 to 8) (size 9 to 14) (size 15 to 20)
#    0.000    0.571    2.857    4.286   10.000    0.000 
#    2.571    0.000    0.000    0.000    0.000    0.000 
#    0.000    0.000    0.000    0.000    0.000    0.000 
#
# Total GULP energy -78266.639194 kJ/mol
# GULP energy per Si atom -5590.474228 kJ/mol
# Density = 2.451126 g / cm^3
# Si number density = 24.567173 Si / 1000 Ang^3
#
#
#
# Elastic Constant Matrix: (Units=GPa)
#
#
# Indices 1 2 3 4 5 6 
#
# 1 86.4318 23.2813 13.6634 0.0000 -2.7517 0.0000
# 2 23.2813 104.4116 10.8073 0.0000 4.7747 0.0000
# 3 13.6634 10.8073 73.0432 0.0000 10.1676 0.0000
# 4 0.0000 0.0000 0.0000 29.5373 0.0000 7.0862
# 5 -2.7517 4.7747 10.1676 0.0000 40.1728 0.0000
# 6 0.0000 0.0000 0.0000 7.0862 0.0000 39.0784
#
#
#
# Elastic Compliance Matrix: (Units=1/GPa)
#
#
# Indices 1 2 3 4 5 6 
#
# 1 0.012699 -0.002682 -0.002222 0.000000 0.001751 0.000000
# 2 -0.002682 0.010319 -0.000859 0.000000 -0.001193 0.000000
# 3 -0.002222 -0.000859 0.014760 0.000000 -0.003786 0.000000
# 4 0.000000 0.000000 0.000000 0.035395 0.000000 -0.006418
# 5 0.001751 -0.001193 -0.003786 0.000000 0.026112 0.000000
# 6 0.000000 0.000000 0.000000 -0.006418 0.000000 0.026753
#
#
# Mechanical properties :
#
#
# Convention : Reuss Voigt Hill
#
# Bulk Modulus (GPa) = 38.09236 39.93230 39.01233
# Shear Modulus (GPa) = 34.17243 36.16667 35.16955
#
# Velocity S-wave (km/s) = 3.73363 3.84103 3.78771
# Velocity P-wave (km/s) = 5.84172 5.99675 5.91974
#
# Compressibility (1/GPa) = 0.02625198
#
# Stress axis : x y z
#
# Youngs Moduli (GPa) = 78.74494 96.90968 67.74902
#
# Poissons Ratio (x) = 0.25988 0.15057
# Poissons Ratio (y) = 0.21117 0.05820
# Poissons Ratio (z) = 0.17501 0.08326
#
# Static dielectric constant tensor:
#      x y z
#    x 2.043150 0.000000 0.022270 
#    y 0.000000 1.982270 0.000000 
#    z 0.022270 0.000000 2.017280 
# 
# From -- ./inp_files/48301.got.cif
#   From: 2010.05.17/outbox.cif.g08.bks.cpg/sg5_25_cif.got.tgz:48301.got - 2010.06.03 18:56:24.
