data_PCOD9128603
_publ_section_title
;
Structure prediction by ZEFSAII (Michael W. Deem and Ramdas Pophale) SiO2 
 PCOD9128603
Probable space group: C 2
;
_chemical_formula_sum "Si O2"
_cell_formula_units_Z 20
_cell_length_a 7.425340
_cell_length_b 12.018829
_cell_length_c 9.683046
_cell_angle_alpha 90.000000
_cell_angle_beta 66.501596
_cell_angle_gamma 90.000000
_cell_volume 792.489546
_symmetry_space_group_name_H-M "C 2"
_symmetry_group_IT_number 5
_symmetry_cell_setting 'monoclinic'
loop_
_space_group_symop_operation_xyz
x,y,z
-x,y,-z
1/2+x,1/2+y,z
1/2-x,1/2+y,-z
loop_
_atom_site_type_symbol
_atom_site_label
_atom_site_fract_x
_atom_site_fract_y
_atom_site_fract_z
Si Si1 0.636018 0.660330 0.765816
Si Si2 0.786364 0.211710 0.556336
Si Si3 0.257171 0.356879 0.921038
Si Si4 0.821674 0.597881 0.153339
Si Si5 0.217994 0.904417 0.775943
O O1 0.741587 0.712385 0.597889
O O2 0.313999 0.744762 0.127801
O O3 0.398776 0.640689 0.820809
O O4 0.720499 0.536678 0.761398
O O5 0.649296 0.140348 0.699320
O O6 0.804138 0.331602 0.624975
O O7 0.000000 0.153824 0.500000
O O8 0.186575 0.465539 0.859192
O O9 0.491050 0.368155 0.845364
O O10 0.200632 0.371722 0.098918
O O11 0.000000 0.636778 0.000000
#
# Coordination Sequence:
#
# PCOD9128603 Si02
#       5
#     4   4   4   4   4
#     4  10  24  49  77 113 155 199 253 313 381 453
#     4  10  24  46  71 104 156 199 250 311 379 447
#     4  10  24  46  76 112 149 202 257 309 377 449
#     4  10  24  46  76 111 149 201 254 312 379 451
#     4  10  24  46  73 112 156 194 258 316 366 456
#
# _framework density 25.236924999999999
#
# number of rings (size 3 to 8) (size 9 to 14) (size 15 to 20)
#    0.000    2.000    0.000    0.000    8.400    4.000 
#   14.400    0.000    0.000    0.000    0.000    0.000 
#    0.000    0.000    0.000    0.000    0.000    0.000 
#
# Total GULP energy -55988.360246 kJ/mol
# GULP energy per Si atom -5598.836025 kJ/mol
# Density = 2.517948 g / cm^3
# Si number density = 25.236925 Si / 1000 Ang^3
#
#
#
# Elastic Constant Matrix: (Units=GPa)
#
#
# Indices 1 2 3 4 5 6 
#
# 1 111.6867 59.1654 70.1640 0.0000 1.2574 0.0000
# 2 59.1654 224.0271 104.4352 0.0000 34.1165 0.0000
# 3 70.1640 104.4352 236.0155 0.0000 26.9980 0.0000
# 4 0.0000 0.0000 0.0000 41.1770 0.0000 5.8944
# 5 1.2574 34.1165 26.9980 0.0000 56.0084 0.0000
# 6 0.0000 0.0000 0.0000 5.8944 0.0000 42.0214
#
#
#
# Elastic Compliance Matrix: (Units=1/GPa)
#
#
# Indices 1 2 3 4 5 6 
#
# 1 0.011866 -0.002179 -0.002841 0.000000 0.002431 0.000000
# 2 -0.002179 0.006334 -0.001819 0.000000 -0.002932 0.000000
# 3 -0.002841 -0.001819 0.006088 0.000000 -0.001763 0.000000
# 4 0.000000 0.000000 0.000000 0.024783 0.000000 -0.003476
# 5 0.002431 -0.002932 -0.001763 0.000000 0.020436 0.000000
# 6 0.000000 0.000000 0.000000 -0.003476 0.000000 0.024285
#
#
# Mechanical properties :
#
#
# Convention : Reuss Voigt Hill
#
# Bulk Modulus (GPa) = 94.26787 115.47318 104.87052
# Shear Modulus (GPa) = 45.04182 50.37234 47.70708
#
# Velocity S-wave (km/s) = 4.22922 4.47248 4.35255
# Velocity P-wave (km/s) = 7.82833 8.51621 8.17950
#
# Compressibility (1/GPa) = 0.01060807
#
# Stress axis : x y z
#
# Youngs Moduli (GPa) = 84.27682 157.87691 164.24738
#
# Poissons Ratio (x) = 0.34408 0.46665
# Poissons Ratio (y) = 0.18367 0.29884
# Poissons Ratio (z) = 0.23944 0.28725
#
# Static dielectric constant tensor:
#      x y z
#    x 2.073220 0.000000 -0.009990 
#    y 0.000000 1.970020 0.000000 
#    z -0.009990 0.000000 2.029330 
# 
# From -- ./inp_files/39513.got.cif
#   From: 2010.05.17/outbox.cif.g08.bks.cpg/sg5_20_cif.got.tgz:39513.got - 2010.06.03 18:56:24.
