data_PCOD9128229
_publ_section_title
;
Structure prediction by ZEFSAII (Michael W. Deem and Ramdas Pophale) SiO2 
 PCOD9128229
Probable space group: C 2
;
_chemical_formula_sum "Si O2"
_cell_formula_units_Z 24
_cell_length_a 19.729207
_cell_length_b 8.302292
_cell_length_c 14.665459
_cell_angle_alpha 90.000000
_cell_angle_beta 29.019062
_cell_angle_gamma 90.000000
_cell_volume 1165.292852
_symmetry_space_group_name_H-M "C 2"
_symmetry_group_IT_number 5
_symmetry_cell_setting 'monoclinic'
loop_
_space_group_symop_operation_xyz
x,y,z
-x,y,-z
1/2+x,1/2+y,z
1/2-x,1/2+y,-z
loop_
_atom_site_type_symbol
_atom_site_label
_atom_site_fract_x
_atom_site_fract_y
_atom_site_fract_z
Si Si1 0.500000 0.204130 0.000000
Si Si2 0.000000 0.575179 0.500000
Si Si3 0.179852 0.187282 0.628031
Si Si4 0.586451 0.525714 0.118595
Si Si5 0.454002 0.036998 0.236415
Si Si6 0.141597 0.689739 0.153334
Si Si7 0.209247 0.980672 0.772806
O O1 0.520642 0.096438 0.064301
O O2 0.365105 0.318100 0.173398
O O3 0.072787 0.679270 0.334579
O O4 0.126275 0.474416 0.397243
O O5 0.334052 0.162027 0.408204
O O6 0.119998 0.366298 0.690786
O O7 0.184597 0.117059 0.725485
O O8 0.072711 0.080288 0.694951
O O9 0.610041 0.356121 0.139975
O O10 0.694346 0.653493 0.033747
O O11 0.631561 0.515062 0.959426
O O12 0.569467 0.047924 0.179172
#
# Coordination Sequence:
#
# PCOD9128229 Si02
#       7
#     2   2   4   4   4   4   4
#     4  12  24  44  68 102 130 176 224 282 334 408
#     4  10  24  38  74  92 132 178 222 268 342 388
#     4  12  24  44  69  98 131 179 224 280 335 392
#     4  11  23  41  69  95 135 178 217 281 328 398
#     4  12  26  42  70  97 137 173 230 277 333 404
#     4  11  22  45  64  98 135 178 227 272 338 394
#     4  11  21  42  69  95 135 172 220 276 338 393
#
# _framework density 20.595680999999999
#
# number of rings (size 3 to 8) (size 9 to 14) (size 15 to 20)
#    0.000    0.667    5.000    3.000    2.333    0.000 
#    0.000    0.000    0.000    1.000    0.000    0.000 
#    0.000    0.000    0.000    0.000    0.000    0.000 
#
# Total GULP energy -67079.488779 kJ/mol
# GULP energy per Si atom -5589.957398 kJ/mol
# Density = 2.054880 g / cm^3
# Si number density = 20.595681 Si / 1000 Ang^3
#
#
#
# Elastic Constant Matrix: (Units=GPa)
#
#
# Indices 1 2 3 4 5 6 
#
# 1 113.6250 32.5834 23.6176 0.0000 -3.4412 0.0000
# 2 32.5834 92.1702 -1.7823 -0.0001 2.9859 0.0000
# 3 23.6176 -1.7823 56.9406 -0.0001 -13.1781 0.0000
# 4 0.0000 -0.0001 -0.0001 22.1104 0.0000 -4.5261
# 5 -3.4412 2.9859 -13.1781 0.0000 53.4629 0.0000
# 6 0.0000 0.0000 0.0000 -4.5261 0.0000 29.3127
#
#
#
# Elastic Compliance Matrix: (Units=1/GPa)
#
#
# Indices 1 2 3 4 5 6 
#
# 1 0.010899 -0.003936 -0.004699 0.000000 -0.000237 0.000000
# 2 -0.003936 0.012293 0.001909 0.000000 -0.000469 0.000000
# 3 -0.004699 0.001909 0.020654 0.000000 0.004682 0.000000
# 4 0.000000 0.000000 0.000000 0.046704 0.000000 0.007211
# 5 -0.000237 -0.000469 0.004682 0.000000 0.019870 0.000000
# 6 0.000000 0.000000 0.000000 0.007211 0.000000 0.035228
#
#
# Mechanical properties :
#
#
# Convention : Reuss Voigt Hill
#
# Bulk Modulus (GPa) = 32.90078 41.28593 37.09335
# Shear Modulus (GPa) = 29.54521 34.86501 32.20511
#
# Velocity S-wave (km/s) = 3.79163 4.11887 3.95863
# Velocity P-wave (km/s) = 5.93110 6.53525 6.24049
#
# Compressibility (1/GPa) = 0.03039442
#
# Stress axis : x y z
#
# Youngs Moduli (GPa) = 91.75066 81.34651 48.41575
#
# Poissons Ratio (x) = 0.32019 0.22749
# Poissons Ratio (y) = 0.36115 -0.09241
# Poissons Ratio (z) = 0.43111 -0.15527
#
# Static dielectric constant tensor:
#      x y z
#    x 1.742640 0.000000 -0.008470 
#    y 0.000000 1.731650 0.000000 
#    z -0.008470 0.000000 1.721310 
# 
# From -- ./inp_files/29029.got.cif
#   From: 2010.05.17/outbox.cif.g08.bks.cpg/sg5_15_cif.got.tgz:29029.got - 2010.06.03 18:56:24.
