data_PCOD9128435
_publ_section_title
;
Structure prediction by ZEFSAII (Michael W. Deem and Ramdas Pophale) SiO2 
 PCOD9128435
Probable space group: C 2
;
_chemical_formula_sum "Si O2"
_cell_formula_units_Z 20
_cell_length_a 10.867945
_cell_length_b 9.785011
_cell_length_c 9.482774
_cell_angle_alpha 90.000000
_cell_angle_beta 98.306388
_cell_angle_gamma 90.000000
_cell_volume 997.847563
_symmetry_space_group_name_H-M "C 2"
_symmetry_group_IT_number 5
_symmetry_cell_setting 'monoclinic'
loop_
_space_group_symop_operation_xyz
x,y,z
-x,y,-z
1/2+x,1/2+y,z
1/2-x,1/2+y,-z
loop_
_atom_site_type_symbol
_atom_site_label
_atom_site_fract_x
_atom_site_fract_y
_atom_site_fract_z
Si Si1 0.886365 0.216860 0.899124
Si Si2 0.610893 0.767279 0.413800
Si Si3 0.500000 0.979020 0.000000
Si Si4 0.000000 0.796397 0.500000
Si Si5 0.726021 0.483297 0.458192
Si Si6 0.127721 0.603204 0.759314
O O1 0.932750 0.223154 0.746210
O O2 0.746553 0.164013 0.863430
O O3 0.000000 0.143484 0.000000
O O4 0.887688 0.370878 0.959494
O O5 0.500000 0.789001 0.500000
O O6 0.693654 0.640557 0.483160
O O7 0.688497 0.905939 0.415652
O O8 0.470212 0.058750 0.138301
O O9 0.899839 0.895142 0.559859
O O10 0.934604 0.703539 0.367946
O O11 0.805704 0.486586 0.326377
#
# Coordination Sequence:
#
# PCOD9128435 Si02
#       6
#     4   4   2   2   4   4
#     4   9  22  44  58  92 131 168 219 262 316 396
#     4  11  22  40  67  95 127 173 214 271 331 379
#     4  10  24  44  66  92 134 184 216 262 336 392
#     4  12  24  42  70 102 132 166 226 286 322 394
#     4  11  23  40  67 101 130 165 217 276 332 380
#     4  11  25  44  66 100 131 175 222 272 334 385
#
# _framework density 20.043140000000001
#
# number of rings (size 3 to 8) (size 9 to 14) (size 15 to 20)
#    0.600    0.800    5.000    1.200    4.200    1.600 
#   10.800    0.000    0.000    0.000    0.000    0.000 
#    0.000    0.000    0.000    0.000    0.000    0.000 
#
# Total GULP energy -55667.451777 kJ/mol
# GULP energy per Si atom -5566.745178 kJ/mol
# Density = 1.999752 g / cm^3
# Si number density = 20.043140 Si / 1000 Ang^3
#
#
#
# Elastic Constant Matrix: (Units=GPa)
#
#
# Indices 1 2 3 4 5 6 
#
# 1 69.3102 16.6855 23.5572 0.0000 -5.4882 0.0000
# 2 16.6855 65.7012 27.3161 0.0000 6.1137 0.0000
# 3 23.5572 27.3161 48.5484 0.0000 10.6304 0.0000
# 4 0.0000 0.0000 0.0000 157.0107 0.0000 150.8342
# 5 -5.4882 6.1137 10.6304 0.0000 34.4257 0.0000
# 6 0.0000 0.0000 0.0000 150.8342 0.0000 192.9339
#
#
#
# Elastic Compliance Matrix: (Units=1/GPa)
#
#
# Indices 1 2 3 4 5 6 
#
# 1 0.018481 -0.001276 -0.009593 0.000000 0.006135 0.000000
# 2 -0.001276 0.019957 -0.010499 0.000000 -0.000506 0.000000
# 3 -0.009593 -0.010499 0.033341 0.000000 -0.009960 0.000000
# 4 0.000000 0.000000 0.000000 0.025582 0.000000 -0.020000
# 5 0.006135 -0.000506 -0.009960 0.000000 0.033192 0.000000
# 6 0.000000 0.000000 0.000000 -0.020000 0.000000 0.020819
#
#
# Mechanical properties :
#
#
# Convention : Reuss Voigt Hill
#
# Bulk Modulus (GPa) = 34.43168 35.40861 34.92014
# Shear Modulus (GPa) = 24.53514 84.60744 54.57129
#
# Velocity S-wave (km/s) = 3.50253 6.50418 5.22360
# Velocity P-wave (km/s) = 5.79423 8.60873 7.33769
#
# Compressibility (1/GPa) = 0.02904302
#
# Stress axis : x y z
#
# Youngs Moduli (GPa) = 54.10840 50.10880 29.99289
#
# Poissons Ratio (x) = 0.06394 0.28773
# Poissons Ratio (y) = 0.06904 0.31489
# Poissons Ratio (z) = 0.51908 0.52609
#
# Static dielectric constant tensor:
#      x y z
#    x 1.647080 0.000000 0.152240 
#    y 0.000000 1.739980 0.000000 
#    z 0.152240 0.000000 1.602930 
# 
# From -- ./inp_files/19085.got.cif
#   From: 2010.05.17/outbox.cif.g08.bks.cpg/sg5_10_cif.got.tgz:19085.got - 2010.06.03 18:56:24.
