data_PCOD9128924
_publ_section_title
;
Structure prediction by ZEFSAII (Michael W. Deem and Ramdas Pophale) SiO2 
 PCOD9128924
Probable space group: C 2
;
_chemical_formula_sum "Si O2"
_cell_formula_units_Z 20
_cell_length_a 23.831227
_cell_length_b 5.820928
_cell_length_c 11.522441
_cell_angle_alpha 90.000000
_cell_angle_beta 148.631502
_cell_angle_gamma 90.000000
_cell_volume 832.027054
_symmetry_space_group_name_H-M "C 2"
_symmetry_group_IT_number 5
_symmetry_cell_setting 'monoclinic'
loop_
_space_group_symop_operation_xyz
x,y,z
-x,y,-z
1/2+x,1/2+y,z
1/2-x,1/2+y,-z
loop_
_atom_site_type_symbol
_atom_site_label
_atom_site_fract_x
_atom_site_fract_y
_atom_site_fract_z
Si Si1 0.500000 0.699570 0.000000
Si Si2 0.266115 0.581003 0.591507
Si Si3 0.662874 0.501121 0.683331
Si Si4 0.873972 0.351292 0.167486
Si Si5 0.588959 0.866404 0.394288
Si Si6 0.000000 0.723662 0.500000
O O1 0.607728 0.563918 0.154450
O O2 0.532811 0.841631 0.170913
O O3 0.246828 0.336654 0.488605
O O4 0.175376 0.569590 0.531854
O O5 0.663668 0.657292 0.571067
O O6 0.549733 0.365787 0.482552
O O7 0.647253 0.655547 0.774450
O O8 0.776003 0.376939 0.905968
O O9 0.894706 0.583189 0.276825
O O10 0.989750 0.352256 0.308134
#
# Coordination Sequence:
#
# PCOD9128924 Si02
#       6
#     2   4   4   4   4   2
#     4  10  26  48  76 104 148 188 246 306 366 438
#     4  10  25  48  74 106 146 191 249 305 362 431
#     4  12  25  43  68 106 142 185 239 295 364 426
#     4  12  25  43  71 103 142 190 237 296 363 428
#     4  11  25  46  71 108 143 190 245 299 367 438
#     4  12  22  42  72  98 146 184 238 296 352 444
#
# _framework density 24.037680999999999
#
# number of rings (size 3 to 8) (size 9 to 14) (size 15 to 20)
#    0.000    0.800    6.000    0.000    0.000   19.200 
#    0.000    0.000    0.000    0.000    0.000    0.000 
#    0.000    0.000    0.000    0.000    0.000    0.000 
#
# Total GULP energy -55718.349757 kJ/mol
# GULP energy per Si atom -5571.834976 kJ/mol
# Density = 2.398297 g / cm^3
# Si number density = 24.037681 Si / 1000 Ang^3
#
#
#
# Elastic Constant Matrix: (Units=GPa)
#
#
# Indices 1 2 3 4 5 6 
#
# 1 103.0279 15.1896 23.5298 0.0000 26.4511 0.0000
# 2 15.1896 64.2669 16.7172 0.0000 15.0568 0.0000
# 3 23.5298 16.7172 136.6171 0.0000 25.8184 0.0000
# 4 0.0000 0.0000 0.0000 33.8051 0.0000 -1.0051
# 5 26.4511 15.0568 25.8184 0.0000 53.8755 0.0000
# 6 0.0000 0.0000 0.0000 -1.0051 0.0000 48.3970
#
#
#
# Elastic Compliance Matrix: (Units=1/GPa)
#
#
# Indices 1 2 3 4 5 6 
#
# 1 0.011328 -0.001330 -0.000888 0.000000 -0.004765 0.000000
# 2 -0.001330 0.017010 -0.001185 0.000000 -0.003533 0.000000
# 3 -0.000888 -0.001185 0.008217 0.000000 -0.003171 0.000000
# 4 0.000000 0.000000 0.000000 0.029600 0.000000 0.000615
# 5 -0.004765 -0.003533 -0.003171 0.000000 0.023407 0.000000
# 6 0.000000 0.000000 0.000000 0.000615 0.000000 0.020675
#
#
# Mechanical properties :
#
#
# Convention : Reuss Voigt Hill
#
# Bulk Modulus (GPa) = 33.61356 46.08723 39.85039
# Shear Modulus (GPa) = 39.38249 43.78053 41.58151
#
# Velocity S-wave (km/s) = 4.05206 4.27233 4.16365
# Velocity P-wave (km/s) = 5.99219 6.59937 6.30309
#
# Compressibility (1/GPa) = 0.02974990
#
# Stress axis : x y z
#
# Youngs Moduli (GPa) = 88.27496 58.78748 121.70156
#
# Poissons Ratio (x) = 0.07820 0.10806
# Poissons Ratio (y) = 0.11743 0.14418
# Poissons Ratio (z) = 0.07838 0.06964
#
# Static dielectric constant tensor:
#      x y z
#    x 1.966880 0.000000 -0.019320 
#    y 0.000000 2.059910 0.000000 
#    z -0.019320 0.000000 1.852380 
# 
# From -- ./inp_files/40973.got.cif
#   From: 2010.05.17/outbox.cif.g08.bks.cpg/sg5_21_cif.got.tgz:40973.got - 2010.06.03 18:56:24.
