data_PCOD9128720
_publ_section_title
;
Structure prediction by ZEFSAII (Michael W. Deem and Ramdas Pophale) SiO2 
 PCOD9128720
Probable space group: C 2
;
_chemical_formula_sum "Si O2"
_cell_formula_units_Z 16
_cell_length_a 12.570862
_cell_length_b 5.545092
_cell_length_c 8.940906
_cell_angle_alpha 90.000000
_cell_angle_beta 108.087617
_cell_angle_gamma 90.000000
_cell_volume 592.441292
_symmetry_space_group_name_H-M "C 2"
_symmetry_group_IT_number 5
_symmetry_cell_setting 'monoclinic'
loop_
_space_group_symop_operation_xyz
x,y,z
-x,y,-z
1/2+x,1/2+y,z
1/2-x,1/2+y,-z
loop_
_atom_site_type_symbol
_atom_site_label
_atom_site_fract_x
_atom_site_fract_y
_atom_site_fract_z
Si Si1 0.396394 0.601630 0.699084
Si Si2 0.938097 0.507135 0.195879
Si Si3 0.828125 0.863125 0.380265
Si Si4 0.665653 0.192429 0.142583
O O1 0.291472 0.769342 0.610942
O O2 0.399379 0.436262 0.554434
O O3 0.352063 0.476662 0.833468
O O4 0.514296 0.736068 0.766486
O O5 0.889313 0.650969 0.315266
O O6 0.054722 0.615912 0.185639
O O7 0.851481 0.570084 0.025384
O O8 0.779609 0.086922 0.260595
#
# Coordination Sequence:
#
# PCOD9128720 Si02
#       4
#     4   4   4   4
#     4  11  24  50  76 117 164 202 274 330 396 485
#     4  10  26  47  78 117 156 212 259 335 406 472
#     4  11  24  48  80 114 157 213 264 331 402 472
#     4  10  24  48  74 117 156 206 269 332 388 493
#
# _framework density 27.006899000000001
#
# number of rings (size 3 to 8) (size 9 to 14) (size 15 to 20)
#    0.000    1.500    2.500    0.000    3.500   11.000 
#    4.500    2.500    0.000    0.000    0.000    0.000 
#    0.000    0.000    0.000    0.000    0.000    0.000 
#
# Total GULP energy -44690.893257 kJ/mol
# GULP energy per Si atom -5586.361657 kJ/mol
# Density = 2.694543 g / cm^3
# Si number density = 27.006899 Si / 1000 Ang^3
#
#
#
# Elastic Constant Matrix: (Units=GPa)
#
#
# Indices 1 2 3 4 5 6 
#
# 1 144.8443 50.0448 41.4738 0.0000 -16.3496 0.0000
# 2 50.0448 112.6410 96.8287 0.0000 11.9663 0.0000
# 3 41.4738 96.8287 208.8661 0.0000 4.1542 0.0000
# 4 0.0000 0.0000 0.0000 31.9796 0.0000 25.5166
# 5 -16.3496 11.9663 4.1542 0.0000 31.8561 0.0000
# 6 0.0000 0.0000 0.0000 25.5166 0.0000 -8.1351
#
#
#
# Elastic Compliance Matrix: (Units=1/GPa)
#
#
# Indices 1 2 3 4 5 6 
#
# 1 0.009347 -0.005246 0.000443 0.000000 0.006710 0.000000
# 2 -0.005246 0.018429 -0.007330 0.000000 -0.008659 0.000000
# 3 0.000443 -0.007330 0.008060 0.000000 0.001929 0.000000
# 4 0.000000 0.000000 0.000000 0.008927 0.000000 0.028002
# 5 0.006710 -0.008659 0.001929 0.000000 0.037836 0.000000
# 6 0.000000 0.000000 0.000000 0.028002 0.000000 -0.035094
#
#
# Mechanical properties :
#
#
# Convention : Reuss Voigt Hill
#
# Bulk Modulus (GPa) = 86.43485 93.67177 90.05331
# Shear Modulus (GPa) = 66.11250 29.67373 47.89312
#
# Velocity S-wave (km/s) = 4.95308 3.31833 4.21570
# Velocity P-wave (km/s) = 8.04891 7.03146 7.55732
#
# Compressibility (1/GPa) = 0.01156941
#
# Stress axis : x y z
#
# Youngs Moduli (GPa) = 106.98327 54.26153 124.07703
#
# Poissons Ratio (x) = 0.28466 -0.05491
# Poissons Ratio (y) = 0.56125 0.90945
# Poissons Ratio (z) = -0.04735 0.39772
#
# Static dielectric constant tensor:
#      x y z
#    x 2.013270 0.000000 -0.030230 
#    y 0.000000 2.652140 0.000000 
#    z -0.030230 0.000000 2.243140 
# 
# From -- ./inp_files/22410.got.cif
#   From: 2010.05.17/outbox.cif.g08.bks.cpg/sg5_12_cif.got.tgz:22410.got - 2010.06.03 18:56:24.
