data_PCOD9128746
_publ_section_title
;
Structure prediction by ZEFSAII (Michael W. Deem and Ramdas Pophale) SiO2 
 PCOD9128746
Probable space group: C 2
;
_chemical_formula_sum "Si O2"
_cell_formula_units_Z 20
_cell_length_a 8.532683
_cell_length_b 21.025564
_cell_length_c 5.644358
_cell_angle_alpha 90.000000
_cell_angle_beta 125.472832
_cell_angle_gamma 90.000000
_cell_volume 824.670891
_symmetry_space_group_name_H-M "C 2"
_symmetry_group_IT_number 5
_symmetry_cell_setting 'monoclinic'
loop_
_space_group_symop_operation_xyz
x,y,z
-x,y,-z
1/2+x,1/2+y,z
1/2-x,1/2+y,-z
loop_
_atom_site_type_symbol
_atom_site_label
_atom_site_fract_x
_atom_site_fract_y
_atom_site_fract_z
Si Si1 0.772347 0.843340 0.339457
Si Si2 0.281392 0.391110 0.854216
Si Si3 0.000000 0.120375 0.000000
Si Si4 0.815523 0.530743 0.191567
Si Si5 0.500000 0.133043 0.000000
Si Si6 0.655715 0.717458 0.474684
O O1 0.705226 0.882848 0.516134
O O2 0.740363 0.769564 0.371773
O O3 0.000000 0.856752 0.500000
O O4 0.691384 0.856621 0.004819
O O5 0.285433 0.464185 0.950144
O O6 0.500000 0.366960 0.000000
O O7 0.828836 0.073266 0.786101
O O8 0.992189 0.167626 0.773948
O O9 0.000000 0.511761 0.500000
O O10 0.883497 0.582694 0.060152
O O11 0.339952 0.179115 0.739303
O O12 0.500000 0.753633 0.500000
#
# Coordination Sequence:
#
# PCOD9128746 Si02
#       6
#     4   4   2   4   2   4
#     4  10  26  47  78 107 148 200 254 314 381 443
#     4  10  24  49  75 109 148 198 250 318 379 445
#     4  12  26  48  72 110 150 196 252 318 384 446
#     4  12  26  47  76 109 150 198 253 314 382 458
#     4  12  28  46  74 112 150 200 254 316 382 452
#     4  12  28  47  76 108 153 201 256 315 381 457
#
# _framework density 24.252101
#
# number of rings (size 3 to 8) (size 9 to 14) (size 15 to 20)
#    0.000    0.800    5.000    0.000   12.600    0.800 
#    3.600    0.000    0.000    0.000    0.000    0.000 
#    0.000    0.000    0.000    0.000    0.000    0.000 
#
# Total GULP energy -55722.164810 kJ/mol
# GULP energy per Si atom -5572.216481 kJ/mol
# Density = 2.419690 g / cm^3
# Si number density = 24.252101 Si / 1000 Ang^3
#
#
#
# Elastic Constant Matrix: (Units=GPa)
#
#
# Indices 1 2 3 4 5 6 
#
# 1 76.7464 47.4119 49.8772 0.0000 -28.9492 0.0000
# 2 47.4119 135.3909 31.3373 0.0000 -34.2085 0.0000
# 3 49.8772 31.3373 105.7842 0.0000 -15.6340 0.0000
# 4 0.0000 0.0000 0.0000 50.1796 0.0000 -12.4952
# 5 -28.9492 -34.2085 -15.6340 0.0000 39.6688 0.0000
# 6 0.0000 0.0000 0.0000 -12.4952 0.0000 40.4475
#
#
#
# Elastic Compliance Matrix: (Units=1/GPa)
#
#
# Indices 1 2 3 4 5 6 
#
# 1 0.026034 -0.003943 -0.009346 0.000000 0.011916 0.000000
# 2 -0.003943 0.010335 -0.000330 0.000000 0.005905 0.000000
# 3 -0.009346 -0.000330 0.013706 0.000000 -0.001703 0.000000
# 4 0.000000 0.000000 0.000000 0.021589 0.000000 0.006669
# 5 0.011916 0.005905 -0.001703 0.000000 0.038325 0.000000
# 6 0.000000 0.000000 0.000000 0.006669 0.000000 0.026784
#
#
# Mechanical properties :
#
#
# Convention : Reuss Voigt Hill
#
# Bulk Modulus (GPa) = 43.78759 63.90827 53.84793
# Shear Modulus (GPa) = 29.13342 38.67886 33.90614
#
# Velocity S-wave (km/s) = 3.46970 3.99791 3.74313
# Velocity P-wave (km/s) = 5.84347 6.90796 6.39789
#
# Compressibility (1/GPa) = 0.02283752
#
# Stress axis : x y z
#
# Youngs Moduli (GPa) = 38.41060 96.75724 72.96134
#
# Poissons Ratio (x) = 0.38151 0.68191
# Poissons Ratio (y) = 0.15145 0.02406
# Poissons Ratio (z) = 0.35899 0.03191
#
# Static dielectric constant tensor:
#      x y z
#    x 1.994920 0.000000 -0.057300 
#    y 0.000000 1.864170 0.000000 
#    z -0.057300 0.000000 2.002690 
# 
# From -- ./inp_files/3093.got.cif
#   From: 2010.05.17/outbox.cif.g08.bks.cpg/sg5_2_cif.got.tgz:3093.got - 2010.06.03 18:56:24.
