data_PCOD9128979
_publ_section_title
;
Structure prediction by ZEFSAII (Michael W. Deem and Ramdas Pophale) SiO2 
 PCOD9128979
Probable space group: C 2
;
_chemical_formula_sum "Si O2"
_cell_formula_units_Z 20
_cell_length_a 8.094327
_cell_length_b 5.976924
_cell_length_c 16.192887
_cell_angle_alpha 90.000000
_cell_angle_beta 93.348623
_cell_angle_gamma 90.000000
_cell_volume 782.060982
_symmetry_space_group_name_H-M "C 2"
_symmetry_group_IT_number 5
_symmetry_cell_setting 'monoclinic'
loop_
_space_group_symop_operation_xyz
x,y,z
-x,y,-z
1/2+x,1/2+y,z
1/2-x,1/2+y,-z
loop_
_atom_site_type_symbol
_atom_site_label
_atom_site_fract_x
_atom_site_fract_y
_atom_site_fract_z
Si Si1 0.258467 0.347390 0.387927
Si Si2 0.192822 0.383503 0.875902
Si Si3 0.500000 0.633898 0.500000
Si Si4 0.977993 0.594274 0.280862
Si Si5 0.500000 0.100918 0.000000
Si Si6 0.523476 0.456617 0.851574
O O1 0.413432 0.482417 0.428214
O O2 0.144294 0.502812 0.326644
O O3 0.332846 0.130846 0.343339
O O4 0.141402 0.277222 0.460068
O O5 0.340296 0.557591 0.858983
O O6 0.069543 0.433184 0.795931
O O7 0.137833 0.435391 0.967347
O O8 0.179802 0.112775 0.869691
O O9 0.987101 0.835104 0.236254
O O10 0.503648 0.268759 0.077932
#
# Coordination Sequence:
#
# PCOD9128979 Si02
#       6
#     4   4   2   4   2   4
#     4  12  26  48  76 110 150 190 242 304 360 450
#     4  11  25  44  71 105 145 198 246 305 364 429
#     4  12  28  48  76 112 146 192 240 294 380 434
#     4  11  26  44  74 109 144 196 246 303 364 434
#     4  10  26  40  66 104 148 190 254 300 364 426
#     4  11  25  44  71 105 145 198 246 305 364 429
#
# _framework density 25.573453000000001
#
# number of rings (size 3 to 8) (size 9 to 14) (size 15 to 20)
#    0.000    0.800    0.000    5.400   14.000    3.200 
#    0.000    0.000    0.000    0.000    0.000    0.000 
#    0.000    0.000    0.000    0.000    0.000    0.000 
#
# Total GULP energy -55830.265598 kJ/mol
# GULP energy per Si atom -5583.026560 kJ/mol
# Density = 2.551525 g / cm^3
# Si number density = 25.573453 Si / 1000 Ang^3
#
#
#
# Elastic Constant Matrix: (Units=GPa)
#
#
# Indices 1 2 3 4 5 6 
#
# 1 76.9928 13.1579 8.9473 0.0000 -6.1401 0.0000
# 2 13.1579 68.4883 13.6286 0.0000 11.7884 0.0000
# 3 8.9473 13.6286 104.7800 0.0000 9.7140 0.0000
# 4 0.0000 0.0000 0.0000 34.9451 0.0000 9.1759
# 5 -6.1401 11.7884 9.7140 0.0000 51.9964 0.0000
# 6 0.0000 0.0000 0.0000 9.1759 0.0000 5.3648
#
#
#
# Elastic Compliance Matrix: (Units=1/GPa)
#
#
# Indices 1 2 3 4 5 6 
#
# 1 0.013796 -0.002870 -0.001034 0.000000 0.002473 0.000000
# 2 -0.002870 0.016090 -0.001504 0.000000 -0.003706 0.000000
# 3 -0.001034 -0.001504 0.009980 0.000000 -0.001646 0.000000
# 4 0.000000 0.000000 0.000000 0.051946 0.000000 -0.088847
# 5 0.002473 -0.003706 -0.001646 0.000000 0.020672 0.000000
# 6 0.000000 0.000000 0.000000 -0.088847 0.000000 0.338362
#
#
# Mechanical properties :
#
#
# Convention : Reuss Voigt Hill
#
# Bulk Modulus (GPa) = 34.42448 35.74761 35.08604
# Shear Modulus (GPa) = 10.60792 32.76309 21.68551
#
# Velocity S-wave (km/s) = 2.03888 3.58318 2.91515
# Velocity P-wave (km/s) = 4.36268 5.57922 5.00802
#
# Compressibility (1/GPa) = 0.02904910
#
# Stress axis : x y z
#
# Youngs Moduli (GPa) = 72.48394 62.15179 100.19744
#
# Poissons Ratio (x) = 0.17840 0.10360
# Poissons Ratio (y) = 0.20806 0.15071
# Poissons Ratio (z) = 0.07495 0.09348
#
# Static dielectric constant tensor:
#      x y z
#    x 3.745040 0.000000 0.125560 
#    y 0.000000 2.247300 0.000000 
#    z 0.125560 0.000000 1.982770 
# 
# From -- ./inp_files/58461.got.cif
#   From: 2010.05.17/outbox.cif.g08.bks.cpg/sg5_30_cif.got.tgz:58461.got - 2010.06.03 18:56:24.
