data_PCOD9128638
_publ_section_title
;
Structure prediction by ZEFSAII (Michael W. Deem and Ramdas Pophale) SiO2 
 PCOD9128638
Probable space group: C 2
;
_chemical_formula_sum "Si O2"
_cell_formula_units_Z 16
_cell_length_a 8.841958
_cell_length_b 4.719679
_cell_length_c 14.380513
_cell_angle_alpha 90.000000
_cell_angle_beta 84.960595
_cell_angle_gamma 90.000000
_cell_volume 597.796378
_symmetry_space_group_name_H-M "C 2"
_symmetry_group_IT_number 5
_symmetry_cell_setting 'monoclinic'
loop_
_space_group_symop_operation_xyz
x,y,z
-x,y,-z
1/2+x,1/2+y,z
1/2-x,1/2+y,-z
loop_
_atom_site_type_symbol
_atom_site_label
_atom_site_fract_x
_atom_site_fract_y
_atom_site_fract_z
Si Si1 0.596267 0.014820 0.114359
Si Si2 0.331638 0.282769 0.240647
Si Si3 0.717865 0.804530 0.628256
Si Si4 0.000000 0.606953 0.500000
Si Si5 0.000000 0.998217 0.000000
O O1 0.490061 0.160170 0.197006
O O2 0.746490 0.908715 0.156254
O O3 0.618697 0.258558 0.034355
O O4 0.509834 0.735914 0.081110
O O5 0.332083 0.514531 0.321085
O O6 0.244632 0.020010 0.290881
O O7 0.862449 0.776160 0.554024
O O8 0.578426 0.923237 0.576133
#
# Coordination Sequence:
#
# PCOD9128638 Si02
#       5
#     4   4   4   2   2
#     4  11  25  46  75 113 150 200 250 309 375 448
#     4  12  27  48  77 110 152 198 252 310 377 448
#     4  12  29  50  79 112 154 202 254 316 379 450
#     4  12  30  52  78 114 152 202 256 314 382 452
#     4  10  24  46  76 108 152 196 248 306 372 444
#
# _framework density 26.764963999999999
#
# number of rings (size 3 to 8) (size 9 to 14) (size 15 to 20)
#    0.000    0.500    0.000    6.000    0.000   21.000 
#    0.000    0.000    0.000    0.000    0.000    0.000 
#    0.000    0.000    0.000    0.000    0.000    0.000 
#
# Total GULP energy -44865.721698 kJ/mol
# GULP energy per Si atom -5608.215212 kJ/mol
# Density = 2.670405 g / cm^3
# Si number density = 26.764964 Si / 1000 Ang^3
#
#
#
# Elastic Constant Matrix: (Units=GPa)
#
#
# Indices 1 2 3 4 5 6 
#
# 1 92.7993 34.1408 27.1289 0.0000 6.3762 0.0000
# 2 34.1408 179.8819 43.9954 0.0000 -1.3036 0.0000
# 3 27.1289 43.9954 97.8939 0.0000 -1.4872 0.0000
# 4 0.0000 0.0000 0.0000 61.7111 0.0000 -16.7733
# 5 6.3762 -1.3036 -1.4872 0.0000 31.8917 0.0000
# 6 0.0000 0.0000 0.0000 -16.7733 0.0000 26.7042
#
#
#
# Elastic Compliance Matrix: (Units=1/GPa)
#
#
# Indices 1 2 3 4 5 6 
#
# 1 0.012378 -0.001707 -0.002703 0.000000 -0.002671 0.000000
# 2 -0.001707 0.006482 -0.002432 0.000000 0.000493 0.000000
# 3 -0.002703 -0.002432 0.012073 0.000000 0.001004 0.000000
# 4 0.000000 0.000000 0.000000 0.019541 0.000000 0.012274
# 5 -0.002671 0.000493 0.001004 0.000000 0.031957 0.000000
# 6 0.000000 0.000000 0.000000 0.012274 0.000000 0.045157
#
#
# Mechanical properties :
#
#
# Convention : Reuss Voigt Hill
#
# Bulk Modulus (GPa) = 57.98472 64.56725 61.27599
# Shear Modulus (GPa) = 34.00858 41.74874 37.87866
#
# Velocity S-wave (km/s) = 3.56847 3.95375 3.76604
# Velocity P-wave (km/s) = 6.22013 6.70962 6.46951
#
# Compressibility (1/GPa) = 0.01724592
#
# Stress axis : x y z
#
# Youngs Moduli (GPa) = 80.78893 154.27951 82.83127
#
# Poissons Ratio (x) = 0.26342 0.22393
# Poissons Ratio (y) = 0.13794 0.20148
# Poissons Ratio (z) = 0.21841 0.37526
#
# Static dielectric constant tensor:
#      x y z
#    x 2.062140 0.000000 -0.044880 
#    y 0.000000 2.035820 0.000000 
#    z -0.044880 0.000000 2.128150 
# 
# From -- ./inp_files/49691.got.cif
#   From: 2010.05.17/outbox.cif.g08.bks.cpg/sg5_25_cif.got.tgz:49691.got - 2010.06.03 18:56:24.
