data_PCOD9128169
_publ_section_title
;
Structure prediction by ZEFSAII (Michael W. Deem and Ramdas Pophale) SiO2 
 PCOD9128169
Probable space group: C 2
;
_chemical_formula_sum "Si O2"
_cell_formula_units_Z 20
_cell_length_a 6.728830
_cell_length_b 19.788163
_cell_length_c 7.098740
_cell_angle_alpha 90.000000
_cell_angle_beta 118.521331
_cell_angle_gamma 90.000000
_cell_volume 830.494925
_symmetry_space_group_name_H-M "C 2"
_symmetry_group_IT_number 5
_symmetry_cell_setting 'monoclinic'
loop_
_space_group_symop_operation_xyz
x,y,z
-x,y,-z
1/2+x,1/2+y,z
1/2-x,1/2+y,-z
loop_
_atom_site_type_symbol
_atom_site_label
_atom_site_fract_x
_atom_site_fract_y
_atom_site_fract_z
Si Si1 0.012354 0.365240 0.731692
Si Si2 0.800615 0.607426 0.789271
Si Si3 0.500000 0.394871 0.500000
Si Si4 0.500000 0.162486 0.500000
Si Si5 0.657128 0.472336 0.909118
Si Si6 0.969652 0.221894 0.709561
O O1 0.162686 0.421487 0.908198
O O2 0.089452 0.290229 0.834401
O O3 0.000000 0.376864 0.500000
O O4 0.742507 0.361850 0.647155
O O5 0.884470 0.618638 0.613925
O O6 0.768334 0.530105 0.831546
O O7 0.588816 0.649380 0.770441
O O8 0.000000 0.638536 0.000000
O O9 0.485281 0.436422 0.687108
O O10 0.712183 0.209281 0.657261
O O11 0.500000 0.503319 0.000000
O O12 0.000000 0.235104 0.500000
#
# Coordination Sequence:
#
# PCOD9128169 Si02
#       6
#     4   4   2   2   4   4
#     4  11  23  50  77 109 153 197 249 309 373 451
#     4  11  26  46  72 111 144 195 248 304 379 440
#     4  12  25  46  76 104 148 203 246 310 371 440
#     4  10  23  48  74 108 144 189 246 318 367 440
#     4  12  28  49  73 111 156 202 251 307 376 445
#     4   9  22  45  76 108 142 195 247 303 376 440
#
# _framework density 24.082027
#
# number of rings (size 3 to 8) (size 9 to 14) (size 15 to 20)
#    0.000    1.200    2.000    2.400    7.000    0.800 
#   14.400    0.000    0.000    0.000    0.000    0.000 
#    0.000    0.000    0.000    0.000    0.000    0.000 
#
# Total GULP energy -55685.003166 kJ/mol
# GULP energy per Si atom -5568.500317 kJ/mol
# Density = 2.402722 g / cm^3
# Si number density = 24.082027 Si / 1000 Ang^3
#
#
#
# Elastic Constant Matrix: (Units=GPa)
#
#
# Indices 1 2 3 4 5 6 
#
# 1 122.4134 48.0553 32.1639 0.0000 5.2282 0.0000
# 2 48.0553 161.6876 53.4829 0.0000 6.0475 0.0000
# 3 32.1639 53.4829 113.3781 0.0000 -3.2404 0.0000
# 4 0.0000 0.0000 0.0000 11.1961 0.0000 33.1857
# 5 5.2282 6.0475 -3.2404 0.0000 50.0399 0.0000
# 6 0.0000 0.0000 0.0000 33.1857 0.0000 -44.9733
#
#
#
# Elastic Compliance Matrix: (Units=1/GPa)
#
#
# Indices 1 2 3 4 5 6 
#
# 1 0.009525 -0.002249 -0.001665 0.000000 -0.000831 0.000000
# 2 -0.002249 0.007922 -0.003125 0.000000 -0.000925 0.000000
# 3 -0.001665 -0.003125 0.010802 0.000000 0.001251 0.000000
# 4 0.000000 0.000000 0.000000 0.028024 0.000000 0.020679
# 5 -0.000831 -0.000925 0.001251 0.000000 0.020264 0.000000
# 6 0.000000 0.000000 0.000000 0.020679 0.000000 -0.006977
#
#
# Mechanical properties :
#
#
# Convention : Reuss Voigt Hill
#
# Bulk Modulus (GPa) = 70.56934 73.87595 72.22264
# Shear Modulus (GPa) = 56.58566 20.83768 38.71167
#
# Velocity S-wave (km/s) = 4.85263 2.94475 4.01370
# Velocity P-wave (km/s) = 7.79518 6.50427 7.17880
#
# Compressibility (1/GPa) = 0.01417046
#
# Stress axis : x y z
#
# Youngs Moduli (GPa) = 104.98785 126.23795 92.57271
#
# Poissons Ratio (x) = 0.28392 0.15412
# Poissons Ratio (y) = 0.23613 0.28930
# Poissons Ratio (z) = 0.17479 0.39451
#
# Static dielectric constant tensor:
#      x y z
#    x 2.131420 0.000000 0.037040 
#    y 0.000000 1.991310 0.000000 
#    z 0.037040 0.000000 2.076030 
# 
# From -- ./inp_files/12268.got.cif
#   From: 2010.05.17/outbox.cif.g08.bks.cpg/sg5_7_cif.got.tgz:12268.got - 2010.06.03 18:56:24.
