data_PCOD9128684
_publ_section_title
;
Structure prediction by ZEFSAII (Michael W. Deem and Ramdas Pophale) SiO2 
 PCOD9128684
Probable space group: C 2
;
_chemical_formula_sum "Si O2"
_cell_formula_units_Z 24
_cell_length_a 27.013159
_cell_length_b 4.986359
_cell_length_c 21.158225
_cell_angle_alpha 90.000000
_cell_angle_beta 162.080962
_cell_angle_gamma 90.000000
_cell_volume 876.853909
_symmetry_space_group_name_H-M "C 2"
_symmetry_group_IT_number 5
_symmetry_cell_setting 'monoclinic'
loop_
_space_group_symop_operation_xyz
x,y,z
-x,y,-z
1/2+x,1/2+y,z
1/2-x,1/2+y,-z
loop_
_atom_site_type_symbol
_atom_site_label
_atom_site_fract_x
_atom_site_fract_y
_atom_site_fract_z
Si Si1 0.808980 0.801010 0.485940
Si Si2 0.709209 0.760504 0.908318
Si Si3 0.544115 0.793857 0.265595
Si Si4 0.689861 0.037800 0.213406
Si Si5 0.726765 0.384288 0.825026
Si Si6 0.552779 0.978428 0.493644
O O1 0.638310 0.782387 0.313892
O O2 0.917214 0.569632 0.650072
O O3 0.775397 0.852629 0.371314
O O4 0.881618 0.072483 0.600105
O O5 0.536010 0.867661 0.676892
O O6 0.788007 0.981073 0.049356
O O7 0.762042 0.666298 0.902262
O O8 0.363917 0.720137 0.027872
O O9 0.773600 0.330733 0.306188
O O10 0.500000 0.060048 0.000000
O O11 0.728188 0.892922 0.193430
O O12 0.551729 0.261188 0.626776
O O13 0.500000 0.864352 0.500000
#
# Coordination Sequence:
#
# PCOD9128684 Si02
#       6
#     4   4   4   4   4   4
#     4  10  24  49  81 128 173 231 292 377 447 535
#     4  12  28  52  84 125 170 234 306 374 453 536
#     4  10  24  47  82 123 177 226 300 369 451 527
#     4  12  28  56  88 133 180 246 303 370 460 554
#     4  12  28  52  85 129 182 233 299 380 453 548
#     4  12  30  53  83 125 183 234 296 375 458 537
#
# _framework density 27.370577999999998
#
# number of rings (size 3 to 8) (size 9 to 14) (size 15 to 20)
#    0.000    0.667    5.000    0.000    9.333    1.333 
#    3.000    1.667    0.000    0.000    0.000    0.000 
#    0.000    0.000    0.000    0.000    0.000    0.000 
#
# Total GULP energy -66997.687906 kJ/mol
# GULP energy per Si atom -5583.140659 kJ/mol
# Density = 2.730828 g / cm^3
# Si number density = 27.370578 Si / 1000 Ang^3
#
#
#
# Elastic Constant Matrix: (Units=GPa)
#
#
# Indices 1 2 3 4 5 6 
#
# 1 213.8798 31.2142 61.9946 -0.0002 -23.1054 0.0002
# 2 31.2142 163.2476 31.3520 0.0038 -17.5046 -0.0015
# 3 61.9946 31.3520 162.4024 0.0002 0.2488 -0.0002
# 4 -0.0002 0.0038 0.0002 112.9067 0.0004 3.5742
# 5 -23.1054 -17.5046 0.2488 0.0004 66.6035 -0.0002
# 6 0.0002 -0.0015 -0.0002 3.5742 -0.0002 43.9354
#
#
#
# Elastic Compliance Matrix: (Units=1/GPa)
#
#
# Indices 1 2 3 4 5 6 
#
# 1 0.005525 -0.000476 -0.002020 0.000000 0.001799 0.000000
# 2 -0.000476 0.006595 -0.001094 0.000000 0.001572 0.000000
# 3 -0.002020 -0.001094 0.007141 0.000000 -0.001015 0.000000
# 4 0.000000 0.000000 0.000000 0.008880 0.000000 -0.000722
# 5 0.001799 0.001572 -0.001015 0.000000 0.016055 0.000000
# 6 0.000000 0.000000 0.000000 -0.000722 0.000000 0.022819
#
#
# Mechanical properties :
#
#
# Convention : Reuss Voigt Hill
#
# Bulk Modulus (GPa) = 82.76560 87.62794 85.19677
# Shear Modulus (GPa) = 63.91996 72.35370 68.13683
#
# Velocity S-wave (km/s) = 4.83779 5.14706 4.99482
# Velocity P-wave (km/s) = 7.84284 8.21023 8.02864
#
# Compressibility (1/GPa) = 0.01208231
#
# Stress axis : x y z
#
# Youngs Moduli (GPa) = 181.00248 151.62246 140.02841
#
# Poissons Ratio (x) = 0.07210 0.28285
# Poissons Ratio (y) = 0.08607 0.15321
# Poissons Ratio (z) = 0.36562 0.16589
#
# Static dielectric constant tensor:
#      x y z
#    x 2.045760 0.000000 0.155500 
#    y 0.000000 2.409960 0.000000 
#    z 0.155500 0.000000 2.148870 
# 
# From -- ./inp_files/67687.got.cif
#   From: 2010.05.17/outbox.cif.g08.bks.cpg/sg5_34_cif.got.tgz:67687.got - 2010.06.03 18:56:24.
