data_PCOD9128743
_publ_section_title
;
Structure prediction by ZEFSAII (Michael W. Deem and Ramdas Pophale) SiO2 
 PCOD9128743
Probable space group: C 2
;
_chemical_formula_sum "Si O2"
_cell_formula_units_Z 24
_cell_length_a 13.889404
_cell_length_b 14.335234
_cell_length_c 6.002195
_cell_angle_alpha 90.000000
_cell_angle_beta 115.604092
_cell_angle_gamma 90.000000
_cell_volume 1077.728904
_symmetry_space_group_name_H-M "C 2"
_symmetry_group_IT_number 5
_symmetry_cell_setting 'monoclinic'
loop_
_space_group_symop_operation_xyz
x,y,z
-x,y,-z
1/2+x,1/2+y,z
1/2-x,1/2+y,-z
loop_
_atom_site_type_symbol
_atom_site_label
_atom_site_fract_x
_atom_site_fract_y
_atom_site_fract_z
Si Si1 0.500000 0.689641 0.500000
Si Si2 0.587802 0.270800 0.250604
Si Si3 0.207313 0.905213 0.707323
Si Si4 0.789030 0.508961 0.386390
Si Si5 0.289029 0.801467 0.191691
Si Si6 0.587806 0.539630 0.925015
Si Si7 0.000000 0.620788 0.500000
O O1 0.395658 0.754384 0.389934
O O2 0.527898 0.622308 0.734975
O O3 0.632690 0.345056 0.470578
O O4 0.689351 0.244942 0.196448
O O5 0.527889 0.188123 0.320811
O O6 0.500000 0.310471 0.000000
O O7 0.274129 0.983009 0.633104
O O8 0.132693 0.965370 0.794823
O O9 0.274129 0.827416 0.915175
O O10 0.784148 0.405214 0.284158
O O11 0.895659 0.556044 0.401410
O O12 0.689353 0.565488 0.182277
O O13 0.500000 0.499962 0.000000
#
# Coordination Sequence:
#
# PCOD9128743 Si02
#       7
#     2   4   4   4   4   4   2
#     4  12  27  43  74 106 148 186 244 305 363 428
#     4  11  26  42  73 106 143 187 240 298 361 430
#     4  10  24  49  73 102 148 192 247 291 366 440
#     4  10  25  47  72 104 143 193 242 296 367 436
#     4  10  25  47  72 104 143 193 242 296 367 436
#     4  11  26  42  73 106 143 187 240 298 361 430
#     4  12  27  43  74 106 148 186 244 305 363 428
#
# _framework density 22.26905
#
# number of rings (size 3 to 8) (size 9 to 14) (size 15 to 20)
#    0.000    1.333    0.000    2.500    9.333   18.667 
#    0.000    6.667    0.000    0.000    0.000    0.000 
#    0.000    0.000    0.000    0.000    0.000    0.000 
#
# Total GULP energy -66962.262977 kJ/mol
# GULP energy per Si atom -5580.188581 kJ/mol
# Density = 2.221836 g / cm^3
# Si number density = 22.269050 Si / 1000 Ang^3
#
#
#
# Elastic Constant Matrix: (Units=GPa)
#
#
# Indices 1 2 3 4 5 6 
#
# 1 173.2226 42.6897 86.2206 0.0000 29.2514 0.0000
# 2 42.6897 65.6275 39.3198 0.0000 2.2532 0.0000
# 3 86.2206 39.3198 113.4351 0.0000 10.7823 0.0000
# 4 0.0000 0.0000 0.0000 35.1627 0.0000 31.0774
# 5 29.2514 2.2532 10.7823 0.0000 34.0344 0.0000
# 6 0.0000 0.0000 0.0000 31.0774 0.0000 81.5311
#
#
#
# Elastic Compliance Matrix: (Units=1/GPa)
#
#
# Indices 1 2 3 4 5 6 
#
# 1 0.011036 -0.002922 -0.006694 0.000000 -0.007171 0.000000
# 2 -0.002922 0.020030 -0.004985 0.000000 0.002764 0.000000
# 3 -0.006694 -0.004985 0.015520 0.000000 0.001166 0.000000
# 4 0.000000 0.000000 0.000000 0.042887 0.000000 -0.016348
# 5 -0.007171 0.002764 0.001166 0.000000 0.034993 0.000000
# 6 0.000000 0.000000 0.000000 -0.016348 0.000000 0.018496
#
#
# Mechanical properties :
#
#
# Convention : Reuss Voigt Hill
#
# Bulk Modulus (GPa) = 57.52011 76.52728 67.02370
# Shear Modulus (GPa) = 28.09651 42.41597 35.25624
#
# Velocity S-wave (km/s) = 3.55587 4.36903 3.98325
# Velocity P-wave (km/s) = 6.53794 7.73891 7.16364
#
# Compressibility (1/GPa) = 0.01738522
#
# Stress axis : x y z
#
# Youngs Moduli (GPa) = 90.61588 49.92555 64.43146
#
# Poissons Ratio (x) = 0.14588 0.43128
# Poissons Ratio (y) = 0.26477 0.32118
# Poissons Ratio (z) = 0.60655 0.24887
#
# Static dielectric constant tensor:
#      x y z
#    x 1.836410 0.000000 -0.056190 
#    y 0.000000 1.844630 0.000000 
#    z -0.056190 0.000000 1.920270 
# 
# From -- ./inp_files/6929.got.cif
#   From: 2010.05.17/outbox.cif.g08.bks.cpg/sg5_4_cif.got.tgz:6929.got - 2010.06.03 18:56:24.
