data_PCOD9128354
_publ_section_title
;
Structure prediction by ZEFSAII (Michael W. Deem and Ramdas Pophale) SiO2 
 PCOD9128354
Probable space group: C 2
;
_chemical_formula_sum "Si O2"
_cell_formula_units_Z 26
_cell_length_a 17.267789
_cell_length_b 7.112370
_cell_length_c 17.212085
_cell_angle_alpha 90.000000
_cell_angle_beta 33.817499
_cell_angle_gamma 90.000000
_cell_volume 1176.490064
_symmetry_space_group_name_H-M "C 2"
_symmetry_group_IT_number 5
_symmetry_cell_setting 'monoclinic'
loop_
_space_group_symop_operation_xyz
x,y,z
-x,y,-z
1/2+x,1/2+y,z
1/2-x,1/2+y,-z
loop_
_atom_site_type_symbol
_atom_site_label
_atom_site_fract_x
_atom_site_fract_y
_atom_site_fract_z
Si Si1 0.260857 0.157510 0.691791
Si Si2 0.815696 0.173680 0.016110
Si Si3 0.129082 0.940005 0.519464
Si Si4 0.787841 0.356270 0.544799
Si Si5 0.833007 0.051844 0.829382
Si Si6 0.112819 0.444747 0.268669
Si Si7 0.500000 0.680417 0.000000
O O1 0.349900 0.304361 0.569822
O O2 0.129269 0.260921 0.842061
O O3 0.218894 0.995821 0.664670
O O4 0.346500 0.052399 0.687058
O O5 0.785038 0.392579 0.061609
O O6 0.669512 0.068525 0.150300
O O7 0.867490 0.130479 0.887059
O O8 0.914716 0.087271 0.000240
O O9 0.209919 0.864540 0.527804
O O10 0.196231 0.141166 0.442900
O O11 0.969113 0.961709 0.677203
O O12 0.948213 0.419765 0.400753
O O13 0.810454 0.242317 0.799490
#
# Coordination Sequence:
#
# PCOD9128354 Si02
#       7
#     4   4   4   4   4   4   2
#     4  11  23  46  65  99 138 179 221 292 341 402
#     4  11  22  43  69  98 139 180 225 279 345 401
#     4  11  24  40  70 102 137 176 235 276 338 404
#     4  11  22  42  69 100 133 178 227 281 335 408
#     4  11  23  42  70 103 134 185 230 278 336 418
#     4  10  24  42  68  99 136 177 225 282 342 402
#     4  10  26  44  66  96 142 174 226 292 336 406
#
# _framework density 22.099633999999998
#
# number of rings (size 3 to 8) (size 9 to 14) (size 15 to 20)
#    0.000    1.231    3.077    2.308    2.154    3.692 
#    0.000    8.462    0.000    0.000    0.000    0.000 
#    0.000    0.000    0.000    0.000    0.000    0.000 
#
# Total GULP energy -72572.151844 kJ/mol
# GULP energy per Si atom -5582.473219 kJ/mol
# Density = 2.204933 g / cm^3
# Si number density = 22.099634 Si / 1000 Ang^3
#
#
#
# Elastic Constant Matrix: (Units=GPa)
#
#
# Indices 1 2 3 4 5 6 
#
# 1 88.0855 27.8533 40.8352 0.0000 17.8425 0.0000
# 2 27.8533 114.1384 53.9346 0.0000 15.9797 0.0000
# 3 40.8352 53.9346 109.1984 0.0000 35.7223 0.0000
# 4 0.0000 0.0000 0.0000 37.1689 0.0000 15.9012
# 5 17.8425 15.9797 35.7223 0.0000 32.4765 0.0000
# 6 0.0000 0.0000 0.0000 15.9012 0.0000 26.2696
#
#
#
# Elastic Compliance Matrix: (Units=1/GPa)
#
#
# Indices 1 2 3 4 5 6 
#
# 1 0.014063 -0.001295 -0.003593 0.000000 -0.003137 0.000000
# 2 -0.001295 0.011565 -0.005622 0.000000 0.001205 0.000000
# 3 -0.003593 -0.005622 0.018319 0.000000 -0.015410 0.000000
# 4 0.000000 0.000000 0.000000 0.036306 0.000000 -0.021976
# 5 -0.003137 0.001205 -0.015410 0.000000 0.048872 0.000000
# 6 0.000000 0.000000 0.000000 -0.021976 0.000000 0.051369
#
#
# Mechanical properties :
#
#
# Convention : Reuss Voigt Hill
#
# Bulk Modulus (GPa) = 43.61651 61.85206 52.73428
# Shear Modulus (GPa) = 23.90541 31.76960 27.83750
#
# Velocity S-wave (km/s) = 3.29251 3.79563 3.55299
# Velocity P-wave (km/s) = 5.85092 6.87442 6.38322
#
# Compressibility (1/GPa) = 0.02292710
#
# Stress axis : x y z
#
# Youngs Moduli (GPa) = 71.10749 86.46569 54.58709
#
# Poissons Ratio (x) = 0.11195 0.19615
# Poissons Ratio (y) = 0.09206 0.30690
# Poissons Ratio (z) = 0.25552 0.48613
#
# Static dielectric constant tensor:
#      x y z
#    x 1.803760 0.000000 -0.014950 
#    y 0.000000 1.862990 0.000000 
#    z -0.014950 0.000000 1.834380 
# 
# From -- ./inp_files/62159.got.cif
#   From: 2010.05.17/outbox.cif.g08.bks.cpg/sg5_32_cif.got.tgz:62159.got - 2010.06.03 18:56:24.
