data_PCOD9128736
_publ_section_title
;
Structure prediction by ZEFSAII (Michael W. Deem and Ramdas Pophale) SiO2 
 PCOD9128736
Probable space group: C 2
;
_chemical_formula_sum "Si O2"
_cell_formula_units_Z 22
_cell_length_a 5.606304
_cell_length_b 23.275014
_cell_length_c 7.385806
_cell_angle_alpha 90.000000
_cell_angle_beta 78.521934
_cell_angle_gamma 90.000000
_cell_volume 944.476136
_symmetry_space_group_name_H-M "C 2"
_symmetry_group_IT_number 5
_symmetry_cell_setting 'monoclinic'
loop_
_space_group_symop_operation_xyz
x,y,z
-x,y,-z
1/2+x,1/2+y,z
1/2-x,1/2+y,-z
loop_
_atom_site_type_symbol
_atom_site_label
_atom_site_fract_x
_atom_site_fract_y
_atom_site_fract_z
Si Si1 0.539808 0.838090 0.776147
Si Si2 0.721109 0.730841 0.117230
Si Si3 0.264478 0.942875 0.705701
Si Si4 0.203115 0.605430 0.812990
Si Si5 0.500000 0.519431 0.000000
Si Si6 0.000000 0.854203 0.500000
Si Si7 0.000000 0.543118 0.500000
O O1 0.343596 0.788328 0.762664
O O2 0.493282 0.901467 0.704310
O O3 0.787605 0.819759 0.637334
O O4 0.500000 0.844272 0.000000
O O5 0.705057 0.670381 0.222871
O O6 0.500000 0.727415 0.000000
O O7 0.000000 0.736375 0.000000
O O8 0.080206 0.897427 0.649723
O O9 0.202903 0.975194 0.900581
O O10 0.289931 0.997044 0.571368
O O11 0.404118 0.561344 0.857534
O O12 0.075370 0.581242 0.655944
O O13 0.000000 0.607641 0.000000
#
# Coordination Sequence:
#
# PCOD9128736 Si02
#       7
#     4   4   4   4   2   2   2
#     4  11  26  44  77 109 151 205 259 322 401 471
#     4  10  24  48  80 109 152 206 276 325 386 480
#     4  12  25  42  68 112 151 193 251 327 384 487
#     4  11  24  47  74 108 151 208 258 330 391 470
#     4  12  24  40  80  98 150 210 252 310 412 466
#     4  12  24  46  71 110 161 192 258 324 408 466
#     4  12  24  44  73 112 161 186 262 322 390 476
#
# _framework density 23.293337999999999
#
# number of rings (size 3 to 8) (size 9 to 14) (size 15 to 20)
#    0.000    0.727    4.545    2.182    8.909    0.000 
#    0.000    0.909   24.000    0.000    0.000    0.000 
#    0.000    0.000    0.000    0.000    0.000    0.000 
#
# Total GULP energy -61353.214717 kJ/mol
# GULP energy per Si atom -5577.564974 kJ/mol
# Density = 2.324032 g / cm^3
# Si number density = 23.293338 Si / 1000 Ang^3
#
#
#
# Elastic Constant Matrix: (Units=GPa)
#
#
# Indices 1 2 3 4 5 6 
#
# 1 99.7443 42.3011 32.9324 0.0000 -9.1025 0.0000
# 2 42.3011 161.7243 59.4910 0.0000 -2.2952 0.0000
# 3 32.9324 59.4910 109.3257 0.0000 3.1022 0.0000
# 4 0.0000 0.0000 0.0000 17.9945 0.0000 7.5130
# 5 -9.1025 -2.2952 3.1022 0.0000 46.1131 0.0000
# 6 0.0000 0.0000 0.0000 7.5130 0.0000 37.9951
#
#
#
# Elastic Compliance Matrix: (Units=1/GPa)
#
#
# Indices 1 2 3 4 5 6 
#
# 1 0.011998 -0.002187 -0.002493 0.000000 0.002427 0.000000
# 2 -0.002187 0.008150 -0.003783 0.000000 0.000229 0.000000
# 3 -0.002493 -0.003783 0.011999 0.000000 -0.001488 0.000000
# 4 0.000000 0.000000 0.000000 0.060573 0.000000 -0.011977
# 5 0.002427 0.000229 -0.001488 0.000000 0.022276 0.000000
# 6 0.000000 0.000000 0.000000 -0.011977 0.000000 0.028688
#
#
# Mechanical properties :
#
#
# Convention : Reuss Voigt Hill
#
# Bulk Modulus (GPa) = 65.69697 71.13816 68.41756
# Shear Modulus (GPa) = 30.17827 36.15853 33.16840
#
# Velocity S-wave (km/s) = 3.60331 3.94421 3.77761
# Velocity P-wave (km/s) = 6.75109 7.16581 6.96154
#
# Compressibility (1/GPa) = 0.01522140
#
# Stress axis : x y z
#
# Youngs Moduli (GPa) = 83.35010 122.69873 83.34291
#
# Poissons Ratio (x) = 0.26829 0.20778
# Poissons Ratio (y) = 0.18225 0.31527
# Poissons Ratio (z) = 0.20780 0.46414
#
# Static dielectric constant tensor:
#      x y z
#    x 1.988130 0.000000 -0.031880 
#    y 0.000000 1.808110 0.000000 
#    z -0.031880 0.000000 1.952780 
# 
# From -- ./inp_files/12517.got.cif
#   From: 2010.05.17/outbox.cif.g08.bks.cpg/sg5_7_cif.got.tgz:12517.got - 2010.06.03 18:56:24.
