data_PCOD9128838
_publ_section_title
;
Structure prediction by ZEFSAII (Michael W. Deem and Ramdas Pophale) SiO2 
 PCOD9128838
Probable space group: C 2
;
_chemical_formula_sum "Si O2"
_cell_formula_units_Z 26
_cell_length_a 10.804265
_cell_length_b 17.652629
_cell_length_c 6.558581
_cell_angle_alpha 90.000000
_cell_angle_beta 88.356115
_cell_angle_gamma 90.000000
_cell_volume 1250.361898
_symmetry_space_group_name_H-M "C 2"
_symmetry_group_IT_number 5
_symmetry_cell_setting 'monoclinic'
loop_
_space_group_symop_operation_xyz
x,y,z
-x,y,-z
1/2+x,1/2+y,z
1/2-x,1/2+y,-z
loop_
_atom_site_type_symbol
_atom_site_label
_atom_site_fract_x
_atom_site_fract_y
_atom_site_fract_z
Si Si1 0.500000 0.091010 0.000000
Si Si2 0.111756 0.028677 0.843498
Si Si3 0.000000 0.229923 0.000000
Si Si4 0.162210 0.456428 0.931102
Si Si5 0.000000 0.922458 0.500000
Si Si6 0.753727 0.669993 0.835984
Si Si7 0.578119 0.853387 0.303724
Si Si8 0.233219 0.831103 0.376417
O O1 0.388473 0.141613 0.910401
O O2 0.581544 0.029510 0.865074
O O3 0.188564 0.097210 0.735144
O O4 0.062157 0.974440 0.669653
O O5 0.000000 0.051710 0.000000
O O6 0.209605 0.988636 0.987671
O O7 0.136333 0.190929 0.989820
O O8 0.989142 0.282467 0.799480
O O9 0.191629 0.390502 0.769846
O O10 0.101815 0.415020 0.130086
O O11 0.900009 0.868444 0.606449
O O12 0.771414 0.746598 0.709806
O O13 0.500000 0.881199 0.500000
O O14 0.706865 0.829753 0.401820
#
# Coordination Sequence:
#
# PCOD9128838 Si02
#       8
#     2   4   2   4   2   4   4   4
#     4  10  25  44  72  97 144 192 230 286 383 420
#     4  11  23  43  71 101 143 184 238 295 364 424
#     4  12  23  40  70 101 136 186 236 292 353 416
#     4  11  22  44  71 101 137 190 238 297 352 436
#     4  12  26  44  72 108 140 192 238 300 356 434
#     4  11  25  46  69 106 144 190 231 304 368 423
#     4  12  22  39  70 104 131 175 248 296 336 416
#     4  12  25  43  74 107 138 184 250 296 357 424
#
# _framework density 20.793980000000001
#
# number of rings (size 3 to 8) (size 9 to 14) (size 15 to 20)
#    0.000    0.615    6.923    1.385    0.000    3.692 
#    0.000    1.538   10.154    0.000    0.000    0.000 
#    0.000    0.000    0.000    0.000    0.000    0.000 
#
# Total GULP energy -72427.615046 kJ/mol
# GULP energy per Si atom -5571.355004 kJ/mol
# Density = 2.074665 g / cm^3
# Si number density = 20.793980 Si / 1000 Ang^3
#
#
#
# Elastic Constant Matrix: (Units=GPa)
#
#
# Indices 1 2 3 4 5 6 
#
# 1 166.7729 82.0631 44.2458 0.0000 13.1290 0.0000
# 2 82.0631 147.2144 46.6370 0.0000 19.5780 0.0000
# 3 44.2458 46.6370 63.4514 0.0000 2.8431 0.0000
# 4 0.0000 0.0000 0.0000 6.5909 0.0000 8.5075
# 5 13.1290 19.5780 2.8431 0.0000 35.9835 0.0000
# 6 0.0000 0.0000 0.0000 8.5075 0.0000 100.0721
#
#
#
# Elastic Compliance Matrix: (Units=1/GPa)
#
#
# Indices 1 2 3 4 5 6 
#
# 1 0.008786 -0.003711 -0.003357 0.000000 -0.000921 0.000000
# 2 -0.003711 0.011146 -0.005412 0.000000 -0.004282 0.000000
# 3 -0.003357 -0.005412 0.021970 0.000000 0.002434 0.000000
# 4 0.000000 0.000000 0.000000 0.170426 0.000000 -0.014488
# 5 -0.000921 -0.004282 0.002434 0.000000 0.030264 0.000000
# 6 0.000000 0.000000 0.000000 -0.014488 0.000000 0.011225
#
#
# Mechanical properties :
#
#
# Convention : Reuss Voigt Hill
#
# Bulk Modulus (GPa) = 59.03274 80.37006 69.70140
# Shear Modulus (GPa) = 17.57933 42.16216 29.87074
#
# Velocity S-wave (km/s) = 2.91074 4.50779 3.79424
# Velocity P-wave (km/s) = 6.30456 8.11345 7.26552
#
# Compressibility (1/GPa) = 0.01693975
#
# Stress axis : x y z
#
# Youngs Moduli (GPa) = 113.82223 89.71970 45.51633
#
# Poissons Ratio (x) = 0.33299 0.15281
# Poissons Ratio (y) = 0.42244 0.24635
# Poissons Ratio (z) = 0.38212 0.48559
#
# Static dielectric constant tensor:
#      x y z
#    x 1.856790 0.000000 -0.012350 
#    y 0.000000 1.782320 0.000000 
#    z -0.012350 0.000000 1.703670 
# 
# From -- ./inp_files/5206.got.cif
#   From: 2010.05.17/outbox.cif.g08.bks.cpg/sg5_3_cif.got.tgz:5206.got - 2010.06.03 18:56:24.
