data_PCOD9128241
_publ_section_title
;
Structure prediction by ZEFSAII (Michael W. Deem and Ramdas Pophale) SiO2 
 PCOD9128241
Probable space group: C 2
;
_chemical_formula_sum "Si O2"
_cell_formula_units_Z 26
_cell_length_a 17.601395
_cell_length_b 11.349666
_cell_length_c 8.194664
_cell_angle_alpha 90.000000
_cell_angle_beta 58.307918
_cell_angle_gamma 90.000000
_cell_volume 1392.937195
_symmetry_space_group_name_H-M "C 2"
_symmetry_group_IT_number 5
_symmetry_cell_setting 'monoclinic'
loop_
_space_group_symop_operation_xyz
x,y,z
-x,y,-z
1/2+x,1/2+y,z
1/2-x,1/2+y,-z
loop_
_atom_site_type_symbol
_atom_site_label
_atom_site_fract_x
_atom_site_fract_y
_atom_site_fract_z
Si Si1 0.266455 0.055460 0.950027
Si Si2 0.143683 0.615611 0.477460
Si Si3 0.000000 0.181367 0.500000
Si Si4 0.500000 0.282208 0.500000
Si Si5 0.935765 0.977973 0.786868
Si Si6 0.500000 0.325879 0.000000
Si Si7 0.845694 0.370091 0.660278
Si Si8 0.688235 0.201424 0.775588
O O1 0.296731 0.130630 0.755494
O O2 0.324979 0.936784 0.854543
O O3 0.285336 0.120090 0.099367
O O4 0.163141 0.018741 0.053786
O O5 0.056091 0.696746 0.555190
O O6 0.120878 0.476687 0.491883
O O7 0.191989 0.642217 0.592928
O O8 0.084921 0.265327 0.411236
O O9 0.012790 0.091874 0.336488
O O10 0.430154 0.373423 0.659046
O O11 0.994755 0.913904 0.854637
O O12 0.412408 0.246408 0.089535
O O13 0.753227 0.314063 0.705056
#
# Coordination Sequence:
#
# PCOD9128241 Si02
#       8
#     4   4   2   2   4   2   4   4
#     4  10  24  43  65  95 134 182 223 276 345 404
#     4  10  24  39  68  96 134 174 228 280 343 397
#     4  11  23  42  68  92 141 183 214 276 360 395
#     4  11  21  40  66  98 127 181 232 278 336 409
#     4  11  23  40  68  98 134 183 227 277 346 403
#     4  12  22  40  68 104 134 174 242 290 318 418
#     4  10  24  41  64  99 137 177 226 281 338 415
#     4  12  23  43  68 101 141 175 233 290 338 403
#
# _framework density 18.665593999999999
#
# number of rings (size 3 to 8) (size 9 to 14) (size 15 to 20)
#    0.923    0.308    4.615    1.385    0.000    3.692 
#    0.000    1.538    0.000    0.000    0.000    0.000 
#    0.000    0.000    0.000    0.000    0.000    0.000 
#
# Total GULP energy -72404.424892 kJ/mol
# GULP energy per Si atom -5569.571146 kJ/mol
# Density = 1.862311 g / cm^3
# Si number density = 18.665594 Si / 1000 Ang^3
#
#
#
# Elastic Constant Matrix: (Units=GPa)
#
#
# Indices 1 2 3 4 5 6 
#
# 1 40.1574 23.7533 15.8088 0.0000 8.0246 0.0000
# 2 23.7533 111.5158 30.0666 0.0000 9.0657 0.0000
# 3 15.8088 30.0666 68.3476 0.0000 7.5411 0.0000
# 4 0.0000 0.0000 0.0000 27.3679 0.0000 -8.0438
# 5 8.0246 9.0657 7.5411 0.0000 40.5281 0.0000
# 6 0.0000 0.0000 0.0000 -8.0438 0.0000 35.0317
#
#
#
# Elastic Compliance Matrix: (Units=1/GPa)
#
#
# Indices 1 2 3 4 5 6 
#
# 1 0.030380 -0.004953 -0.004397 0.000000 -0.004089 0.000000
# 2 -0.004953 0.011069 -0.003633 0.000000 -0.000819 0.000000
# 3 -0.004397 -0.003633 0.017418 0.000000 -0.001558 0.000000
# 4 0.000000 0.000000 0.000000 0.039184 0.000000 0.008997
# 5 -0.004089 -0.000819 -0.001558 0.000000 0.025957 0.000000
# 6 0.000000 0.000000 0.000000 0.008997 0.000000 0.030611
#
#
# Mechanical properties :
#
#
# Convention : Reuss Voigt Hill
#
# Bulk Modulus (GPa) = 30.39462 39.91980 35.15721
# Shear Modulus (GPa) = 26.10266 30.61168 28.35717
#
# Velocity S-wave (km/s) = 3.74363 4.05409 3.90195
# Velocity P-wave (km/s) = 5.91654 6.58388 6.25911
#
# Compressibility (1/GPa) = 0.03290056
#
# Stress axis : x y z
#
# Youngs Moduli (GPa) = 32.91652 90.34636 57.41140
#
# Poissons Ratio (x) = 0.44750 0.25242
# Poissons Ratio (y) = 0.16304 0.20858
# Poissons Ratio (z) = 0.14473 0.32823
#
# Static dielectric constant tensor:
#      x y z
#    x 1.673780 0.000000 0.019510 
#    y 0.000000 1.643220 0.000000 
#    z 0.019510 0.000000 1.727740 
# 
# From -- ./inp_files/23554.got.cif
#   From: 2010.05.17/outbox.cif.g08.bks.cpg/sg5_12_cif.got.tgz:23554.got - 2010.06.03 18:56:24.
