data_PCOD9128441
_publ_section_title
;
Structure prediction by ZEFSAII (Michael W. Deem and Ramdas Pophale) SiO2 
 PCOD9128441
Probable space group: C 2
;
_chemical_formula_sum "Si O2"
_cell_formula_units_Z 24
_cell_length_a 24.567686
_cell_length_b 5.066213
_cell_length_c 23.685544
_cell_angle_alpha 90.000000
_cell_angle_beta 20.058911
_cell_angle_gamma 90.000000
_cell_volume 1011.131498
_symmetry_space_group_name_H-M "C 2"
_symmetry_group_IT_number 5
_symmetry_cell_setting 'monoclinic'
loop_
_space_group_symop_operation_xyz
x,y,z
-x,y,-z
1/2+x,1/2+y,z
1/2-x,1/2+y,-z
loop_
_atom_site_type_symbol
_atom_site_label
_atom_site_fract_x
_atom_site_fract_y
_atom_site_fract_z
Si Si1 0.612301 0.000000 0.776038
Si Si2 0.051740 0.041910 0.561615
Si Si3 0.000000 0.606890 0.000000
Si Si4 0.767890 0.416559 0.807694
Si Si5 0.137687 0.881566 0.597776
Si Si6 0.000000 0.721501 0.500000
Si Si7 0.538667 0.501583 0.122868
O O1 0.773031 0.167520 0.610191
O O2 0.593439 0.720031 0.764536
O O3 0.583368 0.944638 0.869816
O O4 0.484654 0.201716 0.875550
O O5 0.065161 0.871356 0.605483
O O6 0.058399 0.889644 0.496020
O O7 0.898433 0.223734 0.708405
O O8 0.129387 0.776908 0.907049
O O9 0.863719 0.560686 0.664475
O O10 0.689412 0.581324 0.936213
O O11 0.225968 0.610288 0.529634
O O12 0.991699 0.966890 0.780957
#
# Coordination Sequence:
#
# PCOD9128441 Si02
#       7
#     4   4   2   4   4   2   4
#     4  11  24  42  77 104 150 193 258 314 388 457
#     4  12  27  47  76 113 155 204 260 326 397 465
#     4  10  24  44  68 106 150 200 260 318 394 462
#     4  11  28  47  72 112 159 207 264 329 391 477
#     4  12  25  50  80 114 150 207 265 323 392 472
#     4  12  28  46  74 112 158 206 260 324 410 464
#     4  11  25  48  72 113 146 202 260 318 381 464
#
# _framework density 23.735783999999999
#
# number of rings (size 3 to 8) (size 9 to 14) (size 15 to 20)
#    0.000    0.667    3.333    2.500   16.333    0.667 
#    3.000    0.000    0.000    0.000    0.000    0.000 
#    0.000    0.000    0.000    0.000    0.000    0.000 
#
# Total GULP energy -66904.877648 kJ/mol
# GULP energy per Si atom -5575.406471 kJ/mol
# Density = 2.368176 g / cm^3
# Si number density = 23.735784 Si / 1000 Ang^3
#
#
#
# Elastic Constant Matrix: (Units=GPa)
#
#
# Indices 1 2 3 4 5 6 
#
# 1 124.3860 16.3763 31.2060 0.1535 28.7490 -0.0789
# 2 16.3763 80.3546 12.8629 0.1009 -9.7489 -0.0457
# 3 31.2060 12.8629 121.0497 0.2019 18.6469 -0.0204
# 4 0.1535 0.1009 0.2019 -86.6723 -0.2938 45.4345
# 5 28.7490 -9.7489 18.6469 -0.2938 41.7435 0.0723
# 6 -0.0789 -0.0457 -0.0204 45.4345 0.0723 2.8782
#
#
#
# Elastic Compliance Matrix: (Units=1/GPa)
#
#
# Indices 1 2 3 4 5 6 
#
# 1 0.010401 -0.002797 -0.001267 0.000027 -0.007250 -0.000018
# 2 -0.002797 0.014006 -0.001684 -0.000002 0.005949 0.000020
# 3 -0.001267 -0.001684 0.009335 0.000009 -0.003690 -0.000041
# 4 0.000027 -0.000002 0.000009 -0.001244 -0.000066 0.019636
# 5 -0.007250 0.005949 -0.003690 -0.000066 0.031986 0.000109
# 6 -0.000018 0.000020 -0.000041 0.019636 0.000109 0.037460
#
#
# Mechanical properties :
#
#
# Convention : Reuss Voigt Hill
#
# Bulk Modulus (GPa) = 44.94991 49.63119 47.29055
# Shear Modulus (GPa) = 41.37144 9.27956 25.32550
#
# Velocity S-wave (km/s) = 4.17945 1.97940 3.27000
# Velocity P-wave (km/s) = 6.50147 5.11657 5.85015
#
# Compressibility (1/GPa) = 0.02224699
#
# Stress axis : x y z
#
# Youngs Moduli (GPa) = 96.14161 71.39747 107.12172
#
# Poissons Ratio (x) = 0.19967 0.13577
# Poissons Ratio (y) = 0.26887 0.18037
# Poissons Ratio (z) = 0.12185 0.12022
#
# Static dielectric constant tensor:
#      x y z
#    x 1.925700 0.000090 0.009360 
#    y 0.000090 1.908200 0.000060 
#    z 0.009360 0.000060 2.133060 
# 
# From -- ./inp_files/31276.got.cif
#   From: 2010.05.17/outbox.cif.g08.bks.cpg/sg5_16_cif.got.tgz:31276.got - 2010.06.03 18:56:24.
