data_PCOD9128462
_publ_section_title
;
Structure prediction by ZEFSAII (Michael W. Deem and Ramdas Pophale) SiO2 
 PCOD9128462
Probable space group: C 2
;
_chemical_formula_sum "Si O2"
_cell_formula_units_Z 16
_cell_length_a 7.127395
_cell_length_b 11.265280
_cell_length_c 8.847810
_cell_angle_alpha 90.000000
_cell_angle_beta 76.184495
_cell_angle_gamma 90.000000
_cell_volume 689.856891
_symmetry_space_group_name_H-M "C 2"
_symmetry_group_IT_number 5
_symmetry_cell_setting 'monoclinic'
loop_
_space_group_symop_operation_xyz
x,y,z
-x,y,-z
1/2+x,1/2+y,z
1/2-x,1/2+y,-z
loop_
_atom_site_type_symbol
_atom_site_label
_atom_site_fract_x
_atom_site_fract_y
_atom_site_fract_z
Si Si1 0.000000 0.375000 0.500000
Si Si2 0.166885 0.739905 0.857299
Si Si3 0.798138 0.993438 0.263933
Si Si4 0.500000 0.671796 0.000000
Si Si5 0.215232 0.666226 0.525413
O O1 0.920756 0.450535 0.655829
O O2 0.830401 0.288587 0.478414
O O3 0.363585 0.746465 0.915467
O O4 0.202972 0.655484 0.707958
O O5 0.106174 0.868360 0.800438
O O6 0.000000 0.697483 0.000000
O O7 0.829610 0.063053 0.415525
O O8 0.858133 0.087152 0.125474
O O9 0.000000 0.677821 0.500000
#
# Coordination Sequence:
#
# PCOD9128462 Si02
#       5
#     2   4   4   2   4
#     4  10  24  44  70 110 142 186 242 294 356 430
#     4  11  26  49  73 111 148 190 245 301 364 434
#     4  11  22  47  73 105 148 188 241 294 366 425
#     4  12  26  50  74 104 156 190 240 306 360 436
#     4  11  23  47  74 106 146 189 245 301 354 437
#
# _framework density 23.193216
#
# number of rings (size 3 to 8) (size 9 to 14) (size 15 to 20)
#    0.000    1.000    2.500    4.500    0.000    0.000 
#   33.750    0.000    0.000    0.000    0.000    0.000 
#    0.000    0.000    0.000    0.000    0.000    0.000 
#
# Total GULP energy -44631.523958 kJ/mol
# GULP energy per Si atom -5578.940495 kJ/mol
# Density = 2.314043 g / cm^3
# Si number density = 23.193216 Si / 1000 Ang^3
#
#
#
# Elastic Constant Matrix: (Units=GPa)
#
#
# Indices 1 2 3 4 5 6 
#
# 1 114.5426 21.1543 49.2098 0.0000 5.7263 0.0000
# 2 21.1543 103.7289 48.8656 0.0000 -1.1859 0.0000
# 3 49.2098 48.8656 183.0842 0.0000 -21.5585 0.0000
# 4 0.0000 0.0000 0.0000 25.4681 0.0000 5.9891
# 5 5.7263 -1.1859 -21.5585 0.0000 53.4303 0.0000
# 6 0.0000 0.0000 0.0000 5.9891 0.0000 12.8021
#
#
#
# Elastic Compliance Matrix: (Units=1/GPa)
#
#
# Indices 1 2 3 4 5 6 
#
# 1 0.010187 -0.000788 -0.002791 0.000000 -0.002235 0.000000
# 2 -0.000788 0.011138 -0.002858 0.000000 -0.000821 0.000000
# 3 -0.002791 -0.002858 0.007352 0.000000 0.003202 0.000000
# 4 0.000000 0.000000 0.000000 0.044118 0.000000 -0.020640
# 5 -0.002235 -0.000821 0.003202 0.000000 0.020229 0.000000
# 6 0.000000 0.000000 0.000000 -0.020640 0.000000 0.087768
#
#
# Mechanical properties :
#
#
# Convention : Reuss Voigt Hill
#
# Bulk Modulus (GPa) = 63.27841 71.09057 67.18449
# Shear Modulus (GPa) = 25.13404 37.14850 31.14127
#
# Velocity S-wave (km/s) = 3.29550 4.00646 3.66825
# Velocity P-wave (km/s) = 6.46706 7.21944 6.85358
#
# Compressibility (1/GPa) = 0.01580318
#
# Stress axis : x y z
#
# Youngs Moduli (GPa) = 98.16715 89.78206 136.02034
#
# Poissons Ratio (x) = 0.07077 0.37961
# Poissons Ratio (y) = 0.07738 0.38869
# Poissons Ratio (z) = 0.27397 0.25656
#
# Static dielectric constant tensor:
#      x y z
#    x 1.886480 0.000000 -0.032720 
#    y 0.000000 1.938050 0.000000 
#    z -0.032720 0.000000 1.873420 
# 
# From -- ./inp_files/13684.got.cif
#   From: 2010.05.17/outbox.cif.g08.bks.cpg/sg5_7_cif.got.tgz:13684.got - 2010.06.03 18:56:24.
