data_PCOD9128373
_publ_section_title
;
Structure prediction by ZEFSAII (Michael W. Deem and Ramdas Pophale) SiO2 
 PCOD9128373
Probable space group: C 2
;
_chemical_formula_sum "Si O2"
_cell_formula_units_Z 18
_cell_length_a 10.799449
_cell_length_b 9.036993
_cell_length_c 14.714626
_cell_angle_alpha 90.000000
_cell_angle_beta 30.466543
_cell_angle_gamma 90.000000
_cell_volume 728.136551
_symmetry_space_group_name_H-M "C 2"
_symmetry_group_IT_number 5
_symmetry_cell_setting 'monoclinic'
loop_
_space_group_symop_operation_xyz
x,y,z
-x,y,-z
1/2+x,1/2+y,z
1/2-x,1/2+y,-z
loop_
_atom_site_type_symbol
_atom_site_label
_atom_site_fract_x
_atom_site_fract_y
_atom_site_fract_z
Si Si1 0.930081 0.074730 0.409640
Si Si2 0.999092 0.749123 0.398528
Si Si3 0.849780 0.973536 0.921605
Si Si4 0.562548 0.171701 0.855547
Si Si5 0.500000 0.664951 0.000000
O O1 0.679219 0.160143 0.555337
O O2 0.026659 0.043394 0.245886
O O3 0.145880 0.158064 0.326806
O O4 0.892643 0.913202 0.474210
O O5 0.266493 0.754513 0.184274
O O6 0.000000 0.682855 0.500000
O O7 0.564958 0.016139 0.090346
O O8 0.930968 0.060540 0.959750
O O9 0.936954 0.805477 0.880065
O O10 0.500000 0.201959 0.000000
#
# Coordination Sequence:
#
# PCOD9128373 Si02
#       5
#     4   4   4   4   2
#     4  11  28  48  75 113 157 197 261 315 379 459
#     4  12  29  51  77 114 159 202 258 318 384 457
#     4  11  23  46  77 108 153 197 256 310 387 448
#     4  10  24  42  72 112 149 198 254 312 376 455
#     4  12  26  48  84 108 154 208 250 320 388 446
#
# _framework density 24.720638999999998
#
# number of rings (size 3 to 8) (size 9 to 14) (size 15 to 20)
#    0.000    0.889    3.333    1.333   10.889    3.556 
#    0.000    0.000    0.000    0.000    0.000    0.000 
#    0.000    0.000    0.000    0.000    0.000    0.000 
#
# Total GULP energy -50426.636658 kJ/mol
# GULP energy per Si atom -5602.959629 kJ/mol
# Density = 2.466437 g / cm^3
# Si number density = 24.720639 Si / 1000 Ang^3
#
#
#
# Elastic Constant Matrix: (Units=GPa)
#
#
# Indices 1 2 3 4 5 6 
#
# 1 149.1984 56.2779 60.7272 -0.0003 -18.2606 0.0000
# 2 56.2779 129.2106 54.4065 -0.0008 -35.1366 0.0002
# 3 60.7272 54.4065 156.7496 -0.0040 -17.4113 0.0012
# 4 -0.0003 -0.0008 -0.0040 31.1878 0.0011 -9.3592
# 5 -18.2606 -35.1366 -17.4113 0.0011 55.0814 -0.0003
# 6 0.0000 0.0002 0.0012 -9.3592 -0.0003 59.0857
#
#
#
# Elastic Compliance Matrix: (Units=1/GPa)
#
#
# Indices 1 2 3 4 5 6 
#
# 1 0.008746 -0.002677 -0.002412 0.000000 0.000429 0.000000
# 2 -0.002677 0.011413 -0.002294 0.000000 0.005667 0.000000
# 3 -0.002412 -0.002294 0.008145 0.000001 0.000311 0.000000
# 4 0.000000 0.000000 0.000001 0.033664 -0.000001 0.005332
# 5 0.000429 0.005667 0.000311 -0.000001 0.022011 0.000000
# 6 0.000000 0.000000 0.000000 0.005332 0.000000 0.017769
#
#
# Mechanical properties :
#
#
# Convention : Reuss Voigt Hill
#
# Bulk Modulus (GPa) = 73.87000 86.44239 80.15620
# Shear Modulus (GPa) = 41.31293 46.65412 43.98353
#
# Velocity S-wave (km/s) = 4.09246 4.34897 4.22266
# Velocity P-wave (km/s) = 7.23033 7.76284 7.50131
#
# Compressibility (1/GPa) = 0.01353729
#
# Stress axis : x y z
#
# Youngs Moduli (GPa) = 114.33149 87.62178 122.77670
#
# Poissons Ratio (x) = 0.23459 0.29608
# Poissons Ratio (y) = 0.30610 0.28171
# Poissons Ratio (z) = 0.27571 0.20105
#
# Static dielectric constant tensor:
#      x y z
#    x 1.971440 0.000000 0.025920 
#    y 0.000000 1.924680 0.000000 
#    z 0.025920 0.000000 1.977270 
# 
# From -- ./inp_files/60166.got.cif
#   From: 2010.05.17/outbox.cif.g08.bks.cpg/sg5_31_cif.got.tgz:60166.got - 2010.06.03 18:56:24.
