data_PCOD9128807
_publ_section_title
;
Structure prediction by ZEFSAII (Michael W. Deem and Ramdas Pophale) SiO2 
 PCOD9128807
Probable space group: C 2
;
_chemical_formula_sum "Si O2"
_cell_formula_units_Z 26
_cell_length_a 8.126724
_cell_length_b 19.264681
_cell_length_c 11.301129
_cell_angle_alpha 90.000000
_cell_angle_beta 139.908138
_cell_angle_gamma 90.000000
_cell_volume 1139.449632
_symmetry_space_group_name_H-M "C 2"
_symmetry_group_IT_number 5
_symmetry_cell_setting 'monoclinic'
loop_
_space_group_symop_operation_xyz
x,y,z
-x,y,-z
1/2+x,1/2+y,z
1/2-x,1/2+y,-z
loop_
_atom_site_type_symbol
_atom_site_label
_atom_site_fract_x
_atom_site_fract_y
_atom_site_fract_z
Si Si1 0.000000 0.367510 0.500000
Si Si2 0.665609 0.976445 0.197670
Si Si3 0.129739 0.139039 0.440950
Si Si4 0.587790 0.259017 0.268997
Si Si5 0.602188 0.691233 0.921633
Si Si6 0.276048 0.996444 0.517312
Si Si7 0.759575 0.822774 0.278663
O O1 0.796668 0.312685 0.332970
O O2 0.879802 0.424027 0.523140
O O3 0.599352 0.007601 0.286458
O O4 0.618858 0.895177 0.192879
O O5 0.969159 0.985528 0.348055
O O6 0.500000 0.003650 0.000000
O O7 0.281605 0.208815 0.560913
O O8 0.000000 0.122360 0.500000
O O9 0.945690 0.150164 0.227102
O O10 0.299530 0.075195 0.485859
O O11 0.389114 0.308779 0.224623
O O12 0.402193 0.209685 0.092949
O O13 0.431339 0.760003 0.804937
O O14 0.500000 0.667479 0.000000
O O15 0.000000 0.826850 0.500000
#
# Coordination Sequence:
#
# PCOD9128807 Si02
#       7
#     2   4   4   4   4   4   4
#     4  12  24  46  72 110 152 190 236 316 370 426
#     4  11  21  41  70  95 126 174 234 286 348 433
#     4  12  25  46  70 104 147 197 243 303 369 442
#     4  11  23  42  69 105 145 184 245 306 359 426
#     4  10  25  42  73 110 140 185 245 300 367 436
#     4  11  26  45  67 101 144 189 235 289 375 438
#     4  11  18  39  72 101 133 175 228 291 364 428
#
# _framework density 22.818034999999998
#
# number of rings (size 3 to 8) (size 9 to 14) (size 15 to 20)
#    0.000    0.923    6.923    1.385    0.000    4.308 
#    0.000    2.308    0.000    0.000    0.000    0.000 
#    0.000    0.000    0.000    0.000    0.000    0.000 
#
# Total GULP energy -72382.579494 kJ/mol
# GULP energy per Si atom -5567.890730 kJ/mol
# Density = 2.276610 g / cm^3
# Si number density = 22.818035 Si / 1000 Ang^3
#
#
#
# Elastic Constant Matrix: (Units=GPa)
#
#
# Indices 1 2 3 4 5 6 
#
# 1 79.7139 29.4754 46.7223 0.0000 -6.4747 0.0000
# 2 29.4754 89.8635 32.7673 0.0000 -3.8617 0.0000
# 3 46.7223 32.7673 182.5525 0.0000 -31.9797 0.0000
# 4 0.0000 0.0000 0.0000 28.8965 0.0000 -23.8892
# 5 -6.4747 -3.8617 -31.9797 0.0000 24.6446 0.0000
# 6 0.0000 0.0000 0.0000 -23.8892 0.0000 99.6544
#
#
#
# Elastic Compliance Matrix: (Units=1/GPa)
#
#
# Indices 1 2 3 4 5 6 
#
# 1 0.016031 -0.004002 -0.003568 0.000000 -0.001045 0.000000
# 2 -0.004002 0.012933 -0.001458 0.000000 -0.000916 0.000000
# 3 -0.003568 -0.001458 0.008345 0.000000 0.009664 0.000000
# 4 0.000000 0.000000 0.000000 0.043160 0.000000 0.010346
# 5 -0.001045 -0.000916 0.009664 0.000000 0.052699 0.000000
# 6 0.000000 0.000000 0.000000 0.010346 0.000000 0.012515
#
#
# Mechanical properties :
#
#
# Convention : Reuss Voigt Hill
#
# Bulk Modulus (GPa) = 51.93609 63.33999 57.63804
# Shear Modulus (GPa) = 29.38489 46.85010 38.11749
#
# Velocity S-wave (km/s) = 3.59248 4.53615 4.09161
# Velocity P-wave (km/s) = 6.32600 7.43334 6.90191
#
# Compressibility (1/GPa) = 0.01925443
#
# Stress axis : x y z
#
# Youngs Moduli (GPa) = 62.37940 77.32263 119.82526
#
# Poissons Ratio (x) = 0.30946 0.42749
# Poissons Ratio (y) = 0.24966 0.17466
# Poissons Ratio (z) = 0.22254 0.11270
#
# Static dielectric constant tensor:
#      x y z
#    x 1.950310 0.000000 -0.029840 
#    y 0.000000 1.888280 0.000000 
#    z -0.029840 0.000000 1.868710 
# 
# From -- ./inp_files/37417.got.cif
#   From: 2010.05.17/outbox.cif.g08.bks.cpg/sg5_19_cif.got.tgz:37417.got - 2010.06.03 18:56:24.
