data_PCOD9128770
_publ_section_title
;
Structure prediction by ZEFSAII (Michael W. Deem and Ramdas Pophale) SiO2 
 PCOD9128770
Probable space group: C 2
;
_chemical_formula_sum "Si O2"
_cell_formula_units_Z 28
_cell_length_a 21.490249
_cell_length_b 4.970234
_cell_length_c 13.925070
_cell_angle_alpha 90.000000
_cell_angle_beta 50.132435
_cell_angle_gamma 90.000000
_cell_volume 1141.589549
_symmetry_space_group_name_H-M "C 2"
_symmetry_group_IT_number 5
_symmetry_cell_setting 'monoclinic'
loop_
_space_group_symop_operation_xyz
x,y,z
-x,y,-z
1/2+x,1/2+y,z
1/2-x,1/2+y,-z
loop_
_atom_site_type_symbol
_atom_site_label
_atom_site_fract_x
_atom_site_fract_y
_atom_site_fract_z
Si Si1 0.153196 0.676610 0.827889
Si Si2 0.918517 0.364173 0.927005
Si Si3 0.500000 0.706436 0.500000
Si Si4 0.920501 0.461969 0.293603
Si Si5 0.500000 0.548334 0.000000
Si Si6 0.673719 0.710075 0.315296
Si Si7 0.096151 0.949259 0.562219
Si Si8 0.799310 0.011865 0.922757
O O1 0.133312 0.530900 0.747081
O O2 0.237853 0.833756 0.756008
O O3 0.140306 0.484039 0.933581
O O4 0.079161 0.876416 0.912960
O O5 0.871270 0.145463 0.912469
O O6 0.982140 0.548016 0.806378
O O7 0.990016 0.227295 0.917511
O O8 0.585975 0.858454 0.401226
O O9 0.516785 0.518782 0.575991
O O10 0.891693 0.658124 0.407568
O O11 0.906760 0.163559 0.348379
O O12 0.664678 0.516014 0.415887
O O13 0.680606 0.553305 0.208113
O O14 0.722940 0.207186 0.027170
#
# Coordination Sequence:
#
# PCOD9128770 Si02
#       8
#     4   4   2   4   2   4   4   4
#     4  12  24  44  73 108 154 190 246 321 378 447
#     4  12  25  43  73 111 153 196 244 316 387 445
#     4   8  22  52  68 100 144 200 238 316 356 442
#     4  12  24  45  74 107 142 198 250 301 371 459
#     4  12  22  46  70 114 154 196 236 314 398 444
#     4  10  24  51  68 108 147 193 252 312 370 446
#     4  10  26  47  74 102 145 199 249 305 365 439
#     4  12  27  47  77 114 148 197 255 313 385 457
#
# _framework density 24.527204000000001
#
# number of rings (size 3 to 8) (size 9 to 14) (size 15 to 20)
#    0.857    0.000    4.286    2.571    0.000    4.000 
#    2.571    0.000    0.000    0.000    0.000    0.000 
#    0.000    0.000    0.000    0.000    0.000    0.000 
#
# Total GULP energy -78156.481332 kJ/mol
# GULP energy per Si atom -5582.605809 kJ/mol
# Density = 2.447138 g / cm^3
# Si number density = 24.527204 Si / 1000 Ang^3
#
#
#
# Elastic Constant Matrix: (Units=GPa)
#
#
# Indices 1 2 3 4 5 6 
#
# 1 98.1193 -13.1716 22.9197 -0.0026 -25.9644 -0.0012
# 2 -13.1716 24.7475 -18.8771 -0.0357 -10.1082 0.0251
# 3 22.9197 -18.8771 98.3393 -0.0039 -7.2020 -0.0006
# 4 -0.0026 -0.0357 -0.0039 8.2743 -0.0064 4.2162
# 5 -25.9644 -10.1082 -7.2020 -0.0064 57.4344 0.0040
# 6 -0.0012 0.0251 -0.0006 4.2162 0.0040 15.8249
#
#
#
# Elastic Compliance Matrix: (Units=1/GPa)
#
#
# Indices 1 2 3 4 5 6 
#
# 1 0.013799 0.010036 -0.000710 0.000072 0.007916 -0.000036
# 2 0.010036 0.060481 0.010479 0.000384 0.016496 -0.000201
# 3 -0.000710 0.010479 0.012573 0.000072 0.003100 -0.000036
# 4 0.000072 0.000384 0.000072 0.139843 0.000127 -0.037259
# 5 0.007916 0.016496 0.003100 0.000127 0.024281 -0.000066
# 6 -0.000036 -0.000201 -0.000036 -0.037259 -0.000066 0.073119
#
#
# Mechanical properties :
#
#
# Convention : Reuss Voigt Hill
#
# Bulk Modulus (GPa) = 7.90736 22.54980 15.22858
# Shear Modulus (GPa) = 15.30732 31.66241 23.48487
#
# Velocity S-wave (km/s) = 2.50090 3.59682 3.09771
# Velocity P-wave (km/s) = 3.40151 5.14424 4.36082
#
# Compressibility (1/GPa) = 0.12646451
#
# Stress axis : x y z
#
# Youngs Moduli (GPa) = 72.46671 16.53399 79.53634
#
# Poissons Ratio (x) = -0.16594 0.05646
# Poissons Ratio (y) = -0.72731 -0.83345
# Poissons Ratio (z) = 0.05144 -0.17326
#
# Static dielectric constant tensor:
#      x y z
#    x 1.876530 -0.000010 -0.287360 
#    y -0.000010 1.956680 -0.000010 
#    z -0.287360 -0.000010 1.745520 
# 
# From -- ./inp_files/56519.got.cif
#   From: 2010.05.17/outbox.cif.g08.bks.cpg/sg5_29_cif.got.tgz:56519.got - 2010.06.03 18:56:24.
