data_PCOD9128394
_publ_section_title
;
Structure prediction by ZEFSAII (Michael W. Deem and Ramdas Pophale) SiO2 
 PCOD9128394
Probable space group: C 2
;
_chemical_formula_sum "Si O2"
_cell_formula_units_Z 24
_cell_length_a 12.061760
_cell_length_b 8.614597
_cell_length_c 10.123957
_cell_angle_alpha 90.000000
_cell_angle_beta 83.244030
_cell_angle_gamma 90.000000
_cell_volume 1044.647500
_symmetry_space_group_name_H-M "C 2"
_symmetry_group_IT_number 5
_symmetry_cell_setting 'monoclinic'
loop_
_space_group_symop_operation_xyz
x,y,z
-x,y,-z
1/2+x,1/2+y,z
1/2-x,1/2+y,-z
loop_
_atom_site_type_symbol
_atom_site_label
_atom_site_fract_x
_atom_site_fract_y
_atom_site_fract_z
Si Si1 0.500000 0.021001 0.000000
Si Si2 0.757133 0.995759 0.648382
Si Si3 0.474643 0.599754 0.725372
Si Si4 0.500000 0.475565 0.000000
Si Si5 0.231809 0.129228 0.640928
Si Si6 0.885522 0.405139 0.790222
Si Si7 0.821388 0.729231 0.110382
O O1 0.616277 0.114027 0.997939
O O2 0.494809 0.935985 0.862817
O O3 0.889740 0.988962 0.661817
O O4 0.736360 0.072156 0.509516
O O5 0.703051 0.117847 0.760781
O O6 0.725012 0.815038 0.658284
O O7 0.604266 0.575257 0.681673
O O8 0.430637 0.769977 0.687729
O O9 0.451922 0.575334 0.886103
O O10 0.414032 0.364638 0.090497
O O11 0.320486 0.042692 0.724827
O O12 0.792347 0.321123 0.895236
#
# Coordination Sequence:
#
# PCOD9128394 Si02
#       7
#     2   4   4   2   4   4   4
#     4  11  25  40  68 101 141 180 232 291 349 416
#     4  11  26  46  75 103 144 192 244 298 367 422
#     4  11  25  46  71 106 142 193 235 297 360 431
#     4  11  23  44  76 105 153 186 246 293 367 430
#     4  12  26  48  73 104 145 191 244 303 356 437
#     4  11  25  43  71 103 142 186 240 290 361 425
#     4  10  24  43  68 102 141 181 238 290 351 427
#
# _framework density 22.974254999999999
#
# number of rings (size 3 to 8) (size 9 to 14) (size 15 to 20)
#    0.000    1.000    1.667    4.000    9.333    1.333 
#    0.000    2.500    0.000    0.000    0.000    0.000 
#    0.000    0.000    0.000    0.000    0.000    0.000 
#
# Total GULP energy -66834.638345 kJ/mol
# GULP energy per Si atom -5569.553195 kJ/mol
# Density = 2.292196 g / cm^3
# Si number density = 22.974255 Si / 1000 Ang^3
#
#
#
# Elastic Constant Matrix: (Units=GPa)
#
#
# Indices 1 2 3 4 5 6 
#
# 1 93.6131 37.7545 28.8163 0.0000 11.3992 0.0000
# 2 37.7545 102.2392 28.5855 0.0000 -3.0033 0.0000
# 3 28.8163 28.5855 71.1272 0.0000 16.9558 0.0000
# 4 0.0000 0.0000 0.0000 28.9436 0.0000 7.0654
# 5 11.3992 -3.0033 16.9558 0.0000 31.1329 0.0000
# 6 0.0000 0.0000 0.0000 7.0654 0.0000 44.2845
#
#
#
# Elastic Compliance Matrix: (Units=1/GPa)
#
#
# Indices 1 2 3 4 5 6 
#
# 1 0.013830 -0.004412 -0.002898 0.000000 -0.003911 0.000000
# 2 -0.004412 0.012876 -0.004676 0.000000 0.005404 0.000000
# 3 -0.002898 -0.004676 0.019498 0.000000 -0.010009 0.000000
# 4 0.000000 0.000000 0.000000 0.035950 0.000000 -0.005736
# 5 -0.003911 0.005404 -0.010009 0.000000 0.039525 0.000000
# 6 0.000000 0.000000 0.000000 -0.005736 0.000000 0.023496
#
#
# Mechanical properties :
#
#
# Convention : Reuss Voigt Hill
#
# Bulk Modulus (GPa) = 44.97526 50.81021 47.89274
# Shear Modulus (GPa) = 28.31941 32.32709 30.32325
#
# Velocity S-wave (km/s) = 3.51473 3.75520 3.63696
# Velocity P-wave (km/s) = 6.00750 6.40049 6.20710
#
# Compressibility (1/GPa) = 0.02223445
#
# Stress axis : x y z
#
# Youngs Moduli (GPa) = 72.30801 77.66274 51.28607
#
# Poissons Ratio (x) = 0.34263 0.14860
# Poissons Ratio (y) = 0.31901 0.23980
# Poissons Ratio (z) = 0.20951 0.36313
#
# Static dielectric constant tensor:
#      x y z
#    x 1.913840 0.000000 -0.020690 
#    y 0.000000 1.926780 0.000000 
#    z -0.020690 0.000000 1.900900 
# 
# From -- ./inp_files/38383.got.cif
#   From: 2010.05.17/outbox.cif.g08.bks.cpg/sg5_20_cif.got.tgz:38383.got - 2010.06.03 18:56:24.
