data_PCOD9128819
_publ_section_title
;
Structure prediction by ZEFSAII (Michael W. Deem and Ramdas Pophale) SiO2 
 PCOD9128819
Probable space group: C 2
;
_chemical_formula_sum "Si O2"
_cell_formula_units_Z 28
_cell_length_a 22.237385
_cell_length_b 5.121633
_cell_length_c 11.382415
_cell_angle_alpha 90.000000
_cell_angle_beta 73.682845
_cell_angle_gamma 90.000000
_cell_volume 1244.146955
_symmetry_space_group_name_H-M "C 2"
_symmetry_group_IT_number 5
_symmetry_cell_setting 'monoclinic'
loop_
_space_group_symop_operation_xyz
x,y,z
-x,y,-z
1/2+x,1/2+y,z
1/2-x,1/2+y,-z
loop_
_atom_site_type_symbol
_atom_site_label
_atom_site_fract_x
_atom_site_fract_y
_atom_site_fract_z
Si Si1 0.391321 0.883640 0.292326
Si Si2 0.784045 0.641561 0.508786
Si Si3 0.801342 0.517018 0.141385
Si Si4 0.306939 0.839044 0.712214
Si Si5 0.182633 0.707199 0.110626
Si Si6 0.448863 0.362743 0.363033
Si Si7 0.910691 0.941983 0.644141
O O1 0.338493 0.002089 0.407187
O O2 0.357698 0.890346 0.183657
O O3 0.412088 0.596615 0.319033
O O4 0.445461 0.099826 0.286690
O O5 0.773643 0.943566 0.487141
O O6 0.795753 0.593832 0.639864
O O7 0.756993 0.676300 0.256130
O O8 0.749989 0.329100 0.108081
O O9 0.826749 0.701786 0.023035
O O10 0.369668 0.697511 0.637156
O O11 0.315634 0.910970 0.842902
O O12 0.129103 0.825474 0.224570
O O13 0.420895 0.311113 0.509910
O O14 0.519041 0.466081 0.346787
#
# Coordination Sequence:
#
# PCOD9128819 Si02
#       7
#     4   4   4   4   4   4   4
#     4  12  25  42  68 101 141 178 220 285 351 411
#     4  12  23  37  61 100 138 164 208 271 354 418
#     4  11  24  40  67  98 137 177 224 281 346 413
#     4  11  22  38  65  93 131 168 222 277 337 406
#     4  11  23  43  67  99 132 181 233 279 339 412
#     4  11  26  46  70 100 138 181 232 286 345 405
#     4  10  25  43  70  97 130 184 232 287 337 409
#
# _framework density 22.505379999999999
#
# number of rings (size 3 to 8) (size 9 to 14) (size 15 to 20)
#    0.000    0.857    4.286    2.571    6.000    1.143 
#    0.000    0.714    0.000    0.000    0.000    0.000 
#    0.000    0.000    0.000    0.000    0.000    0.000 
#
# Total GULP energy -78160.785798 kJ/mol
# GULP energy per Si atom -5582.913271 kJ/mol
# Density = 2.245416 g / cm^3
# Si number density = 22.505380 Si / 1000 Ang^3
#
#
#
# Elastic Constant Matrix: (Units=GPa)
#
#
# Indices 1 2 3 4 5 6 
#
# 1 115.2782 27.9911 52.4562 0.0000 11.1806 0.0000
# 2 27.9911 60.0637 17.7315 0.0000 0.5894 0.0000
# 3 52.4562 17.7315 118.9030 0.0000 11.4756 0.0000
# 4 0.0000 0.0000 0.0000 33.7752 0.0000 10.1256
# 5 11.1806 0.5894 11.4756 0.0000 30.8942 0.0000
# 6 0.0000 0.0000 0.0000 10.1256 0.0000 17.8385
#
#
#
# Elastic Compliance Matrix: (Units=1/GPa)
#
#
# Indices 1 2 3 4 5 6 
#
# 1 0.011958 -0.004251 -0.004389 0.000000 -0.002616 0.000000
# 2 -0.004251 0.018940 -0.001102 0.000000 0.001587 0.000000
# 3 -0.004389 -0.001102 0.010741 0.000000 -0.002380 0.000000
# 4 0.000000 0.000000 0.000000 0.035679 0.000000 -0.020252
# 5 -0.002616 0.001587 -0.002380 0.000000 0.034169 0.000000
# 6 0.000000 0.000000 0.000000 -0.020252 0.000000 0.067554
#
#
# Mechanical properties :
#
#
# Convention : Reuss Voigt Hill
#
# Bulk Modulus (GPa) = 45.13895 54.51138 49.82516
# Shear Modulus (GPa) = 24.28246 29.57265 26.92755
#
# Velocity S-wave (km/s) = 3.28832 3.62888 3.46279
# Velocity P-wave (km/s) = 5.87519 6.46780 6.17861
#
# Compressibility (1/GPa) = 0.02215382
#
# Stress axis : x y z
#
# Youngs Moduli (GPa) = 83.62730 52.79842 93.10525
#
# Poissons Ratio (x) = 0.22446 0.40863
# Poissons Ratio (y) = 0.35552 0.10260
# Poissons Ratio (z) = 0.36704 0.05818
#
# Static dielectric constant tensor:
#      x y z
#    x 1.902920 0.000000 -0.004760 
#    y 0.000000 1.925990 0.000000 
#    z -0.004760 0.000000 1.844760 
# 
# From -- ./inp_files/45634.got.cif
#   From: 2010.05.17/outbox.cif.g08.bks.cpg/sg5_23_cif.got.tgz:45634.got - 2010.06.03 18:56:24.
