data_PCOD9128309
_publ_section_title
;
Structure prediction by ZEFSAII (Michael W. Deem and Ramdas Pophale) SiO2 
 PCOD9128309
Probable space group: C 2
;
_chemical_formula_sum "Si O2"
_cell_formula_units_Z 22
_cell_length_a 18.541904
_cell_length_b 8.016491
_cell_length_c 7.060548
_cell_angle_alpha 90.000000
_cell_angle_beta 111.604479
_cell_angle_gamma 90.000000
_cell_volume 975.758094
_symmetry_space_group_name_H-M "C 2"
_symmetry_group_IT_number 5
_symmetry_cell_setting 'monoclinic'
loop_
_space_group_symop_operation_xyz
x,y,z
-x,y,-z
1/2+x,1/2+y,z
1/2-x,1/2+y,-z
loop_
_atom_site_type_symbol
_atom_site_label
_atom_site_fract_x
_atom_site_fract_y
_atom_site_fract_z
Si Si1 0.913693 0.044280 0.902209
Si Si2 0.500000 0.874056 0.000000
Si Si3 0.441385 0.070528 0.591689
Si Si4 0.205665 0.996978 0.898915
Si Si5 0.318801 0.356030 0.525858
Si Si6 0.315375 0.859479 0.293355
O O1 0.872199 0.004158 0.664074
O O2 0.000000 0.971090 0.000000
O O3 0.928223 0.242332 0.944990
O O4 0.862337 0.963050 0.016349
O O5 0.512580 0.990558 0.191086
O O6 0.500000 0.155860 0.500000
O O7 0.372809 0.192935 0.592966
O O8 0.398513 0.919842 0.441161
O O9 0.204227 0.880885 0.713847
O O10 0.190357 0.179721 0.805043
O O11 0.282429 0.983081 0.099784
O O12 0.243094 0.354786 0.584093
#
# Coordination Sequence:
#
# PCOD9128309 Si02
#       6
#     4   2   4   4   4   4
#     4   9  23  42  66  96 125 173 220 264 326 386
#     4  10  24  42  62  94 138 164 212 274 324 382
#     4  12  27  41  67 101 133 171 219 272 334 387
#     4  11  23  43  71  91 134 171 222 270 324 390
#     4  11  25  42  69  97 133 175 219 271 329 398
#     4  11  25  45  66  99 130 177 222 267 331 396
#
# _framework density 22.546574
#
# number of rings (size 3 to 8) (size 9 to 14) (size 15 to 20)
#    0.545    0.727    0.000    4.364    3.818   10.182 
#    0.000    0.000    0.000    0.000    0.000    0.000 
#    0.000    0.000    0.000    0.000    0.000    0.000 
#
# Total GULP energy -61518.952845 kJ/mol
# GULP energy per Si atom -5592.632077 kJ/mol
# Density = 2.249526 g / cm^3
# Si number density = 22.546574 Si / 1000 Ang^3
#
#
#
# Elastic Constant Matrix: (Units=GPa)
#
#
# Indices 1 2 3 4 5 6 
#
# 1 58.8485 -15.8037 29.2316 0.0000 -5.0203 0.0000
# 2 -15.8037 61.4941 21.6288 0.0000 3.0256 0.0000
# 3 29.2316 21.6288 159.0134 0.0000 -6.0325 0.0000
# 4 0.0000 0.0000 0.0000 36.1800 0.0000 6.3793
# 5 -5.0203 3.0256 -6.0325 0.0000 24.6794 0.0000
# 6 0.0000 0.0000 0.0000 6.3793 0.0000 33.4157
#
#
#
# Elastic Compliance Matrix: (Units=1/GPa)
#
#
# Indices 1 2 3 4 5 6 
#
# 1 0.021500 0.007111 -0.004832 0.000000 0.002321 0.000000
# 2 0.007111 0.019609 -0.004048 0.000000 -0.001947 0.000000
# 3 -0.004832 -0.004048 0.007781 0.000000 0.001415 0.000000
# 4 0.000000 0.000000 0.000000 0.028602 0.000000 -0.005460
# 5 0.002321 -0.001947 0.001415 0.000000 0.041576 0.000000
# 6 0.000000 0.000000 0.000000 -0.005460 0.000000 0.030968
#
#
# Mechanical properties :
#
#
# Convention : Reuss Voigt Hill
#
# Bulk Modulus (GPa) = 22.04970 38.82993 30.43982
# Shear Modulus (GPa) = 29.63963 35.14164 32.39064
#
# Velocity S-wave (km/s) = 3.62967 3.95222 3.79438
# Velocity P-wave (km/s) = 5.23133 6.17141 5.72071
#
# Compressibility (1/GPa) = 0.04535209
#
# Stress axis : x y z
#
# Youngs Moduli (GPa) = 46.51107 50.99772 128.51339
#
# Poissons Ratio (x) = -0.36263 0.62092
# Poissons Ratio (y) = -0.33072 0.52024
# Poissons Ratio (z) = 0.22472 0.20645
#
# Static dielectric constant tensor:
#      x y z
#    x 1.809330 0.000000 -0.003040 
#    y 0.000000 1.862440 0.000000 
#    z -0.003040 0.000000 1.806340 
# 
# From -- ./inp_files/9307.got.cif
#   From: 2010.05.17/outbox.cif.g08.bks.cpg/sg5_5_cif.got.tgz:9307.got - 2010.06.03 18:56:24.
