data_PCOD9128649
_publ_section_title
;
Structure prediction by ZEFSAII (Michael W. Deem and Ramdas Pophale) SiO2 
 PCOD9128649
Probable space group: C 2
;
_chemical_formula_sum "Si O2"
_cell_formula_units_Z 18
_cell_length_a 5.179202
_cell_length_b 18.878893
_cell_length_c 8.421713
_cell_angle_alpha 90.000000
_cell_angle_beta 117.470343
_cell_angle_gamma 90.000000
_cell_volume 730.610120
_symmetry_space_group_name_H-M "C 2"
_symmetry_group_IT_number 5
_symmetry_cell_setting 'monoclinic'
loop_
_space_group_symop_operation_xyz
x,y,z
-x,y,-z
1/2+x,1/2+y,z
1/2-x,1/2+y,-z
loop_
_atom_site_type_symbol
_atom_site_label
_atom_site_fract_x
_atom_site_fract_y
_atom_site_fract_z
Si Si1 0.440945 0.381970 0.171148
Si Si2 0.158920 0.087773 0.205791
Si Si3 0.500000 0.832000 0.500000
Si Si4 0.244774 0.249764 0.296737
Si Si5 0.249486 0.510044 0.308827
O O1 0.732388 0.380962 0.366013
O O2 0.299565 0.306337 0.174377
O O3 0.237780 0.444210 0.184497
O O4 0.500000 0.389896 0.000000
O O5 0.226819 0.170768 0.228829
O O6 0.449246 0.039556 0.295202
O O7 0.913722 0.074348 0.267329
O O8 0.000000 0.067486 0.000000
O O9 0.501183 0.780987 0.344912
O O10 0.500000 0.251847 0.500000
O O11 0.500000 0.488272 0.500000
#
# Coordination Sequence:
#
# PCOD9128649 Si02
#       5
#     4   4   2   4   4
#     4  11  27  47  79 112 156 201 268 321 397 467
#     4  12  29  48  76 114 157 203 263 323 394 466
#     4  10  24  46  80 116 150 206 258 334 382 482
#     4  10  24  47  75 111 151 204 258 318 396 468
#     4  12  27  51  77 110 155 212 259 320 393 470
#
# _framework density 24.636941
#
# number of rings (size 3 to 8) (size 9 to 14) (size 15 to 20)
#    0.000    0.889    0.000    5.333   17.111    0.000 
#    0.000    0.000    0.000    0.000    0.000    0.000 
#    0.000    0.000    0.000    0.000    0.000    0.000 
#
# Total GULP energy -50292.080439 kJ/mol
# GULP energy per Si atom -5588.008938 kJ/mol
# Density = 2.458087 g / cm^3
# Si number density = 24.636941 Si / 1000 Ang^3
#
#
#
# Elastic Constant Matrix: (Units=GPa)
#
#
# Indices 1 2 3 4 5 6 
#
# 1 41.7153 14.4045 8.7846 0.0000 9.9121 0.0000
# 2 14.4045 155.8388 4.3813 0.0000 5.5927 0.0000
# 3 8.7846 4.3813 121.0847 0.0000 11.1912 0.0000
# 4 0.0000 0.0000 0.0000 -29.9577 0.0000 -3.8032
# 5 9.9121 5.5927 11.1912 0.0000 41.7159 0.0000
# 6 0.0000 0.0000 0.0000 -3.8032 0.0000 40.2592
#
#
#
# Elastic Compliance Matrix: (Units=1/GPa)
#
#
# Indices 1 2 3 4 5 6 
#
# 1 0.026340 -0.002196 -0.001313 0.000000 -0.005612 0.000000
# 2 -0.002196 0.006634 -0.000048 0.000000 -0.000355 0.000000
# 3 -0.001313 -0.000048 0.008538 0.000000 -0.001972 0.000000
# 4 0.000000 0.000000 0.000000 -0.032985 0.000000 -0.003116
# 5 -0.005612 -0.000355 -0.001972 0.000000 0.025882 0.000000
# 6 0.000000 0.000000 0.000000 -0.003116 0.000000 0.024545
#
#
# Mechanical properties :
#
#
# Convention : Reuss Voigt Hill
#
# Bulk Modulus (GPa) = 29.07139 41.53106 35.30122
# Shear Modulus (GPa) = 64.48765 29.80803 47.14784
#
# Velocity S-wave (km/s) = 5.12172 3.48212 4.37934
# Velocity P-wave (km/s) = 6.84117 5.74985 6.31911
#
# Compressibility (1/GPa) = 0.03439808
#
# Stress axis : x y z
#
# Youngs Moduli (GPa) = 37.96452 150.73905 117.12440
#
# Poissons Ratio (x) = 0.33108 0.15376
# Poissons Ratio (y) = 0.08338 0.00561
# Poissons Ratio (z) = 0.04984 0.00722
#
# Static dielectric constant tensor:
#      x y z
#    x 2.304480 0.000000 -0.058490 
#    y 0.000000 1.937500 0.000000 
#    z -0.058490 0.000000 1.969500 
# 
# From -- ./inp_files/12148.got.cif
#   From: 2010.05.17/outbox.cif.g08.bks.cpg/sg5_7_cif.got.tgz:12148.got - 2010.06.03 18:56:24.
