data_PCOD9128687
_publ_section_title
;
Structure prediction by ZEFSAII (Michael W. Deem and Ramdas Pophale) SiO2 
 PCOD9128687
Probable space group: C 2
;
_chemical_formula_sum "Si O2"
_cell_formula_units_Z 22
_cell_length_a 19.998522
_cell_length_b 7.270676
_cell_length_c 8.935816
_cell_angle_alpha 90.000000
_cell_angle_beta 138.713191
_cell_angle_gamma 90.000000
_cell_volume 857.310424
_symmetry_space_group_name_H-M "C 2"
_symmetry_group_IT_number 5
_symmetry_cell_setting 'monoclinic'
loop_
_space_group_symop_operation_xyz
x,y,z
-x,y,-z
1/2+x,1/2+y,z
1/2-x,1/2+y,-z
loop_
_atom_site_type_symbol
_atom_site_label
_atom_site_fract_x
_atom_site_fract_y
_atom_site_fract_z
Si Si1 0.376602 0.755740 0.129763
Si Si2 0.222080 0.249012 0.734160
Si Si3 0.389557 0.216372 0.792381
Si Si4 0.048586 0.118891 0.226255
Si Si5 0.500000 0.076237 0.500000
Si Si6 0.192761 0.664453 0.658944
O O1 0.323797 0.673386 0.189579
O O2 0.455721 0.616075 0.186860
O O3 0.441788 0.934674 0.289719
O O4 0.283594 0.796698 0.860169
O O5 0.329263 0.200591 0.844416
O O6 0.139775 0.213594 0.466301
O O7 0.227076 0.465756 0.773081
O O8 0.410099 0.426003 0.769054
O O9 0.324231 0.141857 0.545407
O O10 0.500000 0.133430 0.000000
O O11 0.000000 0.216496 0.000000
O O12 0.584110 0.194981 0.554516
#
# Coordination Sequence:
#
# PCOD9128687 Si02
#       6
#     4   4   4   4   2   4
#     4  11  22  46  71  97 140 183 231 288 357 422
#     4  11  23  45  68 100 138 181 237 287 356 428
#     4  11  25  43  64 104 140 179 236 297 349 424
#     4  11  22  43  70  98 138 185 234 283 363 421
#     4  10  24  48  66 108 138 188 228 298 346 436
#     4  11  24  44  71  98 138 180 237 285 357 416
#
# _framework density 25.661650000000002
#
# number of rings (size 3 to 8) (size 9 to 14) (size 15 to 20)
#    0.000    1.091    3.636    4.364    2.545    3.636 
#    6.545    0.000    0.000    0.000    0.000    0.000 
#    0.000    0.000    0.000    0.000    0.000    0.000 
#
# Total GULP energy -61568.648992 kJ/mol
# GULP energy per Si atom -5597.149908 kJ/mol
# Density = 2.560324 g / cm^3
# Si number density = 25.661650 Si / 1000 Ang^3
#
#
#
# Elastic Constant Matrix: (Units=GPa)
#
#
# Indices 1 2 3 4 5 6 
#
# 1 223.4745 27.0211 33.6211 0.0000 27.2772 0.0000
# 2 27.0211 78.8423 18.9508 0.0000 -0.0035 0.0000
# 3 33.6211 18.9508 150.2663 0.0000 3.6572 0.0000
# 4 0.0000 0.0000 0.0000 19.0451 0.0000 -4.2551
# 5 27.2772 -0.0035 3.6572 0.0000 45.8757 0.0000
# 6 0.0000 0.0000 0.0000 -4.2551 0.0000 19.2312
#
#
#
# Elastic Compliance Matrix: (Units=1/GPa)
#
#
# Indices 1 2 3 4 5 6 
#
# 1 0.005162 -0.001556 -0.000886 0.000000 -0.002999 0.000000
# 2 -0.001556 0.013550 -0.001386 0.000000 0.001037 0.000000
# 3 -0.000886 -0.001386 0.007029 0.000000 -0.000034 0.000000
# 4 0.000000 0.000000 0.000000 0.055238 0.000000 0.012222
# 5 -0.002999 0.001037 -0.000034 0.000000 0.023584 0.000000
# 6 0.000000 0.000000 0.000000 0.012222 0.000000 0.054703
#
#
# Mechanical properties :
#
#
# Convention : Reuss Voigt Hill
#
# Bulk Modulus (GPa) = 55.29474 67.97435 61.63454
# Shear Modulus (GPa) = 28.91005 41.69640 35.30322
#
# Velocity S-wave (km/s) = 3.36011 4.03532 3.71309
# Velocity P-wave (km/s) = 6.05377 6.94679 6.51560
#
# Compressibility (1/GPa) = 0.01808490
#
# Stress axis : x y z
#
# Youngs Moduli (GPa) = 193.71250 73.80002 142.27518
#
# Poissons Ratio (x) = 0.11487 0.12602
# Poissons Ratio (y) = 0.30151 0.19717
# Poissons Ratio (z) = 0.17158 0.10228
#
# Static dielectric constant tensor:
#      x y z
#    x 2.012250 0.000000 0.005920 
#    y 0.000000 2.048930 0.000000 
#    z 0.005920 0.000000 2.061420 
# 
# From -- ./inp_files/29063.got.cif
#   From: 2010.05.17/outbox.cif.g08.bks.cpg/sg5_15_cif.got.tgz:29063.got - 2010.06.03 18:56:24.
