data_PCOD9128793
_publ_section_title
;
Structure prediction by ZEFSAII (Michael W. Deem and Ramdas Pophale) SiO2 
 PCOD9128793
Probable space group: C 2
;
_chemical_formula_sum "Si O2"
_cell_formula_units_Z 28
_cell_length_a 21.619928
_cell_length_b 15.304607
_cell_length_c 9.508501
_cell_angle_alpha 90.000000
_cell_angle_beta 26.781091
_cell_angle_gamma 90.000000
_cell_volume 1417.631084
_symmetry_space_group_name_H-M "C 2"
_symmetry_group_IT_number 5
_symmetry_cell_setting 'monoclinic'
loop_
_space_group_symop_operation_xyz
x,y,z
-x,y,-z
1/2+x,1/2+y,z
1/2-x,1/2+y,-z
loop_
_atom_site_type_symbol
_atom_site_label
_atom_site_fract_x
_atom_site_fract_y
_atom_site_fract_z
Si Si1 0.049276 0.039950 0.237033
Si Si2 0.264511 0.198291 0.743351
Si Si3 0.783851 0.411051 0.671739
Si Si4 0.659478 0.763968 0.216218
Si Si5 0.990172 0.558666 0.349015
Si Si6 0.285025 0.615463 0.678098
Si Si7 0.665467 0.765896 0.648937
O O1 0.000000 0.031027 0.500000
O O2 0.913971 0.051427 0.418195
O O3 0.142848 0.127069 0.022221
O O4 0.143993 0.961611 0.990618
O O5 0.405020 0.145937 0.481598
O O6 0.236460 0.242447 0.651664
O O7 0.247840 0.270561 0.896936
O O8 0.808217 0.339359 0.741526
O O9 0.905695 0.480779 0.447776
O O10 0.789335 0.356740 0.515776
O O11 0.500000 0.765662 0.500000
O O12 0.697656 0.673685 0.215799
O O13 0.000000 0.548830 0.500000
O O14 0.141719 0.566795 0.979597
O O15 0.296351 0.685243 0.530666
O O16 0.500000 0.767971 0.000000
#
# Coordination Sequence:
#
# PCOD9128793 Si02
#       7
#     4   4   4   4   4   4   4
#     4  11  19  41  71 102 125 173 231 289 326 399
#     4  11  20  39  74  95 129 177 233 272 326 407
#     4  10  25  40  67 100 141 170 223 283 354 397
#     4  11  18  38  68  98 123 177 232 279 327 402
#     4  11  22  41  70 107 132 171 233 299 336 391
#     4  11  20  39  73  94 126 177 231 271 335 408
#     4  11  23  44  68  96 134 187 225 268 338 429
#
# _framework density 19.751259999999998
#
# number of rings (size 3 to 8) (size 9 to 14) (size 15 to 20)
#    0.000    1.143    5.714    2.143    0.000    0.571 
#   10.286    0.000    6.286    0.000    0.000    0.000 
#    0.000    0.000    0.000    0.000    0.000    0.000 
#
# Total GULP energy -78205.769252 kJ/mol
# GULP energy per Si atom -5586.126375 kJ/mol
# Density = 1.970631 g / cm^3
# Si number density = 19.751260 Si / 1000 Ang^3
#
#
#
# Elastic Constant Matrix: (Units=GPa)
#
#
# Indices 1 2 3 4 5 6 
#
# 1 93.3725 32.6616 25.6878 0.0000 13.4881 0.0000
# 2 32.6616 78.5227 38.3278 0.0000 -1.1284 0.0000
# 3 25.6878 38.3278 100.1332 0.0000 -14.2406 0.0000
# 4 0.0000 0.0000 0.0000 -6.2896 0.0000 2.9696
# 5 13.4881 -1.1284 -14.2406 0.0000 44.0867 0.0000
# 6 0.0000 0.0000 0.0000 2.9696 0.0000 25.8501
#
#
#
# Elastic Compliance Matrix: (Units=1/GPa)
#
#
# Indices 1 2 3 4 5 6 
#
# 1 0.013737 -0.004564 -0.002506 0.000000 -0.005129 0.000000
# 2 -0.004564 0.017287 -0.005434 0.000000 0.000083 0.000000
# 3 -0.002506 -0.005434 0.013415 0.000000 0.004961 0.000000
# 4 0.000000 0.000000 0.000000 -0.150812 0.000000 0.017325
# 5 -0.005129 0.000083 0.004961 0.000000 0.025856 0.000000
# 6 0.000000 0.000000 0.000000 0.017325 0.000000 0.036694
#
#
# Mechanical properties :
#
#
# Convention : Reuss Voigt Hill
#
# Bulk Modulus (GPa) = 51.46753 51.70922 51.58838
# Shear Modulus (GPa) = -405.33472 24.41950 -190.45761
#
# Velocity S-wave (km/s) = -14.34103 3.51999 -9.83043
# Velocity P-wave (km/s) = 15.75138 6.53892 10.13283
#
# Compressibility (1/GPa) = 0.01942973
#
# Stress axis : x y z
#
# Youngs Moduli (GPa) = 72.79725 57.84565 74.54156
#
# Poissons Ratio (x) = 0.26401 0.18683
# Poissons Ratio (y) = 0.33226 0.40508
# Poissons Ratio (z) = 0.18246 0.31435
#
# Static dielectric constant tensor:
#      x y z
#    x 1.718260 0.000000 0.006280 
#    y 0.000000 1.695030 0.000000 
#    z 0.006280 0.000000 1.714650 
# 
# From -- ./inp_files/29879.got.cif
#   From: 2010.05.17/outbox.cif.g08.bks.cpg/sg5_15_cif.got.tgz:29879.got - 2010.06.03 18:56:24.
