data_PCOD9128332
_publ_section_title
;
Structure prediction by ZEFSAII (Michael W. Deem and Ramdas Pophale) SiO2 
 PCOD9128332
Probable space group: C 2
;
_chemical_formula_sum "Si O2"
_cell_formula_units_Z 26
_cell_length_a 10.795429
_cell_length_b 14.100273
_cell_length_c 9.327132
_cell_angle_alpha 90.000000
_cell_angle_beta 64.264710
_cell_angle_gamma 90.000000
_cell_volume 1278.935455
_symmetry_space_group_name_H-M "C 2"
_symmetry_group_IT_number 5
_symmetry_cell_setting 'monoclinic'
loop_
_space_group_symop_operation_xyz
x,y,z
-x,y,-z
1/2+x,1/2+y,z
1/2-x,1/2+y,-z
loop_
_atom_site_type_symbol
_atom_site_label
_atom_site_fract_x
_atom_site_fract_y
_atom_site_fract_z
Si Si1 0.449111 0.299680 0.865767
Si Si2 0.362170 0.252956 0.485011
Si Si3 0.237035 0.061132 0.610168
Si Si4 0.917687 0.013670 0.798488
Si Si5 0.500000 0.990118 0.000000
Si Si6 0.793372 0.610182 0.905805
Si Si7 0.722336 0.940523 0.668560
O O1 0.579960 0.284993 0.696711
O O2 0.399464 0.407505 0.871780
O O3 0.336411 0.220309 0.882635
O O4 0.500000 0.284020 0.000000
O O5 0.500000 0.222434 0.500000
O O6 0.260516 0.165138 0.532632
O O7 0.295663 0.341687 0.598824
O O8 0.288178 0.068329 0.748272
O O9 0.313768 0.988731 0.464997
O O10 0.077374 0.032597 0.694578
O O11 0.832703 0.008639 0.693217
O O12 0.849289 0.087933 0.941691
O O13 0.405990 0.055830 0.945718
O O14 0.597322 0.932653 0.842680
#
# Coordination Sequence:
#
# PCOD9128332 Si02
#       7
#     4   4   4   4   2   4   4
#     4  12  23  43  69  96 131 177 226 262 335 403
#     4  12  23  43  69  96 126 182 220 276 333 395
#     4  12  23  40  71  97 133 170 230 271 327 401
#     4  11  24  44  67  99 135 176 218 277 335 395
#     4  10  24  42  66  98 136 174 216 282 336 382
#     4  11  23  41  67 103 132 175 220 277 329 394
#     4  11  23  45  69  93 137 174 221 272 337 398
#
# _framework density 20.329409999999999
#
# number of rings (size 3 to 8) (size 9 to 14) (size 15 to 20)
#    0.000    0.615    5.385    2.769    2.154    0.000 
#    8.308    0.000    3.385    0.000    0.000    0.000 
#    0.000    0.000    0.000    0.000    0.000    0.000 
#
# Total GULP energy -72684.224844 kJ/mol
# GULP energy per Si atom -5591.094219 kJ/mol
# Density = 2.028314 g / cm^3
# Si number density = 20.329410 Si / 1000 Ang^3
#
#
#
# Elastic Constant Matrix: (Units=GPa)
#
#
# Indices 1 2 3 4 5 6 
#
# 1 56.8539 17.6869 45.3117 0.0000 0.7185 0.0000
# 2 17.6869 100.0073 46.6597 0.0000 -22.2579 0.0000
# 3 45.3117 46.6597 142.3364 0.0000 -16.2382 0.0000
# 4 0.0000 0.0000 0.0000 35.5138 0.0000 -9.8602
# 5 0.7185 -22.2579 -16.2382 0.0000 39.0782 0.0000
# 6 0.0000 0.0000 0.0000 -9.8602 0.0000 26.8012
#
#
#
# Elastic Compliance Matrix: (Units=1/GPa)
#
#
# Indices 1 2 3 4 5 6 
#
# 1 0.024329 -0.001741 -0.007703 0.000000 -0.004640 0.000000
# 2 -0.001741 0.013110 -0.003032 0.000000 0.006240 0.000000
# 3 -0.007703 -0.003032 0.010803 0.000000 0.002904 0.000000
# 4 0.000000 0.000000 0.000000 0.031361 0.000000 0.011538
# 5 -0.004640 0.006240 0.002904 0.000000 0.030436 0.000000
# 6 0.000000 0.000000 0.000000 0.011538 0.000000 0.041557
#
#
# Mechanical properties :
#
#
# Convention : Reuss Voigt Hill
#
# Bulk Modulus (GPa) = 42.93765 57.61270 50.27518
# Shear Modulus (GPa) = 27.12797 32.91460 30.02128
#
# Velocity S-wave (km/s) = 3.65693 4.02812 3.84701
# Velocity P-wave (km/s) = 6.24481 7.07358 6.67208
#
# Compressibility (1/GPa) = 0.02328958
#
# Stress axis : x y z
#
# Youngs Moduli (GPa) = 41.10354 76.27555 92.56670
#
# Poissons Ratio (x) = 0.13282 0.71308
# Poissons Ratio (y) = 0.07157 0.28062
# Poissons Ratio (z) = 0.31664 0.23124
#
# Static dielectric constant tensor:
#      x y z
#    x 1.727370 0.000000 0.013900 
#    y 0.000000 1.696230 0.000000 
#    z 0.013900 0.000000 1.742260 
# 
# From -- ./inp_files/20252.got.cif
#   From: 2010.05.17/outbox.cif.g08.bks.cpg/sg5_11_cif.got.tgz:20252.got - 2010.06.03 18:56:24.
