data_PCOD9128531
_publ_section_title
;
Structure prediction by ZEFSAII (Michael W. Deem and Ramdas Pophale) SiO2 
 PCOD9128531
Probable space group: C 2
;
_chemical_formula_sum "Si O2"
_cell_formula_units_Z 28
_cell_length_a 20.021374
_cell_length_b 13.891682
_cell_length_c 9.232115
_cell_angle_alpha 90.000000
_cell_angle_beta 27.832931
_cell_angle_gamma 90.000000
_cell_volume 1198.861798
_symmetry_space_group_name_H-M "C 2"
_symmetry_group_IT_number 5
_symmetry_cell_setting 'monoclinic'
loop_
_space_group_symop_operation_xyz
x,y,z
-x,y,-z
1/2+x,1/2+y,z
1/2-x,1/2+y,-z
loop_
_atom_site_type_symbol
_atom_site_label
_atom_site_fract_x
_atom_site_fract_y
_atom_site_fract_z
Si Si1 0.352721 0.297620 0.716070
Si Si2 0.702975 0.898431 0.247696
Si Si3 0.784516 0.103247 0.010494
Si Si4 0.438853 0.904611 0.962346
Si Si5 0.678800 0.548575 0.383322
Si Si6 0.008472 0.187878 0.142988
Si Si7 0.999167 0.872441 0.831174
O O1 0.500000 0.337769 0.500000
O O2 0.327928 0.187652 0.803223
O O3 0.388020 0.309809 0.479157
O O4 0.225452 0.353250 0.044131
O O5 0.556001 0.885427 0.612453
O O6 0.715456 0.012585 0.218161
O O7 0.838371 0.860850 0.080388
O O8 0.838368 0.062109 0.755038
O O9 0.898855 0.148385 0.900525
O O10 0.412817 0.790351 0.039861
O O11 0.500000 0.939728 0.000000
O O12 0.320630 0.984398 0.144393
O O13 0.652575 0.657017 0.494089
O O14 0.554735 0.480000 0.686583
O O15 0.000000 0.141857 0.000000
O O16 0.000000 0.855347 0.000000
#
# Coordination Sequence:
#
# PCOD9128531 Si02
#       7
#     4   4   4   4   4   4   4
#     4  10  24  45  69 108 147 190 249 313 377 458
#     4  11  24  44  70 103 145 191 242 310 380 448
#     4  12  25  43  72 105 147 190 252 309 376 454
#     4  11  27  48  74 112 157 199 251 321 389 450
#     4  12  24  44  76 109 146 199 251 309 384 457
#     4  11  26  47  75 109 148 200 258 312 382 465
#     4  11  22  44  76 102 139 195 248 306 381 452
#
# _framework density 23.355487
#
# number of rings (size 3 to 8) (size 9 to 14) (size 15 to 20)
#    0.000    0.857    2.857    3.429    4.000    1.143 
#    0.000    0.714    0.000    0.000    0.000    0.000 
#    0.000    0.000    0.000    0.000    0.000    0.000 
#
# Total GULP energy -77997.491081 kJ/mol
# GULP energy per Si atom -5571.249363 kJ/mol
# Density = 2.330233 g / cm^3
# Si number density = 23.355487 Si / 1000 Ang^3
#
#
#
# Elastic Constant Matrix: (Units=GPa)
#
#
# Indices 1 2 3 4 5 6 
#
# 1 147.4690 28.0074 61.2045 0.0000 17.5398 0.0000
# 2 28.0074 65.4264 0.5011 0.0000 -9.7166 0.0000
# 3 61.2045 0.5011 98.4318 0.0000 2.9042 0.0000
# 4 0.0000 0.0000 0.0000 30.2266 0.0000 -12.3859
# 5 17.5398 -9.7166 2.9042 0.0000 40.2856 0.0000
# 6 0.0000 0.0000 0.0000 -12.3859 0.0000 28.6722
#
#
#
# Elastic Compliance Matrix: (Units=1/GPa)
#
#
# Indices 1 2 3 4 5 6 
#
# 1 0.011426 -0.005708 -0.006903 0.000000 -0.005854 0.000000
# 2 -0.005708 0.018707 0.003254 0.000000 0.006763 0.000000
# 3 -0.006903 0.003254 0.014354 0.000000 0.002756 0.000000
# 4 0.000000 0.000000 0.000000 0.040199 0.000000 0.017365
# 5 -0.005854 0.006763 0.002756 0.000000 0.028804 0.000000
# 6 0.000000 0.000000 0.000000 0.017365 0.000000 0.042379
#
#
# Mechanical properties :
#
#
# Convention : Reuss Voigt Hill
#
# Bulk Modulus (GPa) = 38.79864 54.52812 46.66338
# Shear Modulus (GPa) = 27.29648 34.61115 30.95381
#
# Velocity S-wave (km/s) = 3.42239 3.85376 3.64446
# Velocity P-wave (km/s) = 5.68026 6.57264 6.14268
#
# Compressibility (1/GPa) = 0.02577410
#
# Stress axis : x y z
#
# Youngs Moduli (GPa) = 87.51651 53.45550 69.66805
#
# Poissons Ratio (x) = 0.30512 0.48093
# Poissons Ratio (y) = 0.49953 -0.22673
# Poissons Ratio (z) = 0.60414 -0.17396
#
# Static dielectric constant tensor:
#      x y z
#    x 1.936130 0.000000 -0.026370 
#    y 0.000000 1.947480 0.000000 
#    z -0.026370 0.000000 1.932170 
# 
# From -- ./inp_files/29910.got.cif
#   From: 2010.05.17/outbox.cif.g08.bks.cpg/sg5_15_cif.got.tgz:29910.got - 2010.06.03 18:56:24.
