data_PCOD9128194
_publ_section_title
;
Structure prediction by ZEFSAII (Michael W. Deem and Ramdas Pophale) SiO2 
 PCOD9128194
Probable space group: C 2
;
_chemical_formula_sum "Si O2"
_cell_formula_units_Z 14
_cell_length_a 21.861598
_cell_length_b 5.002824
_cell_length_c 20.574521
_cell_angle_alpha 90.000000
_cell_angle_beta 13.673954
_cell_angle_gamma 90.000000
_cell_volume 531.946361
_symmetry_space_group_name_H-M "C 2"
_symmetry_group_IT_number 5
_symmetry_cell_setting 'monoclinic'
loop_
_space_group_symop_operation_xyz
x,y,z
-x,y,-z
1/2+x,1/2+y,z
1/2-x,1/2+y,-z
loop_
_atom_site_type_symbol
_atom_site_label
_atom_site_fract_x
_atom_site_fract_y
_atom_site_fract_z
Si Si1 0.753883 0.254880 0.613238
Si Si2 0.000000 0.822913 0.000000
Si Si3 0.764943 0.080169 0.125365
Si Si4 0.854163 0.939113 0.854934
O O1 0.651358 0.154103 0.789400
O O2 0.003607 0.434578 0.372797
O O3 0.523229 0.446109 0.828329
O O4 0.855084 0.039900 0.457681
O O5 0.187243 0.016175 0.848559
O O6 0.744685 0.375525 0.116748
O O7 0.802682 0.667552 0.946345
#
# Coordination Sequence:
#
# PCOD9128194 Si02
#       4
#     4   2   4   4
#     4  10  23  49  81 122 160 212 269 342 408 482
#     4   8  22  48  88 116 164 200 280 334 424 476
#     4  10  23  49  81 122 160 212 269 342 408 482
#     4  12  26  54  85 119 170 218 276 332 408 498
#
# _framework density 26.318442000000001
#
# number of rings (size 3 to 8) (size 9 to 14) (size 15 to 20)
#    1.714    0.000    2.857    0.857    0.000    2.286 
#   10.286    8.571    0.000    0.000    0.000    0.000 
#    0.000    0.000    0.000    0.000    0.000    0.000 
#
# Total GULP energy -39127.375607 kJ/mol
# GULP energy per Si atom -5589.625087 kJ/mol
# Density = 2.625854 g / cm^3
# Si number density = 26.318442 Si / 1000 Ang^3
#
#
#
# Elastic Constant Matrix: (Units=GPa)
#
#
# Indices 1 2 3 4 5 6 
#
# 1 83.3476 18.2647 30.8053 -0.0067 -0.9499 0.0008
# 2 18.2647 108.9871 46.7296 -0.0241 6.1627 0.0045
# 3 30.8053 46.7296 177.6405 -0.0310 7.7505 0.0115
# 4 -0.0067 -0.0241 -0.0310 32.4157 0.0069 -2.0300
# 5 -0.9499 6.1627 7.7505 0.0069 70.0089 -0.0015
# 6 0.0008 0.0045 0.0115 -2.0300 -0.0015 51.1152
#
#
#
# Elastic Compliance Matrix: (Units=1/GPa)
#
#
# Indices 1 2 3 4 5 6 
#
# 1 0.013016 -0.001390 -0.001914 0.000000 0.000511 0.000000
# 2 -0.001390 0.010516 -0.002496 0.000005 -0.000668 0.000000
# 3 -0.001914 -0.002496 0.006642 0.000004 -0.000541 -0.000001
# 4 0.000000 0.000005 0.000004 0.030926 -0.000004 0.001228
# 5 0.000511 -0.000668 -0.000541 -0.000004 0.014410 0.000000
# 6 0.000000 0.000000 -0.000001 0.001228 0.000000 0.019612
#
#
# Mechanical properties :
#
#
# Convention : Reuss Voigt Hill
#
# Bulk Modulus (GPa) = 53.83814 62.39715 58.11765
# Shear Modulus (GPa) = 44.28210 48.98634 46.63422
#
# Velocity S-wave (km/s) = 4.10634 4.31895 4.21399
# Velocity P-wave (km/s) = 6.55618 6.97360 6.76811
#
# Compressibility (1/GPa) = 0.01857419
#
# Stress axis : x y z
#
# Youngs Moduli (GPa) = 76.83071 95.08995 150.56783
#
# Poissons Ratio (x) = 0.13213 0.28816
# Poissons Ratio (y) = 0.10676 0.37586
# Poissons Ratio (z) = 0.14704 0.23737
#
# Static dielectric constant tensor:
#      x y z
#    x 2.141120 0.000000 0.029290 
#    y 0.000000 2.060910 0.000010 
#    z 0.029290 0.000010 2.036130 
# 
# From -- ./inp_files/71409.got.cif
#   From: 2010.05.17/outbox.cif.g08.bks.cpg/sg5_36_cif.got.tgz:71409.got - 2010.06.03 18:56:24.
