data_PCOD9128549
_publ_section_title
;
Structure prediction by ZEFSAII (Michael W. Deem and Ramdas Pophale) SiO2 
 PCOD9128549
Probable space group: C 2
;
_chemical_formula_sum "Si O2"
_cell_formula_units_Z 20
_cell_length_a 21.371260
_cell_length_b 4.881510
_cell_length_c 8.188879
_cell_angle_alpha 90.000000
_cell_angle_beta 80.098646
_cell_angle_gamma 90.000000
_cell_volume 841.572246
_symmetry_space_group_name_H-M "C 2"
_symmetry_group_IT_number 5
_symmetry_cell_setting 'monoclinic'
loop_
_space_group_symop_operation_xyz
x,y,z
-x,y,-z
1/2+x,1/2+y,z
1/2-x,1/2+y,-z
loop_
_atom_site_type_symbol
_atom_site_label
_atom_site_fract_x
_atom_site_fract_y
_atom_site_fract_z
Si Si1 0.252260 0.297810 0.597462
Si Si2 0.613203 0.091635 0.388178
Si Si3 0.928887 0.330863 0.907037
Si Si4 0.111682 0.239646 0.721932
Si Si5 0.504332 0.327456 0.247313
O O1 0.242993 0.618483 0.571237
O O2 0.320358 0.247985 0.645289
O O3 0.186876 0.175101 0.695852
O O4 0.614382 0.891057 0.230911
O O5 0.552141 0.284754 0.380904
O O6 0.604107 0.927570 0.561928
O O7 0.953184 0.022791 0.886618
O O8 0.988787 0.525728 0.832836
O O9 0.898908 0.374529 0.095678
O O10 0.063110 0.983011 0.717513
#
# Coordination Sequence:
#
# PCOD9128549 Si02
#       5
#     4   4   4   4   4
#     4  10  24  45  73 105 148 188 253 300 362 446
#     4   9  25  51  69 111 148 190 252 304 359 452
#     4  10  25  48  70 107 151 185 249 310 360 444
#     4  11  24  50  77 107 148 210 230 312 389 425
#     4  10  25  48  70 109 147 185 251 306 358 445
#
# _framework density 23.765045000000001
#
# number of rings (size 3 to 8) (size 9 to 14) (size 15 to 20)
#    1.200    0.800    0.000    0.600    5.600   10.400 
#   14.400    0.000    0.000    0.000    0.000    0.000 
#    0.000    0.000    0.000    0.000    0.000    0.000 
#
# Total GULP energy -55724.061616 kJ/mol
# GULP energy per Si atom -5572.406162 kJ/mol
# Density = 2.371095 g / cm^3
# Si number density = 23.765045 Si / 1000 Ang^3
#
#
#
# Elastic Constant Matrix: (Units=GPa)
#
#
# Indices 1 2 3 4 5 6 
#
# 1 176.2008 18.3303 67.6034 0.0000 -15.2296 0.0000
# 2 18.3303 81.1916 34.1055 0.0000 0.8111 0.0000
# 3 67.6034 34.1055 160.2159 0.0000 11.1239 0.0000
# 4 0.0000 0.0000 0.0000 16.9864 0.0000 -0.5154
# 5 -15.2296 0.8111 11.1239 0.0000 29.5253 0.0000
# 6 0.0000 0.0000 0.0000 -0.5154 0.0000 41.8438
#
#
#
# Elastic Compliance Matrix: (Units=1/GPa)
#
#
# Indices 1 2 3 4 5 6 
#
# 1 0.007476 -0.000290 -0.003451 0.000000 0.005165 0.000000
# 2 -0.000290 0.013553 -0.002800 0.000000 0.000533 0.000000
# 3 -0.003451 -0.002800 0.008638 0.000000 -0.004958 0.000000
# 4 0.000000 0.000000 0.000000 0.058893 0.000000 0.000725
# 5 0.005165 0.000533 -0.004958 0.000000 0.038387 0.000000
# 6 0.000000 0.000000 0.000000 0.000725 0.000000 0.023907
#
#
# Mechanical properties :
#
#
# Convention : Reuss Voigt Hill
#
# Bulk Modulus (GPa) = 60.29485 73.07631 66.68558
# Shear Modulus (GPa) = 29.50481 37.50902 33.50692
#
# Velocity S-wave (km/s) = 3.52735 3.97713 3.75897
# Velocity P-wave (km/s) = 6.48196 7.20460 6.85282
#
# Compressibility (1/GPa) = 0.01658516
#
# Stress axis : x y z
#
# Youngs Moduli (GPa) = 133.75950 73.78608 115.76521
#
# Poissons Ratio (x) = 0.02137 0.39956
# Poissons Ratio (y) = 0.03874 0.32412
# Poissons Ratio (z) = 0.46167 0.20659
#
# Static dielectric constant tensor:
#      x y z
#    x 1.974260 0.000000 0.027120 
#    y 0.000000 1.917840 0.000000 
#    z 0.027120 0.000000 1.974830 
# 
# From -- ./inp_files/28323.got.cif
#   From: 2010.05.17/outbox.cif.g08.bks.cpg/sg5_15_cif.got.tgz:28323.got - 2010.06.03 18:56:24.
