data_PCOD9128156
_publ_section_title
;
Structure prediction by ZEFSAII (Michael W. Deem and Ramdas Pophale) SiO2 
 PCOD9128156
Probable space group: C 2
;
_chemical_formula_sum "Si O2"
_cell_formula_units_Z 16
_cell_length_a 14.751091
_cell_length_b 4.973316
_cell_length_c 14.875892
_cell_angle_alpha 90.000000
_cell_angle_beta 151.676447
_cell_angle_gamma 90.000000
_cell_volume 517.778208
_symmetry_space_group_name_H-M "C 2"
_symmetry_group_IT_number 5
_symmetry_cell_setting 'monoclinic'
loop_
_space_group_symop_operation_xyz
x,y,z
-x,y,-z
1/2+x,1/2+y,z
1/2-x,1/2+y,-z
loop_
_atom_site_type_symbol
_atom_site_label
_atom_site_fract_x
_atom_site_fract_y
_atom_site_fract_z
Si Si1 0.303478 0.353520 0.281586
Si Si2 0.424824 0.703259 0.573517
Si Si3 0.068402 0.707236 0.785945
Si Si4 0.553802 0.424763 0.146427
O O1 0.500000 0.240878 0.500000
O O2 0.388222 0.644435 0.325321
O O3 0.272327 0.236197 0.153417
O O4 0.137276 0.225456 0.197322
O O5 0.410059 0.412834 0.606760
O O6 0.240322 0.779573 0.355209
O O7 0.014150 0.414134 0.298296
O O8 0.099337 0.827794 0.911110
O O9 0.500000 0.314028 0.000000
#
# Coordination Sequence:
#
# PCOD9128156 Si02
#       4
#     4   4   4   4
#     4  10  24  44  84 113 154 220 280 325 403 509
#     4  10  23  47  79 113 153 218 277 322 399 510
#     4  10  24  46  81 111 159 215 284 319 404 512
#     4  12  25  49  83 128 165 210 279 363 420 477
#
# _framework density 30.901257000000001
#
# number of rings (size 3 to 8) (size 9 to 14) (size 15 to 20)
#    1.500    0.000    2.500    1.500    3.500    0.000 
#    0.000   16.250    0.000    0.000    0.000    0.000 
#    0.000    0.000    0.000    0.000    0.000    0.000 
#
# Total GULP energy -44629.932235 kJ/mol
# GULP energy per Si atom -5578.741529 kJ/mol
# Density = 3.083092 g / cm^3
# Si number density = 30.901257 Si / 1000 Ang^3
#
#
#
# Elastic Constant Matrix: (Units=GPa)
#
#
# Indices 1 2 3 4 5 6 
#
# 1 246.3877 38.6336 65.1632 0.0004 -41.7118 -0.0002
# 2 38.6336 148.7467 35.5425 0.0027 -21.2903 0.0022
# 3 65.1632 35.5425 191.1649 0.0004 -21.1632 0.0005
# 4 0.0004 0.0027 0.0004 37.1255 0.0002 -34.1866
# 5 -41.7118 -21.2903 -21.1632 0.0002 83.0064 0.0000
# 6 -0.0002 0.0022 0.0005 -34.1866 0.0000 58.1986
#
#
#
# Elastic Compliance Matrix: (Units=1/GPa)
#
#
# Indices 1 2 3 4 5 6 
#
# 1 0.004836 -0.000667 -0.001311 0.000000 0.001925 0.000000
# 2 -0.000667 0.007317 -0.000990 -0.000002 0.001289 -0.000001
# 3 -0.001311 -0.000990 0.005928 0.000000 0.000599 0.000000
# 4 0.000000 -0.000002 0.000000 0.058672 -0.000001 0.034465
# 5 0.001925 0.001289 0.000599 -0.000001 0.013498 0.000000
# 6 0.000000 -0.000001 0.000000 0.034465 0.000000 0.037427
#
#
# Mechanical properties :
#
#
# Convention : Reuss Voigt Hill
#
# Bulk Modulus (GPa) = 82.34562 96.10866 89.22714
# Shear Modulus (GPa) = 36.32021 65.46342 50.89182
#
# Velocity S-wave (km/s) = 3.43208 4.60768 4.06263
# Velocity P-wave (km/s) = 6.51240 7.71213 7.13752
#
# Compressibility (1/GPa) = 0.01214394
#
# Stress axis : x y z
#
# Youngs Moduli (GPa) = 206.78672 136.66302 168.67752
#
# Poissons Ratio (x) = 0.09118 0.22119
# Poissons Ratio (y) = 0.13797 0.16705
# Poissons Ratio (z) = 0.27116 0.13534
#
# Static dielectric constant tensor:
#      x y z
#    x 2.760720 0.000000 0.038140 
#    y 0.000000 2.484360 0.000000 
#    z 0.038140 0.000000 2.375390 
# 
# From -- ./inp_files/53925.got.cif
#   From: 2010.05.17/outbox.cif.g08.bks.cpg/sg5_27_cif.got.tgz:53925.got - 2010.06.03 18:56:24.
