data_PCOD9128614
_publ_section_title
;
Structure prediction by ZEFSAII (Michael W. Deem and Ramdas Pophale) SiO2 
 PCOD9128614
Probable space group: C 2
;
_chemical_formula_sum "Si O2"
_cell_formula_units_Z 18
_cell_length_a 8.914236
_cell_length_b 11.952482
_cell_length_c 7.884692
_cell_angle_alpha 90.000000
_cell_angle_beta 114.735950
_cell_angle_gamma 90.000000
_cell_volume 763.010232
_symmetry_space_group_name_H-M "C 2"
_symmetry_group_IT_number 5
_symmetry_cell_setting 'monoclinic'
loop_
_space_group_symop_operation_xyz
x,y,z
-x,y,-z
1/2+x,1/2+y,z
1/2-x,1/2+y,-z
loop_
_atom_site_type_symbol
_atom_site_label
_atom_site_fract_x
_atom_site_fract_y
_atom_site_fract_z
Si Si1 0.196135 0.948420 0.590217
Si Si2 0.712526 0.607264 0.911685
Si Si3 0.241065 0.950445 0.243117
Si Si4 0.477485 0.800035 0.788537
Si Si5 0.500000 0.277008 0.000000
O O1 0.253276 0.997523 0.436799
O O2 0.291763 0.830667 0.653082
O O3 0.000000 0.938958 0.500000
O O4 0.749313 0.025316 0.226256
O O5 0.548092 0.676852 0.788735
O O6 0.857075 0.698163 0.004398
O O7 0.699109 0.538081 0.077078
O O8 0.403906 0.884796 0.258004
O O9 0.093077 0.858705 0.174482
O O10 0.500000 0.818658 0.000000
#
# Coordination Sequence:
#
# PCOD9128614 Si02
#       5
#     4   4   4   4   2
#     4  12  27  47  75 112 148 188 251 304 360 439
#     4  11  25  48  77 103 150 197 239 297 375 434
#     4  11  24  49  75 107 151 190 242 309 362 429
#     4  11  25  48  80 105 150 198 242 300 372 434
#     4  10  24  46  72 112 144 186 246 298 360 438
#
# _framework density 23.590769999999999
#
# number of rings (size 3 to 8) (size 9 to 14) (size 15 to 20)
#    0.000    0.889    2.222    3.333    7.778    3.556 
#    0.000    2.222    0.000    0.000    0.000    0.000 
#    0.000    0.000    0.000    0.000    0.000    0.000 
#
# Total GULP energy -50413.416881 kJ/mol
# GULP energy per Si atom -5601.490765 kJ/mol
# Density = 2.353708 g / cm^3
# Si number density = 23.590770 Si / 1000 Ang^3
#
#
#
# Elastic Constant Matrix: (Units=GPa)
#
#
# Indices 1 2 3 4 5 6 
#
# 1 75.6163 31.3302 33.5198 0.0000 -22.5699 0.0000
# 2 31.3302 104.4613 31.7263 0.0000 -6.4166 0.0000
# 3 33.5198 31.7263 87.6026 0.0000 -29.7586 0.0000
# 4 0.0000 0.0000 0.0000 11.5117 0.0000 9.7926
# 5 -22.5699 -6.4166 -29.7586 0.0000 53.2215 0.0000
# 6 0.0000 0.0000 0.0000 9.7926 0.0000 40.6017
#
#
#
# Elastic Compliance Matrix: (Units=1/GPa)
#
#
# Indices 1 2 3 4 5 6 
#
# 1 0.018042 -0.003962 -0.003742 0.000000 0.005081 0.000000
# 2 -0.003962 0.011678 -0.003463 0.000000 -0.002209 0.000000
# 3 -0.003742 -0.003463 0.016567 0.000000 0.007259 0.000000
# 4 0.000000 0.000000 0.000000 0.109291 0.000000 -0.026359
# 5 0.005081 -0.002209 0.007259 0.000000 0.024737 0.000000
# 6 0.000000 0.000000 0.000000 -0.026359 0.000000 0.030987
#
#
# Mechanical properties :
#
#
# Convention : Reuss Voigt Hill
#
# Bulk Modulus (GPa) = 41.75330 51.20367 46.47848
# Shear Modulus (GPa) = 20.69354 32.47390 26.58372
#
# Velocity S-wave (km/s) = 2.96495 3.71422 3.36053
# Velocity P-wave (km/s) = 5.42758 6.33608 5.89935
#
# Compressibility (1/GPa) = 0.02395020
#
# Stress axis : x y z
#
# Youngs Moduli (GPa) = 55.42640 85.63449 60.35969
#
# Poissons Ratio (x) = 0.33932 0.22589
# Poissons Ratio (y) = 0.21962 0.20905
# Poissons Ratio (z) = 0.20743 0.29659
#
# Static dielectric constant tensor:
#      x y z
#    x 1.920540 0.000000 0.025120 
#    y 0.000000 1.880440 0.000000 
#    z 0.025120 0.000000 1.879440 
# 
# From -- ./inp_files/14196.got.cif
#   From: 2010.05.17/outbox.cif.g08.bks.cpg/sg5_8_cif.got.tgz:14196.got - 2010.06.03 18:56:24.
