data_PCOD9128876
_publ_section_title
;
Structure prediction by ZEFSAII (Michael W. Deem and Ramdas Pophale) SiO2 
 PCOD9128876
Probable space group: C 2
;
_chemical_formula_sum "Si O2"
_cell_formula_units_Z 26
_cell_length_a 12.150562
_cell_length_b 8.777802
_cell_length_c 11.557712
_cell_angle_alpha 90.000000
_cell_angle_beta 88.632991
_cell_angle_gamma 90.000000
_cell_volume 1232.339568
_symmetry_space_group_name_H-M "C 2"
_symmetry_group_IT_number 5
_symmetry_cell_setting 'monoclinic'
loop_
_space_group_symop_operation_xyz
x,y,z
-x,y,-z
1/2+x,1/2+y,z
1/2-x,1/2+y,-z
loop_
_atom_site_type_symbol
_atom_site_label
_atom_site_fract_x
_atom_site_fract_y
_atom_site_fract_z
Si Si1 0.801446 0.641660 0.885899
Si Si2 0.632966 0.006669 0.691575
Si Si3 0.844146 0.121495 0.765862
Si Si4 0.667233 0.327869 0.352339
Si Si5 0.977294 0.378458 0.876075
Si Si6 0.000000 0.651400 0.500000
Si Si7 0.132275 0.941527 0.998627
O O1 0.822742 0.720954 0.761339
O O2 0.899147 0.521595 0.903586
O O3 0.812008 0.776586 0.980820
O O4 0.689420 0.542165 0.896926
O O5 0.719727 0.140201 0.722040
O O6 0.536621 0.057782 0.610974
O O7 0.709135 0.882849 0.625656
O O8 0.586687 0.936133 0.810580
O O9 0.915551 0.268585 0.787600
O O10 0.891985 0.986930 0.683070
O O11 0.837152 0.037618 0.888768
O O12 0.603583 0.249559 0.456459
O O13 0.000000 0.302331 0.000000
O O14 0.000000 0.923715 0.000000
#
# Coordination Sequence:
#
# PCOD9128876 Si02
#       7
#     4   4   4   4   4   2   4
#     4  11  23  43  63 104 142 182 235 282 334 423
#     4  10  25  46  70 105 138 174 245 287 355 421
#     4   9  23  42  60 106 137 169 237 282 333 430
#     4   9  24  48  67 101 137 176 248 290 345 418
#     4  12  23  41  74 103 149 192 215 287 357 425
#     4  12  22  54  76  92 140 194 228 316 352 396
#     4  11  23  39  64  97 141 191 221 269 346 416
#
# _framework density 21.098081000000001
#
# number of rings (size 3 to 8) (size 9 to 14) (size 15 to 20)
#    0.923    0.615    1.538    2.769    4.308    2.462 
#    2.769    0.000    0.000    0.000    0.000    0.000 
#    0.000    0.000    0.000    0.000    0.000    0.000 
#
# Total GULP energy -72507.458625 kJ/mol
# GULP energy per Si atom -5577.496817 kJ/mol
# Density = 2.105006 g / cm^3
# Si number density = 21.098081 Si / 1000 Ang^3
#
#
#
# Elastic Constant Matrix: (Units=GPa)
#
#
# Indices 1 2 3 4 5 6 
#
# 1 100.9474 28.2358 11.2676 0.0000 -9.9322 0.0000
# 2 28.2358 89.0940 4.8958 0.0000 -9.7521 0.0000
# 3 11.2676 4.8958 45.6638 0.0000 -9.1438 0.0000
# 4 0.0000 0.0000 0.0000 -4.0526 0.0000 2.5658
# 5 -9.9322 -9.7521 -9.1438 0.0000 37.9500 0.0000
# 6 0.0000 0.0000 0.0000 2.5658 0.0000 29.2307
#
#
#
# Elastic Compliance Matrix: (Units=1/GPa)
#
#
# Indices 1 2 3 4 5 6 
#
# 1 0.011209 -0.003263 -0.002098 0.000000 0.001590 0.000000
# 2 -0.003263 0.012519 -0.000067 0.000000 0.002347 0.000000
# 3 -0.002098 -0.000067 0.023442 0.000000 0.005082 0.000000
# 4 0.000000 0.000000 0.000000 -0.233764 0.000000 0.020520
# 5 0.001590 0.002347 0.005082 0.000000 0.028594 0.000000
# 6 0.000000 0.000000 0.000000 0.020520 0.000000 0.032409
#
#
# Mechanical properties :
#
#
# Convention : Reuss Voigt Hill
#
# Bulk Modulus (GPa) = 27.53777 36.05595 31.79686
# Shear Modulus (GPa) = -48.71866 25.37935 -11.66966
#
# Velocity S-wave (km/s) = -4.81058 3.47208 -2.35439
# Velocity P-wave (km/s) = 4.21603 5.76199 2.77720
#
# Compressibility (1/GPa) = 0.03631376
#
# Stress axis : x y z
#
# Youngs Moduli (GPa) = 89.21034 79.87954 42.65927
#
# Poissons Ratio (x) = 0.26067 0.08949
# Poissons Ratio (y) = 0.29111 0.00286
# Poissons Ratio (z) = 0.18714 0.00536
#
# Static dielectric constant tensor:
#      x y z
#    x 1.825320 0.000000 0.053800 
#    y 0.000000 1.798090 0.000000 
#    z 0.053800 0.000000 1.797010 
# 
# From -- ./inp_files/38373.got.cif
#   From: 2010.05.17/outbox.cif.g08.bks.cpg/sg5_20_cif.got.tgz:38373.got - 2010.06.03 18:56:24.
