data_PCOD9128037
_publ_section_title
;
Structure prediction by ZEFSAII (Michael W. Deem and Ramdas Pophale) SiO2 
 PCOD9128037
Probable space group: C 2
;
_chemical_formula_sum "Si O2"
_cell_formula_units_Z 32
_cell_length_a 11.564511
_cell_length_b 8.878263
_cell_length_c 14.781832
_cell_angle_alpha 90.000000
_cell_angle_beta 97.666529
_cell_angle_gamma 90.000000
_cell_volume 1504.125453
_symmetry_space_group_name_H-M "C 2"
_symmetry_group_IT_number 5
_symmetry_cell_setting 'monoclinic'
loop_
_space_group_symop_operation_xyz
x,y,z
-x,y,-z
1/2+x,1/2+y,z
1/2-x,1/2+y,-z
loop_
_atom_site_type_symbol
_atom_site_label
_atom_site_fract_x
_atom_site_fract_y
_atom_site_fract_z
Si Si1 0.107781 0.175900 0.761911
Si Si2 0.869418 0.214436 0.021605
Si Si3 0.475102 0.164084 0.599510
Si Si4 0.155375 0.138301 0.298426
Si Si5 0.867448 0.519325 0.244922
Si Si6 0.614238 0.484471 0.469999
Si Si7 0.269811 0.967149 0.659854
Si Si8 0.615994 0.064978 0.959797
O O1 0.129541 0.188947 0.870546
O O2 0.108826 0.347406 0.725131
O O3 0.980132 0.112441 0.730840
O O4 0.199002 0.069250 0.722173
O O5 0.866088 0.394008 0.002605
O O6 0.743393 0.145808 0.978404
O O7 0.000000 0.162637 0.000000
O O8 0.500000 0.112153 0.500000
O O9 0.583570 0.136901 0.676753
O O10 0.432498 0.335390 0.585160
O O11 0.376518 0.064160 0.634502
O O12 0.229257 0.043298 0.235192
O O13 0.184713 0.313568 0.292244
O O14 0.179867 0.085110 0.403800
O O15 0.914301 0.551952 0.150034
O O16 0.500000 0.565293 0.500000
O O17 0.691533 0.436441 0.563017
O O18 0.500000 0.127180 0.000000
#
# Coordination Sequence:
#
# PCOD9128037 Si02
#       8
#     4   4   4   4   4   4   4   4
#     4  11  25  43  67 102 133 178 225 276 338 407
#     4  10  23  45  71 102 139 173 224 281 343 411
#     4  11  24  42  66  96 136 180 224 277 337 396
#     4  12  24  43  66  95 133 178 223 280 333 390
#     4  11  24  45  67  98 138 179 223 276 338 403
#     4  11  22  41  61  96 135 172 228 279 326 399
#     4  12  24  41  67  96 133 178 227 279 335 394
#     4  10  24  45  71 102 138 177 223 282 342 412
#
# _framework density 21.274819000000001
#
# number of rings (size 3 to 8) (size 9 to 14) (size 15 to 20)
#    0.000    1.000    2.500    4.500    1.750    4.000 
#    0.000    0.000    0.000    0.000    0.000    0.000 
#    0.000    0.000    0.000    0.000    0.000    0.000 
#
# Total GULP energy -89392.081539 kJ/mol
# GULP energy per Si atom -5587.005096 kJ/mol
# Density = 2.122640 g / cm^3
# Si number density = 21.274819 Si / 1000 Ang^3
#
#
#
# Elastic Constant Matrix: (Units=GPa)
#
#
# Indices 1 2 3 4 5 6 
#
# 1 121.4504 21.7415 9.3599 0.0000 -25.0678 0.0000
# 2 21.7415 45.2646 9.8951 0.0000 -10.3159 0.0000
# 3 9.3599 9.8951 49.4912 0.0000 -11.6414 0.0000
# 4 0.0000 0.0000 0.0000 19.3337 0.0000 -1.2071
# 5 -25.0678 -10.3159 -11.6414 0.0000 37.3344 0.0000
# 6 0.0000 0.0000 0.0000 -1.2071 0.0000 37.4051
#
#
#
# Elastic Compliance Matrix: (Units=1/GPa)
#
#
# Indices 1 2 3 4 5 6 
#
# 1 0.010057 -0.003541 0.000177 0.000000 0.005830 0.000000
# 2 -0.003541 0.025377 -0.003576 0.000000 0.003519 0.000000
# 3 0.000177 -0.003576 0.022320 0.000000 0.006090 0.000000
# 4 0.000000 0.000000 0.000000 0.051828 0.000000 0.001673
# 5 0.005830 0.003519 0.006090 0.000000 0.033571 0.000000
# 6 0.000000 0.000000 0.000000 0.001673 0.000000 0.026788
#
#
# Mechanical properties :
#
#
# Convention : Reuss Voigt Hill
#
# Bulk Modulus (GPa) = 22.79259 33.13325 27.96292
# Shear Modulus (GPa) = 25.19586 30.49529 27.84557
#
# Velocity S-wave (km/s) = 3.44511 3.79013 3.62173
# Velocity P-wave (km/s) = 5.15380 5.89586 5.53728
#
# Compressibility (1/GPa) = 0.04387391
#
# Stress axis : x y z
#
# Youngs Moduli (GPa) = 99.43017 39.40586 44.80344
#
# Poissons Ratio (x) = 0.13953 -0.00794
# Poissons Ratio (y) = 0.35207 0.16023
# Poissons Ratio (z) = -0.01762 0.14093
#
# Static dielectric constant tensor:
#      x y z
#    x 1.906880 0.000000 0.031130 
#    y 0.000000 1.746530 0.000000 
#    z 0.031130 0.000000 1.793100 
# 
# From -- ./inp_files/52448.got.cif
#   From: 2010.05.17/outbox.cif.g08.bks.cpg/sg5_27_cif.got.tgz:52448.got - 2010.06.03 18:56:24.
