data_PCOD9128299
_publ_section_title
;
Structure prediction by ZEFSAII (Michael W. Deem and Ramdas Pophale) SiO2 
 PCOD9128299
Probable space group: C 2
;
_chemical_formula_sum "Si O2"
_cell_formula_units_Z 32
_cell_length_a 30.317460
_cell_length_b 8.991783
_cell_length_c 11.561471
_cell_angle_alpha 90.000000
_cell_angle_beta 31.523690
_cell_angle_gamma 90.000000
_cell_volume 1647.895689
_symmetry_space_group_name_H-M "C 2"
_symmetry_group_IT_number 5
_symmetry_cell_setting 'monoclinic'
loop_
_space_group_symop_operation_xyz
x,y,z
-x,y,-z
1/2+x,1/2+y,z
1/2-x,1/2+y,-z
loop_
_atom_site_type_symbol
_atom_site_label
_atom_site_fract_x
_atom_site_fract_y
_atom_site_fract_z
Si Si1 0.510296 0.394060 0.725743
Si Si2 0.673476 0.302675 0.934392
Si Si3 0.154966 0.464849 0.388236
Si Si4 0.411825 0.182355 0.645561
Si Si5 0.790987 0.609922 0.366097
Si Si6 0.460107 0.727648 0.272019
Si Si7 0.075146 0.667051 0.764320
Si Si8 0.131505 0.281065 0.770573
O O1 0.557192 0.311898 0.513149
O O2 0.540616 0.559539 0.682646
O O3 0.533310 0.300236 0.788376
O O4 0.410001 0.383709 0.928392
O O5 0.753227 0.406990 0.782094
O O6 0.701013 0.173148 0.782208
O O7 0.642084 0.238988 0.126596
O O8 0.143785 0.565093 0.300669
O O9 0.089492 0.329129 0.526768
O O10 0.119672 0.564695 0.571524
O O11 0.500000 0.119248 0.500000
O O12 0.856250 0.708442 0.294847
O O13 0.820876 0.439693 0.318602
O O14 0.699988 0.649081 0.621011
O O15 0.411117 0.756769 0.260222
O O16 0.556864 0.770855 0.030465
O O17 0.000000 0.583963 0.000000
#
# Coordination Sequence:
#
# PCOD9128299 Si02
#       8
#     4   4   4   4   4   4   4   4
#     4  10  24  41  67  95 132 174 216 266 324 390
#     4  11  23  42  71  95 130 170 224 273 321 383
#     4  11  23  43  67  96 131 168 221 273 323 386
#     4   9  23  47  70  91 124 177 225 268 329 388
#     4  12  23  40  65  97 132 173 213 268 319 399
#     4  11  24  41  61  96 134 171 208 270 324 383
#     4  11  21  36  67  95 129 176 210 249 330 396
#     4  11  27  38  62  94 141 167 214 261 326 390
#
# _framework density 19.418704000000002
#
# number of rings (size 3 to 8) (size 9 to 14) (size 15 to 20)
#    0.000    1.250    3.750    0.750   10.500    1.000 
#    0.000    3.125    0.000    0.000    0.000    0.000 
#    0.000    0.000    0.000    0.000    0.000    0.000 
#
# Total GULP energy -89320.715376 kJ/mol
# GULP energy per Si atom -5582.544711 kJ/mol
# Density = 1.937451 g / cm^3
# Si number density = 19.418704 Si / 1000 Ang^3
#
#
#
# Elastic Constant Matrix: (Units=GPa)
#
#
# Indices 1 2 3 4 5 6 
#
# 1 95.5137 56.6102 44.5050 0.0000 -3.6916 0.0000
# 2 56.6102 123.4951 46.9935 0.0000 -12.7396 0.0000
# 3 44.5050 46.9935 108.1280 0.0000 -20.2618 0.0000
# 4 0.0000 0.0000 0.0000 19.7454 0.0000 -10.8565
# 5 -3.6916 -12.7396 -20.2618 0.0000 30.0242 0.0000
# 6 0.0000 0.0000 0.0000 -10.8565 0.0000 33.1354
#
#
#
# Elastic Compliance Matrix: (Units=1/GPa)
#
#
# Indices 1 2 3 4 5 6 
#
# 1 0.016049 -0.005946 -0.004722 0.000000 -0.003736 0.000000
# 2 -0.005946 0.011960 -0.002217 0.000000 0.002848 0.000000
# 3 -0.004722 -0.002217 0.013589 0.000000 0.007649 0.000000
# 4 0.000000 0.000000 0.000000 0.061773 0.000000 0.020239
# 5 -0.003736 0.002848 0.007649 0.000000 0.039217 0.000000
# 6 0.000000 0.000000 0.000000 0.020239 0.000000 0.036810
#
#
# Mechanical properties :
#
#
# Convention : Reuss Voigt Hill
#
# Bulk Modulus (GPa) = 63.17555 69.26158 66.21857
# Shear Modulus (GPa) = 23.75914 28.51620 26.13767
#
# Velocity S-wave (km/s) = 3.50168 3.83625 3.67277
# Velocity P-wave (km/s) = 6.99664 7.44092 7.22220
#
# Compressibility (1/GPa) = 0.01582891
#
# Stress axis : x y z
#
# Youngs Moduli (GPa) = 62.30743 83.60857 73.58990
#
# Poissons Ratio (x) = 0.49711 0.34749
# Poissons Ratio (y) = 0.37046 0.16317
# Poissons Ratio (z) = 0.29421 0.18539
#
# Static dielectric constant tensor:
#      x y z
#    x 1.695910 0.000000 -0.012870 
#    y 0.000000 1.695170 0.000000 
#    z -0.012870 0.000000 1.697720 
# 
# From -- ./inp_files/48394.got.cif
#   From: 2010.05.17/outbox.cif.g08.bks.cpg/sg5_25_cif.got.tgz:48394.got - 2010.06.03 18:56:24.
