data_PCOD9128693
_publ_section_title
;
Structure prediction by ZEFSAII (Michael W. Deem and Ramdas Pophale) SiO2 
 PCOD9128693
Probable space group: C 2
;
_chemical_formula_sum "Si O2"
_cell_formula_units_Z 26
_cell_length_a 7.647738
_cell_length_b 14.076841
_cell_length_c 13.134286
_cell_angle_alpha 90.000000
_cell_angle_beta 46.629003
_cell_angle_gamma 90.000000
_cell_volume 1027.857041
_symmetry_space_group_name_H-M "C 2"
_symmetry_group_IT_number 5
_symmetry_cell_setting 'monoclinic'
loop_
_space_group_symop_operation_xyz
x,y,z
-x,y,-z
1/2+x,1/2+y,z
1/2-x,1/2+y,-z
loop_
_atom_site_type_symbol
_atom_site_label
_atom_site_fract_x
_atom_site_fract_y
_atom_site_fract_z
Si Si1 0.243354 0.855500 0.139396
Si Si2 0.101491 0.171849 0.149661
Si Si3 0.644837 0.471930 0.782205
Si Si4 0.592958 0.976829 0.735138
Si Si5 0.500000 0.850470 0.500000
Si Si6 0.234504 0.294983 0.598379
Si Si7 0.516265 0.180068 0.820390
O O1 0.059550 0.766877 0.222033
O O2 0.102160 0.914339 0.109109
O O3 0.500000 0.820217 0.000000
O O4 0.693345 0.935621 0.801510
O O5 0.287570 0.189815 0.168299
O O6 0.918923 0.258857 0.243835
O O7 0.269375 0.162080 0.983323
O O8 0.934061 0.078132 0.216805
O O9 0.815070 0.463251 0.812193
O O10 0.799073 0.419015 0.631721
O O11 0.736359 0.909903 0.600711
O O12 0.611657 0.089094 0.722370
O O13 0.601563 0.780656 0.546119
O O14 0.500000 0.256122 0.500000
#
# Coordination Sequence:
#
# PCOD9128693 Si02
#       7
#     4   4   4   4   2   4   4
#     4  12  25  44  72 107 150 198 244 309 381 457
#     4  11  25  46  72 114 152 195 257 316 389 467
#     4  11  25  47  74 103 151 193 259 317 384 456
#     4  11  25  45  73 108 147 199 250 316 380 459
#     4  10  24  48  68  98 140 202 250 318 378 440
#     4  11  25  47  74 105 145 196 257 311 382 453
#     4  11  25  45  73 111 154 196 251 313 386 471
#
# _framework density 25.295347
#
# number of rings (size 3 to 8) (size 9 to 14) (size 15 to 20)
#    0.000    0.923    1.538    4.615    5.385    3.077 
#    0.000    0.000    1.692    0.000    0.000    0.000 
#    0.000    0.000    0.000    0.000    0.000    0.000 
#
# Total GULP energy -72570.271905 kJ/mol
# GULP energy per Si atom -5582.328608 kJ/mol
# Density = 2.523777 g / cm^3
# Si number density = 25.295347 Si / 1000 Ang^3
#
#
#
# Elastic Constant Matrix: (Units=GPa)
#
#
# Indices 1 2 3 4 5 6 
#
# 1 146.1803 29.9147 3.8958 0.0001 -9.1008 -0.0001
# 2 29.9147 127.6772 13.2802 0.0000 -16.8682 0.0000
# 3 3.8958 13.2802 90.0707 0.0000 -9.9093 -0.0001
# 4 0.0001 0.0000 0.0000 26.6160 -0.0001 -6.3243
# 5 -9.1008 -16.8682 -9.9093 -0.0001 38.5885 0.0001
# 6 -0.0001 0.0000 -0.0001 -6.3243 0.0001 38.3094
#
#
#
# Elastic Compliance Matrix: (Units=1/GPa)
#
#
# Indices 1 2 3 4 5 6 
#
# 1 0.007223 -0.001560 0.000031 0.000000 0.001030 0.000000
# 2 -0.001560 0.008713 -0.000863 0.000000 0.003219 0.000000
# 3 0.000031 -0.000863 0.011513 0.000000 0.002586 0.000000
# 4 0.000000 0.000000 0.000000 0.039105 0.000000 0.006456
# 5 0.001030 0.003219 0.002586 0.000000 0.028229 0.000000
# 6 0.000000 0.000000 0.000000 0.006456 0.000000 0.027169
#
#
# Mechanical properties :
#
#
# Convention : Reuss Voigt Hill
#
# Bulk Modulus (GPa) = 44.12022 50.90106 47.51064
# Shear Modulus (GPa) = 37.23269 41.82528 39.52898
#
# Velocity S-wave (km/s) = 3.84072 4.07071 3.95739
# Velocity P-wave (km/s) = 6.09492 6.50082 6.30114
#
# Compressibility (1/GPa) = 0.02266534
#
# Stress axis : x y z
#
# Youngs Moduli (GPa) = 138.44070 114.77467 86.85944
#
# Poissons Ratio (x) = 0.17900 -0.00268
# Poissons Ratio (y) = 0.21591 0.07496
# Poissons Ratio (z) = -0.00427 0.09905
#
# Static dielectric constant tensor:
#      x y z
#    x 2.163940 0.000000 0.023450 
#    y 0.000000 1.991520 0.000000 
#    z 0.023450 0.000000 1.964990 
# 
# From -- ./inp_files/51096.got.cif
#   From: 2010.05.17/outbox.cif.g08.bks.cpg/sg5_26_cif.got.tgz:51096.got - 2010.06.03 18:56:24.
