data_PCOD9128974
_publ_section_title
;
Structure prediction by ZEFSAII (Michael W. Deem and Ramdas Pophale) SiO2 
 PCOD9128974
Probable space group: C 2
;
_chemical_formula_sum "Si O2"
_cell_formula_units_Z 18
_cell_length_a 7.512597
_cell_length_b 6.900058
_cell_length_c 22.543664
_cell_angle_alpha 90.000000
_cell_angle_beta 139.931659
_cell_angle_gamma 90.000000
_cell_volume 752.231358
_symmetry_space_group_name_H-M "C 2"
_symmetry_group_IT_number 5
_symmetry_cell_setting 'monoclinic'
loop_
_space_group_symop_operation_xyz
x,y,z
-x,y,-z
1/2+x,1/2+y,z
1/2-x,1/2+y,-z
loop_
_atom_site_type_symbol
_atom_site_label
_atom_site_fract_x
_atom_site_fract_y
_atom_site_fract_z
Si Si1 0.000000 0.861990 0.000000
Si Si2 0.202882 0.180729 0.603523
Si Si3 0.762868 0.327891 0.693333
Si Si4 0.192569 0.987217 0.924164
Si Si5 0.265272 0.221674 0.748184
O O1 0.751811 0.709409 0.922029
O O2 0.084444 0.977244 0.963589
O O3 0.517612 0.215505 0.662939
O O4 0.146846 0.958313 0.608584
O O5 0.168129 0.287479 0.657806
O O6 0.000000 0.244632 0.500000
O O7 0.010723 0.209582 0.728251
O O8 0.871359 0.504002 0.762815
O O9 0.988930 0.866254 0.831441
O O10 0.500000 0.898791 0.000000
#
# Coordination Sequence:
#
# PCOD9128974 Si02
#       5
#     2   4   4   4   4
#     4  10  26  38  68  88 128 164 218 262 310 374
#     4  10  26  42  69  94 131 166 213 258 318 378
#     4  10  26  39  67  94 130 166 214 256 320 368
#     4  10  26  42  67  93 130 168 216 259 319 372
#     4  10  26  40  68  93 133 166 213 261 316 374
#
# _framework density 23.928809999999999
#
# number of rings (size 3 to 8) (size 9 to 14) (size 15 to 20)
#    2.000    0.000    0.000    0.000   14.000    1.778 
#    0.000    0.000    0.000    0.000    0.000    0.000 
#    0.000    0.000    0.000    0.000    0.000    0.000 
#
# Total GULP energy -50276.234832 kJ/mol
# GULP energy per Si atom -5586.248315 kJ/mol
# Density = 2.387435 g / cm^3
# Si number density = 23.928810 Si / 1000 Ang^3
#
#
#
# Elastic Constant Matrix: (Units=GPa)
#
#
# Indices 1 2 3 4 5 6 
#
# 1 177.6114 38.1370 30.4548 0.0000 -22.0151 0.0000
# 2 38.1370 63.4693 12.6181 0.0000 -10.3650 0.0000
# 3 30.4548 12.6181 93.6673 0.0000 -20.9943 0.0000
# 4 0.0000 0.0000 0.0000 14.9951 0.0000 -13.3220
# 5 -22.0151 -10.3650 -20.9943 0.0000 27.8283 0.0000
# 6 0.0000 0.0000 0.0000 -13.3220 0.0000 12.3111
#
#
#
# Elastic Compliance Matrix: (Units=1/GPa)
#
#
# Indices 1 2 3 4 5 6 
#
# 1 0.006970 -0.003418 -0.001029 0.000000 0.003465 0.000000
# 2 -0.003418 0.018536 -0.000535 0.000000 0.003797 0.000000
# 3 -0.001029 -0.000535 0.013065 0.000000 0.008843 0.000000
# 4 0.000000 0.000000 0.000000 1.726820 0.000000 1.868617
# 5 0.003465 0.003797 0.008843 0.000000 0.046761 0.000000
# 6 0.000000 0.000000 0.000000 1.868617 0.000000 2.103284
#
#
# Mechanical properties :
#
#
# Convention : Reuss Voigt Hill
#
# Bulk Modulus (GPa) = 34.95661 55.24088 45.09875
# Shear Modulus (GPa) = 1.27067 27.92944 14.60005
#
# Velocity S-wave (km/s) = 0.72950 3.42012 2.47279
# Velocity P-wave (km/s) = 3.91789 6.22350 5.20009
#
# Compressibility (1/GPa) = 0.02860689
#
# Stress axis : x y z
#
# Youngs Moduli (GPa) = 143.47100 53.95027 76.54150
#
# Poissons Ratio (x) = 0.18439 0.07878
# Poissons Ratio (y) = 0.49034 0.04093
# Poissons Ratio (z) = 0.14767 0.02885
#
# Static dielectric constant tensor:
#      x y z
#    x 1.828400 0.000000 -0.001360 
#    y 0.000000 1.938850 0.000000 
#    z -0.001360 0.000000 1.931140 
# 
# From -- ./inp_files/58428.got.cif
#   From: 2010.05.17/outbox.cif.g08.bks.cpg/sg5_30_cif.got.tgz:58428.got - 2010.06.03 18:56:24.
