data_PCOD9128392
_publ_section_title
;
Structure prediction by ZEFSAII (Michael W. Deem and Ramdas Pophale) SiO2 
 PCOD9128392
Probable space group: C 2
;
_chemical_formula_sum "Si O2"
_cell_formula_units_Z 20
_cell_length_a 11.778500
_cell_length_b 13.661402
_cell_length_c 11.310559
_cell_angle_alpha 90.000000
_cell_angle_beta 151.996209
_cell_angle_gamma 90.000000
_cell_volume 854.540512
_symmetry_space_group_name_H-M "C 2"
_symmetry_group_IT_number 5
_symmetry_cell_setting 'monoclinic'
loop_
_space_group_symop_operation_xyz
x,y,z
-x,y,-z
1/2+x,1/2+y,z
1/2-x,1/2+y,-z
loop_
_atom_site_type_symbol
_atom_site_label
_atom_site_fract_x
_atom_site_fract_y
_atom_site_fract_z
Si Si1 0.407050 0.008770 0.205409
Si Si2 0.000000 0.715582 0.000000
Si Si3 0.719634 0.657926 0.425320
Si Si4 0.500000 0.570237 0.000000
Si Si5 0.640733 0.543159 0.738721
Si Si6 0.676884 0.831067 0.549421
O O1 0.508570 0.119911 0.301202
O O2 0.615100 0.939149 0.448471
O O3 0.321744 0.986228 0.993308
O O4 0.183452 0.006003 0.090450
O O5 0.217023 0.638565 0.179272
O O6 0.069118 0.789414 0.168776
O O7 0.560986 0.585261 0.359932
O O8 0.644127 0.762736 0.404957
O O9 0.651782 0.637217 0.228757
O O10 0.500000 0.493996 0.500000
O O11 0.500000 0.815514 0.500000
#
# Coordination Sequence:
#
# PCOD9128392 Si02
#       6
#     4   2   4   2   4   4
#     4  11  25  43  69 107 142 181 234 294 354 414
#     4  12  20  41  71 104 138 176 244 285 343 414
#     4  11  21  43  65  99 141 188 229 289 353 415
#     4  10  24  43  67  92 150 188 224 287 361 420
#     4  11  20  41  69 100 137 190 226 290 353 409
#     4  12  24  41  72 108 136 181 241 294 342 416
#
# _framework density 23.404391
#
# number of rings (size 3 to 8) (size 9 to 14) (size 15 to 20)
#    0.000    0.800    6.000    1.800    0.000    4.800 
#    0.000    3.000    0.000    4.800    0.000    0.000 
#    0.000    0.000    0.000    0.000    0.000    0.000 
#
# Total GULP energy -55835.688113 kJ/mol
# GULP energy per Si atom -5583.568811 kJ/mol
# Density = 2.335112 g / cm^3
# Si number density = 23.404391 Si / 1000 Ang^3
#
#
#
# Elastic Constant Matrix: (Units=GPa)
#
#
# Indices 1 2 3 4 5 6 
#
# 1 78.7147 39.2533 42.1080 0.0000 -20.2578 0.0000
# 2 39.2533 87.2549 23.5205 0.0000 -3.6097 0.0000
# 3 42.1080 23.5205 107.7377 0.0001 -36.4769 0.0002
# 4 0.0000 0.0000 0.0001 32.9974 0.0001 -7.0848
# 5 -20.2578 -3.6097 -36.4769 0.0001 60.4838 0.0001
# 6 0.0000 0.0000 0.0002 -7.0848 0.0001 20.4914
#
#
#
# Elastic Compliance Matrix: (Units=1/GPa)
#
#
# Indices 1 2 3 4 5 6 
#
# 1 0.019980 -0.007482 -0.005103 0.000000 0.003168 0.000000
# 2 -0.007482 0.015038 -0.001135 0.000000 -0.002293 0.000000
# 3 -0.005103 -0.001135 0.013725 0.000000 0.006500 0.000000
# 4 0.000000 0.000000 0.000000 0.032736 0.000000 0.011318
# 5 0.003168 -0.002293 0.006500 0.000000 0.021378 0.000000
# 6 0.000000 0.000000 0.000000 0.011318 0.000000 0.052714
#
#
# Mechanical properties :
#
#
# Convention : Reuss Voigt Hill
#
# Bulk Modulus (GPa) = 46.94221 53.71900 50.33060
# Shear Modulus (GPa) = 26.30035 34.04954 30.17494
#
# Velocity S-wave (km/s) = 3.35585 3.81837 3.59456
# Velocity P-wave (km/s) = 5.92589 6.51477 6.22730
#
# Compressibility (1/GPa) = 0.02130279
#
# Stress axis : x y z
#
# Youngs Moduli (GPa) = 50.04923 66.49972 72.86004
#
# Poissons Ratio (x) = 0.49754 0.37181
# Poissons Ratio (y) = 0.37446 0.08270
# Poissons Ratio (z) = 0.25541 0.07548
#
# Static dielectric constant tensor:
#      x y z
#    x 1.873920 0.000000 0.004220 
#    y 0.000000 1.854210 0.000000 
#    z 0.004220 0.000000 2.003140 
# 
# From -- ./inp_files/39982.got.cif
#   From: 2010.05.17/outbox.cif.g08.bks.cpg/sg5_20_cif.got.tgz:39982.got - 2010.06.03 18:56:24.
