data_PCOD9128657
_publ_section_title
;
Structure prediction by ZEFSAII (Michael W. Deem and Ramdas Pophale) SiO2 
 PCOD9128657
Probable space group: C 2
;
_chemical_formula_sum "Si O2"
_cell_formula_units_Z 22
_cell_length_a 10.986720
_cell_length_b 17.267993
_cell_length_c 8.460120
_cell_angle_alpha 90.000000
_cell_angle_beta 139.353092
_cell_angle_gamma 90.000000
_cell_volume 1045.517421
_symmetry_space_group_name_H-M "C 2"
_symmetry_group_IT_number 5
_symmetry_cell_setting 'monoclinic'
loop_
_space_group_symop_operation_xyz
x,y,z
-x,y,-z
1/2+x,1/2+y,z
1/2-x,1/2+y,-z
loop_
_atom_site_type_symbol
_atom_site_label
_atom_site_fract_x
_atom_site_fract_y
_atom_site_fract_z
Si Si1 0.224314 0.627150 0.843196
Si Si2 0.000000 0.001851 0.000000
Si Si3 0.608837 0.438677 0.447556
Si Si4 0.897522 0.563395 0.731667
Si Si5 0.199138 0.285037 0.266521
Si Si6 0.552858 0.677602 0.386594
O O1 0.322902 0.560997 0.833419
O O2 0.222830 0.712430 0.761353
O O3 0.032966 0.596203 0.728669
O O4 0.373816 0.638236 0.131048
O O5 0.990374 0.954900 0.822093
O O6 0.500000 0.469361 0.500000
O O7 0.811314 0.478596 0.626030
O O8 0.655893 0.350683 0.541993
O O9 0.713956 0.615301 0.562385
O O10 0.000000 0.567230 0.000000
O O11 0.132753 0.243640 0.357876
O O12 0.000000 0.315035 0.000000
O O13 0.500000 0.711963 0.500000
#
# Coordination Sequence:
#
# PCOD9128657 Si02
#       6
#     4   2   4   4   4   4
#     4  11  22  45  75 102 142 188 253 298 361 443
#     4  12  24  50  74 102 148 198 240 312 364 436
#     4  12  27  48  71 106 157 190 242 311 378 435
#     4  12  23  39  77 110 136 193 249 303 365 439
#     4  10  24  47  70 101 146 197 236 305 381 433
#     4  11  21  43  68 104 145 181 244 310 350 435
#
# _framework density 21.042211000000002
#
# number of rings (size 3 to 8) (size 9 to 14) (size 15 to 20)
#    0.000    0.727    6.364    2.182    2.545    2.182 
#   11.455    0.000    0.000    0.000    0.000    0.000 
#    0.000    0.000    0.000    0.000    0.000    0.000 
#
# Total GULP energy -61400.544775 kJ/mol
# GULP energy per Si atom -5581.867707 kJ/mol
# Density = 2.099432 g / cm^3
# Si number density = 21.042211 Si / 1000 Ang^3
#
#
#
# Elastic Constant Matrix: (Units=GPa)
#
#
# Indices 1 2 3 4 5 6 
#
# 1 89.8398 25.9338 37.3383 0.0000 -7.3841 0.0000
# 2 25.9338 92.1281 49.9498 0.0000 0.3703 0.0000
# 3 37.3383 49.9498 123.0524 0.0000 -13.8729 0.0000
# 4 0.0000 0.0000 0.0000 29.5270 0.0000 14.4113
# 5 -7.3841 0.3703 -13.8729 0.0000 39.1944 0.0000
# 6 0.0000 0.0000 0.0000 14.4113 0.0000 7.2093
#
#
#
# Elastic Compliance Matrix: (Units=1/GPa)
#
#
# Indices 1 2 3 4 5 6 
#
# 1 0.013081 -0.002082 -0.002962 0.000000 0.001436 0.000000
# 2 -0.002082 0.014437 -0.005508 0.000000 -0.002478 0.000000
# 3 -0.002962 -0.005508 0.011670 0.000000 0.003625 0.000000
# 4 0.000000 0.000000 0.000000 1.390749 0.000000 -2.780085
# 5 0.001436 -0.002478 0.003625 0.000000 0.027091 0.000000
# 6 0.000000 0.000000 0.000000 -2.780085 0.000000 5.696053
#
#
# Mechanical properties :
#
#
# Convention : Reuss Voigt Hill
#
# Bulk Modulus (GPa) = 55.29913 59.05156 57.17534
# Shear Modulus (GPa) = 0.69636 27.97271 14.33454
#
# Velocity S-wave (km/s) = 0.57589 3.65000 2.61287
# Velocity P-wave (km/s) = 5.17488 6.77404 6.02773
#
# Compressibility (1/GPa) = 0.01808347
#
# Stress axis : x y z
#
# Youngs Moduli (GPa) = 76.44643 69.26784 85.69091
#
# Poissons Ratio (x) = 0.14421 0.25384
# Poissons Ratio (y) = 0.15916 0.47197
# Poissons Ratio (z) = 0.22645 0.38152
#
# Static dielectric constant tensor:
#      x y z
#    x 1.771940 0.000000 -0.029600 
#    y 0.000000 1.818900 0.000000 
#    z -0.029600 0.000000 1.899860 
# 
# From -- ./inp_files/21419.got.cif
#   From: 2010.05.17/outbox.cif.g08.bks.cpg/sg5_11_cif.got.tgz:21419.got - 2010.06.03 18:56:24.
