data_PCOD9128775
_publ_section_title
;
Structure prediction by ZEFSAII (Michael W. Deem and Ramdas Pophale) SiO2 
 PCOD9128775
Probable space group: C 2
;
_chemical_formula_sum "Si O2"
_cell_formula_units_Z 20
_cell_length_a 7.927607
_cell_length_b 12.069998
_cell_length_c 15.983398
_cell_angle_alpha 90.000000
_cell_angle_beta 33.279393
_cell_angle_gamma 90.000000
_cell_volume 839.210553
_symmetry_space_group_name_H-M "C 2"
_symmetry_group_IT_number 5
_symmetry_cell_setting 'monoclinic'
loop_
_space_group_symop_operation_xyz
x,y,z
-x,y,-z
1/2+x,1/2+y,z
1/2-x,1/2+y,-z
loop_
_atom_site_type_symbol
_atom_site_label
_atom_site_fract_x
_atom_site_fract_y
_atom_site_fract_z
Si Si1 0.707920 0.770160 0.254644
Si Si2 0.000000 0.033767 0.500000
Si Si3 0.387157 0.018707 0.183360
Si Si4 0.273173 0.296848 0.828515
Si Si5 0.914900 0.688478 0.444721
Si Si6 0.000000 0.936819 0.000000
O O1 0.781895 0.641585 0.201026
O O2 0.346819 0.779448 0.424192
O O3 0.830484 0.855943 0.136083
O O4 0.905929 0.785525 0.256625
O O5 0.792311 0.982073 0.657718
O O6 0.759565 0.104906 0.544390
O O7 0.294759 0.925389 0.156875
O O8 0.745617 0.008292 0.057002
O O9 0.306182 0.236755 0.725391
O O10 0.000000 0.252008 0.000000
O O11 0.000000 0.639845 0.500000
#
# Coordination Sequence:
#
# PCOD9128775 Si02
#       6
#     4   2   4   4   4   2
#     4  11  26  49  70 105 153 189 248 306 365 439
#     4  10  24  52  68 112 150 190 250 306 364 446
#     4  11  26  45  72 103 146 191 246 302 365 440
#     4  12  24  46  74 107 147 193 243 304 366 435
#     4  11  23  48  79 105 147 200 240 305 374 428
#     4  12  26  42  72 108 140 200 244 300 368 432
#
# _framework density 23.831921999999999
#
# number of rings (size 3 to 8) (size 9 to 14) (size 15 to 20)
#    0.000    0.800    6.000    1.200    7.000    0.000 
#    7.200    0.000    0.000    0.000    0.000    0.000 
#    0.000    0.000    0.000    0.000    0.000    0.000 
#
# Total GULP energy -55948.864847 kJ/mol
# GULP energy per Si atom -5594.886485 kJ/mol
# Density = 2.377768 g / cm^3
# Si number density = 23.831922 Si / 1000 Ang^3
#
#
#
# Elastic Constant Matrix: (Units=GPa)
#
#
# Indices 1 2 3 4 5 6 
#
# 1 92.0047 21.5257 11.9178 -0.0072 10.3278 -0.0008
# 2 21.5257 83.6611 27.1054 -0.0074 2.1638 0.0010
# 3 11.9178 27.1054 149.8668 -0.0175 17.6216 0.0033
# 4 -0.0072 -0.0074 -0.0175 28.4127 0.0091 5.1471
# 5 10.3278 2.1638 17.6216 0.0091 47.2590 -0.0010
# 6 -0.0008 0.0010 0.0033 5.1471 -0.0010 8.1148
#
#
#
# Elastic Compliance Matrix: (Units=1/GPa)
#
#
# Indices 1 2 3 4 5 6 
#
# 1 0.011844 -0.002944 -0.000126 0.000003 -0.002406 -0.000001
# 2 -0.002944 0.013433 -0.002299 0.000001 0.000886 -0.000002
# 3 -0.000126 -0.002299 0.007408 0.000006 -0.002629 -0.000007
# 4 0.000003 0.000001 0.000006 0.039765 -0.000011 -0.025222
# 5 -0.002406 0.000886 -0.002629 -0.000011 0.022626 0.000011
# 6 -0.000001 -0.000002 -0.000007 -0.025222 0.000011 0.139230
#
#
# Mechanical properties :
#
#
# Convention : Reuss Voigt Hill
#
# Bulk Modulus (GPa) = 45.56999 49.62560 47.59779
# Shear Modulus (GPa) = 19.81297 34.42290 27.11793
#
# Velocity S-wave (km/s) = 2.88646 3.80465 3.37691
# Velocity P-wave (km/s) = 5.50198 6.33789 5.93467
#
# Compressibility (1/GPa) = 0.02194427
#
# Stress axis : x y z
#
# Youngs Moduli (GPa) = 84.42827 74.44546 134.99492
#
# Poissons Ratio (x) = 0.21919 0.01707
# Poissons Ratio (y) = 0.24858 0.31042
# Poissons Ratio (z) = 0.01067 0.17119
#
# Static dielectric constant tensor:
#      x y z
#    x 1.897910 0.000000 0.009680 
#    y 0.000000 1.903260 0.000010 
#    z 0.009680 0.000010 1.943660 
# 
# From -- ./inp_files/59560.got.cif
#   From: 2010.05.17/outbox.cif.g08.bks.cpg/sg5_30_cif.got.tgz:59560.got - 2010.06.03 18:56:24.
