data_PCOD9128790
_publ_section_title
;
Structure prediction by ZEFSAII (Michael W. Deem and Ramdas Pophale) SiO2 
 PCOD9128790
Probable space group: C 2
;
_chemical_formula_sum "Si O2"
_cell_formula_units_Z 32
_cell_length_a 9.096172
_cell_length_b 5.333168
_cell_length_c 27.429276
_cell_angle_alpha 90.000000
_cell_angle_beta 91.736835
_cell_angle_gamma 90.000000
_cell_volume 1330.021631
_symmetry_space_group_name_H-M "C 2"
_symmetry_group_IT_number 5
_symmetry_cell_setting 'monoclinic'
loop_
_space_group_symop_operation_xyz
x,y,z
-x,y,-z
1/2+x,1/2+y,z
1/2-x,1/2+y,-z
loop_
_atom_site_type_symbol
_atom_site_label
_atom_site_fract_x
_atom_site_fract_y
_atom_site_fract_z
Si Si1 0.169444 0.277710 0.518464
Si Si2 0.270566 0.051864 0.282958
Si Si3 0.977454 0.403063 0.137516
Si Si4 0.293027 0.239794 0.807977
Si Si5 0.559883 0.903725 0.311736
Si Si6 0.688486 0.555687 0.107688
Si Si7 0.668368 0.215773 0.017754
Si Si8 0.207950 0.232316 0.633806
O O1 0.250200 0.533361 0.502960
O O2 0.178758 0.254739 0.576973
O O3 0.000000 0.283911 0.500000
O O4 0.444601 0.096862 0.285572
O O5 0.162463 0.277216 0.272635
O O6 0.237730 0.820740 0.247361
O O7 0.236116 0.984617 0.339100
O O8 0.863600 0.221862 0.165496
O O9 0.862801 0.604310 0.112686
O O10 0.090993 0.533625 0.175147
O O11 0.070756 0.268364 0.096209
O O12 0.350638 0.486934 0.836946
O O13 0.667906 0.032452 0.351501
O O14 0.444682 0.713829 0.337201
O O15 0.673366 0.316049 0.073239
O O16 0.500000 0.187287 0.000000
O O17 0.757088 0.958291 0.008829
#
# Coordination Sequence:
#
# PCOD9128790 Si02
#       8
#     4   4   4   4   4   4   4   4
#     4  12  28  47  74 106 140 186 238 297 360 426
#     4  10  26  40  68  97 137 175 228 271 343 405
#     4  10  25  39  68  91 137 170 226 271 344 398
#     4  10  26  40  68  97 136 177 225 275 339 409
#     4  10  25  40  68  92 136 172 223 274 340 403
#     4  10  26  42  69  95 136 175 227 285 344 414
#     4  12  28  46  75 104 142 184 240 295 363 425
#     4  10  26  42  70  94 138 173 229 282 347 410
#
# _framework density 24.059759
#
# number of rings (size 3 to 8) (size 9 to 14) (size 15 to 20)
#    1.500    0.000    0.000    2.250   14.000    0.000 
#    0.000    0.000    0.000    0.000    0.000    0.000 
#    0.000    0.000    0.000    0.000    0.000    0.000 
#
# Total GULP energy -89225.790437 kJ/mol
# GULP energy per Si atom -5576.611902 kJ/mol
# Density = 2.400500 g / cm^3
# Si number density = 24.059759 Si / 1000 Ang^3
#
#
#
# Elastic Constant Matrix: (Units=GPa)
#
#
# Indices 1 2 3 4 5 6 
#
# 1 206.6001 54.6222 39.6429 0.0000 4.9824 0.0000
# 2 54.6222 72.6489 7.4844 0.0000 -7.9726 0.0000
# 3 39.6429 7.4844 87.1414 0.0000 14.9635 0.0000
# 4 0.0000 0.0000 0.0000 35.1688 0.0000 -9.5664
# 5 4.9824 -7.9726 14.9635 0.0000 23.7851 0.0000
# 6 0.0000 0.0000 0.0000 -9.5664 0.0000 34.0552
#
#
#
# Elastic Compliance Matrix: (Units=1/GPa)
#
#
# Indices 1 2 3 4 5 6 
#
# 1 0.006622 -0.004913 -0.002320 0.000000 -0.001574 0.000000
# 2 -0.004913 0.018358 -0.000645 0.000000 0.007588 0.000000
# 3 -0.002320 -0.000645 0.014059 0.000000 -0.008575 0.000000
# 4 0.000000 0.000000 0.000000 0.030787 0.000000 0.008648
# 5 -0.001574 0.007588 -0.008575 0.000000 0.050311 0.000000
# 6 0.000000 0.000000 0.000000 0.008648 0.000000 0.031794
#
#
# Mechanical properties :
#
#
# Convention : Reuss Voigt Hill
#
# Bulk Modulus (GPa) = 42.94948 63.32102 53.13525
# Shear Modulus (GPa) = 28.49860 36.24456 32.37158
#
# Velocity S-wave (km/s) = 3.44538 3.88550 3.67204
# Velocity P-wave (km/s) = 5.80667 6.81944 6.33333
#
# Compressibility (1/GPa) = 0.02328317
#
# Stress axis : x y z
#
# Youngs Moduli (GPa) = 151.00355 54.47288 71.12878
#
# Poissons Ratio (x) = 0.26762 0.16505
# Poissons Ratio (y) = 0.74185 0.04586
# Poissons Ratio (z) = 0.35039 0.03512
#
# Static dielectric constant tensor:
#      x y z
#    x 1.948210 0.000000 -0.011730 
#    y 0.000000 2.012390 0.000000 
#    z -0.011730 0.000000 1.949980 
# 
# From -- ./inp_files/71516.got.cif
#   From: 2010.05.17/outbox.cif.g08.bks.cpg/sg5_36_cif.got.tgz:71516.got - 2010.06.03 18:56:24.
