data_PCOD9128739
_publ_section_title
;
Structure prediction by ZEFSAII (Michael W. Deem and Ramdas Pophale) SiO2 
 PCOD9128739
Probable space group: C 2
;
_chemical_formula_sum "Si O2"
_cell_formula_units_Z 22
_cell_length_a 23.774791
_cell_length_b 6.218933
_cell_length_c 13.551687
_cell_angle_alpha 90.000000
_cell_angle_beta 150.215303
_cell_angle_gamma 90.000000
_cell_volume 995.306824
_symmetry_space_group_name_H-M "C 2"
_symmetry_group_IT_number 5
_symmetry_cell_setting 'monoclinic'
loop_
_space_group_symop_operation_xyz
x,y,z
-x,y,-z
1/2+x,1/2+y,z
1/2-x,1/2+y,-z
loop_
_atom_site_type_symbol
_atom_site_label
_atom_site_fract_x
_atom_site_fract_y
_atom_site_fract_z
Si Si1 0.046579 0.549200 0.783861
Si Si2 0.237955 0.282118 0.808717
Si Si3 0.000000 0.426272 0.500000
Si Si4 0.895980 0.165816 0.994396
Si Si5 0.293384 0.026070 0.701771
Si Si6 0.091760 0.829953 0.272526
O O1 0.004868 0.557068 0.608960
O O2 0.959938 0.668777 0.724610
O O3 0.167730 0.664219 0.981622
O O4 0.062423 0.308252 0.849544
O O5 0.116140 0.293791 0.672340
O O6 0.290022 0.516416 0.863385
O O7 0.232033 0.151878 0.697203
O O8 0.860104 0.331700 0.854889
O O9 0.996938 0.010942 0.114919
O O10 0.375363 0.193268 0.772682
O O11 0.204539 0.937543 0.487746
#
# Coordination Sequence:
#
# PCOD9128739 Si02
#       6
#     4   4   2   4   4   4
#     4  10  25  46  70 106 140 192 238 289 361 421
#     4  10  25  46  70 106 140 192 238 289 361 421
#     4  12  24  44  78 102 148 182 240 302 346 418
#     4  10  24  49  70 100 148 186 237 294 356 426
#     4  11  26  45  71 106 144 187 242 291 359 426
#     4  11  26  45  71 106 144 187 242 291 359 426
#
# _framework density 22.103736999999999
#
# number of rings (size 3 to 8) (size 9 to 14) (size 15 to 20)
#    0.000    1.455    0.000    2.182   10.182    8.000 
#    0.000    7.273    0.000    0.000    0.000    0.000 
#    0.000    0.000    0.000    0.000    0.000    0.000 
#
# Total GULP energy -61633.999608 kJ/mol
# GULP energy per Si atom -5603.090873 kJ/mol
# Density = 2.205343 g / cm^3
# Si number density = 22.103737 Si / 1000 Ang^3
#
#
#
# Elastic Constant Matrix: (Units=GPa)
#
#
# Indices 1 2 3 4 5 6 
#
# 1 60.1289 24.2110 16.9371 0.0000 6.0726 0.0000
# 2 24.2110 111.4494 22.4871 0.0000 4.1474 0.0000
# 3 16.9371 22.4871 78.4669 0.0000 12.8069 0.0000
# 4 0.0000 0.0000 0.0000 16.6402 0.0000 -2.8023
# 5 6.0726 4.1474 12.8069 0.0000 29.9256 0.0000
# 6 0.0000 0.0000 0.0000 -2.8023 0.0000 13.5217
#
#
#
# Elastic Compliance Matrix: (Units=1/GPa)
#
#
# Indices 1 2 3 4 5 6 
#
# 1 0.019036 -0.003499 -0.002747 0.000000 -0.002202 0.000000
# 2 -0.003499 0.010167 -0.002198 0.000000 0.000242 0.000000
# 3 -0.002747 -0.002198 0.014865 0.000000 -0.005499 0.000000
# 4 0.000000 0.000000 0.000000 0.062269 0.000000 0.012905
# 5 -0.002202 0.000242 -0.005499 0.000000 0.036183 0.000000
# 6 0.000000 0.000000 0.000000 0.012905 0.000000 0.076630
#
#
# Mechanical properties :
#
#
# Convention : Reuss Voigt Hill
#
# Bulk Modulus (GPa) = 36.79120 41.92396 39.35758
# Shear Modulus (GPa) = 20.40010 24.44485 22.42248
#
# Velocity S-wave (km/s) = 3.04126 3.32914 3.18845
# Velocity P-wave (km/s) = 5.38640 5.81254 5.60352
#
# Compressibility (1/GPa) = 0.02718041
#
# Stress axis : x y z
#
# Youngs Moduli (GPa) = 52.53204 98.35444 67.27413
#
# Poissons Ratio (x) = 0.34416 0.18478
# Poissons Ratio (y) = 0.18382 0.14786
# Poissons Ratio (z) = 0.14429 0.21617
#
# Static dielectric constant tensor:
#      x y z
#    x 1.781180 0.000000 -0.013850 
#    y 0.000000 1.810740 0.000000 
#    z -0.013850 0.000000 1.806810 
# 
# From -- ./inp_files/33320.got.cif
#   From: 2010.05.17/outbox.cif.g08.bks.cpg/sg5_17_cif.got.tgz:33320.got - 2010.06.03 18:56:24.
