data_PCOD9128196
_publ_section_title
;
Structure prediction by ZEFSAII (Michael W. Deem and Ramdas Pophale) SiO2 
 PCOD9128196
Probable space group: C 2
;
_chemical_formula_sum "Si O2"
_cell_formula_units_Z 20
_cell_length_a 12.223111
_cell_length_b 7.212797
_cell_length_c 11.726165
_cell_angle_alpha 90.000000
_cell_angle_beta 136.559421
_cell_angle_gamma 90.000000
_cell_volume 710.850953
_symmetry_space_group_name_H-M "C 2"
_symmetry_group_IT_number 5
_symmetry_cell_setting 'monoclinic'
loop_
_space_group_symop_operation_xyz
x,y,z
-x,y,-z
1/2+x,1/2+y,z
1/2-x,1/2+y,-z
loop_
_atom_site_type_symbol
_atom_site_label
_atom_site_fract_x
_atom_site_fract_y
_atom_site_fract_z
Si Si1 0.121915 0.120620 0.928479
Si Si2 0.646545 0.951928 0.437812
Si Si3 0.963900 0.545876 0.099497
Si Si4 0.179147 0.521186 0.724210
Si Si5 0.019399 0.901385 0.391576
O O1 0.053224 0.320990 0.908918
O O2 0.030481 0.012817 0.759248
O O3 0.166247 0.017509 0.080555
O O4 0.299585 0.136777 0.011855
O O5 0.705617 0.990345 0.611345
O O6 0.463789 0.892410 0.334194
O O7 0.794430 0.853179 0.487488
O O8 0.597737 0.086207 0.294244
O O9 0.000000 0.601231 0.000000
O O10 0.097085 0.725242 0.677194
O O11 0.000000 0.002712 0.500000
#
# Coordination Sequence:
#
# PCOD9128196 Si02
#       5
#     4   4   4   4   4
#     4  11  25  45  73 105 142 189 238 285 359 421
#     4  10  24  41  76 102 134 189 233 285 362 415
#     4  11  25  47  74 103 145 186 232 298 352 418
#     4  10  23  50  67  99 148 182 232 297 346 419
#     4  12  24  43  76 101 137 194 232 287 359 415
#
# _framework density 28.135293999999998
#
# number of rings (size 3 to 8) (size 9 to 14) (size 15 to 20)
#    0.000    1.200    4.000    1.200    5.600    0.000 
#    7.200   13.000    4.400    0.000    0.000    0.000 
#    0.000    0.000    0.000    0.000    0.000    0.000 
#
# Total GULP energy -55862.138332 kJ/mol
# GULP energy per Si atom -5586.213833 kJ/mol
# Density = 2.807126 g / cm^3
# Si number density = 28.135294 Si / 1000 Ang^3
#
#
#
# Elastic Constant Matrix: (Units=GPa)
#
#
# Indices 1 2 3 4 5 6 
#
# 1 221.1566 22.3338 86.1197 0.0000 -23.3285 0.0000
# 2 22.3338 95.6806 25.9038 0.0000 10.9642 0.0000
# 3 86.1197 25.9038 179.2547 0.0000 -30.9027 0.0000
# 4 0.0000 0.0000 0.0000 40.5819 0.0000 -1.1570
# 5 -23.3285 10.9642 -30.9027 0.0000 61.3241 0.0000
# 6 0.0000 0.0000 0.0000 -1.1570 0.0000 34.2538
#
#
#
# Elastic Compliance Matrix: (Units=1/GPa)
#
#
# Indices 1 2 3 4 5 6 
#
# 1 0.005656 -0.000789 -0.002418 0.000000 0.001074 0.000000
# 2 -0.000789 0.011514 -0.001853 0.000000 -0.003292 0.000000
# 3 -0.002418 -0.001853 0.007564 0.000000 0.003223 0.000000
# 4 0.000000 0.000000 0.000000 0.024665 0.000000 0.000833
# 5 0.001074 -0.003292 0.003223 0.000000 0.018928 0.000000
# 6 0.000000 0.000000 0.000000 0.000833 0.000000 0.029222
#
#
# Mechanical properties :
#
#
# Convention : Reuss Voigt Hill
#
# Bulk Modulus (GPa) = 68.42140 84.97851 76.69995
# Shear Modulus (GPa) = 44.42828 51.34758 47.88793
#
# Velocity S-wave (km/s) = 3.97809 4.27666 4.13008
# Velocity P-wave (km/s) = 6.74328 7.39294 7.07557
#
# Compressibility (1/GPa) = 0.01461531
#
# Stress axis : x y z
#
# Youngs Moduli (GPa) = 176.79243 86.84819 132.20809
#
# Poissons Ratio (x) = 0.06849 0.31973
# Poissons Ratio (y) = 0.13943 0.24493
# Poissons Ratio (z) = 0.42755 0.16089
#
# Static dielectric constant tensor:
#      x y z
#    x 2.105610 0.000000 -0.033100 
#    y 0.000000 2.386810 0.000000 
#    z -0.033100 0.000000 2.243450 
# 
# From -- ./inp_files/38484.got.cif
#   From: 2010.05.17/outbox.cif.g08.bks.cpg/sg5_20_cif.got.tgz:38484.got - 2010.06.03 18:56:24.
