data_PCOD9128219
_publ_section_title
;
Structure prediction by ZEFSAII (Michael W. Deem and Ramdas Pophale) SiO2 
 PCOD9128219
Probable space group: C 2
;
_chemical_formula_sum "Si O2"
_cell_formula_units_Z 22
_cell_length_a 10.370394
_cell_length_b 22.124652
_cell_length_c 10.268112
_cell_angle_alpha 90.000000
_cell_angle_beta 27.525193
_cell_angle_gamma 90.000000
_cell_volume 1088.765962
_symmetry_space_group_name_H-M "C 2"
_symmetry_group_IT_number 5
_symmetry_cell_setting 'monoclinic'
loop_
_space_group_symop_operation_xyz
x,y,z
-x,y,-z
1/2+x,1/2+y,z
1/2-x,1/2+y,-z
loop_
_atom_site_type_symbol
_atom_site_label
_atom_site_fract_x
_atom_site_fract_y
_atom_site_fract_z
Si Si1 0.222660 0.834440 0.579760
Si Si2 0.259200 0.223902 0.608784
Si Si3 0.723625 0.411855 0.917897
Si Si4 0.197195 0.666773 0.046742
Si Si5 0.000000 0.742611 0.000000
Si Si6 0.705368 0.048211 0.192985
O O1 0.256265 0.792957 0.422948
O O2 0.508361 0.870285 0.345081
O O3 0.964744 0.881251 0.801597
O O4 0.146378 0.788039 0.765682
O O5 0.500000 0.217049 0.500000
O O6 0.394153 0.186039 0.370150
O O7 0.948969 0.198217 0.901734
O O8 0.828310 0.480582 0.832659
O O9 0.500000 0.411970 0.000000
O O10 0.205924 0.596456 0.075378
O O11 0.204269 0.698132 0.898462
O O12 0.500000 0.060089 0.500000
O O13 0.000000 0.051937 0.000000
#
# Coordination Sequence:
#
# PCOD9128219 Si02
#       6
#     4   4   4   4   2   4
#     4  11  22  36  59  88 120 150 197 252 298 356
#     4  11  23  38  58  86 117 158 192 244 301 351
#     4  11  22  34  59  88 119 149 198 255 295 339
#     4  11  23  38  61  85 123 154 195 244 293 363
#     4  10  24  38  62  92 120 156 194 246 310 348
#     4  11  22  38  59  89 115 159 202 243 295 346
#
# _framework density 20.206361999999999
#
# number of rings (size 3 to 8) (size 9 to 14) (size 15 to 20)
#    0.000    1.091    0.909    8.182    2.545    2.182 
#    0.000    0.000    4.000    0.000    0.000    0.000 
#    0.000    0.000    0.000    0.000    0.000    0.000 
#
# Total GULP energy -61334.818001 kJ/mol
# GULP energy per Si atom -5575.892546 kJ/mol
# Density = 2.016037 g / cm^3
# Si number density = 20.206362 Si / 1000 Ang^3
#
#
#
# Elastic Constant Matrix: (Units=GPa)
#
#
# Indices 1 2 3 4 5 6 
#
# 1 61.4857 38.5608 10.7734 0.0000 -15.8066 0.0000
# 2 38.5608 153.5173 25.2940 0.0000 -5.5030 0.0000
# 3 10.7734 25.2940 117.8907 0.0000 -18.5637 0.0000
# 4 0.0000 0.0000 0.0000 30.4008 0.0000 -10.8582
# 5 -15.8066 -5.5030 -18.5637 0.0000 21.1191 0.0000
# 6 0.0000 0.0000 0.0000 -10.8582 0.0000 34.3323
#
#
#
# Elastic Compliance Matrix: (Units=1/GPa)
#
#
# Indices 1 2 3 4 5 6 
#
# 1 0.024244 -0.005746 0.001902 0.000000 0.018320 0.000000
# 2 -0.005746 0.008120 -0.001812 0.000000 -0.003778 0.000000
# 3 0.001902 -0.001812 0.010268 0.000000 0.009978 0.000000
# 4 0.000000 0.000000 0.000000 0.037083 0.000000 0.011728
# 5 0.018320 -0.003778 0.009978 0.000000 0.068848 0.000000
# 6 0.000000 0.000000 0.000000 0.011728 0.000000 0.032836
#
#
# Mechanical properties :
#
#
# Convention : Reuss Voigt Hill
#
# Bulk Modulus (GPa) = 31.92775 53.57224 42.74999
# Shear Modulus (GPa) = 24.61200 34.38817 29.50008
#
# Velocity S-wave (km/s) = 3.49382 4.12982 3.82506
# Velocity P-wave (km/s) = 5.66664 7.02216 6.38050
#
# Compressibility (1/GPa) = 0.03132072
#
# Stress axis : x y z
#
# Youngs Moduli (GPa) = 41.24693 123.14588 97.38525
#
# Poissons Ratio (x) = 0.70765 -0.18524
# Poissons Ratio (y) = 0.23702 0.17646
# Poissons Ratio (z) = -0.07846 0.22314
#
# Static dielectric constant tensor:
#      x y z
#    x 1.776630 0.000000 0.048650 
#    y 0.000000 1.771120 0.000000 
#    z 0.048650 0.000000 1.724040 
# 
# From -- ./inp_files/40762.got.cif
#   From: 2010.05.17/outbox.cif.g08.bks.cpg/sg5_21_cif.got.tgz:40762.got - 2010.06.03 18:56:24.
