data_PCOD9128228
_publ_section_title
;
Structure prediction by ZEFSAII (Michael W. Deem and Ramdas Pophale) SiO2 
 PCOD9128228
Probable space group: C 2
;
_chemical_formula_sum "Si O2"
_cell_formula_units_Z 20
_cell_length_a 5.334217
_cell_length_b 8.924220
_cell_length_c 24.684210
_cell_angle_alpha 90.000000
_cell_angle_beta 130.918810
_cell_angle_gamma 90.000000
_cell_volume 887.920831
_symmetry_space_group_name_H-M "C 2"
_symmetry_group_IT_number 5
_symmetry_cell_setting 'monoclinic'
loop_
_space_group_symop_operation_xyz
x,y,z
-x,y,-z
1/2+x,1/2+y,z
1/2-x,1/2+y,-z
loop_
_atom_site_type_symbol
_atom_site_label
_atom_site_fract_x
_atom_site_fract_y
_atom_site_fract_z
Si Si1 0.858272 0.122300 0.565794
Si Si2 0.000000 0.173802 0.000000
Si Si3 0.500000 0.834205 0.500000
Si Si4 0.674361 0.677883 0.723449
Si Si5 0.858406 0.961865 0.066010
Si Si6 0.165451 0.013813 0.223763
O O1 0.500000 0.188564 0.500000
O O2 0.091970 0.224891 0.562484
O O3 0.941865 0.133604 0.640072
O O4 0.805832 0.951848 0.539057
O O5 0.909834 0.064549 0.937764
O O6 0.693455 0.291236 0.960670
O O7 0.534242 0.601808 0.758105
O O8 0.034041 0.613678 0.757208
O O9 0.695568 0.856849 0.733437
O O10 0.940807 0.971354 0.140268
O O11 0.500000 0.027821 0.000000
#
# Coordination Sequence:
#
# PCOD9128228 Si02
#       6
#     4   2   2   4   4   4
#     4  10  26  42  72  96 138 177 235 276 343 408
#     4  10  24  40  72  98 130 176 232 286 326 412
#     4  10  24  38  72  96 130 176 232 286 326 410
#     4  12  28  47  72 104 145 184 231 289 354 412
#     4  10  26  42  71  96 138 177 235 276 343 408
#     4  12  28  46  73 103 145 184 231 289 354 411
#
# _framework density 22.524529000000001
#
# number of rings (size 3 to 8) (size 9 to 14) (size 15 to 20)
#    1.200    0.000    0.000    3.600   14.000    0.000 
#    0.000    0.000    0.000    0.000    0.000    0.000 
#    0.000    0.000    0.000    0.000    0.000    0.000 
#
# Total GULP energy -55780.165459 kJ/mol
# GULP energy per Si atom -5578.016546 kJ/mol
# Density = 2.247326 g / cm^3
# Si number density = 22.524529 Si / 1000 Ang^3
#
#
#
# Elastic Constant Matrix: (Units=GPa)
#
#
# Indices 1 2 3 4 5 6 
#
# 1 80.1800 38.7389 5.6774 0.0000 -22.0813 0.0000
# 2 38.7389 119.4333 -21.5608 0.0000 -36.0991 0.0000
# 3 5.6774 -21.5608 104.9260 0.0000 -17.3959 0.0000
# 4 0.0000 0.0000 0.0000 38.1684 0.0000 -4.3354
# 5 -22.0813 -36.0991 -17.3959 0.0000 39.2126 0.0000
# 6 0.0000 0.0000 0.0000 -4.3354 0.0000 64.0258
#
#
#
# Elastic Compliance Matrix: (Units=1/GPa)
#
#
# Indices 1 2 3 4 5 6 
#
# 1 0.015717 -0.003688 -0.000760 0.000000 0.005118 0.000000
# 2 -0.003688 0.014817 0.005571 0.000000 0.014035 0.000000
# 3 -0.000760 0.005571 0.012408 0.000000 0.010206 0.000000
# 4 0.000000 0.000000 0.000000 0.026403 0.000000 0.001788
# 5 0.005118 0.014035 0.010206 0.000000 0.045833 0.000000
# 6 0.000000 0.000000 0.000000 0.001788 0.000000 0.015740
#
#
# Mechanical properties :
#
#
# Convention : Reuss Voigt Hill
#
# Bulk Modulus (GPa) = 22.12900 38.91671 30.52286
# Shear Modulus (GPa) = 34.78640 47.06028 40.92334
#
# Velocity S-wave (km/s) = 3.93412 4.57583 4.26706
# Velocity P-wave (km/s) = 5.52106 6.72552 6.15284
#
# Compressibility (1/GPa) = 0.04518956
#
# Stress axis : x y z
#
# Youngs Moduli (GPa) = 63.62456 67.48963 80.59011
#
# Poissons Ratio (x) = 0.24891 0.06123
# Poissons Ratio (y) = 0.23465 -0.44898
# Poissons Ratio (z) = 0.04834 -0.37600
#
# Static dielectric constant tensor:
#      x y z
#    x 1.144600 0.000000 -0.128020 
#    y 0.000000 1.787120 0.000000 
#    z -0.128020 0.000000 1.805140 
# 
# From -- ./inp_files/63840.got.cif
#   From: 2010.05.17/outbox.cif.g08.bks.cpg/sg5_32_cif.got.tgz:63840.got - 2010.06.03 18:56:24.
