data_PCOD9128463
_publ_section_title
;
Structure prediction by ZEFSAII (Michael W. Deem and Ramdas Pophale) SiO2 
 PCOD9128463
Probable space group: C 2
;
_chemical_formula_sum "Si O2"
_cell_formula_units_Z 28
_cell_length_a 11.995289
_cell_length_b 9.104562
_cell_length_c 12.086173
_cell_angle_alpha 90.000000
_cell_angle_beta 115.671869
_cell_angle_gamma 90.000000
_cell_volume 1189.660523
_symmetry_space_group_name_H-M "C 2"
_symmetry_group_IT_number 5
_symmetry_cell_setting 'monoclinic'
loop_
_space_group_symop_operation_xyz
x,y,z
-x,y,-z
1/2+x,1/2+y,z
1/2-x,1/2+y,-z
loop_
_atom_site_type_symbol
_atom_site_label
_atom_site_fract_x
_atom_site_fract_y
_atom_site_fract_z
Si Si1 0.345285 0.702070 0.201101
Si Si2 0.863483 0.207391 0.952213
Si Si3 0.302798 0.386444 0.269842
Si Si4 0.565357 0.305883 0.371516
Si Si5 0.388335 0.808272 0.634711
Si Si6 0.601886 0.391261 0.135670
Si Si7 0.741230 0.037495 0.502721
O O1 0.346065 0.552014 0.269670
O O2 0.469266 0.790202 0.282446
O O3 0.225083 0.796815 0.174352
O O4 0.345817 0.664235 0.071466
O O5 0.757477 0.315098 0.865330
O O6 0.868260 0.061363 0.878982
O O7 0.000000 0.277674 0.000000
O O8 0.424023 0.289838 0.350121
O O9 0.185882 0.394680 0.302189
O O10 0.557490 0.364365 0.241649
O O11 0.646786 0.157432 0.407955
O O12 0.639539 0.430568 0.473164
O O13 0.318778 0.653053 0.608373
O O14 0.353144 0.903151 0.510507
O O15 0.500000 0.347577 0.000000
#
# Coordination Sequence:
#
# PCOD9128463 Si02
#       7
#     4   4   4   4   4   4   4
#     4  12  24  44  68 107 140 182 235 294 354 429
#     4  11  22  42  69 102 139 182 229 286 357 429
#     4  12  24  43  75  98 143 183 236 295 352 432
#     4  11  23  47  67 106 135 189 236 291 360 423
#     4  11  24  47  67 106 136 187 239 293 358 422
#     4  11  25  45  71  99 145 182 233 296 360 428
#     4  10  24  44  70  96 145 180 239 293 347 427
#
# _framework density 23.536127
#
# number of rings (size 3 to 8) (size 9 to 14) (size 15 to 20)
#    0.000    0.857    2.857    5.143    2.000    2.857 
#   10.286    1.429    0.000    0.000    0.000    0.000 
#    0.000    0.000    0.000    0.000    0.000    0.000 
#
# Total GULP energy -78113.415780 kJ/mol
# GULP energy per Si atom -5579.529699 kJ/mol
# Density = 2.348256 g / cm^3
# Si number density = 23.536127 Si / 1000 Ang^3
#
#
#
# Elastic Constant Matrix: (Units=GPa)
#
#
# Indices 1 2 3 4 5 6 
#
# 1 127.1622 46.4160 43.4475 0.0000 27.1502 0.0000
# 2 46.4160 90.0880 34.4972 0.0000 22.9592 0.0000
# 3 43.4475 34.4972 88.4109 0.0000 36.1393 0.0000
# 4 0.0000 0.0000 0.0000 40.6041 0.0000 7.2249
# 5 27.1502 22.9592 36.1393 0.0000 49.6294 0.0000
# 6 0.0000 0.0000 0.0000 7.2249 0.0000 31.2225
#
#
#
# Elastic Compliance Matrix: (Units=1/GPa)
#
#
# Indices 1 2 3 4 5 6 
#
# 1 0.010704 -0.003897 -0.002966 0.000000 -0.001893 0.000000
# 2 -0.003897 0.014864 -0.002770 0.000000 -0.002727 0.000000
# 3 -0.002966 -0.002770 0.018028 0.000000 -0.010224 0.000000
# 4 0.000000 0.000000 0.000000 0.025686 0.000000 -0.005944
# 5 -0.001893 -0.002727 -0.010224 0.000000 0.029892 0.000000
# 6 0.000000 0.000000 0.000000 -0.005944 0.000000 0.033404
#
#
# Mechanical properties :
#
#
# Convention : Reuss Voigt Hill
#
# Bulk Modulus (GPa) = 41.09949 61.59804 51.34877
# Shear Modulus (GPa) = 31.25933 36.37789 33.81861
#
# Velocity S-wave (km/s) = 3.64832 3.93570 3.79473
# Velocity P-wave (km/s) = 5.93694 6.84701 6.40815
#
# Compressibility (1/GPa) = 0.02433120
#
# Stress axis : x y z
#
# Youngs Moduli (GPa) = 93.42379 67.27783 55.46828
#
# Poissons Ratio (x) = 0.26217 0.16451
# Poissons Ratio (y) = 0.36405 0.15364
# Poissons Ratio (z) = 0.27707 0.18635
#
# Static dielectric constant tensor:
#      x y z
#    x 1.928910 0.000000 -0.108220 
#    y 0.000000 1.921050 0.000000 
#    z -0.108220 0.000000 2.132430 
# 
# From -- ./inp_files/52498.got.cif
#   From: 2010.05.17/outbox.cif.g08.bks.cpg/sg5_27_cif.got.tgz:52498.got - 2010.06.03 18:56:24.
