data_PCOD9128350
_publ_section_title
;
Structure prediction by ZEFSAII (Michael W. Deem and Ramdas Pophale) SiO2 
 PCOD9128350
Probable space group: C 2
;
_chemical_formula_sum "Si O2"
_cell_formula_units_Z 26
_cell_length_a 7.651716
_cell_length_b 24.691493
_cell_length_c 7.830129
_cell_angle_alpha 90.000000
_cell_angle_beta 54.289390
_cell_angle_gamma 90.000000
_cell_volume 1201.207432
_symmetry_space_group_name_H-M "C 2"
_symmetry_group_IT_number 5
_symmetry_cell_setting 'monoclinic'
loop_
_space_group_symop_operation_xyz
x,y,z
-x,y,-z
1/2+x,1/2+y,z
1/2-x,1/2+y,-z
loop_
_atom_site_type_symbol
_atom_site_label
_atom_site_fract_x
_atom_site_fract_y
_atom_site_fract_z
Si Si1 0.256265 0.617280 0.063867
Si Si2 0.000000 0.670628 0.500000
Si Si3 0.766604 0.716854 0.172917
Si Si4 0.000000 0.958148 0.500000
Si Si5 0.771896 0.495141 0.044460
Si Si6 0.819495 0.253499 0.395428
Si Si7 0.265889 0.872530 0.544438
Si Si8 0.500000 0.411016 0.000000
O O1 0.061732 0.631794 0.306332
O O2 0.500000 0.622910 0.000000
O O3 0.244564 0.657763 0.907702
O O4 0.224127 0.554982 0.033287
O O5 0.186683 0.714977 0.350168
O O6 0.570126 0.751197 0.210433
O O7 0.727155 0.721656 0.398317
O O8 0.000000 0.739499 0.000000
O O9 0.193069 0.919943 0.458433
O O10 0.090027 0.993011 0.294379
O O11 0.691889 0.450301 0.955062
O O12 0.000000 0.482136 0.000000
O O13 0.754093 0.314947 0.457569
O O14 0.500000 0.877624 0.500000
O O15 0.089681 0.875781 0.794638
#
# Coordination Sequence:
#
# PCOD9128350 Si02
#       8
#     4   2   4   2   4   4   4   2
#     4  12  25  42  65  95 132 169 219 261 333 384
#     4  12  25  42  64  98 132 170 215 274 308 400
#     4  11  22  41  64  96 133 174 209 261 316 396
#     4  10  25  44  70  94 130 164 223 274 322 384
#     4  11  24  46  67  96 125 171 215 277 327 383
#     4  11  24  39  66  98 134 170 218 256 328 383
#     4  11  22  42  67  97 128 172 214 268 319 387
#     4  10  24  42  68  94 130 166 224 268 322 380
#
# _framework density 21.644886
#
# number of rings (size 3 to 8) (size 9 to 14) (size 15 to 20)
#    0.000    0.923    5.385    1.846    1.077    2.462 
#    1.385    0.000    3.385    0.000    0.000    0.000 
#    0.000    0.000    0.000    0.000    0.000    0.000 
#
# Total GULP energy -72551.420234 kJ/mol
# GULP energy per Si atom -5580.878480 kJ/mol
# Density = 2.159562 g / cm^3
# Si number density = 21.644886 Si / 1000 Ang^3
#
#
#
# Elastic Constant Matrix: (Units=GPa)
#
#
# Indices 1 2 3 4 5 6 
#
# 1 90.8213 31.1341 2.4869 0.0000 -24.1589 0.0000
# 2 31.1341 110.0435 42.0379 0.0000 -19.5486 0.0000
# 3 2.4869 42.0379 70.8006 0.0000 -19.6067 0.0000
# 4 0.0000 0.0000 0.0000 24.0878 0.0000 8.3479
# 5 -24.1589 -19.5486 -19.6067 0.0000 26.4508 0.0000
# 6 0.0000 0.0000 0.0000 8.3479 0.0000 -1.3412
#
#
#
# Elastic Compliance Matrix: (Units=1/GPa)
#
#
# Indices 1 2 3 4 5 6 
#
# 1 0.016879 -0.004282 0.006722 0.000000 0.017235 0.000000
# 2 -0.004282 0.013265 -0.007668 0.000000 0.000209 0.000000
# 3 0.006722 -0.007668 0.023369 0.000000 0.017795 0.000000
# 4 0.000000 0.000000 0.000000 0.013150 0.000000 0.081847
# 5 0.017235 0.000209 0.017795 0.000000 0.066893 0.000000
# 6 0.000000 0.000000 0.000000 0.081847 0.000000 -0.236168
#
#
# Mechanical properties :
#
#
# Convention : Reuss Voigt Hill
#
# Bulk Modulus (GPa) = 23.22447 46.99812 35.11129
# Shear Modulus (GPa) = -64.26273 22.90658 -20.67807
#
# Velocity S-wave (km/s) = -5.45472 3.25667 -3.09420
# Velocity P-wave (km/s) = 5.37764 5.99179 1.86850
#
# Compressibility (1/GPa) = 0.04305803
#
# Stress axis : x y z
#
# Youngs Moduli (GPa) = 59.24549 75.38576 42.79205
#
# Poissons Ratio (x) = 0.32279 -0.28766
# Poissons Ratio (y) = 0.25368 0.32812
# Poissons Ratio (z) = -0.39826 0.57805
#
# Static dielectric constant tensor:
#      x y z
#    x 1.791590 0.000000 0.008870 
#    y 0.000000 1.730140 0.000000 
#    z 0.008870 0.000000 1.779660 
# 
# From -- ./inp_files/17042.got.cif
#   From: 2010.05.17/outbox.cif.g08.bks.cpg/sg5_9_cif.got.tgz:17042.got - 2010.06.03 18:56:24.
