data_PCOD9128679
_publ_section_title
;
Structure prediction by ZEFSAII (Michael W. Deem and Ramdas Pophale) SiO2 
 PCOD9128679
Probable space group: C 2
;
_chemical_formula_sum "Si O2"
_cell_formula_units_Z 14
_cell_length_a 6.823634
_cell_length_b 16.427518
_cell_length_c 4.805106
_cell_angle_alpha 90.000000
_cell_angle_beta 89.801923
_cell_angle_gamma 90.000000
_cell_volume 538.626918
_symmetry_space_group_name_H-M "C 2"
_symmetry_group_IT_number 5
_symmetry_cell_setting 'monoclinic'
loop_
_space_group_symop_operation_xyz
x,y,z
-x,y,-z
1/2+x,1/2+y,z
1/2-x,1/2+y,-z
loop_
_atom_site_type_symbol
_atom_site_label
_atom_site_fract_x
_atom_site_fract_y
_atom_site_fract_z
Si Si1 0.868756 0.274380 0.718394
Si Si2 0.268659 0.106932 0.473975
Si Si3 0.268669 0.998922 0.984426
Si Si4 0.500000 0.356803 0.000000
O O1 0.815687 0.196938 0.521094
O O2 0.651923 0.305918 0.811276
O O3 0.000000 0.327449 0.500000
O O4 0.000000 0.263364 0.000000
O O5 0.500000 0.114264 0.500000
O O6 0.786587 0.033106 0.319468
O O7 0.224272 0.077505 0.166588
O O8 0.155135 0.923004 0.114699
O O9 0.500000 0.981836 0.000000
#
# Coordination Sequence:
#
# PCOD9128679 Si02
#       4
#     4   4   4   2
#     4  12  30  49  79 116 160 202 262 318 386 468
#     4  10  24  48  77 111 151 198 260 314 376 460
#     4  10  24  47  76 111 150 199 259 316 375 464
#     4  12  30  50  80 114 162 208 248 328 400 446
#
# _framework density 25.99202
#
# number of rings (size 3 to 8) (size 9 to 14) (size 15 to 20)
#    0.000    1.143    0.000    2.571   16.000    8.000 
#    0.000    0.000    0.000    0.000    0.000    0.000 
#    0.000    0.000    0.000    0.000    0.000    0.000 
#
# Total GULP energy -39037.471958 kJ/mol
# GULP energy per Si atom -5576.781708 kJ/mol
# Density = 2.593286 g / cm^3
# Si number density = 25.992020 Si / 1000 Ang^3
#
#
#
# Elastic Constant Matrix: (Units=GPa)
#
#
# Indices 1 2 3 4 5 6 
#
# 1 207.5663 44.8420 52.8071 0.0000 -45.9689 0.0000
# 2 44.8420 76.8083 20.9230 0.0000 -11.4577 0.0000
# 3 52.8071 20.9230 127.8478 0.0000 -7.4891 0.0000
# 4 0.0000 0.0000 0.0000 -32.2727 0.0000 23.3222
# 5 -45.9689 -11.4577 -7.4891 0.0000 47.6826 0.0000
# 6 0.0000 0.0000 0.0000 23.3222 0.0000 22.2178
#
#
#
# Elastic Compliance Matrix: (Units=1/GPa)
#
#
# Indices 1 2 3 4 5 6 
#
# 1 0.007317 -0.002767 -0.002216 0.000000 0.006041 0.000000
# 2 -0.002767 0.015098 -0.001283 0.000000 0.000759 0.000000
# 3 -0.002216 -0.001283 0.008886 0.000000 -0.001049 0.000000
# 4 0.000000 0.000000 0.000000 -0.017620 0.000000 0.018496
# 5 0.006041 0.000759 -0.001049 0.000000 0.026814 0.000000
# 6 0.000000 0.000000 0.000000 0.018496 0.000000 0.025594
#
#
# Mechanical properties :
#
#
# Convention : Reuss Voigt Hill
#
# Bulk Modulus (GPa) = 53.28190 72.15185 62.71688
# Shear Modulus (GPa) = 58.90910 27.10221 43.00565
#
# Velocity S-wave (km/s) = 4.76587 3.23261 4.07206
# Velocity P-wave (km/s) = 7.12941 6.46162 6.80371
#
# Compressibility (1/GPa) = 0.01876810
#
# Stress axis : x y z
#
# Youngs Moduli (GPa) = 136.66528 66.23520 112.54238
#
# Poissons Ratio (x) = 0.18328 0.24935
# Poissons Ratio (y) = 0.37817 0.14444
# Poissons Ratio (z) = 0.30279 0.08501
#
# Static dielectric constant tensor:
#      x y z
#    x 2.152610 0.000000 -0.113670 
#    y 0.000000 2.017500 0.000000 
#    z -0.113670 0.000000 2.097000 
# 
# From -- ./inp_files/414.got.cif
#   From: 2010.05.17/outbox.cif.g08.bks.cpg/sg5_1_cif.got.tgz:414.got - 2010.06.03 18:56:24.
