data_PCOD9128840
_publ_section_title
;
Structure prediction by ZEFSAII (Michael W. Deem and Ramdas Pophale) SiO2 
 PCOD9128840
Probable space group: C 2
;
_chemical_formula_sum "Si O2"
_cell_formula_units_Z 28
_cell_length_a 19.192856
_cell_length_b 5.015523
_cell_length_c 12.887706
_cell_angle_alpha 90.000000
_cell_angle_beta 116.719690
_cell_angle_gamma 90.000000
_cell_volume 1108.124087
_symmetry_space_group_name_H-M "C 2"
_symmetry_group_IT_number 5
_symmetry_cell_setting 'monoclinic'
loop_
_space_group_symop_operation_xyz
x,y,z
-x,y,-z
1/2+x,1/2+y,z
1/2-x,1/2+y,-z
loop_
_atom_site_type_symbol
_atom_site_label
_atom_site_fract_x
_atom_site_fract_y
_atom_site_fract_z
Si Si1 0.926947 0.550200 0.019731
Si Si2 0.718052 0.725936 0.535679
Si Si3 0.623904 0.660072 0.173392
Si Si4 0.789649 0.870043 0.282562
Si Si5 0.919821 0.568494 0.502945
Si Si6 0.257759 0.173279 0.937552
Si Si7 0.552707 0.162212 0.246227
O O1 0.844830 0.694423 0.949311
O O2 0.910686 0.254970 0.962054
O O3 0.000000 0.646358 0.000000
O O4 0.962481 0.594133 0.157123
O O5 0.598445 0.904751 0.232512
O O6 0.741241 0.592283 0.658220
O O7 0.763339 0.994587 0.534494
O O8 0.629412 0.811413 0.494279
O O9 0.717259 0.667644 0.222691
O O10 0.586782 0.411170 0.206024
O O11 0.863188 0.731023 0.386567
O O12 0.799587 0.030043 0.182254
O O13 0.935998 0.707665 0.624197
O O14 0.000000 0.506016 0.500000
O O15 0.268641 0.953295 0.035520
#
# Coordination Sequence:
#
# PCOD9128840 Si02
#       7
#     4   4   4   4   4   4   4
#     4   9  23  48  72 110 150 192 254 327 388 457
#     4  12  27  49  82 116 156 211 273 333 394 487
#     4  10  25  44  77 117 144 205 262 333 384 469
#     4  11  28  48  83 113 165 204 278 330 401 487
#     4  12  31  50  75 121 167 219 262 336 415 484
#     4  11  28  49  80 113 150 211 265 324 401 473
#     4  11  26  44  77 111 157 201 260 321 410 469
#
# _framework density 25.267928000000001
#
# number of rings (size 3 to 8) (size 9 to 14) (size 15 to 20)
#    0.000    1.143    1.429    0.857   12.000   13.714 
#    0.000    1.429    0.000    0.000    0.000    0.000 
#    0.000    0.000    0.000    0.000    0.000    0.000 
#
# Total GULP energy -78362.319220 kJ/mol
# GULP energy per Si atom -5597.308516 kJ/mol
# Density = 2.521042 g / cm^3
# Si number density = 25.267928 Si / 1000 Ang^3
#
#
#
# Elastic Constant Matrix: (Units=GPa)
#
#
# Indices 1 2 3 4 5 6 
#
# 1 141.9179 63.4633 47.5540 0.0000 13.4170 0.0000
# 2 63.4633 161.0470 36.8402 0.0000 -3.5176 0.0000
# 3 47.5540 36.8402 149.5466 0.0000 20.9341 0.0000
# 4 0.0000 0.0000 0.0000 33.1316 0.0000 5.8796
# 5 13.4170 -3.5176 20.9341 0.0000 41.0649 0.0000
# 6 0.0000 0.0000 0.0000 5.8796 0.0000 18.7215
#
#
#
# Elastic Compliance Matrix: (Units=1/GPa)
#
#
# Indices 1 2 3 4 5 6 
#
# 1 0.009375 -0.003330 -0.001822 0.000000 -0.002419 0.000000
# 2 -0.003330 0.007850 -0.001207 0.000000 0.002376 0.000000
# 3 -0.001822 -0.001207 0.008071 0.000000 -0.003622 0.000000
# 4 0.000000 0.000000 0.000000 0.031964 0.000000 -0.010039
# 5 -0.002419 0.002376 -0.003622 0.000000 0.027192 0.000000
# 6 0.000000 0.000000 0.000000 -0.010039 0.000000 0.056567
#
#
# Mechanical properties :
#
#
# Convention : Reuss Voigt Hill
#
# Bulk Modulus (GPa) = 79.51638 83.13627 81.32633
# Shear Modulus (GPa) = 31.65948 38.89388 35.27668
#
# Velocity S-wave (km/s) = 3.54355 3.92760 3.74050
# Velocity P-wave (km/s) = 6.94837 7.31719 7.13517
#
# Compressibility (1/GPa) = 0.01257603
#
# Stress axis : x y z
#
# Youngs Moduli (GPa) = 106.66812 127.39099 123.90413
#
# Poissons Ratio (x) = 0.42426 0.22575
# Poissons Ratio (y) = 0.35525 0.14960
# Poissons Ratio (z) = 0.19435 0.15381
#
# Static dielectric constant tensor:
#      x y z
#    x 1.974230 0.000000 0.019160 
#    y 0.000000 1.998050 0.000000 
#    z 0.019160 0.000000 2.139580 
# 
# From -- ./inp_files/45716.got.cif
#   From: 2010.05.17/outbox.cif.g08.bks.cpg/sg5_23_cif.got.tgz:45716.got - 2010.06.03 18:56:24.
