data_PCOD9128586
_publ_section_title
;
Structure prediction by ZEFSAII (Michael W. Deem and Ramdas Pophale) SiO2 
 PCOD9128586
Probable space group: C 2
;
_chemical_formula_sum "Si O2"
_cell_formula_units_Z 22
_cell_length_a 12.025111
_cell_length_b 12.160514
_cell_length_c 11.490672
_cell_angle_alpha 90.000000
_cell_angle_beta 32.112286
_cell_angle_gamma 90.000000
_cell_volume 893.213470
_symmetry_space_group_name_H-M "C 2"
_symmetry_group_IT_number 5
_symmetry_cell_setting 'monoclinic'
loop_
_space_group_symop_operation_xyz
x,y,z
-x,y,-z
1/2+x,1/2+y,z
1/2-x,1/2+y,-z
loop_
_atom_site_type_symbol
_atom_site_label
_atom_site_fract_x
_atom_site_fract_y
_atom_site_fract_z
Si Si1 0.475639 0.675330 0.661163
Si Si2 0.470716 0.111046 0.832201
Si Si3 0.618275 0.869589 0.091654
Si Si4 0.500000 0.709914 0.000000
Si Si5 0.441498 0.352543 0.185534
Si Si6 0.231401 0.567772 0.416114
O O1 0.500000 0.675821 0.500000
O O2 0.484067 0.794898 0.715938
O O3 0.634855 0.593724 0.585318
O O4 0.246853 0.635295 0.908805
O O5 0.592158 0.224633 0.754728
O O6 0.500686 0.102051 0.664467
O O7 0.502935 0.981590 0.832545
O O8 0.624388 0.789072 0.976648
O O9 0.854364 0.893076 0.924137
O O10 0.654335 0.637473 0.784262
O O11 0.260741 0.441292 0.360825
O O12 0.500000 0.354689 0.000000
#
# Coordination Sequence:
#
# PCOD9128586 Si02
#       6
#     4   4   4   2   4   4
#     4  10  24  46  69 105 144 186 241 304 358 431
#     4  11  26  43  73 110 138 192 245 288 368 427
#     4  10  24  47  72 104 146 188 244 295 367 423
#     4  10  24  48  70 100 150 198 236 300 358 428
#     4  11  25  46  72 105 149 190 244 298 357 432
#     4  11  24  46  72 101 147 191 242 300 358 427
#
# _framework density 24.630171000000001
#
# number of rings (size 3 to 8) (size 9 to 14) (size 15 to 20)
#    0.000    1.455    2.727    0.000   11.455    0.000 
#    0.000   13.636    0.000    0.000    0.000    0.000 
#    0.000    0.000    0.000    0.000    0.000    0.000 
#
# Total GULP energy -61409.544224 kJ/mol
# GULP energy per Si atom -5582.685839 kJ/mol
# Density = 2.457411 g / cm^3
# Si number density = 24.630171 Si / 1000 Ang^3
#
#
#
# Elastic Constant Matrix: (Units=GPa)
#
#
# Indices 1 2 3 4 5 6 
#
# 1 91.3666 38.0421 31.0185 -0.0012 25.6178 0.0009
# 2 38.0421 220.5855 89.3256 -0.0005 27.2725 0.0006
# 3 31.0185 89.3256 176.8839 -0.0009 48.5352 0.0010
# 4 -0.0012 -0.0005 -0.0009 53.8055 0.0010 -10.4325
# 5 25.6178 27.2725 48.5352 0.0010 34.8484 -0.0008
# 6 0.0009 0.0006 0.0010 -10.4325 -0.0008 -8.4624
#
#
#
# Elastic Compliance Matrix: (Units=1/GPa)
#
#
# Indices 1 2 3 4 5 6 
#
# 1 0.014284 -0.001646 0.001383 0.000001 -0.011138 0.000002
# 2 -0.001646 0.005900 -0.002842 0.000000 0.000551 0.000000
# 3 0.001383 -0.002842 0.010544 0.000001 -0.013478 0.000002
# 4 0.000001 0.000000 0.000001 0.015000 -0.000003 -0.018492
# 5 -0.011138 0.000551 -0.013478 -0.000003 0.055223 -0.000005
# 6 0.000002 0.000000 0.000002 -0.018492 -0.000005 -0.095373
#
#
# Mechanical properties :
#
#
# Convention : Reuss Voigt Hill
#
# Bulk Modulus (GPa) = 40.78827 89.51203 65.15015
# Shear Modulus (GPa) = 250.47385 38.06829 144.27107
#
# Velocity S-wave (km/s) = 10.09528 3.93567 7.66173
# Velocity P-wave (km/s) = 12.34838 7.55473 10.23612
#
# Compressibility (1/GPa) = 0.02451685
#
# Stress axis : x y z
#
# Youngs Moduli (GPa) = 70.00949 169.49055 94.83726
#
# Poissons Ratio (x) = 0.27902 -0.13112
# Poissons Ratio (y) = 0.11525 0.26953
# Poissons Ratio (z) = -0.09679 0.48169
#
# Static dielectric constant tensor:
#      x y z
#    x 2.026320 0.000000 -0.131170 
#    y 0.000000 1.912420 0.000000 
#    z -0.131170 0.000000 2.105870 
# 
# From -- ./inp_files/42655.got.cif
#   From: 2010.05.17/outbox.cif.g08.bks.cpg/sg5_22_cif.got.tgz:42655.got - 2010.06.03 18:56:24.
