data_PCOD9128168
_publ_section_title
;
Structure prediction by ZEFSAII (Michael W. Deem and Ramdas Pophale) SiO2 
 PCOD9128168
Probable space group: C 2
;
_chemical_formula_sum "Si O2"
_cell_formula_units_Z 20
_cell_length_a 10.699282
_cell_length_b 8.960130
_cell_length_c 15.263685
_cell_angle_alpha 90.000000
_cell_angle_beta 148.103578
_cell_angle_gamma 90.000000
_cell_volume 773.177275
_symmetry_space_group_name_H-M "C 2"
_symmetry_group_IT_number 5
_symmetry_cell_setting 'monoclinic'
loop_
_space_group_symop_operation_xyz
x,y,z
-x,y,-z
1/2+x,1/2+y,z
1/2-x,1/2+y,-z
loop_
_atom_site_type_symbol
_atom_site_label
_atom_site_fract_x
_atom_site_fract_y
_atom_site_fract_z
Si Si1 0.683497 0.954160 0.532748
Si Si2 0.299434 0.422805 0.324488
Si Si3 0.000000 0.603487 0.000000
Si Si4 0.044176 0.163548 0.832341
Si Si5 0.000000 0.133025 0.000000
Si Si6 0.011432 0.698010 0.325460
O O1 0.500000 0.976612 0.500000
O O2 0.780880 0.787696 0.595708
O O3 0.903983 0.063246 0.679474
O O4 0.562516 0.025916 0.374842
O O5 0.500000 0.509726 0.500000
O O6 0.165316 0.514950 0.168542
O O7 0.084810 0.322383 0.234788
O O8 0.475824 0.295064 0.391400
O O9 0.191263 0.681265 0.048481
O O10 0.988025 0.075077 0.892200
O O11 0.751144 0.216358 0.868769
#
# Coordination Sequence:
#
# PCOD9128168 Si02
#       6
#     4   4   2   4   2   4
#     4  12  23  47  74 103 148 193 244 318 366 452
#     4  11  21  45  73 102 142 200 241 300 384 443
#     4  12  27  46  77 106 147 192 258 315 361 456
#     4  11  23  45  74 103 145 194 248 304 371 446
#     4  10  23  48  73 104 147 208 238 309 391 448
#     4  11  23  44  76 104 143 195 254 299 383 449
#
# _framework density 25.867291000000002
#
# number of rings (size 3 to 8) (size 9 to 14) (size 15 to 20)
#    0.000    0.800    8.000    2.400    0.000    1.600 
#    3.600    3.000    0.000    0.000    0.000    0.000 
#    0.000    0.000    0.000    0.000    0.000    0.000 
#
# Total GULP energy -55683.235907 kJ/mol
# GULP energy per Si atom -5568.323591 kJ/mol
# Density = 2.580842 g / cm^3
# Si number density = 25.867291 Si / 1000 Ang^3
#
#
#
# Elastic Constant Matrix: (Units=GPa)
#
#
# Indices 1 2 3 4 5 6 
#
# 1 130.2783 40.0145 49.3593 0.0002 38.3208 0.0000
# 2 40.0145 56.3456 42.7623 0.0007 12.5029 0.0004
# 3 49.3593 42.7623 158.8984 0.0024 12.0016 0.0015
# 4 0.0002 0.0007 0.0024 -2.7509 0.0007 15.3574
# 5 38.3208 12.5029 12.0016 0.0007 55.7433 0.0003
# 6 0.0000 0.0004 0.0015 15.3574 0.0003 37.5332
#
#
#
# Elastic Compliance Matrix: (Units=1/GPa)
#
#
# Indices 1 2 3 4 5 6 
#
# 1 0.012041 -0.005811 -0.001677 -0.000001 -0.006613 0.000001
# 2 -0.005811 0.025915 -0.005115 0.000000 -0.000717 0.000000
# 3 -0.001677 -0.005115 0.008150 0.000001 0.000546 -0.000001
# 4 -0.000001 0.000000 0.000001 -0.110685 0.000001 0.045289
# 5 -0.006613 -0.000717 0.000546 0.000001 0.022529 -0.000001
# 6 0.000001 0.000000 -0.000001 0.045289 -0.000001 0.008112
#
#
# Mechanical properties :
#
#
# Convention : Reuss Voigt Hill
#
# Bulk Modulus (GPa) = 47.84684 67.75494 57.80089
# Shear Modulus (GPa) = -2834.21442 32.33087 -1400.94177
#
# Velocity S-wave (km/s) = -33.13689 3.53919 -23.29729
# Velocity P-wave (km/s) = 38.02018 6.55373 26.48191
#
# Compressibility (1/GPa) = 0.02090002
#
# Stress axis : x y z
#
# Youngs Moduli (GPa) = 83.04636 38.58713 122.70487
#
# Poissons Ratio (x) = 0.22423 0.20579
# Poissons Ratio (y) = 0.48259 0.62764
# Poissons Ratio (z) = 0.13928 0.19737
#
# Static dielectric constant tensor:
#      x y z
#    x 2.140360 0.000000 -0.102680 
#    y 0.000000 2.071470 0.000000 
#    z -0.102680 0.000000 2.225010 
# 
# From -- ./inp_files/60335.got.cif
#   From: 2010.05.17/outbox.cif.g08.bks.cpg/sg5_31_cif.got.tgz:60335.got - 2010.06.03 18:56:24.
