data_PCOD9128629
_publ_section_title
;
Structure prediction by ZEFSAII (Michael W. Deem and Ramdas Pophale) SiO2 
 PCOD9128629
Probable space group: C 2
;
_chemical_formula_sum "Si O2"
_cell_formula_units_Z 24
_cell_length_a 12.839736
_cell_length_b 8.079698
_cell_length_c 9.607729
_cell_angle_alpha 90.000000
_cell_angle_beta 84.554018
_cell_angle_gamma 90.000000
_cell_volume 992.218169
_symmetry_space_group_name_H-M "C 2"
_symmetry_group_IT_number 5
_symmetry_cell_setting 'monoclinic'
loop_
_space_group_symop_operation_xyz
x,y,z
-x,y,-z
1/2+x,1/2+y,z
1/2-x,1/2+y,-z
loop_
_atom_site_type_symbol
_atom_site_label
_atom_site_fract_x
_atom_site_fract_y
_atom_site_fract_z
Si Si1 0.500000 0.537750 0.000000
Si Si2 0.204611 0.454088 0.571821
Si Si3 0.241105 0.776739 0.709961
Si Si4 0.351138 0.002193 0.906166
Si Si5 0.000333 0.763678 0.202544
Si Si6 0.325205 0.763377 0.153601
Si Si7 0.000000 0.655381 0.500000
O O1 0.450620 0.410479 0.894420
O O2 0.576197 0.654340 0.904129
O O3 0.265141 0.594543 0.650556
O O4 0.261825 0.389236 0.428109
O O5 0.179957 0.309445 0.684233
O O6 0.097481 0.542467 0.534382
O O7 0.324718 0.852280 0.804624
O O8 0.125418 0.779834 0.791681
O O9 0.461561 0.086720 0.859866
O O10 0.271907 0.149427 0.877723
O O11 0.330717 0.928624 0.059966
O O12 0.028972 0.762680 0.361425
#
# Coordination Sequence:
#
# PCOD9128629 Si02
#       7
#     2   4   4   4   4   4   2
#     4  12  28  46  74 112 156 198 256 328 380 452
#     4  11  25  47  77 107 154 198 263 320 382 463
#     4  11  24  47  75 110 149 205 253 319 384 457
#     4  12  25  50  74 110 155 202 260 313 398 457
#     4  11  26  47  75 111 149 199 256 317 385 457
#     4  12  28  46  75 113 150 205 257 321 386 469
#     4  10  24  46  74 108 144 206 252 308 398 440
#
# _framework density 24.188229
#
# number of rings (size 3 to 8) (size 9 to 14) (size 15 to 20)
#    0.000    0.667    3.333    3.000   11.667    0.000 
#    0.000    0.833    0.000    0.000    0.000    0.000 
#    0.000    0.000    0.000    0.000    0.000    0.000 
#
# Total GULP energy -67278.836874 kJ/mol
# GULP energy per Si atom -5606.569739 kJ/mol
# Density = 2.413318 g / cm^3
# Si number density = 24.188229 Si / 1000 Ang^3
#
#
#
# Elastic Constant Matrix: (Units=GPa)
#
#
# Indices 1 2 3 4 5 6 
#
# 1 79.8167 40.5508 25.2571 0.0000 -4.7219 0.0000
# 2 40.5508 92.7823 29.3131 0.0000 1.7353 0.0000
# 3 25.2571 29.3131 121.8174 0.0000 6.4735 0.0000
# 4 0.0000 0.0000 0.0000 57.1750 0.0000 -2.0780
# 5 -4.7219 1.7353 6.4735 0.0000 32.3003 0.0000
# 6 0.0000 0.0000 0.0000 -2.0780 0.0000 53.2795
#
#
#
# Elastic Compliance Matrix: (Units=1/GPa)
#
#
# Indices 1 2 3 4 5 6 
#
# 1 0.016796 -0.006760 -0.002027 0.000000 0.003225 0.000000
# 2 -0.006760 0.014386 -0.001988 0.000000 -0.001363 0.000000
# 3 -0.002027 -0.001988 0.009216 0.000000 -0.002037 0.000000
# 4 0.000000 0.000000 0.000000 0.017515 0.000000 0.000683
# 5 0.003225 -0.001363 -0.002037 0.000000 0.031912 0.000000
# 6 0.000000 0.000000 0.000000 0.000683 0.000000 0.018796
#
#
# Mechanical properties :
#
#
# Convention : Reuss Voigt Hill
#
# Bulk Modulus (GPa) = 53.05792 53.85096 53.45444
# Shear Modulus (GPa) = 36.64276 41.83731 39.24004
#
# Velocity S-wave (km/s) = 3.89639 4.16343 4.03212
# Velocity P-wave (km/s) = 6.49812 6.73972 6.62002
#
# Compressibility (1/GPa) = 0.01884733
#
# Stress axis : x y z
#
# Youngs Moduli (GPa) = 59.53970 69.51169 108.50976
#
# Poissons Ratio (x) = 0.46993 0.21994
# Poissons Ratio (y) = 0.40252 0.21568
# Poissons Ratio (z) = 0.12068 0.13816
#
# Static dielectric constant tensor:
#      x y z
#    x 1.995370 0.000000 -0.003910 
#    y 0.000000 1.935700 0.000000 
#    z -0.003910 0.000000 1.907680 
# 
# From -- ./inp_files/22832.got.cif
#   From: 2010.05.17/outbox.cif.g08.bks.cpg/sg5_12_cif.got.tgz:22832.got - 2010.06.03 18:56:24.
