data_PCOD9128839
_publ_section_title
;
Structure prediction by ZEFSAII (Michael W. Deem and Ramdas Pophale) SiO2 
 PCOD9128839
Probable space group: C 2
;
_chemical_formula_sum "Si O2"
_cell_formula_units_Z 18
_cell_length_a 13.363601
_cell_length_b 11.445539
_cell_length_c 5.036603
_cell_angle_alpha 90.000000
_cell_angle_beta 89.892361
_cell_angle_gamma 90.000000
_cell_volume 770.365284
_symmetry_space_group_name_H-M "C 2"
_symmetry_group_IT_number 5
_symmetry_cell_setting 'monoclinic'
loop_
_space_group_symop_operation_xyz
x,y,z
-x,y,-z
1/2+x,1/2+y,z
1/2-x,1/2+y,-z
loop_
_atom_site_type_symbol
_atom_site_label
_atom_site_fract_x
_atom_site_fract_y
_atom_site_fract_z
Si Si1 0.195482 0.817120 0.830556
Si Si2 0.927614 0.590105 0.254479
Si Si3 0.000000 0.148736 0.500000
Si Si4 0.097424 0.923265 0.350310
Si Si5 0.895127 0.331557 0.152015
O O1 0.438255 0.557279 0.684038
O O2 0.127752 0.867903 0.072383
O O3 0.305610 0.809581 0.950570
O O4 0.181865 0.899218 0.572537
O O5 0.844253 0.689303 0.242494
O O6 0.881283 0.460739 0.269532
O O7 0.000000 0.604999 0.500000
O O8 0.000000 0.599199 0.000000
O O9 0.917231 0.229799 0.361977
O O10 0.000000 0.868849 0.500000
O O11 0.000000 0.337060 0.000000
#
# Coordination Sequence:
#
# PCOD9128839 Si02
#       5
#     4   4   2   4   4
#     4  12  25  45  75 107 136 191 247 285 358 422
#     4  11  24  46  70 102 147 183 232 297 357 421
#     4  10  26  48  72  98 154 188 238 300 354 426
#     4  10  25  44  76 101 140 181 243 296 346 414
#     4  11  28  47  69 107 150 194 234 295 363 430
#
# _framework density 23.365537
#
# number of rings (size 3 to 8) (size 9 to 14) (size 15 to 20)
#    0.667    0.444    1.111    4.000    9.333    0.000 
#    0.000    0.000    0.000    0.000    0.000    0.000 
#    0.000    0.000    0.000    0.000    0.000    0.000 
#
# Total GULP energy -50369.594366 kJ/mol
# GULP energy per Si atom -5596.621596 kJ/mol
# Density = 2.331236 g / cm^3
# Si number density = 23.365537 Si / 1000 Ang^3
#
#
#
# Elastic Constant Matrix: (Units=GPa)
#
#
# Indices 1 2 3 4 5 6 
#
# 1 146.3904 66.7943 40.7039 0.0000 41.0857 0.0000
# 2 66.7943 178.0007 53.9951 0.0000 34.3139 0.0000
# 3 40.7039 53.9951 130.0051 0.0000 21.9505 0.0000
# 4 0.0000 0.0000 0.0000 26.7513 0.0000 8.2667
# 5 41.0857 34.3139 21.9505 0.0000 61.4911 0.0000
# 6 0.0000 0.0000 0.0000 8.2667 0.0000 13.0422
#
#
#
# Elastic Compliance Matrix: (Units=1/GPa)
#
#
# Indices 1 2 3 4 5 6 
#
# 1 0.009530 -0.002305 -0.001243 0.000000 -0.004637 0.000000
# 2 -0.002305 0.007474 -0.002063 0.000000 -0.001894 0.000000
# 3 -0.001243 -0.002063 0.009155 0.000000 -0.001286 0.000000
# 4 0.000000 0.000000 0.000000 0.046487 0.000000 -0.029465
# 5 -0.004637 -0.001894 -0.001286 0.000000 0.020877 0.000000
# 6 0.000000 0.000000 0.000000 -0.029465 0.000000 0.095350
#
#
# Mechanical properties :
#
#
# Convention : Reuss Voigt Hill
#
# Bulk Modulus (GPa) = 66.94827 86.37585 76.66206
# Shear Modulus (GPa) = 24.38147 39.78380 32.08263
#
# Velocity S-wave (km/s) = 3.23380 4.13082 3.70952
# Velocity P-wave (km/s) = 6.53131 7.73298 7.15741
#
# Compressibility (1/GPa) = 0.01493691
#
# Stress axis : x y z
#
# Youngs Moduli (GPa) = 104.93163 133.80263 109.22796
#
# Poissons Ratio (x) = 0.30841 0.13582
# Poissons Ratio (y) = 0.24186 0.22529
# Poissons Ratio (z) = 0.13048 0.27598
#
# Static dielectric constant tensor:
#      x y z
#    x 1.890310 0.000000 -0.034270 
#    y 0.000000 1.900490 0.000000 
#    z -0.034270 0.000000 1.906330 
# 
# From -- ./inp_files/4670.got.cif
#   From: 2010.05.17/outbox.cif.g08.bks.cpg/sg5_3_cif.got.tgz:4670.got - 2010.06.03 18:56:24.
