data_PCOD9128165
_publ_section_title
;
Structure prediction by ZEFSAII (Michael W. Deem and Ramdas Pophale) SiO2 
 PCOD9128165
Probable space group: C 2
;
_chemical_formula_sum "Si O2"
_cell_formula_units_Z 26
_cell_length_a 6.754607
_cell_length_b 14.212406
_cell_length_c 17.670253
_cell_angle_alpha 90.000000
_cell_angle_beta 141.351899
_cell_angle_gamma 90.000000
_cell_volume 1059.418553
_symmetry_space_group_name_H-M "C 2"
_symmetry_group_IT_number 5
_symmetry_cell_setting 'monoclinic'
loop_
_space_group_symop_operation_xyz
x,y,z
-x,y,-z
1/2+x,1/2+y,z
1/2-x,1/2+y,-z
loop_
_atom_site_type_symbol
_atom_site_label
_atom_site_fract_x
_atom_site_fract_y
_atom_site_fract_z
Si Si1 0.862761 0.531260 0.585165
Si Si2 0.129128 0.459073 0.822787
Si Si3 0.000000 0.375177 0.500000
Si Si4 0.481351 0.084919 0.909415
Si Si5 0.424523 0.286976 0.843972
Si Si6 0.138241 0.167568 0.300618
Si Si7 0.843317 0.809155 0.249783
O O1 0.500000 0.546621 0.500000
O O2 0.042430 0.509227 0.717818
O O3 0.907894 0.442724 0.542923
O O4 0.019901 0.620498 0.589165
O O5 0.172993 0.532907 0.902459
O O6 0.838275 0.396507 0.767876
O O7 0.391559 0.380973 0.882205
O O8 0.697536 0.313554 0.388215
O O9 0.554974 0.196547 0.927124
O O10 0.110827 0.082553 0.774336
O O11 0.500000 0.049274 0.000000
O O12 0.625023 0.308435 0.830063
O O13 0.062728 0.248087 0.714056
O O14 0.166116 0.217295 0.227382
#
# Coordination Sequence:
#
# PCOD9128165 Si02
#       7
#     4   4   2   4   4   4   4
#     4  12  24  40  64 100 135 183 225 268 335 408
#     4  11  22  43  68  98 139 176 222 287 344 399
#     4  12  24  36  64  96 138 182 236 258 326 428
#     4  10  23  48  71 100 133 177 235 286 350 414
#     4   9  22  42  70  90 137 175 222 285 346 398
#     4   9  24  42  64  95 134 173 222 289 337 398
#     4  11  21  43  64  97 135 181 220 284 334 407
#
# _framework density 24.541764000000001
#
# number of rings (size 3 to 8) (size 9 to 14) (size 15 to 20)
#    0.923    0.615    3.077    1.846    1.077    0.000 
#    2.769    3.077    0.000    0.000    0.000    0.000 
#    0.000    0.000    0.000    0.000    0.000    0.000 
#
# Total GULP energy -72614.183925 kJ/mol
# GULP energy per Si atom -5585.706456 kJ/mol
# Density = 2.448591 g / cm^3
# Si number density = 24.541764 Si / 1000 Ang^3
#
#
#
# Elastic Constant Matrix: (Units=GPa)
#
#
# Indices 1 2 3 4 5 6 
#
# 1 157.8982 45.9179 37.1052 0.0002 -20.5907 0.0000
# 2 45.9179 97.9507 23.2092 0.0000 -14.8760 0.0000
# 3 37.1052 23.2092 46.0385 0.0007 -19.0746 0.0003
# 4 0.0002 0.0000 0.0007 10.4848 0.0005 -6.6395
# 5 -20.5907 -14.8760 -19.0746 0.0005 55.1867 0.0001
# 6 0.0000 0.0000 0.0003 -6.6395 0.0001 40.8756
#
#
#
# Elastic Compliance Matrix: (Units=1/GPa)
#
#
# Indices 1 2 3 4 5 6 
#
# 1 0.008394 -0.002609 -0.005186 0.000000 0.000636 0.000000
# 2 -0.002609 0.012485 -0.003735 0.000000 0.001101 0.000000
# 3 -0.005186 -0.003735 0.031005 -0.000003 0.007775 -0.000001
# 4 0.000000 0.000000 -0.000003 0.106311 -0.000002 0.017268
# 5 0.000636 0.001101 0.007775 -0.000002 0.021342 0.000000
# 6 0.000000 0.000000 -0.000001 0.017268 0.000000 0.027269
#
#
# Mechanical properties :
#
#
# Convention : Reuss Voigt Hill
#
# Bulk Modulus (GPa) = 34.69476 57.15021 45.92249
# Shear Modulus (GPa) = 20.87925 34.35309 27.61617
#
# Velocity S-wave (km/s) = 2.91995 3.74542 3.35815
# Velocity P-wave (km/s) = 5.05330 6.48396 5.81281
#
# Compressibility (1/GPa) = 0.02882280
#
# Stress axis : x y z
#
# Youngs Moduli (GPa) = 119.13778 80.09882 32.25328
#
# Poissons Ratio (x) = 0.20901 0.16727
# Poissons Ratio (y) = 0.31088 0.12045
# Poissons Ratio (z) = 0.61785 0.29913
#
# Static dielectric constant tensor:
#      x y z
#    x 1.906660 0.000000 0.058020 
#    y 0.000000 1.924340 0.000000 
#    z 0.058020 0.000000 1.984750 
# 
# From -- ./inp_files/58818.got.cif
#   From: 2010.05.17/outbox.cif.g08.bks.cpg/sg5_30_cif.got.tgz:58818.got - 2010.06.03 18:56:24.
