data_PCOD9128943
_publ_section_title
;
Structure prediction by ZEFSAII (Michael W. Deem and Ramdas Pophale) SiO2 
 PCOD9128943
Probable space group: C 2
;
_chemical_formula_sum "Si O2"
_cell_formula_units_Z 18
_cell_length_a 5.335826
_cell_length_b 24.974880
_cell_length_c 5.326708
_cell_angle_alpha 90.000000
_cell_angle_beta 92.393292
_cell_angle_gamma 90.000000
_cell_volume 709.226526
_symmetry_space_group_name_H-M "C 2"
_symmetry_group_IT_number 5
_symmetry_cell_setting 'monoclinic'
loop_
_space_group_symop_operation_xyz
x,y,z
-x,y,-z
1/2+x,1/2+y,z
1/2-x,1/2+y,-z
loop_
_atom_site_type_symbol
_atom_site_label
_atom_site_fract_x
_atom_site_fract_y
_atom_site_fract_z
Si Si1 0.258275 0.862310 0.168660
Si Si2 0.857986 0.132883 0.238884
Si Si3 0.158671 0.746696 0.263190
Si Si4 0.745088 0.979885 0.827602
Si Si5 0.500000 0.065452 0.500000
O O1 0.500000 0.860410 0.000000
O O2 0.260581 0.806443 0.316807
O O3 0.258412 0.920415 0.296906
O O4 0.000000 0.862342 0.000000
O O5 0.841266 0.197190 0.227292
O O6 0.595215 0.103803 0.280628
O O7 0.000000 0.120884 0.500000
O O8 0.000000 0.113443 0.000000
O O9 0.000000 0.731450 0.500000
O O10 0.000000 0.749329 0.000000
O O11 0.707271 0.025120 0.619045
O O12 0.500000 0.982814 0.000000
O O13 0.000000 0.985157 0.000000
#
# Coordination Sequence:
#
# PCOD9128943 Si02
#       5
#     4   4   4   4   2
#     4   9  20  45  74 110 151 200 255 322 396 473
#     4  12  29  49  78 114 156 209 269 330 403 475
#     4  11  23  47  76 113 153 199 256 328 401 477
#     4  10  25  49  77 111 158 209 267 330 399 474
#     4  12  30  48  74 116 160 212 276 328 396 484
#
# _framework density 25.379760999999998
#
# number of rings (size 3 to 8) (size 9 to 14) (size 15 to 20)
#    0.000    1.333    1.111    2.000    6.222    1.778 
#   22.000    0.000    0.000    0.000    0.000    0.000 
#    0.000    0.000    0.000    0.000    0.000    0.000 
#
# Total GULP energy -50404.721838 kJ/mol
# GULP energy per Si atom -5600.524649 kJ/mol
# Density = 2.532200 g / cm^3
# Si number density = 25.379761 Si / 1000 Ang^3
#
#
#
# Elastic Constant Matrix: (Units=GPa)
#
#
# Indices 1 2 3 4 5 6 
#
# 1 134.0837 28.1905 47.9175 0.0000 -3.0860 0.0000
# 2 28.1905 208.6055 35.9228 0.0000 -4.7644 0.0000
# 3 47.9175 35.9228 141.6777 0.0000 -13.7037 0.0000
# 4 0.0000 0.0000 0.0000 34.9088 0.0000 1.2788
# 5 -3.0860 -4.7644 -13.7037 0.0000 54.5320 0.0000
# 6 0.0000 0.0000 0.0000 1.2788 0.0000 34.9877
#
#
#
# Elastic Compliance Matrix: (Units=1/GPa)
#
#
# Indices 1 2 3 4 5 6 
#
# 1 0.008581 -0.000692 -0.002753 0.000000 -0.000267 0.000000
# 2 -0.000692 0.005069 -0.001038 0.000000 0.000143 0.000000
# 3 -0.002753 -0.001038 0.008433 0.000000 0.001873 0.000000
# 4 0.000000 0.000000 0.000000 0.028684 0.000000 -0.001048
# 5 -0.000267 0.000143 0.001873 0.000000 0.018806 0.000000
# 6 0.000000 0.000000 0.000000 -0.001048 0.000000 0.028620
#
#
# Mechanical properties :
#
#
# Convention : Reuss Voigt Hill
#
# Bulk Modulus (GPa) = 76.21981 78.71429 77.46705
# Shear Modulus (GPa) = 44.83063 49.70810 47.26936
#
# Velocity S-wave (km/s) = 4.20741 4.43038 4.32033
# Velocity P-wave (km/s) = 7.32803 7.56657 7.44825
#
# Compressibility (1/GPa) = 0.01311995
#
# Stress axis : x y z
#
# Youngs Moduli (GPa) = 116.53615 197.27191 118.57503
#
# Poissons Ratio (x) = 0.13645 0.32639
# Poissons Ratio (y) = 0.08061 0.12302
# Poissons Ratio (z) = 0.32078 0.20467
#
# Static dielectric constant tensor:
#      x y z
#    x 1.828330 0.000000 -0.021860 
#    y 0.000000 2.010870 0.000000 
#    z -0.021860 0.000000 1.916340 
# 
# From -- ./inp_files/1072.got.cif
#   From: 2010.05.17/outbox.cif.g08.bks.cpg/sg5_1_cif.got.tgz:1072.got - 2010.06.03 18:56:24.
