data_PCOD9128860
_publ_section_title
;
Structure prediction by ZEFSAII (Michael W. Deem and Ramdas Pophale) SiO2 
 PCOD9128860
Probable space group: C 2
;
_chemical_formula_sum "Si O2"
_cell_formula_units_Z 22
_cell_length_a 23.085815
_cell_length_b 5.748047
_cell_length_c 11.083864
_cell_angle_alpha 90.000000
_cell_angle_beta 35.685893
_cell_angle_gamma 90.000000
_cell_volume 857.984409
_symmetry_space_group_name_H-M "C 2"
_symmetry_group_IT_number 5
_symmetry_cell_setting 'monoclinic'
loop_
_space_group_symop_operation_xyz
x,y,z
-x,y,-z
1/2+x,1/2+y,z
1/2-x,1/2+y,-z
loop_
_atom_site_type_symbol
_atom_site_label
_atom_site_fract_x
_atom_site_fract_y
_atom_site_fract_z
Si Si1 0.882753 0.329810 0.230277
Si Si2 0.670507 0.351736 0.257900
Si Si3 0.391313 0.330618 0.126595
Si Si4 0.807562 0.987928 0.046157
Si Si5 0.884773 0.248880 0.507035
Si Si6 0.000000 0.494216 0.500000
O O1 0.845347 0.578017 0.238898
O O2 0.878316 0.329405 0.382295
O O3 0.842543 0.073913 0.256999
O O4 0.000000 0.322276 0.000000
O O5 0.618757 0.477518 0.456832
O O6 0.596447 0.153285 0.335621
O O7 0.774546 0.251354 0.127775
O O8 0.684479 0.490418 0.110776
O O9 0.395468 0.381120 0.976102
O O10 0.500000 0.323071 0.000000
O O11 0.714014 0.839629 0.256076
O O12 0.982047 0.341346 0.411654
#
# Coordination Sequence:
#
# PCOD9128860 Si02
#       6
#     4   4   4   4   4   2
#     4  10  25  45  71 105 143 198 253 309 377 438
#     4  11  24  46  73 112 148 199 244 324 389 453
#     4  10  25  45  72 107 142 201 251 312 372 455
#     4  11  25  44  75 107 152 191 255 310 392 452
#     4  11  25  45  70 108 151 193 254 314 378 463
#     4  10  26  40  74 108 142 196 248 316 388 448
#
# _framework density 25.641493000000001
#
# number of rings (size 3 to 8) (size 9 to 14) (size 15 to 20)
#    0.000    1.455    1.818    0.545   12.727    5.818 
#    0.000    0.000    0.000    0.000    0.000    0.000 
#    0.000    0.000    0.000    0.000    0.000    0.000 
#
# Total GULP energy -61433.801226 kJ/mol
# GULP energy per Si atom -5584.891021 kJ/mol
# Density = 2.558313 g / cm^3
# Si number density = 25.641493 Si / 1000 Ang^3
#
#
#
# Elastic Constant Matrix: (Units=GPa)
#
#
# Indices 1 2 3 4 5 6 
#
# 1 126.4637 53.0655 31.1442 -0.0001 27.2320 -0.0002
# 2 53.0655 170.5396 17.1340 -0.0073 23.5168 0.0009
# 3 31.1442 17.1340 76.2880 -0.0032 13.1686 0.0007
# 4 -0.0001 -0.0073 -0.0032 21.4959 0.0009 -7.0431
# 5 27.2320 23.5168 13.1686 0.0009 45.3743 0.0002
# 6 -0.0002 0.0009 0.0007 -7.0431 0.0002 40.0468
#
#
#
# Elastic Compliance Matrix: (Units=1/GPa)
#
#
# Indices 1 2 3 4 5 6 
#
# 1 0.010574 -0.002403 -0.003050 -0.000001 -0.004216 0.000000
# 2 -0.002403 0.006920 -0.000214 0.000002 -0.002083 0.000000
# 3 -0.003050 -0.000214 0.014808 0.000002 -0.002357 0.000000
# 4 -0.000001 0.000002 0.000002 0.049365 -0.000002 0.008682
# 5 -0.004216 -0.002083 -0.002357 -0.000002 0.026332 0.000000
# 6 0.000000 0.000000 0.000000 0.008682 0.000000 0.026498
#
#
# Mechanical properties :
#
#
# Convention : Reuss Voigt Hill
#
# Bulk Modulus (GPa) = 47.68638 63.99764 55.84201
# Shear Modulus (GPa) = 32.71822 39.51324 36.11573
#
# Velocity S-wave (km/s) = 3.57597 3.92980 3.75705
# Velocity P-wave (km/s) = 5.97393 6.75307 6.37541
#
# Compressibility (1/GPa) = 0.02097035
#
# Stress axis : x y z
#
# Youngs Moduli (GPa) = 94.56754 144.50875 67.53098
#
# Poissons Ratio (x) = 0.34720 0.20594
# Poissons Ratio (y) = 0.22721 0.01444
# Poissons Ratio (z) = 0.28839 0.03091
#
# Static dielectric constant tensor:
#      x y z
#    x 1.994750 0.000000 -0.059940 
#    y 0.000000 2.234450 0.000000 
#    z -0.059940 0.000000 2.020480 
# 
# From -- ./inp_files/46888.got.cif
#   From: 2010.05.17/outbox.cif.g08.bks.cpg/sg5_24_cif.got.tgz:46888.got - 2010.06.03 18:56:24.
