data_PCOD9128226
_publ_section_title
;
Structure prediction by ZEFSAII (Michael W. Deem and Ramdas Pophale) SiO2 
 PCOD9128226
Probable space group: C 2
;
_chemical_formula_sum "Si O2"
_cell_formula_units_Z 14
_cell_length_a 9.132301
_cell_length_b 10.885095
_cell_length_c 5.868249
_cell_angle_alpha 90.000000
_cell_angle_beta 69.364653
_cell_angle_gamma 90.000000
_cell_volume 545.913263
_symmetry_space_group_name_H-M "C 2"
_symmetry_group_IT_number 5
_symmetry_cell_setting 'monoclinic'
loop_
_space_group_symop_operation_xyz
x,y,z
-x,y,-z
1/2+x,1/2+y,z
1/2-x,1/2+y,-z
loop_
_atom_site_type_symbol
_atom_site_label
_atom_site_fract_x
_atom_site_fract_y
_atom_site_fract_z
Si Si1 0.864354 0.274500 0.747341
Si Si2 0.354284 0.408079 0.428456
Si Si3 0.000000 0.097433 0.000000
Si Si4 0.467321 0.030505 0.263611
O O1 0.712007 0.294284 0.680467
O O2 0.000000 0.230608 0.500000
O O3 0.870292 0.184356 0.955077
O O4 0.918068 0.410300 0.794548
O O5 0.500000 0.371967 0.500000
O O6 0.207556 0.471671 0.636363
O O7 0.418766 0.510820 0.224573
O O8 0.500000 0.085853 0.500000
O O9 0.500000 0.091375 0.000000
#
# Coordination Sequence:
#
# PCOD9128226 Si02
#       4
#     4   4   2   4
#     4   9  21  42  68  96 145 191 225 291 362 425
#     4  10  24  38  71 112 135 182 246 293 355 430
#     4  12  22  40  74 112 130 186 244 294 352 434
#     4   9  19  39  69  95 137 197 226 279 370 423
#
# _framework density 25.645098999999998
#
# number of rings (size 3 to 8) (size 9 to 14) (size 15 to 20)
#    0.000    2.857    1.429    0.857    8.000    0.000 
#    0.000    0.000    0.000  142.286    0.000    0.000 
#    0.000    0.000    0.000    0.000    0.000    0.000 
#
# Total GULP energy -39193.694660 kJ/mol
# GULP energy per Si atom -5599.099237 kJ/mol
# Density = 2.558673 g / cm^3
# Si number density = 25.645099 Si / 1000 Ang^3
#
#
#
# Elastic Constant Matrix: (Units=GPa)
#
#
# Indices 1 2 3 4 5 6 
#
# 1 231.9434 50.4834 74.6277 0.0000 50.4314 0.0000
# 2 50.4834 81.6859 60.4939 0.0000 16.4162 0.0000
# 3 74.6277 60.4939 169.8221 0.0000 31.1705 0.0000
# 4 0.0000 0.0000 0.0000 -12.7371 0.0000 -4.1413
# 5 50.4314 16.4162 31.1705 0.0000 40.5678 0.0000
# 6 0.0000 0.0000 0.0000 -4.1413 0.0000 8.0240
#
#
#
# Elastic Compliance Matrix: (Units=1/GPa)
#
#
# Indices 1 2 3 4 5 6 
#
# 1 0.006461 -0.001993 -0.000935 0.000000 -0.006507 0.000000
# 2 -0.001993 0.017470 -0.005244 0.000000 -0.000563 0.000000
# 3 -0.000935 -0.005244 0.008807 0.000000 -0.003482 0.000000
# 4 0.000000 0.000000 0.000000 -0.067230 0.000000 -0.034698
# 5 -0.006507 -0.000563 -0.003482 0.000000 0.035642 0.000000
# 6 0.000000 0.000000 0.000000 -0.034698 0.000000 0.106718
#
#
# Mechanical properties :
#
#
# Convention : Reuss Voigt Hill
#
# Bulk Modulus (GPa) = 60.99892 94.96239 77.98066
# Shear Modulus (GPa) = 38.55739 27.02739 32.79239
#
# Velocity S-wave (km/s) = 3.88170 3.24991 3.57977
# Velocity P-wave (km/s) = 6.62779 7.15488 6.89637
#
# Compressibility (1/GPa) = 0.01639373
#
# Stress axis : x y z
#
# Youngs Moduli (GPa) = 154.78135 57.23952 113.55073
#
# Poissons Ratio (x) = 0.11407 0.10617
# Poissons Ratio (y) = 0.30845 0.59549
# Poissons Ratio (z) = 0.14472 0.30018
#
# Static dielectric constant tensor:
#      x y z
#    x 2.093490 0.000000 0.003730 
#    y 0.000000 1.982230 0.000000 
#    z 0.003730 0.000000 2.115650 
# 
# From -- ./inp_files/1553.got.cif
#   From: 2010.05.17/outbox.cif.g08.bks.cpg/sg5_1_cif.got.tgz:1553.got - 2010.06.03 18:56:24.
