data_PCOD9128191
_publ_section_title
;
Structure prediction by ZEFSAII (Michael W. Deem and Ramdas Pophale) SiO2 
 PCOD9128191
Probable space group: C 2
;
_chemical_formula_sum "Si O2"
_cell_formula_units_Z 24
_cell_length_a 16.243276
_cell_length_b 6.780875
_cell_length_c 14.847820
_cell_angle_alpha 90.000000
_cell_angle_beta 34.950132
_cell_angle_gamma 90.000000
_cell_volume 936.856399
_symmetry_space_group_name_H-M "C 2"
_symmetry_group_IT_number 5
_symmetry_cell_setting 'monoclinic'
loop_
_space_group_symop_operation_xyz
x,y,z
-x,y,-z
1/2+x,1/2+y,z
1/2-x,1/2+y,-z
loop_
_atom_site_type_symbol
_atom_site_label
_atom_site_fract_x
_atom_site_fract_y
_atom_site_fract_z
Si Si1 0.154368 0.630740 0.324466
Si Si2 0.359071 0.794265 0.446856
Si Si3 0.946643 0.648444 0.766181
Si Si4 0.592800 0.533114 0.309545
Si Si5 0.397052 0.213168 0.009287
Si Si6 0.389969 0.507752 0.253405
O O1 0.137756 0.868826 0.342202
O O2 0.285677 0.562740 0.264965
O O3 0.000000 0.558712 0.500000
O O4 0.167632 0.580965 0.207277
O O5 0.195095 0.823199 0.623732
O O6 0.452425 0.670210 0.434971
O O7 0.387454 0.686091 0.326486
O O8 0.418221 0.016076 0.383933
O O9 0.911681 0.601497 0.899864
O O10 0.557485 0.381787 0.256788
O O11 0.731668 0.671939 0.179890
O O12 0.464697 0.424062 0.919594
O O13 0.500000 0.146162 0.000000
#
# Coordination Sequence:
#
# PCOD9128191 Si02
#       6
#     4   4   4   4   4   4
#     4  10  23  49  77 117 152 195 261 330 380 458
#     4  12  26  49  84 113 156 202 258 333 397 450
#     4  10  25  51  76 111 152 202 264 321 379 470
#     4  10  27  51  76 110 156 212 251 312 394 467
#     4  12  29  49  73 115 156 211 260 312 388 464
#     4  12  26  48  81 120 157 197 267 330 383 467
#
# _framework density 25.617585999999999
#
# number of rings (size 3 to 8) (size 9 to 14) (size 15 to 20)
#    1.000    0.000    3.333    1.000    9.333    1.333 
#    3.000    0.000    0.000    0.000    0.000    0.000 
#    0.000    0.000    0.000    0.000    0.000    0.000 
#
# Total GULP energy -66952.696558 kJ/mol
# GULP energy per Si atom -5579.391380 kJ/mol
# Density = 2.555928 g / cm^3
# Si number density = 25.617586 Si / 1000 Ang^3
#
#
#
# Elastic Constant Matrix: (Units=GPa)
#
#
# Indices 1 2 3 4 5 6 
#
# 1 138.9270 62.0986 43.1353 -0.0001 11.9617 0.0000
# 2 62.0986 123.5340 36.5676 -0.0005 -12.9067 0.0005
# 3 43.1353 36.5676 106.4729 -0.0002 -23.3170 0.0002
# 4 -0.0001 -0.0005 -0.0002 28.7550 0.0001 5.7719
# 5 11.9617 -12.9067 -23.3170 0.0001 50.5765 -0.0001
# 6 0.0000 0.0005 0.0002 5.7719 -0.0001 44.6943
#
#
#
# Elastic Compliance Matrix: (Units=1/GPa)
#
#
# Indices 1 2 3 4 5 6 
#
# 1 0.011223 -0.005039 -0.004092 0.000000 -0.005827 0.000000
# 2 -0.005039 0.011317 -0.001059 0.000000 0.003592 0.000000
# 3 -0.004092 -0.001059 0.012865 0.000000 0.006629 0.000000
# 4 0.000000 0.000000 0.000000 0.035702 0.000000 -0.004611
# 5 -0.005827 0.003592 0.006629 0.000000 0.025123 0.000000
# 6 0.000000 0.000000 0.000000 -0.004611 0.000000 0.022970
#
#
# Mechanical properties :
#
#
# Convention : Reuss Voigt Hill
#
# Bulk Modulus (GPa) = 66.55548 72.50410 69.52979
# Shear Modulus (GPa) = 34.58154 39.94734 37.26444
#
# Velocity S-wave (km/s) = 3.67810 3.95317 3.81812
# Velocity P-wave (km/s) = 6.63888 7.01432 6.82918
#
# Compressibility (1/GPa) = 0.01502506
#
# Stress axis : x y z
#
# Youngs Moduli (GPa) = 89.10651 88.36638 77.72969
#
# Poissons Ratio (x) = 0.44527 0.31807
# Poissons Ratio (y) = 0.44900 0.08229
# Poissons Ratio (z) = 0.36462 0.09355
#
# Static dielectric constant tensor:
#      x y z
#    x 2.085370 0.000000 0.057340 
#    y 0.000000 2.034030 0.000000 
#    z 0.057340 0.000000 2.015120 
# 
# From -- ./inp_files/54070.got.cif
#   From: 2010.05.17/outbox.cif.g08.bks.cpg/sg5_28_cif.got.tgz:54070.got - 2010.06.03 18:56:24.
