data_PCOD9128130
_publ_section_title
;
Structure prediction by ZEFSAII (Michael W. Deem and Ramdas Pophale) SiO2 
 PCOD9128130
Probable space group: C 2
;
_chemical_formula_sum "Si O2"
_cell_formula_units_Z 28
_cell_length_a 17.221444
_cell_length_b 4.969586
_cell_length_c 22.463247
_cell_angle_alpha 90.000000
_cell_angle_beta 147.634655
_cell_angle_gamma 90.000000
_cell_volume 1029.135453
_symmetry_space_group_name_H-M "C 2"
_symmetry_group_IT_number 5
_symmetry_cell_setting 'monoclinic'
loop_
_space_group_symop_operation_xyz
x,y,z
-x,y,-z
1/2+x,1/2+y,z
1/2-x,1/2+y,-z
loop_
_atom_site_type_symbol
_atom_site_label
_atom_site_fract_x
_atom_site_fract_y
_atom_site_fract_z
Si Si1 0.336638 0.845550 0.985274
Si Si2 0.867111 0.570758 0.826641
Si Si3 0.000000 0.846452 0.500000
Si Si4 0.582717 0.693437 0.833927
Si Si5 0.093692 0.105766 0.444127
Si Si6 0.288645 0.561453 0.707504
Si Si7 0.565918 0.101169 0.345293
Si Si8 0.500000 0.440575 0.000000
O O1 0.189082 0.986375 0.870106
O O2 0.333267 0.720017 0.048729
O O3 0.461450 0.069251 0.076273
O O4 0.787694 0.759222 0.728724
O O5 0.877276 0.738149 0.893793
O O6 0.817143 0.267212 0.781840
O O7 0.004861 0.024583 0.444156
O O8 0.139675 0.658197 0.584712
O O9 0.423930 0.589394 0.750611
O O10 0.544744 0.967080 0.773724
O O11 0.910462 0.137852 0.986500
O O12 0.266534 0.081826 0.568635
O O13 0.058825 0.399476 0.397086
O O14 0.055013 0.897038 0.366164
#
# Coordination Sequence:
#
# PCOD9128130 Si02
#       8
#     4   4   2   4   4   4   4   2
#     4  11  26  47  79 112 156 206 264 308 387 464
#     4  11  24  48  69 111 151 201 246 314 386 449
#     4  12  26  52  76 118 142 204 252 324 372 456
#     4  11  23  49  73 110 146 211 244 313 370 463
#     4  10  24  45  73 104 140 188 248 300 372 444
#     4  11  26  45  77 107 154 197 259 311 383 457
#     4  10  23  47  70 102 146 189 238 309 369 441
#     4  12  24  50  76 116 164 196 254 336 376 466
#
# _framework density 27.207304000000001
#
# number of rings (size 3 to 8) (size 9 to 14) (size 15 to 20)
#    0.000    1.143    4.286    1.286    0.000    8.000 
#    5.143    0.000    0.000    0.000    0.000    0.000 
#    0.000    0.000    0.000    0.000    0.000    0.000 
#
# Total GULP energy -78459.485684 kJ/mol
# GULP energy per Si atom -5604.248977 kJ/mol
# Density = 2.714538 g / cm^3
# Si number density = 27.207304 Si / 1000 Ang^3
#
#
#
# Elastic Constant Matrix: (Units=GPa)
#
#
# Indices 1 2 3 4 5 6 
#
# 1 112.9346 28.2883 43.9127 0.0002 -2.4401 0.0008
# 2 28.2883 107.3527 41.0125 0.0010 6.4033 0.0116
# 3 43.9127 41.0125 122.4524 -0.0003 19.1202 -0.0009
# 4 0.0002 0.0010 -0.0003 33.5184 0.0001 0.0381
# 5 -2.4401 6.4033 19.1202 0.0001 39.6014 0.0005
# 6 0.0008 0.0116 -0.0009 0.0381 0.0005 32.3634
#
#
#
# Elastic Compliance Matrix: (Units=1/GPa)
#
#
# Indices 1 2 3 4 5 6 
#
# 1 0.010769 -0.001562 -0.003766 0.000000 0.002734 0.000000
# 2 -0.001562 0.010909 -0.003031 0.000000 -0.000396 -0.000004
# 3 -0.003766 -0.003031 0.011347 0.000000 -0.005221 0.000002
# 4 0.000000 0.000000 0.000000 0.029834 0.000000 -0.000035
# 5 0.002734 -0.000396 -0.005221 0.000000 0.028005 0.000000
# 6 0.000000 -0.000004 0.000002 -0.000035 0.000000 0.030899
#
#
# Mechanical properties :
#
#
# Convention : Reuss Voigt Hill
#
# Bulk Modulus (GPa) = 61.32553 63.24076 62.28315
# Shear Modulus (GPa) = 34.74213 36.39841 35.57027
#
# Velocity S-wave (km/s) = 3.57731 3.66159 3.61969
# Velocity P-wave (km/s) = 6.29697 6.41645 6.35699
#
# Compressibility (1/GPa) = 0.01630642
#
# Stress axis : x y z
#
# Youngs Moduli (GPa) = 92.85654 91.67160 88.12677
#
# Poissons Ratio (x) = 0.14322 0.33186
# Poissons Ratio (y) = 0.14507 0.26715
# Poissons Ratio (z) = 0.34967 0.27789
#
# Static dielectric constant tensor:
#      x y z
#    x 2.180040 0.000000 -0.084480 
#    y 0.000000 2.125780 0.000000 
#    z -0.084480 0.000000 2.143610 
# 
# From -- ./inp_files/70810.got.cif
#   From: 2010.05.17/outbox.cif.g08.bks.cpg/sg5_36_cif.got.tgz:70810.got - 2010.06.03 18:56:24.
