data_PCOD9128757
_publ_section_title
;
Structure prediction by ZEFSAII (Michael W. Deem and Ramdas Pophale) SiO2 
 PCOD9128757
Probable space group: C 2
;
_chemical_formula_sum "Si O2"
_cell_formula_units_Z 28
_cell_length_a 24.229121
_cell_length_b 5.343399
_cell_length_c 9.772272
_cell_angle_alpha 90.000000
_cell_angle_beta 66.405899
_cell_angle_gamma 90.000000
_cell_volume 1159.411916
_symmetry_space_group_name_H-M "C 2"
_symmetry_group_IT_number 5
_symmetry_cell_setting 'monoclinic'
loop_
_space_group_symop_operation_xyz
x,y,z
-x,y,-z
1/2+x,1/2+y,z
1/2-x,1/2+y,-z
loop_
_atom_site_type_symbol
_atom_site_label
_atom_site_fract_x
_atom_site_fract_y
_atom_site_fract_z
Si Si1 0.175545 0.641300 0.666651
Si Si2 0.692060 0.818506 0.388529
Si Si3 0.593051 0.465474 0.561471
Si Si4 0.492319 0.814990 0.777606
Si Si5 0.500000 0.169426 0.000000
Si Si6 0.889825 0.579091 0.992849
Si Si7 0.282555 0.105261 0.913817
Si Si8 0.000000 0.620433 0.500000
O O1 0.244858 0.693405 0.633747
O O2 0.171437 0.451003 0.547018
O O3 0.137718 0.868355 0.636698
O O4 0.148895 0.546388 0.834366
O O5 0.636237 0.631277 0.419999
O O6 0.707390 0.011480 0.251262
O O7 0.537047 0.593787 0.697076
O O8 0.557325 0.273668 0.499172
O O9 0.526667 0.995755 0.851880
O O10 0.481465 0.951303 0.645337
O O11 0.426769 0.830719 0.913105
O O12 0.442633 0.278972 0.981088
O O13 0.847113 0.663683 0.915182
O O14 0.256160 0.857324 0.019506
#
# Coordination Sequence:
#
# PCOD9128757 Si02
#       8
#     4   4   4   4   2   4   4   2
#     4  12  26  51  78 113 155 206 272 332 401 487
#     4  12  28  48  78 115 158 205 268 330 405 487
#     4  12  27  46  80 113 151 210 262 329 405 485
#     4  10  25  50  70 109 154 199 256 325 394 480
#     4   8  20  44  74  98 142 192 248 330 386 456
#     4  10  24  50  72 111 153 201 263 329 399 479
#     4  12  30  52  80 114 162 211 265 333 412 483
#     4  12  26  46  76 110 158 198 258 320 402 490
#
# _framework density 24.150174
#
# number of rings (size 3 to 8) (size 9 to 14) (size 15 to 20)
#    0.857    0.000    2.857    3.000   10.000    1.143 
#    2.571    0.000    0.000    0.000    0.000    0.000 
#    0.000    0.000    0.000    0.000    0.000    0.000 
#
# Total GULP energy -78126.002134 kJ/mol
# GULP energy per Si atom -5580.428724 kJ/mol
# Density = 2.409521 g / cm^3
# Si number density = 24.150174 Si / 1000 Ang^3
#
#
#
# Elastic Constant Matrix: (Units=GPa)
#
#
# Indices 1 2 3 4 5 6 
#
# 1 110.6445 18.5549 -1.5223 0.0000 3.6513 0.0000
# 2 18.5549 64.2019 33.5424 0.0000 -8.1700 0.0000
# 3 -1.5223 33.5424 96.7228 0.0000 0.0793 0.0000
# 4 0.0000 0.0000 0.0000 -31.9810 0.0000 23.1910
# 5 3.6513 -8.1700 0.0793 0.0000 43.6270 0.0000
# 6 0.0000 0.0000 0.0000 23.1910 0.0000 2.8087
#
#
#
# Elastic Compliance Matrix: (Units=1/GPa)
#
#
# Indices 1 2 3 4 5 6 
#
# 1 0.009741 -0.003774 0.001463 0.000000 -0.001525 0.000000
# 2 -0.003774 0.021059 -0.007366 0.000000 0.004273 0.000000
# 3 0.001463 -0.007366 0.012917 0.000000 -0.001525 0.000000
# 4 0.000000 0.000000 0.000000 -0.004475 0.000000 0.036949
# 5 -0.001525 0.004273 -0.001525 0.000000 0.023852 0.000000
# 6 0.000000 0.000000 0.000000 0.036949 0.000000 0.050954
#
#
# Mechanical properties :
#
#
# Convention : Reuss Voigt Hill
#
# Bulk Modulus (GPa) = 41.04307 41.41326 41.22817
# Shear Modulus (GPa) = 35.33007 17.62388 26.47698
#
# Velocity S-wave (km/s) = 3.82898 2.70434 3.31471
# Velocity P-wave (km/s) = 6.04814 5.19006 5.63545
#
# Compressibility (1/GPa) = 0.02436465
#
# Stress axis : x y z
#
# Youngs Moduli (GPa) = 102.65603 47.48673 77.41460
#
# Poissons Ratio (x) = 0.17921 -0.11328
# Poissons Ratio (y) = 0.38741 0.57022
# Poissons Ratio (z) = -0.15021 0.34978
#
# Static dielectric constant tensor:
#      x y z
#    x 1.948040 0.000000 -0.065720 
#    y 0.000000 2.072740 0.000000 
#    z -0.065720 0.000000 2.177920 
# 
# From -- ./inp_files/46786.got.cif
#   From: 2010.05.17/outbox.cif.g08.bks.cpg/sg5_24_cif.got.tgz:46786.got - 2010.06.03 18:56:24.
