data_PCOD9128432
_publ_section_title
;
Structure prediction by ZEFSAII (Michael W. Deem and Ramdas Pophale) SiO2 
 PCOD9128432
Probable space group: C 2
;
_chemical_formula_sum "Si O2"
_cell_formula_units_Z 32
_cell_length_a 11.860198
_cell_length_b 14.627607
_cell_length_c 16.871069
_cell_angle_alpha 90.000000
_cell_angle_beta 150.286517
_cell_angle_gamma 90.000000
_cell_volume 1450.756020
_symmetry_space_group_name_H-M "C 2"
_symmetry_group_IT_number 5
_symmetry_cell_setting 'monoclinic'
loop_
_space_group_symop_operation_xyz
x,y,z
-x,y,-z
1/2+x,1/2+y,z
1/2-x,1/2+y,-z
loop_
_atom_site_type_symbol
_atom_site_label
_atom_site_fract_x
_atom_site_fract_y
_atom_site_fract_z
Si Si1 0.837446 0.080240 0.732243
Si Si2 0.829285 0.214628 0.119808
Si Si3 0.315714 0.021903 0.009774
Si Si4 0.314276 0.270168 0.658073
Si Si5 0.361276 0.832672 0.293107
Si Si6 0.251873 0.059807 0.630216
Si Si7 0.707584 0.822535 0.069253
Si Si8 0.556921 0.027411 0.418970
O O1 0.717767 0.015476 0.593819
O O2 0.642989 0.097043 0.677802
O O3 0.918773 0.169419 0.733779
O O4 0.073359 0.036554 0.907204
O O5 0.794799 0.276337 0.175241
O O6 0.809317 0.272068 0.026507
O O7 0.676343 0.121882 0.027576
O O8 0.539872 0.009847 0.199177
O O9 0.293162 0.932284 0.942507
O O10 0.311277 0.326054 0.738770
O O11 0.286776 0.166414 0.669670
O O12 0.096031 0.292850 0.472293
O O13 0.543964 0.290347 0.751074
O O14 0.419421 0.937067 0.311924
O O15 0.287275 0.053587 0.558353
O O16 0.000000 0.029545 0.500000
O O17 0.500000 0.796741 0.000000
#
# Coordination Sequence:
#
# PCOD9128432 Si02
#       8
#     4   4   4   4   4   4   4   4
#     4   9  21  42  69  99 133 179 228 281 356 409
#     4  10  24  44  66 102 134 176 234 283 345 408
#     4  10  24  45  68  98 142 181 229 288 353 414
#     4  11  23  43  69  98 134 180 229 282 343 418
#     4  11  22  42  69 102 131 175 234 285 337 410
#     4  12  25  43  69 100 137 182 235 285 349 410
#     4  12  26  46  68 100 138 185 231 286 357 416
#     4  11  22  40  71  99 136 178 231 286 344 416
#
# _framework density 22.057464
#
# number of rings (size 3 to 8) (size 9 to 14) (size 15 to 20)
#    0.750    0.500    2.500    4.500    1.750    4.000 
#    0.000    2.500    0.000    0.000    0.000    0.000 
#    0.000    0.000    0.000    0.000    0.000    0.000 
#
# Total GULP energy -89286.318167 kJ/mol
# GULP energy per Si atom -5580.394885 kJ/mol
# Density = 2.200726 g / cm^3
# Si number density = 22.057464 Si / 1000 Ang^3
#
#
#
# Elastic Constant Matrix: (Units=GPa)
#
#
# Indices 1 2 3 4 5 6 
#
# 1 113.3347 6.3376 51.4317 0.0004 24.9224 -0.0018
# 2 6.3376 61.3951 -1.3843 -0.0060 -9.0459 0.0027
# 3 51.4317 -1.3843 105.3133 -0.0123 28.4240 0.0063
# 4 0.0004 -0.0060 -0.0123 25.7416 0.0001 0.4335
# 5 24.9224 -9.0459 28.4240 0.0001 40.0569 0.0005
# 6 -0.0018 0.0027 0.0063 0.4335 0.0005 18.2450
#
#
#
# Elastic Compliance Matrix: (Units=1/GPa)
#
#
# Indices 1 2 3 4 5 6 
#
# 1 0.012082 -0.002040 -0.004668 -0.000003 -0.004665 0.000003
# 2 -0.002040 0.017278 -0.000213 0.000004 0.005322 -0.000003
# 3 -0.004668 -0.000213 0.013608 0.000007 -0.006800 -0.000005
# 4 -0.000003 0.000004 0.000007 0.038863 -0.000002 -0.000923
# 5 -0.004665 0.005322 -0.006800 -0.000002 0.033894 0.000000
# 6 0.000003 -0.000003 -0.000005 -0.000923 0.000000 0.054832
#
#
# Mechanical properties :
#
#
# Convention : Reuss Voigt Hill
#
# Bulk Modulus (GPa) = 34.33443 43.64590 38.99017
# Shear Modulus (GPa) = 25.75910 31.71923 28.73917
#
# Velocity S-wave (km/s) = 3.42104 3.79625 3.61352
# Velocity P-wave (km/s) = 5.58609 6.24865 5.92664
#
# Compressibility (1/GPa) = 0.02912528
#
# Stress axis : x y z
#
# Youngs Moduli (GPa) = 82.76965 57.87752 73.48835
#
# Poissons Ratio (x) = 0.11806 0.34304
# Poissons Ratio (y) = 0.16883 0.01567
# Poissons Ratio (z) = 0.38637 0.01234
#
# Static dielectric constant tensor:
#      x y z
#    x 1.834190 -0.000010 0.024040 
#    y -0.000010 1.820730 0.000000 
#    z 0.024040 0.000000 1.831630 
# 
# From -- ./inp_files/60724.got.cif
#   From: 2010.05.17/outbox.cif.g08.bks.cpg/sg5_31_cif.got.tgz:60724.got - 2010.06.03 18:56:24.
