data_PCOD9128520
_publ_section_title
;
Structure prediction by ZEFSAII (Michael W. Deem and Ramdas Pophale) SiO2 
 PCOD9128520
Probable space group: C 2
;
_chemical_formula_sum "Si O2"
_cell_formula_units_Z 20
_cell_length_a 8.594855
_cell_length_b 6.546269
_cell_length_c 18.225137
_cell_angle_alpha 90.000000
_cell_angle_beta 129.954365
_cell_angle_gamma 90.000000
_cell_volume 786.044595
_symmetry_space_group_name_H-M "C 2"
_symmetry_group_IT_number 5
_symmetry_cell_setting 'monoclinic'
loop_
_space_group_symop_operation_xyz
x,y,z
-x,y,-z
1/2+x,1/2+y,z
1/2-x,1/2+y,-z
loop_
_atom_site_type_symbol
_atom_site_label
_atom_site_fract_x
_atom_site_fract_y
_atom_site_fract_z
Si Si1 0.026988 0.733980 0.625416
Si Si2 0.884335 0.819699 0.890336
Si Si3 0.421877 0.678131 0.551262
Si Si4 0.071824 0.657866 0.804177
Si Si5 0.543753 0.736810 0.272972
O O1 0.016715 0.759256 0.710187
O O2 0.242499 0.626977 0.674495
O O3 0.818666 0.643714 0.531001
O O4 0.026428 0.957179 0.588808
O O5 0.682739 0.677701 0.820391
O O6 0.023270 0.784596 0.861516
O O7 0.793902 0.051176 0.866479
O O8 0.000000 0.774033 0.000000
O O9 0.500000 0.777924 0.500000
O O10 0.469204 0.778042 0.643911
O O11 0.936080 0.451236 0.764349
#
# Coordination Sequence:
#
# PCOD9128520 Si02
#       5
#     4   4   4   4   4
#     4  12  24  42  69 105 150 200 260 319 391 470
#     4  10  24  50  78 109 148 197 260 322 392 464
#     4  12  25  41  66 102 153 203 260 315 393 472
#     4  10  25  48  73 106 149 198 251 317 389 464
#     4  10  24  45  68 104 147 194 258 317 382 466
#
# _framework density 25.443846000000001
#
# number of rings (size 3 to 8) (size 9 to 14) (size 15 to 20)
#    1.200    0.000    0.000    6.600    2.800    3.200 
#    3.600    1.000    0.000    0.000    0.000    0.000 
#    0.000    0.000    0.000    0.000    0.000    0.000 
#
# Total GULP energy -55885.877906 kJ/mol
# GULP energy per Si atom -5588.587791 kJ/mol
# Density = 2.538593 g / cm^3
# Si number density = 25.443846 Si / 1000 Ang^3
#
#
#
# Elastic Constant Matrix: (Units=GPa)
#
#
# Indices 1 2 3 4 5 6 
#
# 1 146.6859 35.7494 84.0790 0.0000 -21.3288 0.0000
# 2 35.7494 43.8159 23.9652 0.0000 -4.7096 0.0000
# 3 84.0790 23.9652 232.1215 0.0000 -17.0375 0.0000
# 4 0.0000 0.0000 0.0000 23.1703 0.0000 -3.7456
# 5 -21.3288 -4.7096 -17.0375 0.0000 42.0367 0.0000
# 6 0.0000 0.0000 0.0000 -3.7456 0.0000 39.7899
#
#
#
# Elastic Compliance Matrix: (Units=1/GPa)
#
#
# Indices 1 2 3 4 5 6 
#
# 1 0.010616 -0.006704 -0.002899 0.000000 0.003460 0.000000
# 2 -0.006704 0.028548 -0.000550 0.000000 -0.000426 0.000000
# 3 -0.002899 -0.000550 0.005465 0.000000 0.000682 0.000000
# 4 0.000000 0.000000 0.000000 0.043826 0.000000 0.004126
# 5 0.003460 -0.000426 0.000682 0.000000 0.025773 0.000000
# 6 0.000000 0.000000 0.000000 0.004126 0.000000 0.025520
#
#
# Mechanical properties :
#
#
# Convention : Reuss Voigt Hill
#
# Bulk Modulus (GPa) = 41.11528 78.91225 60.01377
# Shear Modulus (GPa) = 29.73309 39.58801 34.66055
#
# Velocity S-wave (km/s) = 3.42215 3.94877 3.69485
# Velocity P-wave (km/s) = 5.63996 7.20222 6.46843
#
# Compressibility (1/GPa) = 0.02432186
#
# Stress axis : x y z
#
# Youngs Moduli (GPa) = 94.19650 35.02902 182.97753
#
# Poissons Ratio (x) = 0.23483 0.53049
# Poissons Ratio (y) = 0.63149 0.10070
# Poissons Ratio (z) = 0.27310 0.01928
#
# Static dielectric constant tensor:
#      x y z
#    x 2.024730 0.000000 0.050590 
#    y 0.000000 2.174440 0.000000 
#    z 0.050590 0.000000 1.918790 
# 
# From -- ./inp_files/34748.got.cif
#   From: 2010.05.17/outbox.cif.g08.bks.cpg/sg5_18_cif.got.tgz:34748.got - 2010.06.03 18:56:24.
