data_PCOD9128153
_publ_section_title
;
Structure prediction by ZEFSAII (Michael W. Deem and Ramdas Pophale) SiO2 
 PCOD9128153
Probable space group: C 2
;
_chemical_formula_sum "Si O2"
_cell_formula_units_Z 18
_cell_length_a 25.488045
_cell_length_b 4.997173
_cell_length_c 10.434314
_cell_angle_alpha 90.000000
_cell_angle_beta 34.503978
_cell_angle_gamma 90.000000
_cell_volume 752.829637
_symmetry_space_group_name_H-M "C 2"
_symmetry_group_IT_number 5
_symmetry_cell_setting 'monoclinic'
loop_
_space_group_symop_operation_xyz
x,y,z
-x,y,-z
1/2+x,1/2+y,z
1/2-x,1/2+y,-z
loop_
_atom_site_type_symbol
_atom_site_label
_atom_site_fract_x
_atom_site_fract_y
_atom_site_fract_z
Si Si1 0.000000 0.292701 0.500000
Si Si2 0.748783 0.467881 0.591115
Si Si3 0.094159 0.353111 0.546498
Si Si4 0.745533 0.523374 0.103453
Si Si5 0.398783 0.706714 0.936920
O O1 0.059089 0.467568 0.480415
O O2 0.842629 0.106056 0.631798
O O3 0.744609 0.679694 0.485504
O O4 0.660309 0.509355 0.859184
O O5 0.838613 0.516217 0.498607
O O6 0.938059 0.115515 0.719457
O O7 0.995453 0.286780 0.809880
O O8 0.828753 0.440838 0.032309
O O9 0.734174 0.276696 0.028592
#
# Coordination Sequence:
#
# PCOD9128153 Si02
#       5
#     2   4   4   4   4
#     4   8  20  44  80 120 144 184 242 314 430 408
#     4  12  28  54  76 104 152 216 260 292 360 446
#     4  10  23  47  76 115 151 190 248 318 375 453
#     4  12  22  42  74 110 158 192 228 304 394 460
#     4  10  23  47  76 115 151 190 248 318 375 453
#
# _framework density 23.909793000000001
#
# number of rings (size 3 to 8) (size 9 to 14) (size 15 to 20)
#    1.333    0.000    2.222    2.667    0.000    0.889 
#    0.000   47.778    0.000    0.000    0.000    0.000 
#    0.000    0.000    0.000    0.000    0.000    0.000 
#
# Total GULP energy -50213.326679 kJ/mol
# GULP energy per Si atom -5579.258520 kJ/mol
# Density = 2.385537 g / cm^3
# Si number density = 23.909793 Si / 1000 Ang^3
#
#
#
# Elastic Constant Matrix: (Units=GPa)
#
#
# Indices 1 2 3 4 5 6 
#
# 1 109.2016 11.4954 51.2344 -0.0001 -3.5810 0.0000
# 2 11.4954 78.6776 13.8245 -0.0005 -0.7660 0.0001
# 3 51.2344 13.8245 138.7756 0.0006 -31.0193 0.0000
# 4 -0.0001 -0.0005 0.0006 28.9003 0.0001 -2.2591
# 5 -3.5810 -0.7660 -31.0193 0.0001 45.1308 0.0000
# 6 0.0000 0.0001 0.0000 -2.2591 0.0000 25.6555
#
#
#
# Elastic Compliance Matrix: (Units=1/GPa)
#
#
# Indices 1 2 3 4 5 6 
#
# 1 0.011336 -0.000869 -0.004609 0.000000 -0.002283 0.000000
# 2 -0.000869 0.013027 -0.001114 0.000000 -0.000614 0.000000
# 3 -0.004609 -0.001114 0.010554 0.000000 0.006869 0.000000
# 4 0.000000 0.000000 0.000000 0.034842 0.000000 0.003068
# 5 -0.002283 -0.000614 0.006869 0.000000 0.026688 0.000000
# 6 0.000000 0.000000 0.000000 0.003068 0.000000 0.039248
#
#
# Mechanical properties :
#
#
# Convention : Reuss Voigt Hill
#
# Bulk Modulus (GPa) = 46.01228 53.30704 49.65966
# Shear Modulus (GPa) = 32.02609 36.61069 34.31839
#
# Velocity S-wave (km/s) = 3.66383 3.91730 3.79268
# Velocity P-wave (km/s) = 6.09787 6.54246 6.32408
#
# Compressibility (1/GPa) = 0.02173333
#
# Stress axis : x y z
#
# Youngs Moduli (GPa) = 88.21138 76.76470 94.75158
#
# Poissons Ratio (x) = 0.06669 0.43672
# Poissons Ratio (y) = 0.07663 0.10557
# Poissons Ratio (z) = 0.40657 0.08553
#
# Static dielectric constant tensor:
#      x y z
#    x 1.944330 0.000000 -0.056260 
#    y 0.000000 1.917440 0.000000 
#    z -0.056260 0.000000 1.994210 
# 
# From -- ./inp_files/45282.got.cif
#   From: 2010.05.17/outbox.cif.g08.bks.cpg/sg5_23_cif.got.tgz:45282.got - 2010.06.03 18:56:24.
