data_PCOD9128952
_publ_section_title
;
Structure prediction by ZEFSAII (Michael W. Deem and Ramdas Pophale) SiO2 
 PCOD9128952
Probable space group: C 2
;
_chemical_formula_sum "Si O2"
_cell_formula_units_Z 16
_cell_length_a 5.140785
_cell_length_b 23.328277
_cell_length_c 5.043392
_cell_angle_alpha 90.000000
_cell_angle_beta 84.006814
_cell_angle_gamma 90.000000
_cell_volume 601.526278
_symmetry_space_group_name_H-M "C 2"
_symmetry_group_IT_number 5
_symmetry_cell_setting 'monoclinic'
loop_
_space_group_symop_operation_xyz
x,y,z
-x,y,-z
1/2+x,1/2+y,z
1/2-x,1/2+y,-z
loop_
_atom_site_type_symbol
_atom_site_label
_atom_site_fract_x
_atom_site_fract_y
_atom_site_fract_z
Si Si1 0.285223 0.753480 0.336394
Si Si2 0.731659 0.449867 0.192299
Si Si3 0.500000 0.554565 0.500000
Si Si4 0.500000 0.861987 0.500000
Si Si5 0.169531 0.638663 0.215202
O O1 0.500000 0.722079 0.500000
O O2 0.442319 0.812956 0.280694
O O3 0.238249 0.704229 0.127948
O O4 0.000000 0.767829 0.500000
O O5 0.698591 0.510879 0.338017
O O6 0.773744 0.405454 0.432290
O O7 0.500000 0.440224 0.000000
O O8 0.000000 0.446045 0.000000
O O9 0.389153 0.595462 0.285319
O O10 0.000000 0.646051 0.500000
O O11 0.000000 0.613269 0.000000
#
# Coordination Sequence:
#
# PCOD9128952 Si02
#       5
#     4   4   2   2   4
#     4   9  21  46  76 111 152 198 257 326 400 474
#     4  12  30  47  77 117 157 216 275 325 399 477
#     4  12  29  50  76 112 169 208 268 338 398 478
#     4  10  25  50  76 110 161 202 262 334 396 478
#     4  11  27  50  81 118 159 207 267 331 410 485
#
# _framework density 26.599004999999998
#
# number of rings (size 3 to 8) (size 9 to 14) (size 15 to 20)
#    0.750    0.500    1.250    1.500   14.000    1.000 
#    4.500    0.000    0.000    0.000    0.000    0.000 
#    0.000    0.000    0.000    0.000    0.000    0.000 
#
# Total GULP energy -44581.086941 kJ/mol
# GULP energy per Si atom -5572.635868 kJ/mol
# Density = 2.653846 g / cm^3
# Si number density = 26.599005 Si / 1000 Ang^3
#
#
#
# Elastic Constant Matrix: (Units=GPa)
#
#
# Indices 1 2 3 4 5 6 
#
# 1 187.7181 49.1532 79.6619 0.0000 32.0469 0.0000
# 2 49.1532 229.2816 48.0182 0.0000 42.8467 0.0000
# 3 79.6619 48.0182 135.9139 0.0000 22.7757 0.0000
# 4 0.0000 0.0000 0.0000 -22.8572 0.0000 40.4784
# 5 32.0469 42.8467 22.7757 0.0000 70.4101 0.0000
# 6 0.0000 0.0000 0.0000 40.4784 0.0000 73.5239
#
#
#
# Elastic Compliance Matrix: (Units=1/GPa)
#
#
# Indices 1 2 3 4 5 6 
#
# 1 0.007400 -0.000428 -0.003876 0.000000 -0.001854 0.000000
# 2 -0.000428 0.005176 -0.001144 0.000000 -0.002585 0.000000
# 3 -0.003876 -0.001144 0.010173 0.000000 -0.000830 0.000000
# 4 0.000000 0.000000 0.000000 -0.022152 0.000000 0.012196
# 5 -0.001854 -0.002585 -0.000830 0.000000 0.016888 0.000000
# 6 0.000000 0.000000 0.000000 0.012196 0.000000 0.006887
#
#
# Mechanical properties :
#
#
# Convention : Reuss Voigt Hill
#
# Bulk Modulus (GPa) = 84.37236 100.73113 92.55175
# Shear Modulus (GPa) = 127.48983 49.28738 88.38860
#
# Velocity S-wave (km/s) = 6.93068 4.30929 5.77080
# Velocity P-wave (km/s) = 9.78952 7.91912 8.90357
#
# Compressibility (1/GPa) = 0.01185222
#
# Stress axis : x y z
#
# Youngs Moduli (GPa) = 135.12638 193.20106 98.30346
#
# Poissons Ratio (x) = 0.08277 0.38098
# Poissons Ratio (y) = 0.05789 0.11250
# Poissons Ratio (z) = 0.52369 0.22111
#
# Static dielectric constant tensor:
#      x y z
#    x 2.229770 0.000000 -0.117490 
#    y 0.000000 2.073460 0.000000 
#    z -0.117490 0.000000 2.236520 
# 
# From -- ./inp_files/890.got.cif
#   From: 2010.05.17/outbox.cif.g08.bks.cpg/sg5_1_cif.got.tgz:890.got - 2010.06.03 18:56:24.
