data_PCOD9128977
_publ_section_title
;
Structure prediction by ZEFSAII (Michael W. Deem and Ramdas Pophale) SiO2 
 PCOD9128977
Probable space group: C 2
;
_chemical_formula_sum "Si O2"
_cell_formula_units_Z 30
_cell_length_a 25.004417
_cell_length_b 11.974384
_cell_length_c 13.491092
_cell_angle_alpha 90.000000
_cell_angle_beta 161.210379
_cell_angle_gamma 90.000000
_cell_volume 1301.067808
_symmetry_space_group_name_H-M "C 2"
_symmetry_group_IT_number 5
_symmetry_cell_setting 'monoclinic'
loop_
_space_group_symop_operation_xyz
x,y,z
-x,y,-z
1/2+x,1/2+y,z
1/2-x,1/2+y,-z
loop_
_atom_site_type_symbol
_atom_site_label
_atom_site_fract_x
_atom_site_fract_y
_atom_site_fract_z
Si Si1 0.767412 0.460020 0.954124
Si Si2 0.110353 0.905426 0.336328
Si Si3 0.913132 0.351145 0.576889
Si Si4 0.374033 0.680028 0.361495
Si Si5 0.715728 0.049378 0.516383
Si Si6 0.968800 0.962633 0.288372
Si Si7 0.500000 0.199581 0.000000
Si Si8 0.386525 0.757202 0.897415
O O1 0.757958 0.594433 0.917976
O O2 0.623989 0.414250 0.626634
O O3 0.697076 0.437241 0.940574
O O4 0.943469 0.411117 0.235044
O O5 0.271846 0.865799 0.681444
O O6 0.980577 0.933452 0.194750
O O7 0.157596 0.008568 0.347936
O O8 0.065205 0.799331 0.190225
O O9 0.808095 0.272468 0.319962
O O10 0.824174 0.440834 0.489425
O O11 0.003109 0.269927 0.812795
O O12 0.500000 0.726305 0.500000
O O13 0.491182 0.593916 0.628072
O O14 0.784143 0.143691 0.709793
O O15 0.561250 0.103345 0.187335
O O16 0.500000 0.756167 0.000000
#
# Coordination Sequence:
#
# PCOD9128977 Si02
#       8
#     4   4   4   4   4   4   2   4
#     4   8  18  37  64  89 122 161 202 256 308 363
#     4  11  21  41  64  89 126 166 208 252 315 372
#     4  12  21  40  69  86 122 173 198 257 322 366
#     4   8  19  38  63  93 118 158 212 249 307 374
#     4  11  26  39  60  95 125 159 212 259 308 377
#     4   8  17  37  63  88 124 158 207 254 297 371
#     4  10  26  40  58  98 126 160 210 254 312 370
#     4  11  23  40  61  91 126 164 212 253 313 379
#
# _framework density 23.057983
#
# number of rings (size 3 to 8) (size 9 to 14) (size 15 to 20)
#    0.800    1.333    2.667    0.800    2.800    1.067 
#    0.000   12.000    0.000    0.000    0.000    0.000 
#    0.000    0.000    0.000    0.000    0.000    0.000 
#
# Total GULP energy -83503.966724 kJ/mol
# GULP energy per Si atom -5566.931115 kJ/mol
# Density = 2.300550 g / cm^3
# Si number density = 23.057983 Si / 1000 Ang^3
#
#
#
# Elastic Constant Matrix: (Units=GPa)
#
#
# Indices 1 2 3 4 5 6 
#
# 1 198.4241 79.2775 46.6859 0.0000 -3.0552 0.0000
# 2 79.2775 89.2120 25.6453 0.0000 -17.6492 0.0000
# 3 46.6859 25.6453 32.5005 0.0000 -7.1536 0.0000
# 4 0.0000 0.0000 0.0000 135.5534 0.0000 33.6733
# 5 -3.0552 -17.6492 -7.1536 0.0000 27.7702 0.0000
# 6 0.0000 0.0000 0.0000 33.6733 0.0000 50.0898
#
#
#
# Elastic Compliance Matrix: (Units=1/GPa)
#
#
# Indices 1 2 3 4 5 6 
#
# 1 0.010374 -0.007476 -0.010385 0.000000 -0.006286 0.000000
# 2 -0.007476 0.021143 -0.003357 0.000000 0.011750 0.000000
# 3 -0.010385 -0.003357 0.050477 0.000000 0.009726 0.000000
# 4 0.000000 0.000000 0.000000 0.008856 0.000000 -0.005954
# 5 -0.006286 0.011750 0.009726 0.000000 0.045291 0.000000
# 6 0.000000 0.000000 0.000000 -0.005954 0.000000 0.023966
#
#
# Mechanical properties :
#
#
# Convention : Reuss Voigt Hill
#
# Bulk Modulus (GPa) = 25.28120 69.26156 47.27138
# Shear Modulus (GPa) = 23.17715 53.91789 38.54752
#
# Velocity S-wave (km/s) = 3.17388 4.84091 4.09316
# Velocity P-wave (km/s) = 4.94159 7.83256 6.54860
#
# Compressibility (1/GPa) = 0.03955508
#
# Stress axis : x y z
#
# Youngs Moduli (GPa) = 96.39935 47.29763 19.81109
#
# Poissons Ratio (x) = 0.35362 0.20574
# Poissons Ratio (y) = 0.72072 0.06651
# Poissons Ratio (z) = 1.00113 0.15879
#
# Static dielectric constant tensor:
#      x y z
#    x 1.870680 0.000000 -0.009550 
#    y 0.000000 1.860620 0.000000 
#    z -0.009550 0.000000 1.701470 
# 
# From -- ./inp_files/58193.got.cif
#   From: 2010.05.17/outbox.cif.g08.bks.cpg/sg5_30_cif.got.tgz:58193.got - 2010.06.03 18:56:24.
