data_PCOD9128957
_publ_section_title
;
Structure prediction by ZEFSAII (Michael W. Deem and Ramdas Pophale) SiO2 
 PCOD9128957
Probable space group: C 2
;
_chemical_formula_sum "Si O2"
_cell_formula_units_Z 18
_cell_length_a 14.140097
_cell_length_b 8.510363
_cell_length_c 9.594637
_cell_angle_alpha 90.000000
_cell_angle_beta 34.989708
_cell_angle_gamma 90.000000
_cell_volume 662.077592
_symmetry_space_group_name_H-M "C 2"
_symmetry_group_IT_number 5
_symmetry_cell_setting 'monoclinic'
loop_
_space_group_symop_operation_xyz
x,y,z
-x,y,-z
1/2+x,1/2+y,z
1/2-x,1/2+y,-z
loop_
_atom_site_type_symbol
_atom_site_label
_atom_site_fract_x
_atom_site_fract_y
_atom_site_fract_z
Si Si1 0.039738 0.138780 0.794712
Si Si2 0.256093 0.865010 0.651429
Si Si3 0.330828 0.080602 0.815032
Si Si4 0.338673 0.046434 0.107351
Si Si5 0.500000 0.372475 0.500000
O O1 0.146376 0.258703 0.576655
O O2 0.865211 0.110025 0.933007
O O3 0.342491 0.987084 0.654460
O O4 0.000000 0.194032 0.000000
O O5 0.182158 0.733419 0.844317
O O6 0.134324 0.975788 0.711086
O O7 0.923076 0.747429 0.700716
O O8 0.379226 0.999700 0.899900
O O9 0.500000 0.008138 0.000000
O O10 0.159222 0.970865 0.357413
#
# Coordination Sequence:
#
# PCOD9128957 Si02
#       5
#     4   4   4   4   2
#     4  10  25  50  84 126 171 224 284 355 432 513
#     4  11  26  52  89 128 172 225 287 355 435 514
#     4  11  27  53  79 118 172 228 285 349 421 508
#     4  12  28  52  85 124 171 226 282 351 427 510
#     4  12  30  52  80 116 164 224 284 340 418 500
#
# _framework density 27.187145000000001
#
# number of rings (size 3 to 8) (size 9 to 14) (size 15 to 20)
#    0.000    0.889    0.000    4.667    0.000   23.111 
#    0.000   12.222    0.000    0.000    0.000    0.000 
#    0.000    0.000    0.000    0.000    0.000    0.000 
#
# Total GULP energy -50462.595450 kJ/mol
# GULP energy per Si atom -5606.955050 kJ/mol
# Density = 2.712527 g / cm^3
# Si number density = 27.187145 Si / 1000 Ang^3
#
#
#
# Elastic Constant Matrix: (Units=GPa)
#
#
# Indices 1 2 3 4 5 6 
#
# 1 204.8796 62.0071 79.6849 0.0000 -11.2405 0.0000
# 2 62.0071 198.3564 70.1190 0.0000 -19.2651 0.0000
# 3 79.6849 70.1190 150.8412 0.0000 9.1662 0.0000
# 4 0.0000 0.0000 0.0000 89.9100 0.0000 -10.4958
# 5 -11.2405 -19.2651 9.1662 0.0000 69.2682 0.0000
# 6 0.0000 0.0000 0.0000 -10.4958 0.0000 42.3807
#
#
#
# Elastic Compliance Matrix: (Units=1/GPa)
#
#
# Indices 1 2 3 4 5 6 
#
# 1 0.006385 -0.000788 -0.003081 0.000000 0.001225 0.000000
# 2 -0.000788 0.006438 -0.002699 0.000000 0.002020 0.000000
# 3 -0.003081 -0.002699 0.009666 0.000000 -0.002530 0.000000
# 4 0.000000 0.000000 0.000000 0.011453 0.000000 0.002836
# 5 0.001225 0.002020 -0.002530 0.000000 0.015532 0.000000
# 6 0.000000 0.000000 0.000000 0.002836 0.000000 0.024298
#
#
# Mechanical properties :
#
#
# Convention : Reuss Voigt Hill
#
# Bulk Modulus (GPa) = 106.92808 108.63327 107.78067
# Shear Modulus (GPa) = 55.53941 63.12953 59.33447
#
# Velocity S-wave (km/s) = 4.52470 4.82398 4.67673
# Velocity P-wave (km/s) = 8.16780 8.43042 8.30015
#
# Compressibility (1/GPa) = 0.00935208
#
# Stress axis : x y z
#
# Youngs Moduli (GPa) = 156.61914 155.32518 103.45852
#
# Poissons Ratio (x) = 0.12237 0.31877
# Poissons Ratio (y) = 0.12339 0.27927
# Poissons Ratio (z) = 0.48257 0.41928
#
# Static dielectric constant tensor:
#      x y z
#    x 1.713650 0.000000 -0.068830 
#    y 0.000000 2.105440 0.000000 
#    z -0.068830 0.000000 2.191210 
# 
# From -- ./inp_files/18911.got.cif
#   From: 2010.05.17/outbox.cif.g08.bks.cpg/sg5_10_cif.got.tgz:18911.got - 2010.06.03 18:56:24.
