data_PCOD9128893
_publ_section_title
;
Structure prediction by ZEFSAII (Michael W. Deem and Ramdas Pophale) SiO2 
 PCOD9128893
Probable space group: C 2
;
_chemical_formula_sum "Si O2"
_cell_formula_units_Z 18
_cell_length_a 19.025973
_cell_length_b 7.901775
_cell_length_c 5.184512
_cell_angle_alpha 90.000000
_cell_angle_beta 89.443827
_cell_angle_gamma 90.000000
_cell_volume 779.397409
_symmetry_space_group_name_H-M "C 2"
_symmetry_group_IT_number 5
_symmetry_cell_setting 'monoclinic'
loop_
_space_group_symop_operation_xyz
x,y,z
-x,y,-z
1/2+x,1/2+y,z
1/2-x,1/2+y,-z
loop_
_atom_site_type_symbol
_atom_site_label
_atom_site_fract_x
_atom_site_fract_y
_atom_site_fract_z
Si Si1 0.878954 0.949530 0.306979
Si Si2 0.164587 0.310117 0.513206
Si Si3 0.738335 0.923315 0.029771
Si Si4 0.500000 0.298448 0.000000
Si Si5 0.374261 0.142277 0.696968
O O1 0.956008 0.913061 0.197459
O O2 0.862043 0.799035 0.507358
O O3 0.871519 0.133740 0.428790
O O4 0.820430 0.945911 0.081805
O O5 0.212595 0.371606 0.749734
O O6 0.113851 0.469509 0.463618
O O7 0.210212 0.293202 0.250780
O O8 0.693056 0.088566 0.126192
O O9 0.558517 0.186199 0.136738
#
# Coordination Sequence:
#
# PCOD9128893 Si02
#       5
#     4   4   4   2   4
#     4  12  26  47  75 115 152 199 250 311 382 448
#     4  10  26  46  78 115 144 199 255 314 368 446
#     4  10  25  46  81 111 147 192 257 314 365 443
#     4  12  28  46  78 108 166 196 250 308 392 442
#     4  10  26  50  72 115 149 206 247 319 368 451
#
# _framework density 23.094763
#
# number of rings (size 3 to 8) (size 9 to 14) (size 15 to 20)
#    1.333    0.000    0.000    3.333   12.444    0.000 
#    0.000   16.667    0.000    0.000    0.000    0.000 
#    0.000    0.000    0.000    0.000    0.000    0.000 
#
# Total GULP energy -50362.495936 kJ/mol
# GULP energy per Si atom -5595.832882 kJ/mol
# Density = 2.304220 g / cm^3
# Si number density = 23.094763 Si / 1000 Ang^3
#
#
#
# Elastic Constant Matrix: (Units=GPa)
#
#
# Indices 1 2 3 4 5 6 
#
# 1 115.0466 34.7300 29.9055 0.0000 -1.2884 0.0000
# 2 34.7300 172.4457 27.5676 0.0000 -0.3387 0.0000
# 3 29.9055 27.5676 87.7465 0.0000 0.3984 0.0000
# 4 0.0000 0.0000 0.0000 37.5953 0.0000 5.3879
# 5 -1.2884 -0.3387 0.3984 0.0000 44.3488 0.0000
# 6 0.0000 0.0000 0.0000 5.3879 0.0000 30.1727
#
#
#
# Elastic Compliance Matrix: (Units=1/GPa)
#
#
# Indices 1 2 3 4 5 6 
#
# 1 0.009911 -0.001532 -0.002898 0.000000 0.000302 0.000000
# 2 -0.001532 0.006343 -0.001471 0.000000 0.000017 0.000000
# 3 -0.002898 -0.001471 0.012847 0.000000 -0.000211 0.000000
# 4 0.000000 0.000000 0.000000 0.027298 0.000000 -0.004874
# 5 0.000302 0.000017 -0.000211 0.000000 0.022559 0.000000
# 6 0.000000 0.000000 0.000000 -0.004874 0.000000 0.034013
#
#
# Mechanical properties :
#
#
# Convention : Reuss Voigt Hill
#
# Bulk Modulus (GPa) = 57.80475 62.18279 59.99377
# Shear Modulus (GPa) = 38.30272 41.29241 39.79757
#
# Velocity S-wave (km/s) = 4.07689 4.23301 4.15568
# Velocity P-wave (km/s) = 6.87351 7.13265 7.00428
#
# Compressibility (1/GPa) = 0.01729962
#
# Stress axis : x y z
#
# Youngs Moduli (GPa) = 100.89426 157.66311 77.83860
#
# Poissons Ratio (x) = 0.24158 0.22557
# Poissons Ratio (y) = 0.15460 0.11447
# Poissons Ratio (z) = 0.29239 0.23185
#
# Static dielectric constant tensor:
#      x y z
#    x 1.830620 0.000000 -0.039320 
#    y 0.000000 1.915840 0.000000 
#    z -0.039320 0.000000 1.890450 
# 
# From -- ./inp_files/7892.got.cif
#   From: 2010.05.17/outbox.cif.g08.bks.cpg/sg5_4_cif.got.tgz:7892.got - 2010.06.03 18:56:24.
