data_PCOD9128522
_publ_section_title
;
Structure prediction by ZEFSAII (Michael W. Deem and Ramdas Pophale) SiO2 
 PCOD9128522
Probable space group: C 2
;
_chemical_formula_sum "Si O2"
_cell_formula_units_Z 32
_cell_length_a 18.705595
_cell_length_b 10.986404
_cell_length_c 13.235329
_cell_angle_alpha 90.000000
_cell_angle_beta 34.489499
_cell_angle_gamma 90.000000
_cell_volume 1540.189026
_symmetry_space_group_name_H-M "C 2"
_symmetry_group_IT_number 5
_symmetry_cell_setting 'monoclinic'
loop_
_space_group_symop_operation_xyz
x,y,z
-x,y,-z
1/2+x,1/2+y,z
1/2-x,1/2+y,-z
loop_
_atom_site_type_symbol
_atom_site_label
_atom_site_fract_x
_atom_site_fract_y
_atom_site_fract_z
Si Si1 0.195081 0.859640 0.415488
Si Si2 0.057069 0.453734 0.203360
Si Si3 0.742237 0.439302 0.851201
Si Si4 0.948700 0.958206 0.227105
Si Si5 0.123790 0.521589 0.908946
Si Si6 0.903431 0.234959 0.309877
Si Si7 0.783371 0.767878 0.290275
Si Si8 0.609063 0.099416 0.454930
O O1 0.316202 0.810368 0.335433
O O2 0.121778 0.739440 0.467206
O O3 0.109003 0.930884 0.595452
O O4 0.252409 0.942126 0.260308
O O5 0.168012 0.447859 0.156409
O O6 0.020201 0.319849 0.206090
O O7 0.934481 0.517613 0.398672
O O8 0.098646 0.529509 0.057066
O O9 0.596367 0.427995 0.049105
O O10 0.779908 0.327624 0.734526
O O11 0.767050 0.553405 0.747607
O O12 0.932672 0.102871 0.230566
O O13 0.872288 0.870563 0.238953
O O14 0.141787 0.651176 0.834943
O O15 0.000000 0.465326 0.000000
O O16 0.817560 0.224087 0.510192
O O17 0.500000 0.081474 0.500000
#
# Coordination Sequence:
#
# PCOD9128522 Si02
#       8
#     4   4   4   4   4   4   4   4
#     4  11  25  41  67  99 135 174 218 280 338 394
#     4  11  26  45  69  97 136 180 228 275 340 406
#     4  11  24  45  69  97 132 184 227 277 336 402
#     4  11  25  43  68 106 133 175 225 281 341 402
#     4  12  25  43  66 101 132 177 221 279 340 402
#     4  11  23  43  70  99 137 171 222 281 339 402
#     4  11  24  44  71 100 136 176 226 280 340 403
#     4  10  24  45  68  95 134 180 227 277 337 402
#
# _framework density 20.776671
#
# number of rings (size 3 to 8) (size 9 to 14) (size 15 to 20)
#    0.000    1.000    3.750    1.875    8.750    2.000 
#    0.000    0.000    0.000    0.000    0.000    0.000 
#    0.000    0.000    0.000    0.000    0.000    0.000 
#
# Total GULP energy -89422.596406 kJ/mol
# GULP energy per Si atom -5588.912275 kJ/mol
# Density = 2.072938 g / cm^3
# Si number density = 20.776671 Si / 1000 Ang^3
#
#
#
# Elastic Constant Matrix: (Units=GPa)
#
#
# Indices 1 2 3 4 5 6 
#
# 1 47.9398 0.4541 27.1821 0.0000 9.6366 0.0000
# 2 0.4541 92.1751 29.1001 0.0000 1.7107 0.0000
# 3 27.1821 29.1001 73.0841 0.0000 15.3714 0.0000
# 4 0.0000 0.0000 0.0000 32.5586 0.0000 -1.5948
# 5 9.6366 1.7107 15.3714 0.0000 22.4122 0.0000
# 6 0.0000 0.0000 0.0000 -1.5948 0.0000 28.6722
#
#
#
# Elastic Compliance Matrix: (Units=1/GPa)
#
#
# Indices 1 2 3 4 5 6 
#
# 1 0.027853 0.003314 -0.010642 0.000000 -0.004930 0.000000
# 2 0.003314 0.012961 -0.006878 0.000000 0.002303 0.000000
# 3 -0.010642 -0.006878 0.022561 0.000000 -0.010373 0.000000
# 4 0.000000 0.000000 0.000000 0.030798 0.000000 0.001713
# 5 -0.004930 0.002303 -0.010373 0.000000 0.053677 0.000000
# 6 0.000000 0.000000 0.000000 0.001713 0.000000 0.034972
#
#
# Mechanical properties :
#
#
# Convention : Reuss Voigt Hill
#
# Bulk Modulus (GPa) = 28.60074 36.29682 32.44878
# Shear Modulus (GPa) = 22.43274 27.15945 24.79609
#
# Velocity S-wave (km/s) = 3.28946 3.61946 3.45839
# Velocity P-wave (km/s) = 5.31254 5.91398 5.62131
#
# Compressibility (1/GPa) = 0.03496413
#
# Stress axis : x y z
#
# Youngs Moduli (GPa) = 35.90243 77.15350 44.32404
#
# Poissons Ratio (x) = -0.25569 0.47170
# Poissons Ratio (y) = -0.11898 0.30485
# Poissons Ratio (z) = 0.38207 0.53064
#
# Static dielectric constant tensor:
#      x y z
#    x 1.733830 0.000000 -0.006170 
#    y 0.000000 1.765050 0.000000 
#    z -0.006170 0.000000 1.759970 
# 
# From -- ./inp_files/44686.got.cif
#   From: 2010.05.17/outbox.cif.g08.bks.cpg/sg5_23_cif.got.tgz:44686.got - 2010.06.03 18:56:24.
