data_PCOD9128480
_publ_section_title
;
Structure prediction by ZEFSAII (Michael W. Deem and Ramdas Pophale) SiO2 
 PCOD9128480
Probable space group: C 2
;
_chemical_formula_sum "Si O2"
_cell_formula_units_Z 20
_cell_length_a 27.653588
_cell_length_b 5.185562
_cell_length_c 8.816972
_cell_angle_alpha 90.000000
_cell_angle_beta 138.878993
_cell_angle_gamma 90.000000
_cell_volume 831.500642
_symmetry_space_group_name_H-M "C 2"
_symmetry_group_IT_number 5
_symmetry_cell_setting 'monoclinic'
loop_
_space_group_symop_operation_xyz
x,y,z
-x,y,-z
1/2+x,1/2+y,z
1/2-x,1/2+y,-z
loop_
_atom_site_type_symbol
_atom_site_label
_atom_site_fract_x
_atom_site_fract_y
_atom_site_fract_z
Si Si1 0.216590 0.387380 0.105623
Si Si2 0.111072 0.400559 0.588434
Si Si3 0.849833 0.891426 0.901975
Si Si4 0.862141 0.043769 0.588209
Si Si5 0.476421 0.401803 0.651664
O O1 0.183282 0.427524 0.860534
O O2 0.180884 0.609952 0.128456
O O3 0.303149 0.421886 0.332485
O O4 0.191168 0.107444 0.097961
O O5 0.131178 0.337502 0.459225
O O6 0.058400 0.640297 0.490906
O O7 0.062824 0.147849 0.518181
O O8 0.839024 0.978716 0.702065
O O9 0.936713 0.901891 0.140577
O O10 0.941536 0.927454 0.737735
#
# Coordination Sequence:
#
# PCOD9128480 Si02
#       5
#     4   4   4   4   4
#     4  12  27  42  73 101 142 171 235 285 351 390
#     4  10  25  43  72  97 133 184 227 275 333 420
#     4  12  26  45  68 106 136 181 221 299 338 404
#     4  10  27  45  72  95 140 181 233 269 344 416
#     4  10  24  44  72  94 139 178 235 264 348 409
#
# _framework density 24.052899
#
# number of rings (size 3 to 8) (size 9 to 14) (size 15 to 20)
#    1.200    0.000    0.000    4.200    8.400    4.800 
#    3.600    0.000    0.000    0.000    0.000    0.000 
#    0.000    0.000    0.000    0.000    0.000    0.000 
#
# Total GULP energy -55927.648192 kJ/mol
# GULP energy per Si atom -5592.764819 kJ/mol
# Density = 2.399815 g / cm^3
# Si number density = 24.052899 Si / 1000 Ang^3
#
#
#
# Elastic Constant Matrix: (Units=GPa)
#
#
# Indices 1 2 3 4 5 6 
#
# 1 80.4666 8.4742 32.0857 0.0000 9.1891 0.0000
# 2 8.4742 129.7118 37.7936 0.0000 13.1881 0.0000
# 3 32.0857 37.7936 131.3171 0.0000 11.8710 0.0000
# 4 0.0000 0.0000 0.0000 23.9617 0.0000 -8.7776
# 5 9.1891 13.1881 11.8710 0.0000 60.5091 0.0000
# 6 0.0000 0.0000 0.0000 -8.7776 0.0000 2.0978
#
#
#
# Elastic Compliance Matrix: (Units=1/GPa)
#
#
# Indices 1 2 3 4 5 6 
#
# 1 0.013902 0.000213 -0.003322 0.000000 -0.001506 0.000000
# 2 0.000213 0.008534 -0.002379 0.000000 -0.001425 0.000000
# 3 -0.003322 -0.002379 0.009182 0.000000 -0.000778 0.000000
# 4 0.000000 0.000000 0.000000 -0.078335 0.000000 -0.327772
# 5 -0.001506 -0.001425 -0.000778 0.000000 0.017219 0.000000
# 6 0.000000 0.000000 0.000000 -0.327772 0.000000 -0.894777
#
#
# Mechanical properties :
#
#
# Convention : Reuss Voigt Hill
#
# Bulk Modulus (GPa) = 48.44780 55.35585 51.90182
# Shear Modulus (GPa) = -5.51621 34.85651 14.67015
#
# Velocity S-wave (km/s) = -1.51603 3.81091 2.47232
# Velocity P-wave (km/s) = 4.13781 6.51370 5.45663
#
# Compressibility (1/GPa) = 0.02064077
#
# Stress axis : x y z
#
# Youngs Moduli (GPa) = 71.93405 117.18347 108.91011
#
# Poissons Ratio (x) = -0.02493 0.36178
# Poissons Ratio (y) = -0.01530 0.25911
# Poissons Ratio (z) = 0.23895 0.27880
#
# Static dielectric constant tensor:
#      x y z
#    x 1.955450 0.000000 -0.060080 
#    y 0.000000 1.919360 0.000000 
#    z -0.060080 0.000000 1.873050 
# 
# From -- ./inp_files/28266.got.cif
#   From: 2010.05.17/outbox.cif.g08.bks.cpg/sg5_15_cif.got.tgz:28266.got - 2010.06.03 18:56:24.
