data_PCOD9128691
_publ_section_title
;
Structure prediction by ZEFSAII (Michael W. Deem and Ramdas Pophale) SiO2 
 PCOD9128691
Probable space group: C 2
;
_chemical_formula_sum "Si O2"
_cell_formula_units_Z 22
_cell_length_a 13.836977
_cell_length_b 10.668185
_cell_length_c 17.218545
_cell_angle_alpha 90.000000
_cell_angle_beta 158.216759
_cell_angle_gamma 90.000000
_cell_volume 943.223818
_symmetry_space_group_name_H-M "C 2"
_symmetry_group_IT_number 5
_symmetry_cell_setting 'monoclinic'
loop_
_space_group_symop_operation_xyz
x,y,z
-x,y,-z
1/2+x,1/2+y,z
1/2-x,1/2+y,-z
loop_
_atom_site_type_symbol
_atom_site_label
_atom_site_fract_x
_atom_site_fract_y
_atom_site_fract_z
Si Si1 0.364373 0.951010 0.477683
Si Si2 0.721036 0.106709 0.835386
Si Si3 0.279975 0.545728 0.206735
Si Si4 0.913495 0.149936 0.148147
Si Si5 0.500000 0.711955 0.500000
Si Si6 0.890403 0.822098 0.505212
O O1 0.500000 0.003315 0.500000
O O2 0.345097 0.804645 0.442992
O O3 0.561783 0.981186 0.694584
O O4 0.102541 0.028151 0.287481
O O5 0.548355 0.215023 0.668070
O O6 0.750575 0.136065 0.948058
O O7 0.000000 0.102388 0.000000
O O8 0.279372 0.634307 0.131072
O O9 0.315697 0.627952 0.310239
O O10 0.524087 0.451066 0.390605
O O11 0.000000 0.476975 0.000000
O O12 0.094746 0.273637 0.281180
O O13 0.000000 0.830933 0.500000
#
# Coordination Sequence:
#
# PCOD9128691 Si02
#       6
#     4   4   4   4   2   4
#     4   9  20  39  71 101 127 180 229 284 339 400
#     4  11  17  38  71 105 136 167 237 292 337 403
#     4  12  29  47  66 104 147 187 229 286 353 413
#     4  11  24  43  73 104 134 183 235 283 344 416
#     4  10  24  48  68  90 152 186 222 288 358 398
#     4  11  23  44  72  98 136 186 231 285 349 411
#
# _framework density 23.324261
#
# number of rings (size 3 to 8) (size 9 to 14) (size 15 to 20)
#    0.545    0.727    4.545    1.636    2.545    5.091 
#    3.273    0.000    0.000    0.000    0.000    0.000 
#    0.000    0.000    0.000    0.000    0.000    0.000 
#
# Total GULP energy -61483.507462 kJ/mol
# GULP energy per Si atom -5589.409769 kJ/mol
# Density = 2.327117 g / cm^3
# Si number density = 23.324261 Si / 1000 Ang^3
#
#
#
# Elastic Constant Matrix: (Units=GPa)
#
#
# Indices 1 2 3 4 5 6 
#
# 1 105.7726 12.6546 50.9369 -0.0110 -40.6449 0.0067
# 2 12.6546 83.3583 19.7329 0.0199 -17.5646 -0.0097
# 3 50.9369 19.7329 95.1743 -0.0030 -38.4938 -0.0009
# 4 -0.0110 0.0199 -0.0030 14.8721 0.0116 -8.7822
# 5 -40.6449 -17.5646 -38.4938 0.0116 44.1715 -0.0086
# 6 0.0067 -0.0097 -0.0009 -8.7822 -0.0086 24.5658
#
#
#
# Elastic Compliance Matrix: (Units=1/GPa)
#
#
# Indices 1 2 3 4 5 6 
#
# 1 0.015580 0.000947 -0.003991 0.000001 0.011235 0.000000
# 2 0.000947 0.013206 -0.001187 -0.000022 0.005088 -0.000001
# 3 -0.003991 -0.001187 0.017316 -0.000004 0.010947 0.000004
# 4 0.000001 -0.000022 -0.000004 0.085233 -0.000028 0.030471
# 5 0.011235 0.005088 0.010947 -0.000028 0.044540 0.000005
# 6 0.000000 -0.000001 0.000004 0.030471 0.000005 0.051600
#
#
# Mechanical properties :
#
#
# Convention : Reuss Voigt Hill
#
# Bulk Modulus (GPa) = 26.56694 50.10601 38.33648
# Shear Modulus (GPa) = 20.12209 30.12062 25.12135
#
# Velocity S-wave (km/s) = 2.94038 3.59748 3.28540
# Velocity P-wave (km/s) = 4.78986 6.22775 5.55552
#
# Compressibility (1/GPa) = 0.03764076
#
# Stress axis : x y z
#
# Youngs Moduli (GPa) = 64.18526 75.72456 57.74921
#
# Poissons Ratio (x) = -0.07170 0.23045
# Poissons Ratio (y) = -0.06077 0.06854
# Poissons Ratio (z) = 0.25614 0.08987
#
# Static dielectric constant tensor:
#      x y z
#    x 1.960720 0.000040 0.051790 
#    y 0.000040 1.885480 0.000000 
#    z 0.051790 0.000000 1.852740 
# 
# From -- ./inp_files/61670.got.cif
#   From: 2010.05.17/outbox.cif.g08.bks.cpg/sg5_31_cif.got.tgz:61670.got - 2010.06.03 18:56:24.
