data_PCOD9128713
_publ_section_title
;
Structure prediction by ZEFSAII (Michael W. Deem and Ramdas Pophale) SiO2 
 PCOD9128713
Probable space group: C 2
;
_chemical_formula_sum "Si O2"
_cell_formula_units_Z 30
_cell_length_a 17.866211
_cell_length_b 14.205830
_cell_length_c 12.861687
_cell_angle_alpha 90.000000
_cell_angle_beta 25.339213
_cell_angle_gamma 90.000000
_cell_volume 1397.066069
_symmetry_space_group_name_H-M "C 2"
_symmetry_group_IT_number 5
_symmetry_cell_setting 'monoclinic'
loop_
_space_group_symop_operation_xyz
x,y,z
-x,y,-z
1/2+x,1/2+y,z
1/2-x,1/2+y,-z
loop_
_atom_site_type_symbol
_atom_site_label
_atom_site_fract_x
_atom_site_fract_y
_atom_site_fract_z
Si Si1 0.452844 0.512000 0.260634
Si Si2 0.610637 0.381386 0.458634
Si Si3 0.842062 0.329630 0.755610
Si Si4 0.500000 0.814337 0.000000
Si Si5 0.359941 0.027692 0.766928
Si Si6 0.815385 0.216497 0.425742
Si Si7 0.685073 0.367919 0.737672
Si Si8 0.045926 0.710578 0.234043
O O1 0.430790 0.440972 0.385172
O O2 0.367030 0.612032 0.392516
O O3 0.365901 0.457742 0.270414
O O4 0.656914 0.537248 0.991063
O O5 0.500000 0.420858 0.500000
O O6 0.822875 0.370607 0.187089
O O7 0.527637 0.277776 0.582367
O O8 0.885891 0.419755 0.771902
O O9 0.000000 0.277447 0.500000
O O10 0.238421 0.383216 0.244251
O O11 0.710621 0.262118 0.976921
O O12 0.433443 0.751503 0.180664
O O13 0.500000 0.043969 0.500000
O O14 0.403511 0.106884 0.795571
O O15 0.810922 0.297276 0.518108
O O16 0.615228 0.210556 0.641502
O O17 0.500000 0.320350 0.000000
#
# Coordination Sequence:
#
# PCOD9128713 Si02
#       8
#     4   4   4   2   4   4   4   4
#     4  12  26  48  70 109 140 182 246 292 362 429
#     4  11  24  50  74  99 150 193 231 305 361 432
#     4  11  25  44  74 103 139 193 237 289 370 420
#     4  10  24  48  74 108 134 194 246 286 370 424
#     4  11  25  43  68 106 134 180 246 284 353 429
#     4  11  26  43  74 104 141 188 240 292 362 424
#     4  12  22  50  72  95 150 186 230 303 349 425
#     4  11  23  48  68 106 144 181 237 301 355 428
#
# _framework density 21.473572999999998
#
# number of rings (size 3 to 8) (size 9 to 14) (size 15 to 20)
#    0.000    0.800    6.667    0.400   12.133    0.000 
#    6.000    0.000    0.000    0.000    0.000    0.000 
#    0.000    0.000    0.000    0.000    0.000    0.000 
#
# Total GULP energy -83700.648740 kJ/mol
# GULP energy per Si atom -5580.043249 kJ/mol
# Density = 2.142470 g / cm^3
# Si number density = 21.473573 Si / 1000 Ang^3
#
#
#
# Elastic Constant Matrix: (Units=GPa)
#
#
# Indices 1 2 3 4 5 6 
#
# 1 70.8821 30.6167 9.3636 0.0001 2.4950 -0.0001
# 2 30.6167 108.9305 48.1732 0.0001 4.3520 0.0000
# 3 9.3636 48.1732 133.1001 0.0000 -4.0980 0.0000
# 4 0.0001 0.0001 0.0000 30.4756 0.0000 -11.7963
# 5 2.4950 4.3520 -4.0980 0.0000 13.1805 0.0001
# 6 -0.0001 0.0000 0.0000 -11.7963 0.0001 22.3917
#
#
#
# Elastic Compliance Matrix: (Units=1/GPa)
#
#
# Indices 1 2 3 4 5 6 
#
# 1 0.016120 -0.004712 0.000531 0.000000 -0.001331 0.000000
# 2 -0.004712 0.012628 -0.004382 0.000000 -0.004640 0.000000
# 3 0.000531 -0.004382 0.009191 0.000000 0.004204 0.000000
# 4 0.000000 0.000000 0.000000 0.041218 0.000000 0.021714
# 5 -0.001331 -0.004640 0.004204 0.000000 0.078960 0.000000
# 6 0.000000 0.000000 0.000000 0.021714 0.000000 0.056099
#
#
# Mechanical properties :
#
#
# Convention : Reuss Voigt Hill
#
# Bulk Modulus (GPa) = 48.04918 54.35774 51.20346
# Shear Modulus (GPa) = 20.98362 28.19349 24.58855
#
# Velocity S-wave (km/s) = 3.12938 3.62738 3.38755
# Velocity P-wave (km/s) = 5.95667 6.55077 6.26077
#
# Compressibility (1/GPa) = 0.02081201
#
# Stress axis : x y z
#
# Youngs Moduli (GPa) = 62.03433 79.19052 108.80029
#
# Poissons Ratio (x) = 0.37317 -0.05772
# Poissons Ratio (y) = 0.29232 0.47674
# Poissons Ratio (z) = -0.03291 0.34699
#
# Static dielectric constant tensor:
#      x y z
#    x 1.927940 0.000000 -0.066220 
#    y 0.000000 1.765250 0.000000 
#    z -0.066220 0.000000 1.823700 
# 
# From -- ./inp_files/57130.got.cif
#   From: 2010.05.17/outbox.cif.g08.bks.cpg/sg5_29_cif.got.tgz:57130.got - 2010.06.03 18:56:24.
