data_PCOD9128260
_publ_section_title
;
Structure prediction by ZEFSAII (Michael W. Deem and Ramdas Pophale) SiO2 
 PCOD9128260
Probable space group: C 2
;
_chemical_formula_sum "Si O2"
_cell_formula_units_Z 20
_cell_length_a 17.437780
_cell_length_b 4.945689
_cell_length_c 16.415575
_cell_angle_alpha 90.000000
_cell_angle_beta 142.154036
_cell_angle_gamma 90.000000
_cell_volume 868.595351
_symmetry_space_group_name_H-M "C 2"
_symmetry_group_IT_number 5
_symmetry_cell_setting 'monoclinic'
loop_
_space_group_symop_operation_xyz
x,y,z
-x,y,-z
1/2+x,1/2+y,z
1/2-x,1/2+y,-z
loop_
_atom_site_type_symbol
_atom_site_label
_atom_site_fract_x
_atom_site_fract_y
_atom_site_fract_z
Si Si1 0.127710 0.898070 0.694737
Si Si2 0.179223 0.149013 0.912986
Si Si3 0.599041 0.592088 0.281786
Si Si4 0.860256 0.766697 0.522880
Si Si5 0.784444 0.392458 0.328871
O O1 0.168864 0.601831 0.700290
O O2 0.977543 0.897563 0.574368
O O3 0.172787 0.003015 0.820130
O O4 0.187748 0.100328 0.680289
O O5 0.254155 0.427682 0.974128
O O6 0.039066 0.205429 0.826850
O O7 0.710086 0.812779 0.389347
O O8 0.610141 0.363095 0.361277
O O9 0.641638 0.455522 0.233179
O O10 0.856108 0.471072 0.474285
#
# Coordination Sequence:
#
# PCOD9128260 Si02
#       5
#     4   4   4   4   4
#     4  11  23  44  65 103 134 177 226 277 346 404
#     4  11  25  48  72  92 133 186 239 282 332 406
#     4   9  23  42  68 103 136 181 231 267 348 403
#     4   9  22  39  66  97 142 177 214 271 340 420
#     4  10  24  40  66 102 141 174 218 278 349 400
#
# _framework density 23.025680000000001
#
# number of rings (size 3 to 8) (size 9 to 14) (size 15 to 20)
#    1.200    0.800    0.000    1.800    2.800   11.200 
#    0.000    6.000    0.000    0.000    0.000    0.000 
#    0.000    0.000    0.000    0.000    0.000    0.000 
#
# Total GULP energy -55730.287227 kJ/mol
# GULP energy per Si atom -5573.028723 kJ/mol
# Density = 2.297327 g / cm^3
# Si number density = 23.025680 Si / 1000 Ang^3
#
#
#
# Elastic Constant Matrix: (Units=GPa)
#
#
# Indices 1 2 3 4 5 6 
#
# 1 118.6756 -16.8758 31.3911 -0.0001 12.2047 -0.0001
# 2 -16.8758 38.2224 9.2890 0.0001 2.1245 0.0000
# 3 31.3911 9.2890 65.9424 0.0000 20.8312 0.0000
# 4 -0.0001 0.0001 0.0000 29.8225 0.0000 1.8101
# 5 12.2047 2.1245 20.8312 0.0000 32.6152 0.0000
# 6 -0.0001 0.0000 0.0000 1.8101 0.0000 27.8609
#
#
#
# Elastic Compliance Matrix: (Units=1/GPa)
#
#
# Indices 1 2 3 4 5 6 
#
# 1 0.010951 0.006301 -0.005859 0.000000 -0.000767 0.000000
# 2 0.006301 0.030735 -0.007456 0.000000 0.000402 0.000000
# 3 -0.005859 -0.007456 0.022748 0.000000 -0.011851 0.000000
# 4 0.000000 0.000000 0.000000 0.033664 0.000000 -0.002187
# 5 -0.000767 0.000402 -0.011851 0.000000 0.038490 0.000000
# 6 0.000000 0.000000 0.000000 -0.002187 0.000000 0.036035
#
#
# Mechanical properties :
#
#
# Convention : Reuss Voigt Hill
#
# Bulk Modulus (GPa) = 19.83875 30.04986 24.94431
# Shear Modulus (GPa) = 24.57593 31.32881 27.95237
#
# Velocity S-wave (km/s) = 3.27054 3.69264 3.48798
# Velocity P-wave (km/s) = 4.78503 5.59103 5.20366
#
# Compressibility (1/GPa) = 0.05040639
#
# Stress axis : x y z
#
# Youngs Moduli (GPa) = 91.31692 32.53670 43.96069
#
# Poissons Ratio (x) = -0.20503 0.25754
# Poissons Ratio (y) = -0.57542 0.32778
# Poissons Ratio (z) = 0.53498 0.24260
#
# Static dielectric constant tensor:
#      x y z
#    x 1.903080 0.000000 -0.058710 
#    y 0.000000 1.868320 0.000000 
#    z -0.058710 0.000000 1.919420 
# 
# From -- ./inp_files/43611.got.cif
#   From: 2010.05.17/outbox.cif.g08.bks.cpg/sg5_22_cif.got.tgz:43611.got - 2010.06.03 18:56:24.
