data_PCOD9128349
_publ_section_title
;
Structure prediction by ZEFSAII (Michael W. Deem and Ramdas Pophale) SiO2 
 PCOD9128349
Probable space group: C 2
;
_chemical_formula_sum "Si O2"
_cell_formula_units_Z 26
_cell_length_a 11.510203
_cell_length_b 7.922038
_cell_length_c 10.929341
_cell_angle_alpha 90.000000
_cell_angle_beta 90.705930
_cell_angle_gamma 90.000000
_cell_volume 996.508291
_symmetry_space_group_name_H-M "C 2"
_symmetry_group_IT_number 5
_symmetry_cell_setting 'monoclinic'
loop_
_space_group_symop_operation_xyz
x,y,z
-x,y,-z
1/2+x,1/2+y,z
1/2-x,1/2+y,-z
loop_
_atom_site_type_symbol
_atom_site_label
_atom_site_fract_x
_atom_site_fract_y
_atom_site_fract_z
Si Si1 0.127785 0.747650 0.560658
Si Si2 0.594585 0.447923 0.216673
Si Si3 0.625543 0.614347 0.483709
Si Si4 0.688775 0.087944 0.913075
Si Si5 0.494680 0.074857 0.746114
Si Si6 0.500000 0.645639 0.000000
Si Si7 0.678155 0.891170 0.132397
O O1 0.252106 0.709201 0.501169
O O2 0.000000 0.728226 0.500000
O O3 0.104436 0.597103 0.657902
O O4 0.130168 0.951509 0.575469
O O5 0.615325 0.545386 0.344160
O O6 0.714174 0.466384 0.143407
O O7 0.562321 0.258466 0.249429
O O8 0.499113 0.528565 0.122077
O O9 0.500000 0.704131 0.500000
O O10 0.559978 0.039042 0.873115
O O11 0.710008 0.273804 0.856441
O O12 0.699783 0.061336 0.058096
O O13 0.392938 0.935472 0.745621
O O14 0.394880 0.766606 0.958056
#
# Coordination Sequence:
#
# PCOD9128349 Si02
#       7
#     4   4   4   4   4   2   4
#     4  11  25  49  74 106 147 187 254 308 379 429
#     4  11  24  45  71 102 148 191 247 298 370 437
#     4  11  24  52  72 109 147 193 250 315 365 452
#     4  11  24  42  66 101 142 188 240 297 362 441
#     4  12  23  45  70  96 145 191 236 311 359 442
#     4  10  24  42  68 106 144 190 242 296 368 446
#     4  11  24  43  66 104 146 186 248 293 365 442
#
# _framework density 26.091103
#
# number of rings (size 3 to 8) (size 9 to 14) (size 15 to 20)
#    0.000    0.923    6.154    0.923    6.462    1.846 
#    8.308    0.000    0.000    0.000    0.000    0.000 
#    0.000    0.000    0.000    0.000    0.000    0.000 
#
# Total GULP energy -72466.568677 kJ/mol
# GULP energy per Si atom -5574.351437 kJ/mol
# Density = 2.603172 g / cm^3
# Si number density = 26.091103 Si / 1000 Ang^3
#
#
#
# Elastic Constant Matrix: (Units=GPa)
#
#
# Indices 1 2 3 4 5 6 
#
# 1 164.5497 33.3503 9.7187 0.0000 -17.3137 0.0000
# 2 33.3503 85.4911 2.0376 0.0000 -6.5828 0.0000
# 3 9.7187 2.0376 32.6131 0.0000 -17.4652 0.0000
# 4 0.0000 0.0000 0.0000 21.5837 0.0000 -13.0812
# 5 -17.3137 -6.5828 -17.4652 0.0000 44.9217 0.0000
# 6 0.0000 0.0000 0.0000 -13.0812 0.0000 55.7900
#
#
#
# Elastic Compliance Matrix: (Units=1/GPa)
#
#
# Indices 1 2 3 4 5 6 
#
# 1 0.006837 -0.002498 -0.000841 0.000000 0.001942 0.000000
# 2 -0.002498 0.012745 0.000546 0.000000 0.001117 0.000000
# 3 -0.000841 0.000546 0.038834 0.000000 0.014854 0.000000
# 4 0.000000 0.000000 0.000000 0.054006 0.000000 0.012663
# 5 0.001942 0.001117 0.014854 0.000000 0.028948 0.000000
# 6 0.000000 0.000000 0.000000 0.012663 0.000000 0.020893
#
#
# Mechanical properties :
#
#
# Convention : Reuss Voigt Hill
#
# Bulk Modulus (GPa) = 18.92850 41.42968 30.17909
# Shear Modulus (GPa) = 26.96013 40.29557 33.62785
#
# Velocity S-wave (km/s) = 3.21800 3.93417 3.59397
# Velocity P-wave (km/s) = 4.59106 6.04568 5.36787
#
# Compressibility (1/GPa) = 0.05283040
#
# Stress axis : x y z
#
# Youngs Moduli (GPa) = 146.25298 78.46520 25.75069
#
# Poissons Ratio (x) = 0.19598 0.02167
# Poissons Ratio (y) = 0.36530 -0.01407
# Poissons Ratio (z) = 0.12306 -0.04288
#
# Static dielectric constant tensor:
#      x y z
#    x 2.046420 0.000000 0.014870 
#    y 0.000000 2.053690 0.000000 
#    z 0.014870 0.000000 2.265850 
# 
# From -- ./inp_files/38374.got.cif
#   From: 2010.05.17/outbox.cif.g08.bks.cpg/sg5_20_cif.got.tgz:38374.got - 2010.06.03 18:56:24.
