data_PCOD9128908
_publ_section_title
;
Structure prediction by ZEFSAII (Michael W. Deem and Ramdas Pophale) SiO2 
 PCOD9128908
Probable space group: C 2
;
_chemical_formula_sum "Si O2"
_cell_formula_units_Z 16
_cell_length_a 4.723018
_cell_length_b 30.124771
_cell_length_c 5.570305
_cell_angle_alpha 90.000000
_cell_angle_beta 124.366958
_cell_angle_gamma 90.000000
_cell_volume 654.195279
_symmetry_space_group_name_H-M "C 2"
_symmetry_group_IT_number 5
_symmetry_cell_setting 'monoclinic'
loop_
_space_group_symop_operation_xyz
x,y,z
-x,y,-z
1/2+x,1/2+y,z
1/2-x,1/2+y,-z
loop_
_atom_site_type_symbol
_atom_site_label
_atom_site_fract_x
_atom_site_fract_y
_atom_site_fract_z
Si Si1 0.500000 0.131470 0.500000
Si Si2 0.000000 0.323348 0.000000
Si Si3 0.500000 0.569787 0.500000
Si Si4 0.500000 0.390259 0.500000
Si Si5 0.000000 0.016158 0.000000
Si Si6 0.500000 0.691880 0.500000
Si Si7 0.000000 0.755230 0.000000
Si Si8 0.500000 0.956444 0.500000
O O1 0.644855 0.098360 0.363065
O O2 0.838865 0.163160 0.644910
O O3 0.765255 0.356782 0.742996
O O4 0.787700 0.289266 0.055944
O O5 0.528395 0.543196 0.763686
O O6 0.692346 0.423719 0.417296
O O7 0.658015 0.986778 0.786244
O O8 0.816162 0.722373 0.727592
#
# Coordination Sequence:
#
# PCOD9128908 Si02
#       8
#     2   2   2   2   2   2   2   2
#     4  10  25  47  74 106 148 194 246 306 372 441
#     4  12  24  42  69 102 141 188 241 302 363 438
#     4  11  27  48  78 111 151 200 253 311 376 446
#     4  12  25  45  69 104 143 190 243 300 369 437
#     4  12  28  51  77 112 150 200 254 312 375 447
#     4  11  24  45  69 104 143 190 243 302 367 441
#     4  12  24  43  70 102 141 188 241 298 362 435
#     4  12  27  47  74 105 147 194 247 309 372 443
#
# _framework density 24.457526999999999
#
# number of rings (size 3 to 8) (size 9 to 14) (size 15 to 20)
#    0.000    0.500    0.000    7.500    0.000   12.000 
#    0.000    0.000    0.000    0.000    0.000    0.000 
#    0.000    0.000    0.000    0.000    0.000    0.000 
#
# Total GULP energy -44665.657735 kJ/mol
# GULP energy per Si atom -5583.207217 kJ/mol
# Density = 2.440186 g / cm^3
# Si number density = 24.457527 Si / 1000 Ang^3
#
#
#
# Elastic Constant Matrix: (Units=GPa)
#
#
# Indices 1 2 3 4 5 6 
#
# 1 154.4833 69.9472 33.5504 0.0000 -15.7007 0.0000
# 2 69.9472 151.7570 76.4926 0.0000 -11.0232 0.0000
# 3 33.5504 76.4926 154.5164 0.0000 11.4929 0.0000
# 4 0.0000 0.0000 0.0000 2199.4850 0.0000 3959.7022
# 5 -15.7007 -11.0232 11.4929 0.0000 37.0864 0.0000
# 6 0.0000 0.0000 0.0000 3959.7022 0.0000 7184.0559
#
#
#
# Elastic Compliance Matrix: (Units=1/GPa)
#
#
# Indices 1 2 3 4 5 6 
#
# 1 0.008401 -0.003556 -0.000256 0.000000 0.002579 0.000000
# 2 -0.003556 0.010923 -0.004877 0.000000 0.003253 0.000000
# 3 -0.000256 -0.004877 0.009271 0.000000 -0.004431 0.000000
# 4 0.000000 0.000000 0.000000 0.058895 0.000000 -0.032461
# 5 0.002579 0.003253 -0.004431 0.000000 0.030396 0.000000
# 6 0.000000 0.000000 0.000000 -0.032461 0.000000 0.018031
#
#
# Mechanical properties :
#
#
# Convention : Reuss Voigt Hill
#
# Bulk Modulus (GPa) = 89.14422 91.19300 90.16861
# Shear Modulus (GPa) = 31.84031 1902.84323 967.34177
#
# Velocity S-wave (km/s) = 3.61205 27.92326 19.90924
# Velocity P-wave (km/s) = 7.34327 32.81735 23.77921
#
# Compressibility (1/GPa) = 0.01121778
#
# Stress axis : x y z
#
# Youngs Moduli (GPa) = 119.03547 91.54899 107.85948
#
# Poissons Ratio (x) = 0.32555 0.02756
# Poissons Ratio (y) = 0.42329 0.52606
# Poissons Ratio (z) = 0.03042 0.44651
#
# Static dielectric constant tensor:
#      x y z
#    x 1.910570 0.000000 0.067780 
#    y 0.000000 2.013480 0.000000 
#    z 0.067780 0.000000 0.885880 
# 
# From -- ./inp_files/1224.got.cif
#   From: 2010.05.17/outbox.cif.g08.bks.cpg/sg5_1_cif.got.tgz:1224.got - 2010.06.03 18:56:24.
