data_PCOD9128094
_publ_section_title
;
Structure prediction by ZEFSAII (Michael W. Deem and Ramdas Pophale) SiO2 
 PCOD9128094
Probable space group: C 2
;
_chemical_formula_sum "Si O2"
_cell_formula_units_Z 24
_cell_length_a 7.372439
_cell_length_b 22.565076
_cell_length_c 8.890505
_cell_angle_alpha 90.000000
_cell_angle_beta 131.690271
_cell_angle_gamma 90.000000
_cell_volume 1104.460802
_symmetry_space_group_name_H-M "C 2"
_symmetry_group_IT_number 5
_symmetry_cell_setting 'monoclinic'
loop_
_space_group_symop_operation_xyz
x,y,z
-x,y,-z
1/2+x,1/2+y,z
1/2-x,1/2+y,-z
loop_
_atom_site_type_symbol
_atom_site_label
_atom_site_fract_x
_atom_site_fract_y
_atom_site_fract_z
Si Si1 0.184925 0.660580 0.466341
Si Si2 0.731305 0.953621 0.014384
Si Si3 0.231585 0.767693 0.277874
Si Si4 0.384230 0.698396 0.085678
Si Si5 0.417093 0.083604 0.125112
Si Si6 0.728558 0.401106 0.285187
O O1 0.127681 0.713316 0.317576
O O2 0.439754 0.671757 0.687029
O O3 0.000000 0.663692 0.500000
O O4 0.142755 0.598530 0.358346
O O5 0.008160 0.942609 0.225663
O O6 0.500000 0.945424 0.000000
O O7 0.727837 0.911237 0.868256
O O8 0.702376 0.019699 0.929211
O O9 0.500000 0.772517 0.500000
O O10 0.247844 0.747358 0.112416
O O11 0.137173 0.833532 0.253995
O O12 0.500000 0.726965 0.000000
O O13 0.258386 0.639413 0.950888
O O14 0.500000 0.088535 0.000000
O O15 0.000000 0.410493 0.500000
#
# Coordination Sequence:
#
# PCOD9128094 Si02
#       6
#     4   4   4   4   4   4
#     4  11  22  38  61  96 128 168 210 268 340 407
#     4  10  25  44  64 101 132 176 241 280 331 407
#     4   9  21  42  62  95 131 167 222 276 338 405
#     4  11  22  37  63  98 131 166 214 272 346 415
#     4  11  23  40  63  89 134 173 217 276 337 405
#     4  10  23  46  70  92 136 185 224 288 337 395
#
# _framework density 21.730062
#
# number of rings (size 3 to 8) (size 9 to 14) (size 15 to 20)
#    0.000    1.667    3.333    0.000    2.333    6.000 
#    9.000    3.333    0.000    0.000    0.000    0.000 
#    0.000    0.000    0.000    0.000    0.000    0.000 
#
# Total GULP energy -66872.065090 kJ/mol
# GULP energy per Si atom -5572.672091 kJ/mol
# Density = 2.168060 g / cm^3
# Si number density = 21.730062 Si / 1000 Ang^3
#
#
#
# Elastic Constant Matrix: (Units=GPa)
#
#
# Indices 1 2 3 4 5 6 
#
# 1 101.3475 33.1771 29.2199 0.0000 -1.4815 0.0000
# 2 33.1771 109.3110 30.4902 0.0000 11.3420 0.0000
# 3 29.2199 30.4902 103.7168 0.0000 5.3886 0.0000
# 4 0.0000 0.0000 0.0000 -6.8334 0.0000 -0.3635
# 5 -1.4815 11.3420 5.3886 0.0000 45.3478 0.0000
# 6 0.0000 0.0000 0.0000 -0.3635 0.0000 18.3761
#
#
#
# Elastic Compliance Matrix: (Units=1/GPa)
#
#
# Indices 1 2 3 4 5 6 
#
# 1 0.011570 -0.002972 -0.002459 0.000000 0.001414 0.000000
# 2 -0.002972 0.010943 -0.002246 0.000000 -0.002567 0.000000
# 3 -0.002459 -0.002246 0.011038 0.000000 -0.000830 0.000000
# 4 0.000000 0.000000 0.000000 -0.146185 0.000000 -0.002892
# 5 0.001414 -0.002567 -0.000830 0.000000 0.022839 0.000000
# 6 0.000000 0.000000 0.000000 -0.002892 0.000000 0.054361
#
#
# Mechanical properties :
#
#
# Convention : Reuss Voigt Hill
#
# Bulk Modulus (GPa) = 54.95889 55.57221 55.26555
# Shear Modulus (GPa) = -356.79494 26.14396 -165.32549
#
# Velocity S-wave (km/s) = -12.82773 3.47237 -8.73193
# Velocity P-wave (km/s) = 13.93034 6.45801 8.72778
#
# Compressibility (1/GPa) = 0.01819542
#
# Stress axis : x y z
#
# Youngs Moduli (GPa) = 86.43248 91.38042 90.59660
#
# Poissons Ratio (x) = 0.27161 0.22279
# Poissons Ratio (y) = 0.25690 0.20351
# Poissons Ratio (z) = 0.21255 0.20527
#
# Static dielectric constant tensor:
#      x y z
#    x 1.892770 0.000000 0.084140 
#    y 0.000000 1.841550 0.000000 
#    z 0.084140 0.000000 1.975850 
# 
# From -- ./inp_files/16852.got.cif
#   From: 2010.05.17/outbox.cif.g08.bks.cpg/sg5_9_cif.got.tgz:16852.got - 2010.06.03 18:56:24.
