data_PCOD9128562
_publ_section_title
;
Structure prediction by ZEFSAII (Michael W. Deem and Ramdas Pophale) SiO2 
 PCOD9128562
Probable space group: C 2
;
_chemical_formula_sum "Si O2"
_cell_formula_units_Z 26
_cell_length_a 9.145288
_cell_length_b 10.713477
_cell_length_c 14.965016
_cell_angle_alpha 90.000000
_cell_angle_beta 56.693009
_cell_angle_gamma 90.000000
_cell_volume 1225.395814
_symmetry_space_group_name_H-M "C 2"
_symmetry_group_IT_number 5
_symmetry_cell_setting 'monoclinic'
loop_
_space_group_symop_operation_xyz
x,y,z
-x,y,-z
1/2+x,1/2+y,z
1/2-x,1/2+y,-z
loop_
_atom_site_type_symbol
_atom_site_label
_atom_site_fract_x
_atom_site_fract_y
_atom_site_fract_z
Si Si1 0.709855 0.637050 0.698506
Si Si2 0.000000 0.003754 0.000000
Si Si3 0.974197 0.411138 0.604968
Si Si4 0.797493 0.325255 0.841116
Si Si5 0.169461 0.061495 0.121987
Si Si6 0.656462 0.864944 0.823169
Si Si7 0.302726 0.395139 0.592971
O O1 0.850940 0.531047 0.640430
O O2 0.517214 0.576625 0.763593
O O3 0.717598 0.720611 0.788334
O O4 0.752154 0.746956 0.613709
O O5 0.861886 0.919523 0.100182
O O6 0.115593 0.070281 0.036271
O O7 0.887987 0.331777 0.713718
O O8 0.000000 0.349183 0.500000
O O9 0.165086 0.454572 0.572622
O O10 0.731189 0.187138 0.884643
O O11 0.953382 0.360432 0.859649
O O12 0.278474 0.938208 0.111954
O O13 0.756352 0.936513 0.708831
O O14 0.500000 0.413430 0.500000
#
# Coordination Sequence:
#
# PCOD9128562 Si02
#       7
#     4   2   4   4   4   4   4
#     4   9  20  40  65  89 130 169 211 261 324 377
#     4  12  26  40  72  96 126 172 218 268 332 382
#     4  11  21  39  70  92 134 172 212 270 316 380
#     4  10  24  46  60 102 128 167 224 259 327 390
#     4  11  22  45  67  92 131 168 213 277 320 386
#     4   8  21  41  63  84 133 166 206 264 319 384
#     4   9  20  39  58  94 129 169 216 254 319 387
#
# _framework density 21.217635999999999
#
# number of rings (size 3 to 8) (size 9 to 14) (size 15 to 20)
#    0.923    1.231    3.077    0.462    2.154    4.308 
#    5.538    3.846    0.000    0.000    0.000    0.000 
#    0.000    0.000    0.000    0.000    0.000    0.000 
#
# Total GULP energy -72387.007275 kJ/mol
# GULP energy per Si atom -5568.231329 kJ/mol
# Density = 2.116934 g / cm^3
# Si number density = 21.217636 Si / 1000 Ang^3
#
#
#
# Elastic Constant Matrix: (Units=GPa)
#
#
# Indices 1 2 3 4 5 6 
#
# 1 36.2251 12.3376 20.4574 0.0000 10.8577 0.0000
# 2 12.3376 61.8096 0.4209 0.0000 9.4920 0.0000
# 3 20.4574 0.4209 81.5519 0.0000 7.7498 0.0000
# 4 0.0000 0.0000 0.0000 3.5331 0.0000 -0.2424
# 5 10.8577 9.4920 7.7498 0.0000 35.7631 0.0000
# 6 0.0000 0.0000 0.0000 -0.2424 0.0000 31.8239
#
#
#
# Elastic Compliance Matrix: (Units=1/GPa)
#
#
# Indices 1 2 3 4 5 6 
#
# 1 0.036771 -0.006098 -0.008460 0.000000 -0.007712 0.000000
# 2 -0.006098 0.017887 0.001749 0.000000 -0.003275 0.000000
# 3 -0.008460 0.001749 0.014473 0.000000 -0.001032 0.000000
# 4 0.000000 0.000000 0.000000 0.283184 0.000000 0.002157
# 5 -0.007712 -0.003275 -0.001032 0.000000 0.031396 0.000000
# 6 0.000000 0.000000 0.000000 0.002157 0.000000 0.031439
#
#
# Mechanical properties :
#
#
# Convention : Reuss Voigt Hill
#
# Bulk Modulus (GPa) = 22.98151 27.33539 25.15845
# Shear Modulus (GPa) = 10.98242 23.98208 17.48225
#
# Velocity S-wave (km/s) = 2.27757 3.36563 2.87357
# Velocity P-wave (km/s) = 4.21560 5.29288 4.78465
#
# Compressibility (1/GPa) = 0.04351324
#
# Stress axis : x y z
#
# Youngs Moduli (GPa) = 27.19539 55.90675 69.09275
#
# Poissons Ratio (x) = 0.34091 0.58450
# Poissons Ratio (y) = 0.16583 -0.12081
# Poissons Ratio (z) = 0.23006 -0.09776
#
# Static dielectric constant tensor:
#      x y z
#    x 1.767670 0.000000 0.041950 
#    y 0.000000 1.767170 0.000000 
#    z 0.041950 0.000000 1.832950 
# 
# From -- ./inp_files/50206.got.cif
#   From: 2010.05.17/outbox.cif.g08.bks.cpg/sg5_26_cif.got.tgz:50206.got - 2010.06.03 18:56:24.
