data_PCOD9128808
_publ_section_title
;
Structure prediction by ZEFSAII (Michael W. Deem and Ramdas Pophale) SiO2 
 PCOD9128808
Probable space group: C 2
;
_chemical_formula_sum "Si O2"
_cell_formula_units_Z 20
_cell_length_a 21.207737
_cell_length_b 9.377191
_cell_length_c 5.032966
_cell_angle_alpha 90.000000
_cell_angle_beta 121.391965
_cell_angle_gamma 90.000000
_cell_volume 854.392899
_symmetry_space_group_name_H-M "C 2"
_symmetry_group_IT_number 5
_symmetry_cell_setting 'monoclinic'
loop_
_space_group_symop_operation_xyz
x,y,z
-x,y,-z
1/2+x,1/2+y,z
1/2-x,1/2+y,-z
loop_
_atom_site_type_symbol
_atom_site_label
_atom_site_fract_x
_atom_site_fract_y
_atom_site_fract_z
Si Si1 0.426858 0.370060 0.486307
Si Si2 0.078181 0.322491 0.019970
Si Si3 0.198362 0.524010 0.476322
Si Si4 0.122139 0.584564 0.810897
Si Si5 0.866466 0.005569 0.873373
O O1 0.500000 0.426029 0.500000
O O2 0.413836 0.423988 0.752683
O O3 0.426598 0.200099 0.447970
O O4 0.363846 0.425420 0.148957
O O5 0.149110 0.380716 0.342227
O O6 0.082098 0.434312 0.783386
O O7 0.097190 0.160046 0.999000
O O8 0.000000 0.334286 0.000000
O O9 0.154234 0.625200 0.171215
O O10 0.282939 0.514469 0.585341
O O11 0.190593 0.568696 0.762491
#
# Coordination Sequence:
#
# PCOD9128808 Si02
#       5
#     4   4   4   4   4
#     4  12  27  45  73 103 149 187 240 294 374 433
#     4  10  26  45  74 104 145 186 246 298 362 428
#     4  10  25  43  72 101 140 184 244 289 360 423
#     4  10  25  42  73  98 139 185 243 289 354 428
#     4  12  27  46  72 105 150 190 239 304 366 433
#
# _framework density 23.408435999999998
#
# number of rings (size 3 to 8) (size 9 to 14) (size 15 to 20)
#    1.200    0.000    0.000    4.200   11.200    0.000 
#    0.000    0.000    0.000    0.000    0.000    0.000 
#    0.000    0.000    0.000    0.000    0.000    0.000 
#
# Total GULP energy -55789.975513 kJ/mol
# GULP energy per Si atom -5578.997551 kJ/mol
# Density = 2.335516 g / cm^3
# Si number density = 23.408436 Si / 1000 Ang^3
#
#
#
# Elastic Constant Matrix: (Units=GPa)
#
#
# Indices 1 2 3 4 5 6 
#
# 1 139.1916 35.9477 12.9474 0.0000 -4.4334 0.0000
# 2 35.9477 126.6595 22.9415 0.0000 -12.6162 0.0000
# 3 12.9474 22.9415 69.4260 0.0000 -22.8911 0.0000
# 4 0.0000 0.0000 0.0000 -45.0742 0.0000 83.5623
# 5 -4.4334 -12.6162 -22.8911 0.0000 45.0586 0.0000
# 6 0.0000 0.0000 0.0000 83.5623 0.0000 -87.0703
#
#
#
# Elastic Compliance Matrix: (Units=1/GPa)
#
#
# Indices 1 2 3 4 5 6 
#
# 1 0.007793 -0.002083 -0.000846 0.000000 -0.000246 0.000000
# 2 -0.002083 0.009003 -0.002190 0.000000 0.001203 0.000000
# 3 -0.000846 -0.002190 0.018085 0.000000 0.008491 0.000000
# 4 0.000000 0.000000 0.000000 0.028473 0.000000 0.027325
# 5 -0.000246 0.001203 0.008491 0.000000 0.026820 0.000000
# 6 0.000000 0.000000 0.000000 0.027325 0.000000 0.014740
#
#
# Mechanical properties :
#
#
# Convention : Reuss Voigt Hill
#
# Bulk Modulus (GPa) = 40.57956 53.21670 46.89813
# Shear Modulus (GPa) = 40.52999 0.14554 20.33777
#
# Velocity S-wave (km/s) = 4.16556 0.24962 2.95078
# Velocity P-wave (km/s) = 6.36466 4.78188 5.62918
#
# Compressibility (1/GPa) = 0.02464295
#
# Stress axis : x y z
#
# Youngs Moduli (GPa) = 128.31718 111.07576 55.29451
#
# Poissons Ratio (x) = 0.23138 0.04679
# Poissons Ratio (y) = 0.26729 0.12108
# Poissons Ratio (z) = 0.10859 0.24322
#
# Static dielectric constant tensor:
#      x y z
#    x 2.364470 0.000000 0.706330 
#    y 0.000000 1.924790 0.000000 
#    z 0.706330 0.000000 2.740280 
# 
# From -- ./inp_files/9203.got.cif
#   From: 2010.05.17/outbox.cif.g08.bks.cpg/sg5_5_cif.got.tgz:9203.got - 2010.06.03 18:56:24.
