data_PCOD9128830
_publ_section_title
;
Structure prediction by ZEFSAII (Michael W. Deem and Ramdas Pophale) SiO2 
 PCOD9128830
Probable space group: C 2
;
_chemical_formula_sum "Si O2"
_cell_formula_units_Z 18
_cell_length_a 9.367498
_cell_length_b 19.968691
_cell_length_c 7.934698
_cell_angle_alpha 90.000000
_cell_angle_beta 147.335270
_cell_angle_gamma 90.000000
_cell_volume 801.076316
_symmetry_space_group_name_H-M "C 2"
_symmetry_group_IT_number 5
_symmetry_cell_setting 'monoclinic'
loop_
_space_group_symop_operation_xyz
x,y,z
-x,y,-z
1/2+x,1/2+y,z
1/2-x,1/2+y,-z
loop_
_atom_site_type_symbol
_atom_site_label
_atom_site_fract_x
_atom_site_fract_y
_atom_site_fract_z
Si Si1 0.500000 0.304721 0.000000
Si Si2 0.000000 0.982386 0.500000
Si Si3 0.000000 0.132557 0.000000
Si Si4 0.500000 0.034143 0.500000
Si Si5 0.000000 0.578523 0.000000
Si Si6 0.191685 0.187571 0.852015
Si Si7 0.178086 0.931212 0.334009
O O1 0.662064 0.257504 0.034749
O O2 0.697732 0.353589 0.300535
O O3 0.024159 0.939158 0.355004
O O4 0.750728 0.031254 0.262810
O O5 0.967651 0.177233 0.135186
O O6 0.252448 0.083821 0.253708
O O7 0.433678 0.979453 0.582130
O O8 0.082063 0.630037 0.933755
O O9 0.000000 0.177364 0.500000
O O10 0.000000 0.956640 0.000000
#
# Coordination Sequence:
#
# PCOD9128830 Si02
#       7
#     2   2   2   2   2   4   4
#     4   9  25  48  64 100 135 187 228 268 336 393
#     4  12  24  42  70 104 132 174 224 276 346 396
#     4  12  27  42  74 106 129 178 228 276 348 398
#     4  12  24  46  70 106 140 168 222 286 346 398
#     4  11  24  42  70 104 136 169 222 282 344 399
#     4  11  25  46  69  98 139 180 223 283 326 402
#     4  10  25  44  67  99 138 177 220 276 330 403
#
# _framework density 22.469767999999998
#
# number of rings (size 3 to 8) (size 9 to 14) (size 15 to 20)
#    0.667    0.444    2.222    2.667   10.889    0.000 
#    4.000    0.000    0.000    0.000    0.000    0.000 
#    0.000    0.000    0.000    0.000    0.000    0.000 
#
# Total GULP energy -50227.999104 kJ/mol
# GULP energy per Si atom -5580.888789 kJ/mol
# Density = 2.241863 g / cm^3
# Si number density = 22.469768 Si / 1000 Ang^3
#
#
#
# Elastic Constant Matrix: (Units=GPa)
#
#
# Indices 1 2 3 4 5 6 
#
# 1 230.7764 80.4088 47.0896 0.0000 3.7403 0.0000
# 2 80.4088 155.0042 44.2864 0.0000 9.6414 0.0000
# 3 47.0896 44.2864 99.2057 0.0000 27.6295 0.0000
# 4 0.0000 0.0000 0.0000 -11.6510 0.0000 -79.2257
# 5 3.7403 9.6414 27.6295 0.0000 37.1088 0.0000
# 6 0.0000 0.0000 0.0000 -79.2257 0.0000 -422.3758
#
#
#
# Elastic Compliance Matrix: (Units=1/GPa)
#
#
# Indices 1 2 3 4 5 6 
#
# 1 0.005554 -0.002408 -0.001993 0.000000 0.001550 0.000000
# 2 -0.002408 0.008452 -0.002632 0.000000 0.000006 0.000000
# 3 -0.001993 -0.002632 0.015082 0.000000 -0.010345 0.000000
# 4 0.000000 0.000000 0.000000 0.311579 0.000000 -0.058443
# 5 0.001550 0.000006 -0.010345 0.000000 0.034492 0.000000
# 6 0.000000 0.000000 0.000000 -0.058443 0.000000 0.008595
#
#
# Mechanical properties :
#
#
# Convention : Reuss Voigt Hill
#
# Bulk Modulus (GPa) = 66.56700 92.06178 79.31439
# Shear Modulus (GPa) = 12.41228 -58.50352 -23.04562
#
# Velocity S-wave (km/s) = 2.35287 -5.10814 -3.20602
# Velocity P-wave (km/s) = 6.08858 2.50391 4.65512
#
# Compressibility (1/GPa) = 0.01502246
#
# Stress axis : x y z
#
# Youngs Moduli (GPa) = 180.05910 118.31267 66.30462
#
# Poissons Ratio (x) = 0.28490 0.13213
# Poissons Ratio (y) = 0.43359 0.17451
# Poissons Ratio (z) = 0.35882 0.31138
#
# Static dielectric constant tensor:
#      x y z
#    x 1.873910 0.000000 -0.030720 
#    y 0.000000 1.835680 0.000000 
#    z -0.030720 0.000000 2.007130 
# 
# From -- ./inp_files/16395.got.cif
#   From: 2010.05.17/outbox.cif.g08.bks.cpg/sg5_9_cif.got.tgz:16395.got - 2010.06.03 18:56:24.
