data_PCOD9128290
_publ_section_title
;
Structure prediction by ZEFSAII (Michael W. Deem and Ramdas Pophale) SiO2 
 PCOD9128290
Probable space group: C 2
;
_chemical_formula_sum "Si O2"
_cell_formula_units_Z 22
_cell_length_a 5.308231
_cell_length_b 13.586516
_cell_length_c 13.200609
_cell_angle_alpha 90.000000
_cell_angle_beta 86.051890
_cell_angle_gamma 90.000000
_cell_volume 949.773396
_symmetry_space_group_name_H-M "C 2"
_symmetry_group_IT_number 5
_symmetry_cell_setting 'monoclinic'
loop_
_space_group_symop_operation_xyz
x,y,z
-x,y,-z
1/2+x,1/2+y,z
1/2-x,1/2+y,-z
loop_
_atom_site_type_symbol
_atom_site_label
_atom_site_fract_x
_atom_site_fract_y
_atom_site_fract_z
Si Si1 0.229599 0.240030 0.670332
Si Si2 0.112322 0.832687 0.142748
Si Si3 0.617235 0.750058 0.144645
Si Si4 0.729667 0.549826 0.562395
Si Si5 0.739074 0.538368 0.068274
Si Si6 0.000000 0.860146 0.500000
O O1 0.424344 0.284294 0.746074
O O2 0.972111 0.265462 0.736182
O O3 0.247008 0.122643 0.656548
O O4 0.299227 0.293014 0.564100
O O5 0.837043 0.823048 0.102611
O O6 0.347341 0.767176 0.096618
O O7 0.210013 0.943445 0.140559
O O8 0.719570 0.640912 0.127220
O O9 0.500000 0.593146 0.500000
O O10 0.639825 0.436790 0.572535
O O11 0.000000 0.551724 0.500000
O O12 0.500000 0.535026 0.000000
O O13 0.000000 0.533462 0.000000
#
# Coordination Sequence:
#
# PCOD9128290 Si02
#       6
#     4   4   4   4   4   2
#     4  10  24  44  70 100 141 183 235 273 345 398
#     4  10  25  44  67 102 136 181 225 286 336 408
#     4  10  25  44  68  99 140 177 224 286 343 394
#     4  10  24  41  65  97 132 179 234 277 327 390
#     4  12  26  45  73 104 137 178 232 278 350 421
#     4  10  24  44  68 100 136 190 226 282 328 404
#
# _framework density 23.163421
#
# number of rings (size 3 to 8) (size 9 to 14) (size 15 to 20)
#    1.636    0.000    0.909    2.182    5.091    6.545 
#    0.000    0.000    0.000    0.000    0.000    0.000 
#    0.000    0.000    0.000    0.000    0.000    0.000 
#
# Total GULP energy -61324.015662 kJ/mol
# GULP energy per Si atom -5574.910515 kJ/mol
# Density = 2.311070 g / cm^3
# Si number density = 23.163421 Si / 1000 Ang^3
#
#
#
# Elastic Constant Matrix: (Units=GPa)
#
#
# Indices 1 2 3 4 5 6 
#
# 1 168.2975 33.7039 30.2189 0.0000 -39.8391 0.0000
# 2 33.7039 115.1599 28.5550 0.0000 -12.7777 0.0000
# 3 30.2189 28.5550 63.4100 0.0000 -17.5202 0.0000
# 4 0.0000 0.0000 0.0000 29.5937 0.0000 -3.3375
# 5 -39.8391 -12.7777 -17.5202 0.0000 29.8676 0.0000
# 6 0.0000 0.0000 0.0000 -3.3375 0.0000 28.5102
#
#
#
# Elastic Compliance Matrix: (Units=1/GPa)
#
#
# Indices 1 2 3 4 5 6 
#
# 1 0.008900 -0.001225 -0.000662 0.000000 0.010959 0.000000
# 2 -0.001225 0.010036 -0.003820 0.000000 0.000419 0.000000
# 3 -0.000662 -0.003820 0.020420 0.000000 0.009461 0.000000
# 4 0.000000 0.000000 0.000000 0.034243 0.000000 0.004009
# 5 0.010959 0.000419 0.009461 0.000000 0.053829 0.000000
# 6 0.000000 0.000000 0.000000 0.004009 0.000000 0.035544
#
#
# Mechanical properties :
#
#
# Convention : Reuss Voigt Hill
#
# Bulk Modulus (GPa) = 35.78694 59.09144 47.43919
# Shear Modulus (GPa) = 27.21834 34.55361 30.88597
#
# Velocity S-wave (km/s) = 3.43163 3.86648 3.65553
# Velocity P-wave (km/s) = 5.58433 6.74529 6.19208
#
# Compressibility (1/GPa) = 0.02794316
#
# Stress axis : x y z
#
# Youngs Moduli (GPa) = 112.35596 99.64445 48.97126
#
# Poissons Ratio (x) = 0.12203 0.03242
# Poissons Ratio (y) = 0.13760 0.18706
# Poissons Ratio (z) = 0.07437 0.38063
#
# Static dielectric constant tensor:
#      x y z
#    x 1.981750 0.000000 0.148620 
#    y 0.000000 1.841190 0.000000 
#    z 0.148620 0.000000 2.020410 
# 
# From -- ./inp_files/48818.got.cif
#   From: 2010.05.17/outbox.cif.g08.bks.cpg/sg5_25_cif.got.tgz:48818.got - 2010.06.03 18:56:24.
