data_PCOD9128416
_publ_section_title
;
Structure prediction by ZEFSAII (Michael W. Deem and Ramdas Pophale) SiO2 
 PCOD9128416
Probable space group: C 2
;
_chemical_formula_sum "Si O2"
_cell_formula_units_Z 20
_cell_length_a 21.129103
_cell_length_b 5.077215
_cell_length_c 7.789016
_cell_angle_alpha 90.000000
_cell_angle_beta 116.719158
_cell_angle_gamma 90.000000
_cell_volume 746.359704
_symmetry_space_group_name_H-M "C 2"
_symmetry_group_IT_number 5
_symmetry_cell_setting 'monoclinic'
loop_
_space_group_symop_operation_xyz
x,y,z
-x,y,-z
1/2+x,1/2+y,z
1/2-x,1/2+y,-z
loop_
_atom_site_type_symbol
_atom_site_label
_atom_site_fract_x
_atom_site_fract_y
_atom_site_fract_z
Si Si1 0.329288 0.661630 0.933494
Si Si2 0.054429 0.473869 0.788849
Si Si3 0.411988 0.687087 0.698786
Si Si4 0.098094 0.979882 0.666057
Si Si5 0.719740 0.017872 0.546362
O O1 0.382588 0.570672 0.843038
O O2 0.251376 0.636296 0.760383
O O3 0.335526 0.512230 0.122605
O O4 0.370389 0.938391 0.018956
O O5 0.066943 0.272067 0.649081
O O6 0.987946 0.333329 0.799397
O O7 0.051197 0.763361 0.707428
O O8 0.399386 0.465685 0.535040
O O9 0.260625 0.242233 0.565110
O O10 0.858633 0.418155 0.576145
#
# Coordination Sequence:
#
# PCOD9128416 Si02
#       5
#     4   4   4   4   4
#     4   9  24  47  68 106 143 183 241 299 348 435
#     4  10  24  45  71 104 145 177 246 296 351 427
#     4  11  23  47  74 105 139 204 225 301 372 420
#     4  10  25  44  69 104 144 180 244 296 351 430
#     4  10  24  43  73 106 143 187 248 292 355 441
#
# _framework density 26.796731000000001
#
# number of rings (size 3 to 8) (size 9 to 14) (size 15 to 20)
#    1.200    0.800    0.000    1.200    5.600    9.600 
#    3.600   10.000    0.000    0.000    0.000    0.000 
#    0.000    0.000    0.000    0.000    0.000    0.000 
#
# Total GULP energy -55685.547138 kJ/mol
# GULP energy per Si atom -5568.554714 kJ/mol
# Density = 2.673574 g / cm^3
# Si number density = 26.796731 Si / 1000 Ang^3
#
#
#
# Elastic Constant Matrix: (Units=GPa)
#
#
# Indices 1 2 3 4 5 6 
#
# 1 55.4148 34.3738 2.0626 0.0000 -20.8590 0.0000
# 2 34.3738 114.8822 27.2893 0.0000 -5.1762 0.0000
# 3 2.0626 27.2893 157.9524 0.0000 -0.1290 0.0000
# 4 0.0000 0.0000 0.0000 16.6963 0.0000 2.8265
# 5 -20.8590 -5.1762 -0.1290 0.0000 47.6122 0.0000
# 6 0.0000 0.0000 0.0000 2.8265 0.0000 47.4511
#
#
#
# Elastic Compliance Matrix: (Units=1/GPa)
#
#
# Indices 1 2 3 4 5 6 
#
# 1 0.026992 -0.007821 0.001008 0.000000 0.010978 0.000000
# 2 -0.007821 0.011389 -0.001867 0.000000 -0.002193 0.000000
# 3 0.001008 -0.001867 0.006641 0.000000 0.000256 0.000000
# 4 0.000000 0.000000 0.000000 0.060503 0.000000 -0.003604
# 5 0.010978 -0.002193 0.000256 0.000000 0.025575 0.000000
# 6 0.000000 0.000000 0.000000 -0.003604 0.000000 0.021289
#
#
# Mechanical properties :
#
#
# Convention : Reuss Voigt Hill
#
# Bulk Modulus (GPa) = 36.15255 50.63342 43.39298
# Shear Modulus (GPa) = 27.93761 39.98684 33.96223
#
# Velocity S-wave (km/s) = 3.23240 3.86713 3.56392
# Velocity P-wave (km/s) = 5.23945 6.23506 5.75881
#
# Compressibility (1/GPa) = 0.02766057
#
# Stress axis : x y z
#
# Youngs Moduli (GPa) = 37.04848 87.80071 150.58653
#
# Poissons Ratio (x) = 0.68668 -0.15175
# Poissons Ratio (y) = 0.28975 0.28121
# Poissons Ratio (z) = -0.03733 0.16396
#
# Static dielectric constant tensor:
#      x y z
#    x 2.237010 0.000000 0.009870 
#    y 0.000000 2.005920 0.000000 
#    z 0.009870 0.000000 2.190330 
# 
# From -- ./inp_files/30362.got.cif
#   From: 2010.05.17/outbox.cif.g08.bks.cpg/sg5_16_cif.got.tgz:30362.got - 2010.06.03 18:56:24.
