data_PCOD9128792
_publ_section_title
;
Structure prediction by ZEFSAII (Michael W. Deem and Ramdas Pophale) SiO2 
 PCOD9128792
Probable space group: C 2
;
_chemical_formula_sum "Si O2"
_cell_formula_units_Z 20
_cell_length_a 5.218247
_cell_length_b 9.056734
_cell_length_c 18.538493
_cell_angle_alpha 90.000000
_cell_angle_beta 90.037399
_cell_angle_gamma 90.000000
_cell_volume 876.134091
_symmetry_space_group_name_H-M "C 2"
_symmetry_group_IT_number 5
_symmetry_cell_setting 'monoclinic'
loop_
_space_group_symop_operation_xyz
x,y,z
-x,y,-z
1/2+x,1/2+y,z
1/2-x,1/2+y,-z
loop_
_atom_site_type_symbol
_atom_site_label
_atom_site_fract_x
_atom_site_fract_y
_atom_site_fract_z
Si Si1 0.852209 0.594110 0.574793
Si Si2 0.574514 0.753989 0.083915
Si Si3 0.486619 0.809959 0.356815
Si Si4 0.678742 0.093994 0.706845
Si Si5 0.925873 0.588990 0.861869
O O1 0.609255 0.698644 0.581408
O O2 0.000000 0.593064 0.500000
O O3 0.822285 0.427249 0.604318
O O4 0.026986 0.659401 0.638619
O O5 0.341269 0.670947 0.123909
O O6 0.841444 0.667936 0.095314
O O7 0.599997 0.919841 0.113472
O O8 0.500000 0.758525 0.000000
O O9 0.581935 0.702835 0.292923
O O10 0.286748 0.925534 0.319858
O O11 0.516641 0.094099 0.778983
#
# Coordination Sequence:
#
# PCOD9128792 Si02
#       5
#     4   4   4   4   4
#     4  10  26  40  67  92 134 172 224 274 335 394
#     4  12  26  48  72 106 141 184 231 284 351 419
#     4  10  25  40  65  90 135 166 229 272 333 401
#     4  10  26  41  67  97 133 174 227 273 339 399
#     4  12  27  44  77 102 145 184 231 289 345 413
#
# _framework density 22.827556999999999
#
# number of rings (size 3 to 8) (size 9 to 14) (size 15 to 20)
#    1.200    0.000    0.000    4.200   11.200    0.000 
#    0.000    0.000    0.000    0.000    0.000    0.000 
#    0.000    0.000    0.000    0.000    0.000    0.000 
#
# Total GULP energy -55802.237857 kJ/mol
# GULP energy per Si atom -5580.223786 kJ/mol
# Density = 2.277560 g / cm^3
# Si number density = 22.827557 Si / 1000 Ang^3
#
#
#
# Elastic Constant Matrix: (Units=GPa)
#
#
# Indices 1 2 3 4 5 6 
#
# 1 57.5736 43.6528 -11.7823 0.0000 -7.7523 0.0000
# 2 43.6528 201.4879 29.6096 0.0000 -30.0359 0.0000
# 3 -11.7823 29.6096 119.8669 0.0000 -8.7204 0.0000
# 4 0.0000 0.0000 0.0000 7.2626 0.0000 -25.6622
# 5 -7.7523 -30.0359 -8.7204 0.0000 38.2362 0.0000
# 6 0.0000 0.0000 0.0000 -25.6622 0.0000 -6.5945
#
#
#
# Elastic Compliance Matrix: (Units=1/GPa)
#
#
# Indices 1 2 3 4 5 6 
#
# 1 0.022154 -0.005130 0.003537 0.000000 0.001268 0.000000
# 2 -0.005130 0.006952 -0.001932 0.000000 0.003980 0.000000
# 3 0.003537 -0.001932 0.009263 0.000000 0.001312 0.000000
# 4 0.000000 0.000000 0.000000 0.009335 0.000000 -0.036326
# 5 0.001268 0.003980 0.001312 0.000000 0.029836 0.000000
# 6 0.000000 0.000000 0.000000 -0.036326 0.000000 -0.010281
#
#
# Mechanical properties :
#
#
# Convention : Reuss Voigt Hill
#
# Bulk Modulus (GPa) = 31.93052 55.76539 43.84796
# Shear Modulus (GPa) = 58.99813 28.94409 43.97111
#
# Velocity S-wave (km/s) = 5.08933 3.56468 4.39364
# Velocity P-wave (km/s) = 6.96800 6.43620 6.70737
#
# Compressibility (1/GPa) = 0.03131800
#
# Stress axis : x y z
#
# Youngs Moduli (GPa) = 45.13938 143.84734 107.95678
#
# Poissons Ratio (x) = 0.73799 -0.38186
# Poissons Ratio (y) = 0.23158 0.20857
# Poissons Ratio (z) = -0.15967 0.27791
#
# Static dielectric constant tensor:
#      x y z
#    x 3.263170 0.000000 0.134230 
#    y 0.000000 1.802040 0.000000 
#    z 0.134230 0.000000 1.853460 
# 
# From -- ./inp_files/58473.got.cif
#   From: 2010.05.17/outbox.cif.g08.bks.cpg/sg5_30_cif.got.tgz:58473.got - 2010.06.03 18:56:24.
