data_PCOD9128782
_publ_section_title
;
Structure prediction by ZEFSAII (Michael W. Deem and Ramdas Pophale) SiO2 
 PCOD9128782
Probable space group: C 2
;
_chemical_formula_sum "Si O2"
_cell_formula_units_Z 28
_cell_length_a 13.454341
_cell_length_b 6.851361
_cell_length_c 19.604634
_cell_angle_alpha 90.000000
_cell_angle_beta 147.042708
_cell_angle_gamma 90.000000
_cell_volume 983.123080
_symmetry_space_group_name_H-M "C 2"
_symmetry_group_IT_number 5
_symmetry_cell_setting 'monoclinic'
loop_
_space_group_symop_operation_xyz
x,y,z
-x,y,-z
1/2+x,1/2+y,z
1/2-x,1/2+y,-z
loop_
_atom_site_type_symbol
_atom_site_label
_atom_site_fract_x
_atom_site_fract_y
_atom_site_fract_z
Si Si1 0.158941 0.773700 0.489922
Si Si2 0.666570 0.075825 0.047600
Si Si3 0.028745 0.214260 0.437630
Si Si4 0.357070 0.002743 0.247573
Si Si5 0.063211 0.012897 0.267393
Si Si6 0.997033 0.594342 0.813483
Si Si7 0.550811 0.744815 0.128706
O O1 0.306113 0.801810 0.514096
O O2 0.995355 0.649838 0.365293
O O3 0.271581 0.645202 0.609600
O O4 0.081327 0.983976 0.467123
O O5 0.629997 0.165309 0.951398
O O6 0.615758 0.851425 0.002480
O O7 0.500000 0.148391 0.000000
O O8 0.870606 0.055982 0.194651
O O9 0.862022 0.311451 0.298713
O O10 0.408286 0.282917 0.727573
O O11 0.000000 0.271145 0.500000
O O12 0.172242 0.120125 0.148524
O O13 0.412387 0.982930 0.199663
O O14 0.011351 0.092589 0.164108
O O15 0.873778 0.435456 0.783873
#
# Coordination Sequence:
#
# PCOD9128782 Si02
#       7
#     4   4   4   4   4   4   4
#     4  12  29  52  81 124 180 227 293 363 445 541
#     4  10  24  54  84 122 166 230 307 364 438 524
#     4  12  30  51  84 117 181 232 292 360 435 542
#     4  12  27  51  78 128 170 224 291 359 451 528
#     4  12  25  51  83 122 176 231 287 373 444 518
#     4  10  26  50  83 118 170 227 289 373 427 518
#     4  10  27  45  84 119 161 229 290 359 434 520
#
# _framework density 28.480665999999999
#
# number of rings (size 3 to 8) (size 9 to 14) (size 15 to 20)
#    0.857    0.000    1.429    3.429    4.000    2.286 
#    7.714    0.714    0.000    0.000    0.000    0.000 
#    0.000    0.000    0.000    0.000    0.000    0.000 
#
# Total GULP energy -78275.128322 kJ/mol
# GULP energy per Si atom -5591.080594 kJ/mol
# Density = 2.841584 g / cm^3
# Si number density = 28.480666 Si / 1000 Ang^3
#
#
#
# Elastic Constant Matrix: (Units=GPa)
#
#
# Indices 1 2 3 4 5 6 
#
# 1 170.0165 55.3875 25.8308 0.0000 -21.3567 0.0000
# 2 55.3875 184.6675 34.9385 0.0000 -14.1543 0.0000
# 3 25.8308 34.9385 86.3216 0.0000 -7.0057 0.0000
# 4 0.0000 0.0000 0.0000 53.4476 0.0000 -14.7786
# 5 -21.3567 -14.1543 -7.0057 0.0000 44.4882 0.0000
# 6 0.0000 0.0000 0.0000 -14.7786 0.0000 42.4331
#
#
#
# Elastic Compliance Matrix: (Units=1/GPa)
#
#
# Indices 1 2 3 4 5 6 
#
# 1 0.006930 -0.001652 -0.001193 0.000000 0.002613 0.000000
# 2 -0.001652 0.006360 -0.002006 0.000000 0.000914 0.000000
# 3 -0.001193 -0.002006 0.012819 0.000000 0.000808 0.000000
# 4 0.000000 0.000000 0.000000 0.020704 0.000000 0.007211
# 5 0.002613 0.000914 0.000808 0.000000 0.024150 0.000000
# 6 0.000000 0.000000 0.000000 0.007211 0.000000 0.026078
#
#
# Mechanical properties :
#
#
# Convention : Reuss Voigt Hill
#
# Bulk Modulus (GPa) = 60.94911 74.81326 67.88119
# Shear Modulus (GPa) = 44.55878 49.73037 47.14457
#
# Velocity S-wave (km/s) = 3.95970 4.18318 4.07297
# Velocity P-wave (km/s) = 6.50786 7.04678 6.78268
#
# Compressibility (1/GPa) = 0.01640713
#
# Stress axis : x y z
#
# Youngs Moduli (GPa) = 144.30946 157.22498 78.01022
#
# Poissons Ratio (x) = 0.25981 0.09304
# Poissons Ratio (y) = 0.23846 0.15646
# Poissons Ratio (z) = 0.17212 0.31533
#
# Static dielectric constant tensor:
#      x y z
#    x 2.253480 0.000000 0.090730 
#    y 0.000000 2.234860 0.000000 
#    z 0.090730 0.000000 2.391020 
# 
# From -- ./inp_files/65313.got.cif
#   From: 2010.05.17/outbox.cif.g08.bks.cpg/sg5_33_cif.got.tgz:65313.got - 2010.06.03 18:56:24.
