data_PCOD9128728
_publ_section_title
;
Structure prediction by ZEFSAII (Michael W. Deem and Ramdas Pophale) SiO2 
 PCOD9128728
Probable space group: C 2
;
_chemical_formula_sum "Si O2"
_cell_formula_units_Z 20
_cell_length_a 13.582632
_cell_length_b 4.831863
_cell_length_c 29.698750
_cell_angle_alpha 90.000000
_cell_angle_beta 23.341355
_cell_angle_gamma 90.000000
_cell_volume 772.254245
_symmetry_space_group_name_H-M "C 2"
_symmetry_group_IT_number 5
_symmetry_cell_setting 'monoclinic'
loop_
_space_group_symop_operation_xyz
x,y,z
-x,y,-z
1/2+x,1/2+y,z
1/2-x,1/2+y,-z
loop_
_atom_site_type_symbol
_atom_site_label
_atom_site_fract_x
_atom_site_fract_y
_atom_site_fract_z
Si Si1 0.000000 0.440980 0.000000
Si Si2 0.727561 0.507511 0.289575
Si Si3 0.580798 0.828647 0.062574
Si Si4 0.449389 0.525523 0.246967
Si Si5 0.221833 0.039078 0.583077
Si Si6 0.000000 0.072400 0.500000
O O1 0.261556 0.598633 0.883638
O O2 0.988791 0.257597 0.959249
O O3 0.451266 0.547645 0.387512
O O4 0.863521 0.373298 0.189231
O O5 0.870692 0.780665 0.246000
O O6 0.773035 0.286329 0.309945
O O7 0.776111 0.616530 0.000188
O O8 0.422125 0.439271 0.310721
O O9 0.443797 0.815083 0.485578
O O10 0.303978 0.346941 0.562825
#
# Coordination Sequence:
#
# PCOD9128728 Si02
#       6
#     2   4   4   4   4   2
#     4  12  24  42  66 100 140 184 216 270 312 396
#     4  12  24  43  65 100 136 176 219 274 325 393
#     4  12  24  41  61  96 139 179 224 266 315 385
#     4  12  26  41  69 102 136 178 225 259 331 393
#     4  11  24  48  70  99 133 170 216 287 329 398
#     4  10  24  48  76  94 128 172 220 276 356 384
#
# _framework density 25.898205000000001
#
# number of rings (size 3 to 8) (size 9 to 14) (size 15 to 20)
#    0.000    0.400    6.000    2.400    0.000    3.200 
#    0.000   20.000    0.000    0.000    0.000    0.000 
#    0.000    0.000    0.000    0.000    0.000    0.000 
#
# Total GULP energy -55801.712643 kJ/mol
# GULP energy per Si atom -5580.171264 kJ/mol
# Density = 2.583926 g / cm^3
# Si number density = 25.898205 Si / 1000 Ang^3
#
#
#
# Elastic Constant Matrix: (Units=GPa)
#
#
# Indices 1 2 3 4 5 6 
#
# 1 183.2286 41.3405 57.7481 -0.4465 -19.2245 1.0955
# 2 41.3405 188.0347 20.9664 0.3913 -43.0961 0.3769
# 3 57.7481 20.9664 100.1918 0.6951 -4.8050 0.7350
# 4 -0.4465 0.3913 0.6951 23.0061 1.8117 3.6872
# 5 -19.2245 -43.0961 -4.8050 1.8117 64.8012 0.7241
# 6 1.0955 0.3769 0.7350 3.6872 0.7241 27.3964
#
#
#
# Elastic Compliance Matrix: (Units=1/GPa)
#
#
# Indices 1 2 3 4 5 6 
#
# 1 0.006968 -0.000827 -0.003784 0.000203 0.001233 -0.000226
# 2 -0.000827 0.006504 -0.000687 -0.000410 0.004042 -0.000090
# 3 -0.003784 -0.000687 0.012277 -0.000365 -0.000658 -0.000102
# 4 0.000203 -0.000410 -0.000365 0.044554 -0.001419 -0.005952
# 5 0.001233 0.004042 -0.000658 -0.001419 0.018481 -0.000385
# 6 -0.000226 -0.000090 -0.000102 -0.005952 -0.000385 0.037325
#
#
# Mechanical properties :
#
#
# Convention : Reuss Voigt Hill
#
# Bulk Modulus (GPa) = 65.99186 79.06281 72.52733
# Shear Modulus (GPa) = 35.27179 46.46743 40.86961
#
# Velocity S-wave (km/s) = 3.69445 4.24043 3.97682
# Velocity P-wave (km/s) = 6.61326 7.38713 7.01088
#
# Compressibility (1/GPa) = 0.01515338
#
# Stress axis : x y z
#
# Youngs Moduli (GPa) = 143.51143 153.75192 81.45212
#
# Poissons Ratio (x) = 0.12721 0.30819
# Poissons Ratio (y) = 0.11874 0.05594
# Poissons Ratio (z) = 0.54300 0.10560
#
# Static dielectric constant tensor:
#      x y z
#    x 2.002830 -0.000960 0.060060 
#    y -0.000960 1.953530 -0.004600 
#    z 0.060060 -0.004600 2.194500 
# 
# From -- ./inp_files/51805.got.cif
#   From: 2010.05.17/outbox.cif.g08.bks.cpg/sg5_26_cif.got.tgz:51805.got - 2010.06.03 18:56:24.
