data_PCOD9128835
_publ_section_title
;
Structure prediction by ZEFSAII (Michael W. Deem and Ramdas Pophale) SiO2 
 PCOD9128835
Probable space group: C 2
;
_chemical_formula_sum "Si O2"
_cell_formula_units_Z 32
_cell_length_a 20.218844
_cell_length_b 15.180267
_cell_length_c 14.253456
_cell_angle_alpha 90.000000
_cell_angle_beta 161.136815
_cell_angle_gamma 90.000000
_cell_volume 1414.406720
_symmetry_space_group_name_H-M "C 2"
_symmetry_group_IT_number 5
_symmetry_cell_setting 'monoclinic'
loop_
_space_group_symop_operation_xyz
x,y,z
-x,y,-z
1/2+x,1/2+y,z
1/2-x,1/2+y,-z
loop_
_atom_site_type_symbol
_atom_site_label
_atom_site_fract_x
_atom_site_fract_y
_atom_site_fract_z
Si Si1 0.619380 0.491090 0.300953
Si Si2 0.230970 0.492649 0.288248
Si Si3 0.275934 0.327449 0.223196
Si Si4 0.677082 0.642530 0.123240
Si Si5 0.006791 0.406217 0.316305
Si Si6 0.141852 0.822600 0.103312
Si Si7 0.240500 0.148905 0.821622
Si Si8 0.390653 0.082883 0.222296
O O1 0.662706 0.503978 0.468964
O O2 0.823469 0.458270 0.520215
O O3 0.519252 0.580595 0.127558
O O4 0.455224 0.412811 0.065298
O O5 0.318021 0.411983 0.344678
O O6 0.223805 0.580425 0.215542
O O7 0.000000 0.466037 0.000000
O O8 0.500000 0.290630 0.500000
O O9 0.150091 0.246795 0.099179
O O10 0.150781 0.359773 0.964697
O O11 0.749472 0.624263 0.112810
O O12 0.875742 0.612897 0.448381
O O13 0.135846 0.341350 0.554811
O O14 0.894785 0.477185 0.231064
O O15 0.147466 0.741611 0.040884
O O16 0.000000 0.795572 0.000000
O O17 0.000000 0.164785 0.500000
O O18 0.311220 0.106680 0.013359
#
# Coordination Sequence:
#
# PCOD9128835 Si02
#       8
#     4   4   4   4   4   4   4   4
#     4  11  24  47  71 101 140 184 231 289 345 416
#     4  12  25  47  67 103 138 182 228 279 353 416
#     4  12  26  46  68 105 144 184 225 295 342 418
#     4  11  26  45  71 100 141 182 235 290 348 413
#     4  11  24  47  71 100 140 181 236 287 346 409
#     4  10  25  44  69 101 137 179 232 288 342 406
#     4  12  26  43  68 101 138 184 228 286 348 414
#     4  11  23  47  65 100 134 184 235 281 351 410
#
# _framework density 22.624327000000001
#
# number of rings (size 3 to 8) (size 9 to 14) (size 15 to 20)
#    0.000    0.750    5.000    1.500    7.000    1.000 
#    4.500    0.000    0.000    0.000    0.000    0.000 
#    0.000    0.000    0.000    0.000    0.000    0.000 
#
# Total GULP energy -89592.836104 kJ/mol
# GULP energy per Si atom -5599.552256 kJ/mol
# Density = 2.257283 g / cm^3
# Si number density = 22.624327 Si / 1000 Ang^3
#
#
#
# Elastic Constant Matrix: (Units=GPa)
#
#
# Indices 1 2 3 4 5 6 
#
# 1 66.4950 -3.8119 16.7382 0.0000 -13.2390 0.0000
# 2 -3.8119 91.4218 7.5365 0.0000 6.3093 0.0000
# 3 16.7382 7.5365 95.3089 -0.0002 -15.5791 -0.0001
# 4 0.0000 0.0000 -0.0002 17.7094 0.0000 -1.4885
# 5 -13.2390 6.3093 -15.5791 0.0000 33.2870 0.0000
# 6 0.0000 0.0000 -0.0001 -1.4885 0.0000 25.1101
#
#
#
# Elastic Compliance Matrix: (Units=1/GPa)
#
#
# Indices 1 2 3 4 5 6 
#
# 1 0.016696 0.000480 -0.002057 0.000000 0.005587 0.000000
# 2 0.000480 0.011253 -0.001399 0.000000 -0.002596 0.000000
# 3 -0.002057 -0.001399 0.011774 0.000000 0.004958 0.000000
# 4 0.000000 0.000000 0.000000 0.056750 0.000000 0.003364
# 5 0.005587 -0.002596 0.004958 0.000000 0.035076 0.000000
# 6 0.000000 0.000000 0.000000 0.003364 0.000000 0.040024
#
#
# Mechanical properties :
#
#
# Convention : Reuss Voigt Hill
#
# Bulk Modulus (GPa) = 29.60954 32.68346 31.14650
# Shear Modulus (GPa) = 26.48556 30.73884 28.61220
#
# Velocity S-wave (km/s) = 3.42521 3.69000 3.56007
# Velocity P-wave (km/s) = 5.36271 5.71247 5.54035
#
# Compressibility (1/GPa) = 0.03377290
#
# Stress axis : x y z
#
# Youngs Moduli (GPa) = 59.89327 88.86667 84.92995
#
# Poissons Ratio (x) = -0.04267 0.17470
# Poissons Ratio (y) = -0.02876 0.11878
# Poissons Ratio (z) = 0.12320 0.12428
#
# Static dielectric constant tensor:
#      x y z
#    x 1.942720 0.000000 0.024910 
#    y 0.000000 1.833580 0.000000 
#    z 0.024910 0.000000 1.806130 
# 
# From -- ./inp_files/57143.got.cif
#   From: 2010.05.17/outbox.cif.g08.bks.cpg/sg5_29_cif.got.tgz:57143.got - 2010.06.03 18:56:24.
