data_PCOD9128429
_publ_section_title
;
Structure prediction by ZEFSAII (Michael W. Deem and Ramdas Pophale) SiO2 
 PCOD9128429
Probable space group: C 2
;
_chemical_formula_sum "Si O2"
_cell_formula_units_Z 28
_cell_length_a 14.711998
_cell_length_b 11.123120
_cell_length_c 8.681705
_cell_angle_alpha 90.000000
_cell_angle_beta 79.633304
_cell_angle_gamma 90.000000
_cell_volume 1397.511799
_symmetry_space_group_name_H-M "C 2"
_symmetry_group_IT_number 5
_symmetry_cell_setting 'monoclinic'
loop_
_space_group_symop_operation_xyz
x,y,z
-x,y,-z
1/2+x,1/2+y,z
1/2-x,1/2+y,-z
loop_
_atom_site_type_symbol
_atom_site_label
_atom_site_fract_x
_atom_site_fract_y
_atom_site_fract_z
Si Si1 0.430356 0.980940 0.731047
Si Si2 0.145490 0.074708 0.215767
Si Si3 0.738766 0.603946 0.858570
Si Si4 0.500000 0.831592 0.000000
Si Si5 0.000000 0.681173 0.500000
Si Si6 0.354258 0.780815 0.539331
Si Si7 0.686748 0.321278 0.364405
Si Si8 0.565592 0.638854 0.764395
O O1 0.408152 0.890020 0.599512
O O2 0.330332 0.027343 0.810752
O O3 0.492594 0.090646 0.648858
O O4 0.469551 0.911629 0.866255
O O5 0.168151 0.186053 0.320084
O O6 0.035507 0.081191 0.209434
O O7 0.166884 0.950691 0.296650
O O8 0.203769 0.091890 0.042998
O O9 0.771240 0.732949 0.780067
O O10 0.654276 0.558249 0.775402
O O11 0.429493 0.738195 0.100407
O O12 0.092387 0.761574 0.459175
O O13 0.264274 0.824319 0.473713
O O14 0.416663 0.708343 0.398599
#
# Coordination Sequence:
#
# PCOD9128429 Si02
#       8
#     4   4   4   2   2   4   4   4
#     4  11  24  42  70  95 133 175 215 279 326 404
#     4  12  24  41  72  98 132 176 222 284 331 391
#     4  10  24  44  65  97 133 172 221 270 341 394
#     4  12  22  40  68 100 126 172 218 280 322 386
#     4  10  24  48  62  98 136 176 224 268 336 398
#     4  11  25  41  66 103 125 177 228 266 338 389
#     4  10  27  43  68  95 138 176 219 280 330 403
#     4  11  22  42  65 100 130 166 225 273 321 394
#
# _framework density 20.035608
#
# number of rings (size 3 to 8) (size 9 to 14) (size 15 to 20)
#    0.000    1.143    2.857    1.286   14.000    1.143 
#    0.000    0.000   12.571    0.000    0.000    0.000 
#    0.000    0.000    0.000    0.000    0.000    0.000 
#
# Total GULP energy -78187.880685 kJ/mol
# GULP energy per Si atom -5584.848620 kJ/mol
# Density = 1.999001 g / cm^3
# Si number density = 20.035608 Si / 1000 Ang^3
#
#
#
# Elastic Constant Matrix: (Units=GPa)
#
#
# Indices 1 2 3 4 5 6 
#
# 1 128.9443 61.3047 53.6426 0.0000 -10.6191 0.0000
# 2 61.3047 88.8972 36.8044 0.0000 3.6288 0.0000
# 3 53.6426 36.8044 118.2858 0.0000 -17.7685 0.0000
# 4 0.0000 0.0000 0.0000 24.4264 0.0000 -0.2600
# 5 -10.6191 3.6288 -17.7685 0.0000 36.5838 0.0000
# 6 0.0000 0.0000 0.0000 -0.2600 0.0000 15.6762
#
#
#
# Elastic Compliance Matrix: (Units=1/GPa)
#
#
# Indices 1 2 3 4 5 6 
#
# 1 0.012979 -0.007843 -0.002980 0.000000 0.003098 0.000000
# 2 -0.007843 0.018078 -0.002890 0.000000 -0.005474 0.000000
# 3 -0.002980 -0.002890 0.011454 0.000000 0.004985 0.000000
# 4 0.000000 0.000000 0.000000 0.040947 0.000000 0.000679
# 5 0.003098 -0.005474 0.004985 0.000000 0.031198 0.000000
# 6 0.000000 0.000000 0.000000 0.000679 0.000000 0.063802
#
#
# Mechanical properties :
#
#
# Convention : Reuss Voigt Hill
#
# Bulk Modulus (GPa) = 66.29871 71.07009 68.68440
# Shear Modulus (GPa) = 23.70656 27.62899 25.66778
#
# Velocity S-wave (km/s) = 3.44353 3.71751 3.58314
# Velocity P-wave (km/s) = 6.99806 7.34680 7.17455
#
# Compressibility (1/GPa) = 0.01508325
#
# Stress axis : x y z
#
# Youngs Moduli (GPa) = 77.04633 55.31669 87.30797
#
# Poissons Ratio (x) = 0.43386 0.26020
# Poissons Ratio (y) = 0.60429 0.25234
# Poissons Ratio (z) = 0.22962 0.15987
#
# Static dielectric constant tensor:
#      x y z
#    x 1.729910 0.000000 -0.012540 
#    y 0.000000 1.704250 0.000000 
#    z -0.012540 0.000000 1.712480 
# 
# From -- ./inp_files/23621.got.cif
#   From: 2010.05.17/outbox.cif.g08.bks.cpg/sg5_12_cif.got.tgz:23621.got - 2010.06.03 18:56:24.
