data_PCOD9128247
_publ_section_title
;
Structure prediction by ZEFSAII (Michael W. Deem and Ramdas Pophale) SiO2 
 PCOD9128247
Probable space group: C 2
;
_chemical_formula_sum "Si O2"
_cell_formula_units_Z 32
_cell_length_a 21.520818
_cell_length_b 8.093028
_cell_length_c 25.700745
_cell_angle_alpha 90.000000
_cell_angle_beta 162.445195
_cell_angle_gamma 90.000000
_cell_volume 1350.120927
_symmetry_space_group_name_H-M "C 2"
_symmetry_group_IT_number 5
_symmetry_cell_setting 'monoclinic'
loop_
_space_group_symop_operation_xyz
x,y,z
-x,y,-z
1/2+x,1/2+y,z
1/2-x,1/2+y,-z
loop_
_atom_site_type_symbol
_atom_site_label
_atom_site_fract_x
_atom_site_fract_y
_atom_site_fract_z
Si Si1 0.772041 0.430000 0.507988
Si Si2 0.746244 0.366835 0.209704
Si Si3 0.330892 0.572256 0.013963
Si Si4 0.362151 0.129406 0.668884
Si Si5 0.969102 0.179172 0.724973
Si Si6 0.711860 0.701393 0.137368
Si Si7 0.275024 0.565043 0.160423
Si Si8 0.913187 0.751358 0.817120
O O1 0.663937 0.297438 0.384909
O O2 0.720138 0.498275 0.524885
O O3 0.974884 0.335512 0.690768
O O4 0.757413 0.598965 0.463539
O O5 0.827713 0.543703 0.255406
O O6 0.833571 0.211276 0.247590
O O7 0.745080 0.338825 0.270276
O O8 0.500000 0.372303 0.000000
O O9 0.464364 0.675583 0.162832
O O10 0.322295 0.653073 0.950290
O O11 0.434989 0.391651 0.087319
O O12 0.102256 0.577736 0.856267
O O13 0.310581 0.160062 0.686994
O O14 0.108764 0.055595 0.802509
O O15 0.500000 0.711351 0.000000
O O16 0.789973 0.887958 0.198936
O O17 0.047410 0.622968 0.958615
#
# Coordination Sequence:
#
# PCOD9128247 Si02
#       8
#     4   4   4   4   4   4   4   4
#     4  10  24  40  55  86 137 168 202 251 338 397
#     4   9  19  38  54  89 132 163 200 263 331 376
#     4  12  22  36  65  96 124 157 221 272 309 381
#     4  11  23  38  62  93 126 170 209 268 325 383
#     4  11  23  41  60  97 122 170 211 268 329 384
#     4  11  21  35  56  94 132 161 197 269 338 372
#     4  11  21  36  62  92 127 160 215 266 317 379
#     4  11  20  38  60  93 132 161 213 269 321 380
#
# _framework density 23.70158
#
# number of rings (size 3 to 8) (size 9 to 14) (size 15 to 20)
#    0.000    1.250    6.250    2.625    1.750    0.000 
#    0.000    0.000    0.000    3.000    6.500    1.750 
#    0.000    0.000    0.000    0.000    0.000    0.000 
#
# Total GULP energy -89144.054732 kJ/mol
# GULP energy per Si atom -5571.503421 kJ/mol
# Density = 2.364763 g / cm^3
# Si number density = 23.701580 Si / 1000 Ang^3
#
#
#
# Elastic Constant Matrix: (Units=GPa)
#
#
# Indices 1 2 3 4 5 6 
#
# 1 158.1212 51.3214 37.0752 0.0121 -20.1792 0.0011
# 2 51.3214 127.4885 7.9612 0.0455 -17.2903 0.0003
# 3 37.0752 7.9612 62.5274 0.0719 -30.0123 -0.0053
# 4 0.0121 0.0455 0.0719 18.8689 0.0015 -6.4427
# 5 -20.1792 -17.2903 -30.0123 0.0015 37.0978 -0.0029
# 6 0.0011 0.0003 -0.0053 -6.4427 -0.0029 40.8036
#
#
#
# Elastic Compliance Matrix: (Units=1/GPa)
#
#
# Indices 1 2 3 4 5 6 
#
# 1 0.008428 -0.003214 -0.005079 0.000023 -0.001023 0.000003
# 2 -0.003214 0.009666 0.003267 -0.000036 0.005400 -0.000005
# 3 -0.005079 0.003267 0.029416 -0.000123 0.022558 -0.000014
# 4 0.000023 -0.000036 -0.000123 0.056018 -0.000106 0.008845
# 5 -0.001023 0.005400 0.022558 -0.000106 0.047166 -0.000010
# 6 0.000003 -0.000005 -0.000014 0.008845 -0.000010 0.025904
#
#
# Mechanical properties :
#
#
# Convention : Reuss Voigt Hill
#
# Bulk Modulus (GPa) = 26.69671 60.09473 43.39572
# Shear Modulus (GPa) = 25.10850 36.13935 30.62392
#
# Velocity S-wave (km/s) = 3.25831 3.90906 3.59843
# Velocity P-wave (km/s) = 5.04416 6.76640 5.96773
#
# Compressibility (1/GPa) = 0.03745780
#
# Stress axis : x y z
#
# Youngs Moduli (GPa) = 118.65419 103.45456 33.99508
#
# Poissons Ratio (x) = 0.33253 0.17266
# Poissons Ratio (y) = 0.38138 -0.11106
# Poissons Ratio (z) = 0.60262 -0.33798
#
# Static dielectric constant tensor:
#      x y z
#    x 1.921950 0.000000 0.088240 
#    y 0.000000 2.072800 -0.000010 
#    z 0.088240 -0.000010 2.024220 
# 
# From -- ./inp_files/71228.got.cif
#   From: 2010.05.17/outbox.cif.g08.bks.cpg/sg5_36_cif.got.tgz:71228.got - 2010.06.03 18:56:24.
