data_PCOD9128493
_publ_section_title
;
Structure prediction by ZEFSAII (Michael W. Deem and Ramdas Pophale) SiO2 
 PCOD9128493
Probable space group: C 2
;
_chemical_formula_sum "Si O2"
_cell_formula_units_Z 32
_cell_length_a 15.741040
_cell_length_b 15.489200
_cell_length_c 12.565625
_cell_angle_alpha 90.000000
_cell_angle_beta 152.091629
_cell_angle_gamma 90.000000
_cell_volume 1433.993026
_symmetry_space_group_name_H-M "C 2"
_symmetry_group_IT_number 5
_symmetry_cell_setting 'monoclinic'
loop_
_space_group_symop_operation_xyz
x,y,z
-x,y,-z
1/2+x,1/2+y,z
1/2-x,1/2+y,-z
loop_
_atom_site_type_symbol
_atom_site_label
_atom_site_fract_x
_atom_site_fract_y
_atom_site_fract_z
Si Si1 0.297711 0.354410 0.560504
Si Si2 0.119147 0.601446 0.540368
Si Si3 0.888461 0.209622 0.243125
Si Si4 0.779353 0.552104 0.041121
Si Si5 0.880046 0.363652 0.076177
Si Si6 0.809864 0.796380 0.333280
Si Si7 0.300817 0.224300 0.752086
Si Si8 0.973699 0.006704 0.855108
O O1 0.305531 0.314417 0.453130
O O2 0.351255 0.293333 0.717477
O O3 0.416682 0.438765 0.703845
O O4 0.087785 0.378763 0.339233
O O5 0.176270 0.692658 0.655222
O O6 0.303343 0.566096 0.694531
O O7 0.000000 0.552272 0.500000
O O8 0.971406 0.596183 0.282914
O O9 0.834549 0.275244 0.089146
O O10 0.792238 0.252697 0.239488
O O11 0.106611 0.190677 0.487191
O O12 0.804576 0.115395 0.138477
O O13 0.791345 0.453645 0.014057
O O14 0.647733 0.553813 0.999276
O O15 0.840022 0.338857 0.909281
O O16 0.000000 0.831649 0.500000
O O17 0.500000 0.181981 0.000000
O O18 0.000000 0.962954 0.000000
#
# Coordination Sequence:
#
# PCOD9128493 Si02
#       8
#     4   4   4   4   4   4   4   4
#     4  11  25  46  72 108 140 194 252 302 385 436
#     4  11  24  45  70 108 145 195 243 312 372 445
#     4  10  25  47  71 111 143 191 244 299 374 439
#     4  12  26  46  75 107 154 195 249 306 379 451
#     4  11  25  48  74 104 152 196 241 313 369 454
#     4  11  25  45  74 102 148 195 247 304 378 447
#     4  10  24  44  75 102 137 188 240 305 359 440
#     4  12  26  41  70 107 146 188 247 311 368 447
#
# _framework density 22.315308999999999
#
# number of rings (size 3 to 8) (size 9 to 14) (size 15 to 20)
#    0.000    1.000    2.500    3.000   10.500    0.000 
#    6.750    0.000    0.000    0.000    0.000    0.000 
#    0.000    0.000    0.000    0.000    0.000    0.000 
#
# Total GULP energy -89120.603062 kJ/mol
# GULP energy per Si atom -5570.037691 kJ/mol
# Density = 2.226452 g / cm^3
# Si number density = 22.315309 Si / 1000 Ang^3
#
#
#
# Elastic Constant Matrix: (Units=GPa)
#
#
# Indices 1 2 3 4 5 6 
#
# 1 94.2681 25.2912 12.6552 0.0000 -2.9036 0.0000
# 2 25.2912 74.3713 47.8178 0.0000 0.7946 0.0000
# 3 12.6552 47.8178 104.7749 0.0000 1.3265 0.0000
# 4 0.0000 0.0000 0.0000 3.7159 0.0000 -6.5281
# 5 -2.9036 0.7946 1.3265 0.0000 34.0348 0.0000
# 6 0.0000 0.0000 0.0000 -6.5281 0.0000 37.5648
#
#
#
# Elastic Compliance Matrix: (Units=1/GPa)
#
#
# Indices 1 2 3 4 5 6 
#
# 1 0.011737 -0.004363 0.000560 0.000000 0.001081 0.000000
# 2 -0.004363 0.020652 -0.008892 0.000000 -0.000508 0.000000
# 3 0.000560 -0.008892 0.013538 0.000000 -0.000272 0.000000
# 4 0.000000 0.000000 0.000000 0.387384 0.000000 0.067321
# 5 0.001081 -0.000508 -0.000272 0.000000 0.029496 0.000000
# 6 0.000000 0.000000 0.000000 0.067321 0.000000 0.038320
#
#
# Mechanical properties :
#
#
# Convention : Reuss Voigt Hill
#
# Bulk Modulus (GPa) = 48.69181 49.43807 49.06494
# Shear Modulus (GPa) = 9.37447 27.57309 18.47378
#
# Velocity S-wave (km/s) = 2.05184 3.51894 2.88036
# Velocity P-wave (km/s) = 5.24220 6.22198 5.75299
#
# Compressibility (1/GPa) = 0.02053733
#
# Stress axis : x y z
#
# Youngs Moduli (GPa) = 85.20295 48.42067 73.86445
#
# Poissons Ratio (x) = 0.21125 -0.04135
# Poissons Ratio (y) = 0.37172 0.65681
# Poissons Ratio (z) = -0.04770 0.43056
#
# Static dielectric constant tensor:
#      x y z
#    x 1.874710 0.000000 -0.045620 
#    y 0.000000 1.808020 0.000000 
#    z -0.045620 0.000000 1.869650 
# 
# From -- ./inp_files/43372.got.cif
#   From: 2010.05.17/outbox.cif.g08.bks.cpg/sg5_22_cif.got.tgz:43372.got - 2010.06.03 18:56:24.
