data_PCOD9128492
_publ_section_title
;
Structure prediction by ZEFSAII (Michael W. Deem and Ramdas Pophale) SiO2 
 PCOD9128492
Probable space group: C 2
;
_chemical_formula_sum "Si O2"
_cell_formula_units_Z 20
_cell_length_a 15.504985
_cell_length_b 5.191110
_cell_length_c 21.577299
_cell_angle_alpha 90.000000
_cell_angle_beta 28.328694
_cell_angle_gamma 90.000000
_cell_volume 824.122003
_symmetry_space_group_name_H-M "C 2"
_symmetry_group_IT_number 5
_symmetry_cell_setting 'monoclinic'
loop_
_space_group_symop_operation_xyz
x,y,z
-x,y,-z
1/2+x,1/2+y,z
1/2-x,1/2+y,-z
loop_
_atom_site_type_symbol
_atom_site_label
_atom_site_fract_x
_atom_site_fract_y
_atom_site_fract_z
Si Si1 0.500000 0.209551 0.500000
Si Si2 0.234402 0.267407 0.551357
Si Si3 0.864293 0.084924 0.213078
Si Si4 0.000000 0.881379 0.000000
Si Si5 0.335814 0.723477 0.847295
Si Si6 0.570609 0.094067 0.123620
O O1 0.368417 0.320031 0.526321
O O2 0.651267 0.070373 0.362185
O O3 0.201986 0.533189 0.533818
O O4 0.036636 0.161570 0.698751
O O5 0.951117 0.844500 0.193746
O O6 0.936971 0.047994 0.097937
O O7 0.941785 0.356536 0.186796
O O8 0.823287 0.704850 0.101311
O O9 0.353495 0.025030 0.857068
O O10 0.237295 0.604666 0.970058
#
# Coordination Sequence:
#
# PCOD9128492 Si02
#       6
#     2   4   4   2   4   4
#     4  12  28  54  82 114 166 224 258 338 410 482
#     4  12  31  51  79 118 163 215 271 330 403 491
#     4  11  26  47  74 111 148 202 262 316 402 477
#     4  10  24  44  74 110 150 196 256 336 392 464
#     4  11  24  48  73 112 149 198 258 331 389 472
#     4  11  25  45  76 103 144 197 256 316 385 472
#
# _framework density 24.268249999999998
#
# number of rings (size 3 to 8) (size 9 to 14) (size 15 to 20)
#    0.000    0.800    2.000    3.600    2.800   14.400 
#    0.000    0.000    0.000    0.000    0.000    0.000 
#    0.000    0.000    0.000    0.000    0.000    0.000 
#
# Total GULP energy -55780.514451 kJ/mol
# GULP energy per Si atom -5578.051445 kJ/mol
# Density = 2.421301 g / cm^3
# Si number density = 24.268250 Si / 1000 Ang^3
#
#
#
# Elastic Constant Matrix: (Units=GPa)
#
#
# Indices 1 2 3 4 5 6 
#
# 1 115.8609 14.4071 22.6641 -0.0017 -13.4210 0.0028
# 2 14.4071 95.5371 18.9130 -0.0026 -2.3011 0.0102
# 3 22.6641 18.9130 188.2041 -0.0021 -19.1934 0.0006
# 4 -0.0017 -0.0026 -0.0021 23.1854 -0.0014 12.5005
# 5 -13.4210 -2.3011 -19.1934 -0.0014 47.7815 -0.0014
# 6 0.0028 0.0102 0.0006 12.5005 -0.0014 25.8885
#
#
#
# Elastic Compliance Matrix: (Units=1/GPa)
#
#
# Indices 1 2 3 4 5 6 
#
# 1 0.009184 -0.001181 -0.000761 0.000001 0.002217 -0.000001
# 2 -0.001181 0.010832 -0.000967 0.000004 -0.000198 -0.000006
# 3 -0.000761 -0.000967 0.005710 0.000000 0.002033 0.000000
# 4 0.000001 0.000004 0.000000 0.058311 0.000002 -0.028156
# 5 0.002217 -0.000198 0.002033 0.000002 0.022358 0.000000
# 6 -0.000001 -0.000006 0.000000 -0.028156 0.000000 0.052223
#
#
# Mechanical properties :
#
#
# Convention : Reuss Voigt Hill
#
# Bulk Modulus (GPa) = 50.23150 56.84116 53.53633
# Shear Modulus (GPa) = 29.22776 42.27893 35.75335
#
# Velocity S-wave (km/s) = 3.47416 4.17844 3.84247
# Velocity P-wave (km/s) = 6.06930 6.83754 6.46484
#
# Compressibility (1/GPa) = 0.01990783
#
# Stress axis : x y z
#
# Youngs Moduli (GPa) = 108.89016 92.32100 175.14633
#
# Poissons Ratio (x) = 0.10901 0.13332
# Poissons Ratio (y) = 0.12858 0.16928
# Poissons Ratio (z) = 0.08288 0.08923
#
# Static dielectric constant tensor:
#      x y z
#    x 2.136340 0.000000 -0.042190 
#    y 0.000000 1.972220 0.000000 
#    z -0.042190 0.000000 1.920770 
# 
# From -- ./inp_files/45362.got.cif
#   From: 2010.05.17/outbox.cif.g08.bks.cpg/sg5_23_cif.got.tgz:45362.got - 2010.06.03 18:56:24.
