data_PCOD9128452
_publ_section_title
;
Structure prediction by ZEFSAII (Michael W. Deem and Ramdas Pophale) SiO2 
 PCOD9128452
Probable space group: C 2
;
_chemical_formula_sum "Si O2"
_cell_formula_units_Z 16
_cell_length_a 7.284455
_cell_length_b 12.145175
_cell_length_c 9.111324
_cell_angle_alpha 90.000000
_cell_angle_beta 61.733153
_cell_angle_gamma 90.000000
_cell_volume 709.963035
_symmetry_space_group_name_H-M "C 2"
_symmetry_group_IT_number 5
_symmetry_cell_setting 'monoclinic'
loop_
_space_group_symop_operation_xyz
x,y,z
-x,y,-z
1/2+x,1/2+y,z
1/2-x,1/2+y,-z
loop_
_atom_site_type_symbol
_atom_site_label
_atom_site_fract_x
_atom_site_fract_y
_atom_site_fract_z
Si Si1 0.500000 0.383730 0.500000
Si Si2 0.073254 0.509998 0.634131
Si Si3 0.377263 0.216591 0.803330
Si Si4 0.000000 0.079341 0.000000
Si Si5 0.809002 0.399204 0.957879
O O1 0.300298 0.459213 0.546992
O O2 0.446235 0.304966 0.657258
O O3 0.000000 0.541824 0.500000
O O4 0.043789 0.618424 0.746082
O O5 0.913362 0.419759 0.761063
O O6 0.159654 0.153991 0.847779
O O7 0.311924 0.286024 0.970477
O O8 0.854677 0.998644 0.959389
O O9 0.000000 0.404237 0.000000
#
# Coordination Sequence:
#
# PCOD9128452 Si02
#       5
#     2   4   4   2   4
#     4  12  24  46  70  98 152 172 228 292 344 398
#     4  11  26  46  71 105 137 182 233 282 343 412
#     4  11  23  46  70 102 140 185 221 291 345 400
#     4  10  24  44  70 100 140 174 238 278 334 416
#     4  11  23  46  70 100 138 186 226 281 341 414
#
# _framework density 22.536383000000001
#
# number of rings (size 3 to 8) (size 9 to 14) (size 15 to 20)
#    0.000    1.000    5.000    0.000    7.000    0.000 
#   11.250    5.000    0.000    0.000    0.000    0.000 
#    0.000    0.000    0.000    0.000    0.000    0.000 
#
# Total GULP energy -44715.303712 kJ/mol
# GULP energy per Si atom -5589.412964 kJ/mol
# Density = 2.248509 g / cm^3
# Si number density = 22.536383 Si / 1000 Ang^3
#
#
#
# Elastic Constant Matrix: (Units=GPa)
#
#
# Indices 1 2 3 4 5 6 
#
# 1 109.9684 73.7886 30.6795 0.0000 -36.0430 0.0000
# 2 73.7886 150.5693 53.7215 0.0000 -32.7933 0.0000
# 3 30.6795 53.7215 80.2940 0.0000 -30.1157 0.0000
# 4 0.0000 0.0000 0.0000 50.6157 0.0000 -28.9267
# 5 -36.0430 -32.7933 -30.1157 0.0000 37.1105 0.0000
# 6 0.0000 0.0000 0.0000 -28.9267 0.0000 37.8041
#
#
#
# Elastic Compliance Matrix: (Units=1/GPa)
#
#
# Indices 1 2 3 4 5 6 
#
# 1 0.016881 -0.006421 0.002684 0.000000 0.012900 0.000000
# 2 -0.006421 0.011665 -0.005497 0.000000 -0.000390 0.000000
# 3 0.002684 -0.005497 0.020503 0.000000 0.014388 0.000000
# 4 0.000000 0.000000 0.000000 0.035110 0.000000 0.026865
# 5 0.012900 -0.000390 0.014388 0.000000 0.050807 0.000000
# 6 0.000000 0.000000 0.000000 0.026865 0.000000 0.047009
#
#
# Mechanical properties :
#
#
# Convention : Reuss Voigt Hill
#
# Bulk Modulus (GPa) = 32.69997 73.02341 52.86169
# Shear Modulus (GPa) = 23.73762 37.28220 30.50991
#
# Velocity S-wave (km/s) = 3.24898 4.07174 3.68340
# Velocity P-wave (km/s) = 5.34938 7.38770 6.44958
#
# Compressibility (1/GPa) = 0.03058107
#
# Stress axis : x y z
#
# Youngs Moduli (GPa) = 59.23751 85.72934 48.77347
#
# Poissons Ratio (x) = 0.55047 -0.13092
# Poissons Ratio (y) = 0.38037 0.26811
# Poissons Ratio (z) = -0.15901 0.47126
#
# Static dielectric constant tensor:
#      x y z
#    x 1.819760 0.000000 -0.007520 
#    y 0.000000 1.865830 0.000000 
#    z -0.007520 0.000000 1.848220 
# 
# From -- ./inp_files/13667.got.cif
#   From: 2010.05.17/outbox.cif.g08.bks.cpg/sg5_7_cif.got.tgz:13667.got - 2010.06.03 18:56:24.
