data_PCOD9128627
_publ_section_title
;
Structure prediction by ZEFSAII (Michael W. Deem and Ramdas Pophale) SiO2 
 PCOD9128627
Probable space group: C 2
;
_chemical_formula_sum "Si O2"
_cell_formula_units_Z 30
_cell_length_a 5.753985
_cell_length_b 16.344934
_cell_length_c 16.144840
_cell_angle_alpha 90.000000
_cell_angle_beta 112.506761
_cell_angle_gamma 90.000000
_cell_volume 1402.748319
_symmetry_space_group_name_H-M "C 2"
_symmetry_group_IT_number 5
_symmetry_cell_setting 'monoclinic'
loop_
_space_group_symop_operation_xyz
x,y,z
-x,y,-z
1/2+x,1/2+y,z
1/2-x,1/2+y,-z
loop_
_atom_site_type_symbol
_atom_site_label
_atom_site_fract_x
_atom_site_fract_y
_atom_site_fract_z
Si Si1 0.611403 0.426150 0.605852
Si Si2 0.113371 0.335799 0.606286
Si Si3 0.554998 0.039075 0.249726
Si Si4 0.566698 0.594394 0.184245
Si Si5 0.395867 0.310463 0.068886
Si Si6 0.262419 0.714770 0.236090
Si Si7 0.629526 0.964068 0.102023
Si Si8 0.000000 0.172282 0.000000
O O1 0.500000 0.444533 0.500000
O O2 0.381600 0.382530 0.624988
O O3 0.710561 0.504545 0.669010
O O4 0.879075 0.378778 0.624293
O O5 0.178500 0.256905 0.669541
O O6 0.000000 0.318263 0.500000
O O7 0.297622 0.052577 0.262921
O O8 0.604775 0.131551 0.226401
O O9 0.475937 0.976305 0.165302
O O10 0.501870 0.679210 0.220486
O O11 0.353504 0.525686 0.153567
O O12 0.581627 0.618968 0.089524
O O13 0.612215 0.277081 0.157615
O O14 0.224750 0.373269 0.096765
O O15 0.500000 0.352989 0.000000
O O16 0.232757 0.233345 0.014666
O O17 0.500000 0.992954 0.000000
#
# Coordination Sequence:
#
# PCOD9128627 Si02
#       8
#     4   4   4   4   4   4   4   2
#     4  10  24  46  74 103 136 180 226 284 350 416
#     4  10  24  47  75 103 137 177 228 287 348 415
#     4  11  25  42  66  95 134 174 225 282 345 412
#     4  11  25  40  63  95 131 183 221 287 338 418
#     4  12  25  40  59  93 128 175 228 281 333 400
#     4  11  25  41  66  98 135 174 228 278 353 405
#     4  11  26  40  61  92 127 178 233 279 339 406
#     4  12  22  42  60  86 136 174 224 272 342 394
#
# _framework density 21.386589000000001
#
# number of rings (size 3 to 8) (size 9 to 14) (size 15 to 20)
#    0.000    1.067    3.333    1.600   12.133    1.600 
#    0.000    0.000    0.000    0.000    0.000    0.000 
#    0.000    0.000    0.000    0.000    0.000    0.000 
#
# Total GULP energy -83663.750941 kJ/mol
# GULP energy per Si atom -5577.583396 kJ/mol
# Density = 2.133791 g / cm^3
# Si number density = 21.386589 Si / 1000 Ang^3
#
#
#
# Elastic Constant Matrix: (Units=GPa)
#
#
# Indices 1 2 3 4 5 6 
#
# 1 91.2370 27.5452 36.9152 0.0000 11.3098 0.0000
# 2 27.5452 75.2170 44.3242 0.0000 5.6443 0.0000
# 3 36.9152 44.3242 68.9803 0.0000 6.1301 0.0000
# 4 0.0000 0.0000 0.0000 31.8140 0.0000 3.2076
# 5 11.3098 5.6443 6.1301 0.0000 28.4498 0.0000
# 6 0.0000 0.0000 0.0000 3.2076 0.0000 21.6849
#
#
#
# Elastic Compliance Matrix: (Units=1/GPa)
#
#
# Indices 1 2 3 4 5 6 
#
# 1 0.014507 -0.001037 -0.006732 0.000000 -0.004111 0.000000
# 2 -0.001037 0.021519 -0.013182 0.000000 -0.001017 0.000000
# 3 -0.006732 -0.013182 0.026609 0.000000 -0.000442 0.000000
# 4 0.000000 0.000000 0.000000 0.031909 0.000000 -0.004720
# 5 -0.004111 -0.001017 -0.000442 0.000000 0.037081 0.000000
# 6 0.000000 0.000000 0.000000 -0.004720 0.000000 0.046813
#
#
# Mechanical properties :
#
#
# Convention : Reuss Voigt Hill
#
# Bulk Modulus (GPa) = 48.23186 50.33371 49.28279
# Shear Modulus (GPa) = 22.00228 24.83306 23.41767
#
# Velocity S-wave (km/s) = 3.21095 3.41126 3.31262
# Velocity P-wave (km/s) = 6.02896 6.25315 6.14208
#
# Compressibility (1/GPa) = 0.02073318
#
# Stress axis : x y z
#
# Youngs Moduli (GPa) = 68.93291 46.47099 37.58163
#
# Poissons Ratio (x) = 0.04820 0.25299
# Poissons Ratio (y) = 0.07150 0.49539
# Poissons Ratio (z) = 0.46403 0.61257
#
# Static dielectric constant tensor:
#      x y z
#    x 2.084560 0.000000 -0.137900 
#    y 0.000000 1.729780 0.000000 
#    z -0.137900 0.000000 1.807330 
# 
# From -- ./inp_files/49205.got.cif
#   From: 2010.05.17/outbox.cif.g08.bks.cpg/sg5_25_cif.got.tgz:49205.got - 2010.06.03 18:56:24.
