data_PCOD9128570
_publ_section_title
;
Structure prediction by ZEFSAII (Michael W. Deem and Ramdas Pophale) SiO2 
 PCOD9128570
Probable space group: C 2
;
_chemical_formula_sum "Si O2"
_cell_formula_units_Z 26
_cell_length_a 17.457097
_cell_length_b 11.983272
_cell_length_c 12.232497
_cell_angle_alpha 90.000000
_cell_angle_beta 149.915653
_cell_angle_gamma 90.000000
_cell_volume 1282.738274
_symmetry_space_group_name_H-M "C 2"
_symmetry_group_IT_number 5
_symmetry_cell_setting 'monoclinic'
loop_
_space_group_symop_operation_xyz
x,y,z
-x,y,-z
1/2+x,1/2+y,z
1/2-x,1/2+y,-z
loop_
_atom_site_type_symbol
_atom_site_label
_atom_site_fract_x
_atom_site_fract_y
_atom_site_fract_z
Si Si1 0.621040 0.230120 0.917127
Si Si2 0.829174 0.304449 0.742692
Si Si3 0.469761 0.668685 0.338565
Si Si4 0.588961 0.103119 0.493687
Si Si5 0.500000 0.284479 0.000000
Si Si6 0.687954 0.862844 0.533041
Si Si7 0.961029 0.927600 0.579735
O O1 0.534576 0.130027 0.751662
O O2 0.548585 0.337493 0.764734
O O3 0.800634 0.217750 0.116873
O O4 0.581312 0.225254 0.996891
O O5 0.728380 0.192889 0.648562
O O6 0.839167 0.335934 0.627495
O O7 0.720379 0.404964 0.647675
O O8 0.000000 0.296817 0.000000
O O9 0.500000 0.637007 0.500000
O O10 0.592629 0.762666 0.467322
O O11 0.497678 0.548402 0.318567
O O12 0.500000 0.114223 0.500000
O O13 0.640363 0.978323 0.530017
O O14 0.633403 0.352637 0.222293
O O15 0.000000 0.909222 0.500000
#
# Coordination Sequence:
#
# PCOD9128570 Si02
#       7
#     4   4   4   4   2   4   4
#     4  11  24  46  70 100 140 185 232 298 348 432
#     4  11  26  47  73 104 142 184 240 295 358 423
#     4  11  25  42  69  98 137 183 231 282 356 428
#     4  11  27  49  72 105 142 192 239 293 361 426
#     4  12  24  46  68 100 152 176 234 296 356 422
#     4  12  27  45  70 108 140 186 237 293 360 425
#     4  10  24  46  68 100 137 186 235 287 355 426
#
# _framework density 20.26914
#
# number of rings (size 3 to 8) (size 9 to 14) (size 15 to 20)
#    0.000    0.923    4.615    2.308    9.692    1.231 
#    2.769    0.000    0.000    0.000    0.000    0.000 
#    0.000    0.000    0.000    0.000    0.000    0.000 
#
# Total GULP energy -72441.938759 kJ/mol
# GULP energy per Si atom -5572.456828 kJ/mol
# Density = 2.022301 g / cm^3
# Si number density = 20.269140 Si / 1000 Ang^3
#
#
#
# Elastic Constant Matrix: (Units=GPa)
#
#
# Indices 1 2 3 4 5 6 
#
# 1 84.1800 40.8967 27.9429 0.0000 -4.2140 0.0000
# 2 40.8967 84.0609 32.1341 0.0000 19.5624 0.0000
# 3 27.9429 32.1341 144.8312 0.0000 16.2514 0.0000
# 4 0.0000 0.0000 0.0000 4.5388 0.0000 -4.6400
# 5 -4.2140 19.5624 16.2514 0.0000 42.3284 0.0000
# 6 0.0000 0.0000 0.0000 -4.6400 0.0000 31.2177
#
#
#
# Elastic Compliance Matrix: (Units=1/GPa)
#
#
# Indices 1 2 3 4 5 6 
#
# 1 0.017406 -0.009262 -0.002067 0.000000 0.006807 0.000000
# 2 -0.009262 0.019084 -0.001415 0.000000 -0.009199 0.000000
# 3 -0.002067 -0.001415 0.007908 0.000000 -0.002588 0.000000
# 4 0.000000 0.000000 0.000000 0.259797 0.000000 0.038614
# 5 0.006807 -0.009199 -0.002588 0.000000 0.029547 0.000000
# 6 0.000000 0.000000 0.000000 0.038614 0.000000 0.037773
#
#
# Mechanical properties :
#
#
# Convention : Reuss Voigt Hill
#
# Bulk Modulus (GPa) = 52.88444 57.22442 55.05443
# Shear Modulus (GPa) = 12.39754 29.75687 21.07721
#
# Velocity S-wave (km/s) = 2.47583 3.83572 3.22820
# Velocity P-wave (km/s) = 5.85839 6.92175 6.41215
#
# Compressibility (1/GPa) = 0.01890916
#
# Stress axis : x y z
#
# Youngs Moduli (GPa) = 57.45154 52.40019 126.45863
#
# Poissons Ratio (x) = 0.48534 0.26139
# Poissons Ratio (y) = 0.53213 0.17894
# Poissons Ratio (z) = 0.11875 0.07415
#
# Static dielectric constant tensor:
#      x y z
#    x 1.693790 0.000000 0.079570 
#    y 0.000000 1.767070 0.000000 
#    z 0.079570 0.000000 1.699700 
# 
# From -- ./inp_files/44669.got.cif
#   From: 2010.05.17/outbox.cif.g08.bks.cpg/sg5_23_cif.got.tgz:44669.got - 2010.06.03 18:56:24.
