data_PCOD9128047
_publ_section_title
;
Structure prediction by ZEFSAII (Michael W. Deem and Ramdas Pophale) SiO2 
 PCOD9128047
Probable space group: C 2
;
_chemical_formula_sum "Si O2"
_cell_formula_units_Z 20
_cell_length_a 5.391270
_cell_length_b 31.490156
_cell_length_c 5.180793
_cell_angle_alpha 90.000000
_cell_angle_beta 82.173544
_cell_angle_gamma 90.000000
_cell_volume 871.360266
_symmetry_space_group_name_H-M "C 2"
_symmetry_group_IT_number 5
_symmetry_cell_setting 'monoclinic'
loop_
_space_group_symop_operation_xyz
x,y,z
-x,y,-z
1/2+x,1/2+y,z
1/2-x,1/2+y,-z
loop_
_atom_site_type_symbol
_atom_site_label
_atom_site_fract_x
_atom_site_fract_y
_atom_site_fract_z
Si Si1 0.223248 0.525990 0.162585
Si Si2 0.500000 0.802859 0.000000
Si Si3 0.500000 0.246942 0.000000
Si Si4 0.267413 0.117456 0.823957
Si Si5 0.000000 0.360514 0.500000
Si Si6 0.000000 0.688771 0.500000
Si Si7 0.839520 0.936914 0.279942
O O1 0.230946 0.570712 0.312352
O O2 0.168805 0.478159 0.260774
O O3 0.500000 0.522498 0.000000
O O4 0.000000 0.534394 0.000000
O O5 0.749650 0.774996 0.003722
O O6 0.551866 0.831632 0.740639
O O7 0.544132 0.218216 0.740921
O O8 0.288189 0.155606 0.619116
O O9 0.500000 0.121974 0.000000
O O10 0.000000 0.120236 0.000000
O O11 0.786460 0.393166 0.620235
O O12 0.000000 0.951125 0.500000
O O13 0.000000 0.929428 0.000000
#
# Coordination Sequence:
#
# PCOD9128047 Si02
#       7
#     4   2   2   4   2   2   4
#     4   9  21  43  68 104 154 201 243 294 353 414
#     4  12  30  54  78 109 146 187 238 308 386 452
#     4  12  30  52  80 107 148 185 240 306 388 448
#     4  10  23  45  72 110 151 197 247 297 352 429
#     4  12  28  47  82 106 144 192 242 307 366 442
#     4  12  26  51  80 112 144 194 242 309 364 442
#     4  11  26  45  72 109 150 195 248 298 353 430
#
# _framework density 22.952618000000001
#
# number of rings (size 3 to 8) (size 9 to 14) (size 15 to 20)
#    0.000    1.200    1.000    2.400   12.600    3.200 
#   10.800    0.000    0.000    0.000    0.000    0.000 
#    0.000    0.000    0.000    0.000    0.000    0.000 
#
# Total GULP energy -55848.227471 kJ/mol
# GULP energy per Si atom -5584.822747 kJ/mol
# Density = 2.290038 g / cm^3
# Si number density = 22.952618 Si / 1000 Ang^3
#
#
#
# Elastic Constant Matrix: (Units=GPa)
#
#
# Indices 1 2 3 4 5 6 
#
# 1 121.6679 48.4866 40.0458 0.0000 -17.9566 0.0000
# 2 48.4866 211.1492 84.2948 0.0000 -0.0567 0.0000
# 3 40.0458 84.2948 164.7622 0.0000 -16.8949 0.0000
# 4 0.0000 0.0000 0.0000 126.2715 0.0000 30.4134
# 5 -17.9566 -0.0567 -16.8949 0.0000 45.3151 0.0000
# 6 0.0000 0.0000 0.0000 30.4134 0.0000 29.8592
#
#
#
# Elastic Compliance Matrix: (Units=1/GPa)
#
#
# Indices 1 2 3 4 5 6 
#
# 1 0.009818 -0.001814 -0.001102 0.000000 0.003477 0.000000
# 2 -0.001814 0.006347 -0.002994 0.000000 -0.001827 0.000000
# 3 -0.001102 -0.002994 0.008135 0.000000 0.002593 0.000000
# 4 0.000000 0.000000 0.000000 0.010494 0.000000 -0.010689
# 5 0.003477 -0.001827 0.002593 0.000000 0.024410 0.000000
# 6 0.000000 0.000000 0.000000 -0.010689 0.000000 0.044378
#
#
# Mechanical properties :
#
#
# Convention : Reuss Voigt Hill
#
# Bulk Modulus (GPa) = 80.12145 93.69261 86.90703
# Shear Modulus (GPa) = 41.82007 61.93930 51.87968
#
# Velocity S-wave (km/s) = 4.27314 5.20041 4.75941
# Velocity P-wave (km/s) = 7.70256 8.77312 8.25521
#
# Compressibility (1/GPa) = 0.01248105
#
# Stress axis : x y z
#
# Youngs Moduli (GPa) = 101.85666 157.55052 122.93078
#
# Poissons Ratio (x) = 0.28575 0.13544
# Poissons Ratio (y) = 0.18474 0.36803
# Poissons Ratio (z) = 0.11222 0.47168
#
# Static dielectric constant tensor:
#      x y z
#    x 1.856140 0.000000 -0.016180 
#    y 0.000000 1.864880 0.000000 
#    z -0.016180 0.000000 1.935790 
# 
# From -- ./inp_files/1273.got.cif
#   From: 2010.05.17/outbox.cif.g08.bks.cpg/sg5_1_cif.got.tgz:1273.got - 2010.06.03 18:56:24.
