data_PCOD9128487
_publ_section_title
;
Structure prediction by ZEFSAII (Michael W. Deem and Ramdas Pophale) SiO2 
 PCOD9128487
Probable space group: C 2
;
_chemical_formula_sum "Si O2"
_cell_formula_units_Z 20
_cell_length_a 23.031605
_cell_length_b 6.794688
_cell_length_c 5.113306
_cell_angle_alpha 90.000000
_cell_angle_beta 60.119699
_cell_angle_gamma 90.000000
_cell_volume 693.823023
_symmetry_space_group_name_H-M "C 2"
_symmetry_group_IT_number 5
_symmetry_cell_setting 'monoclinic'
loop_
_space_group_symop_operation_xyz
x,y,z
-x,y,-z
1/2+x,1/2+y,z
1/2-x,1/2+y,-z
loop_
_atom_site_type_symbol
_atom_site_label
_atom_site_fract_x
_atom_site_fract_y
_atom_site_fract_z
Si Si1 0.660386 0.083060 0.714111
Si Si2 0.500000 0.360992 0.000000
Si Si3 0.384234 0.474287 0.942448
Si Si4 0.500000 0.068253 0.500000
Si Si5 0.732204 0.761729 0.846578
Si Si6 0.387642 0.788344 0.548705
O O1 0.632104 0.247210 0.972152
O O2 0.693319 0.198972 0.393815
O O3 0.716736 0.965759 0.742388
O O4 0.610453 0.915401 0.719690
O O5 0.442562 0.504323 0.019671
O O6 0.490634 0.213693 0.270105
O O7 0.317306 0.594516 0.155572
O O8 0.403677 0.568117 0.619550
O O9 0.436058 0.921004 0.624703
O O10 0.693752 0.792345 0.208448
#
# Coordination Sequence:
#
# PCOD9128487 Si02
#       6
#     4   2   4   2   4   4
#     4  12  21  50  75 110 161 201 266 332 408 486
#     4  12  26  50  80 116 160 214 272 344 402 492
#     4  10  25  48  73 117 151 208 270 327 407 484
#     4  12  26  48  82 116 162 212 276 338 408 488
#     4  10  24  44  73 112 150 205 262 328 400 489
#     4  10  26  45  74 113 151 211 266 332 406 487
#
# _framework density 28.825794999999999
#
# number of rings (size 3 to 8) (size 9 to 14) (size 15 to 20)
#    1.200    0.000    4.000    1.200    0.000    6.400 
#    7.200    0.000    0.000    0.000    0.000    0.000 
#    0.000    0.000    0.000    0.000    0.000    0.000 
#
# Total GULP energy -55800.980224 kJ/mol
# GULP energy per Si atom -5580.098022 kJ/mol
# Density = 2.876019 g / cm^3
# Si number density = 28.825795 Si / 1000 Ang^3
#
#
#
# Elastic Constant Matrix: (Units=GPa)
#
#
# Indices 1 2 3 4 5 6 
#
# 1 96.4117 68.5077 32.1194 0.0000 8.4306 0.0000
# 2 68.5077 225.3559 65.4143 0.0000 14.6765 0.0000
# 3 32.1194 65.4143 120.7759 0.0000 31.9364 0.0000
# 4 0.0000 0.0000 0.0000 39.6496 0.0000 6.7812
# 5 8.4306 14.6765 31.9364 0.0000 36.8464 0.0000
# 6 0.0000 0.0000 0.0000 6.7812 0.0000 78.4753
#
#
#
# Elastic Compliance Matrix: (Units=1/GPa)
#
#
# Indices 1 2 3 4 5 6 
#
# 1 0.013495 -0.003636 -0.001539 0.000000 -0.000306 0.000000
# 2 -0.003636 0.006252 -0.002569 0.000000 0.000569 0.000000
# 3 -0.001539 -0.002569 0.012606 0.000000 -0.009551 0.000000
# 4 0.000000 0.000000 0.000000 0.025599 0.000000 -0.002212
# 5 -0.000306 0.000569 -0.009551 0.000000 0.035261 0.000000
# 6 0.000000 0.000000 0.000000 -0.002212 0.000000 0.012934
#
#
# Mechanical properties :
#
#
# Convention : Reuss Voigt Hill
#
# Bulk Modulus (GPa) = 59.29593 86.06961 72.68277
# Shear Modulus (GPa) = 39.29056 49.42772 44.35914
#
# Velocity S-wave (km/s) = 3.69594 4.14539 3.92710
# Velocity P-wave (km/s) = 6.23124 7.26882 6.76994
#
# Compressibility (1/GPa) = 0.01686456
#
# Stress axis : x y z
#
# Youngs Moduli (GPa) = 74.10055 159.96125 79.32645
#
# Poissons Ratio (x) = 0.58161 0.12207
# Poissons Ratio (y) = 0.26942 0.20382
# Poissons Ratio (z) = 0.11403 0.41100
#
# Static dielectric constant tensor:
#      x y z
#    x 2.271570 0.000000 -0.090620 
#    y 0.000000 2.196560 0.000000 
#    z -0.090620 0.000000 2.352890 
# 
# From -- ./inp_files/10036.got.cif
#   From: 2010.05.17/outbox.cif.g08.bks.cpg/sg5_6_cif.got.tgz:10036.got - 2010.06.03 18:56:24.
