data_PCOD9128000
_publ_section_title
;
Structure prediction by ZEFSAII (Michael W. Deem and Ramdas Pophale) SiO2 
 PCOD9128000
Probable space group: C 2
;
_chemical_formula_sum "Si O2"
_cell_formula_units_Z 18
_cell_length_a 7.318635
_cell_length_b 18.712917
_cell_length_c 5.227923
_cell_angle_alpha 90.000000
_cell_angle_beta 105.015128
_cell_angle_gamma 90.000000
_cell_volume 691.534416
_symmetry_space_group_name_H-M "C 2"
_symmetry_group_IT_number 5
_symmetry_cell_setting 'monoclinic'
loop_
_space_group_symop_operation_xyz
x,y,z
-x,y,-z
1/2+x,1/2+y,z
1/2-x,1/2+y,-z
loop_
_atom_site_type_symbol
_atom_site_label
_atom_site_fract_x
_atom_site_fract_y
_atom_site_fract_z
Si Si1 0.771773 0.935520 0.903559
Si Si2 0.709952 0.635495 0.005955
Si Si3 0.270970 0.517773 0.396997
Si Si4 0.000000 0.689649 0.500000
Si Si5 0.195739 0.274789 0.716950
O O1 0.715916 0.855904 0.808150
O O2 0.710445 0.990426 0.656290
O O3 0.000000 0.936435 0.000000
O O4 0.708052 0.959363 0.162533
O O5 0.861731 0.638807 0.285329
O O6 0.500000 0.608384 0.000000
O O7 0.769376 0.591426 0.774500
O O8 0.690953 0.719282 0.945050
O O9 0.500000 0.517550 0.500000
O O10 0.870410 0.743706 0.617681
O O11 0.000000 0.265064 0.500000
#
# Coordination Sequence:
#
# PCOD9128000 Si02
#       5
#     4   4   4   2   4
#     4  10  23  44  76 110 155 205 258 317 392 466
#     4  12  25  48  81 115 158 208 264 326 394 473
#     4  10  23  44  77 112 153 207 254 319 395 461
#     4  12  28  48  78 112 156 206 264 328 392 464
#     4  12  27  49  77 113 158 206 266 328 392 467
#
# _framework density 26.029074000000001
#
# number of rings (size 3 to 8) (size 9 to 14) (size 15 to 20)
#    0.000    0.889    2.222    4.667   10.889    0.000 
#    2.000    0.000    0.000    0.000    0.000    0.000 
#    0.000    0.000    0.000    0.000    0.000    0.000 
#
# Total GULP energy -50436.069685 kJ/mol
# GULP energy per Si atom -5604.007743 kJ/mol
# Density = 2.596983 g / cm^3
# Si number density = 26.029074 Si / 1000 Ang^3
#
#
#
# Elastic Constant Matrix: (Units=GPa)
#
#
# Indices 1 2 3 4 5 6 
#
# 1 97.6082 12.4465 47.0349 0.0000 12.8881 0.0000
# 2 12.4465 197.3508 70.8653 0.0000 4.0818 0.0000
# 3 47.0349 70.8653 222.7342 0.0000 16.1154 0.0000
# 4 0.0000 0.0000 0.0000 43.5715 0.0000 3.8281
# 5 12.8881 4.0818 16.1154 0.0000 56.3404 0.0000
# 6 0.0000 0.0000 0.0000 3.8281 0.0000 20.2479
#
#
#
# Elastic Compliance Matrix: (Units=1/GPa)
#
#
# Indices 1 2 3 4 5 6 
#
# 1 0.011626 0.000156 -0.002360 0.000000 -0.001996 0.000000
# 2 0.000156 0.005723 -0.001860 0.000000 0.000082 0.000000
# 3 -0.002360 -0.001860 0.005648 0.000000 -0.000941 0.000000
# 4 0.000000 0.000000 0.000000 0.023338 0.000000 -0.004412
# 5 -0.001996 0.000082 -0.000941 0.000000 0.018469 0.000000
# 6 0.000000 0.000000 0.000000 -0.004412 0.000000 0.050222
#
#
# Mechanical properties :
#
#
# Convention : Reuss Voigt Hill
#
# Bulk Modulus (GPa) = 67.25602 86.48740 76.87171
# Shear Modulus (GPa) = 39.02847 49.85505 44.44176
#
# Velocity S-wave (km/s) = 3.87643 4.38123 4.13654
# Velocity P-wave (km/s) = 6.77721 7.67417 7.23960
#
# Compressibility (1/GPa) = 0.01486856
#
# Stress axis : x y z
#
# Youngs Moduli (GPa) = 86.01393 174.72083 177.05945
#
# Poissons Ratio (x) = -0.02718 0.41789
# Poissons Ratio (y) = -0.01338 0.32928
# Poissons Ratio (z) = 0.20301 0.32493
#
# Static dielectric constant tensor:
#      x y z
#    x 2.122320 0.000000 -0.010120 
#    y 0.000000 1.979580 0.000000 
#    z -0.010120 0.000000 2.078460 
# 
# From -- ./inp_files/2494.got.cif
#   From: 2010.05.17/outbox.cif.g08.bks.cpg/sg5_2_cif.got.tgz:2494.got - 2010.06.03 18:56:24.
