data_PCOD9128112
_publ_section_title
;
Structure prediction by ZEFSAII (Michael W. Deem and Ramdas Pophale) SiO2 
 PCOD9128112
Probable space group: C 2
;
_chemical_formula_sum "Si O2"
_cell_formula_units_Z 16
_cell_length_a 24.624104
_cell_length_b 6.653575
_cell_length_c 5.271060
_cell_angle_alpha 90.000000
_cell_angle_beta 130.444209
_cell_angle_gamma 90.000000
_cell_volume 657.233654
_symmetry_space_group_name_H-M "C 2"
_symmetry_group_IT_number 5
_symmetry_cell_setting 'monoclinic'
loop_
_space_group_symop_operation_xyz
x,y,z
-x,y,-z
1/2+x,1/2+y,z
1/2-x,1/2+y,-z
loop_
_atom_site_type_symbol
_atom_site_label
_atom_site_fract_x
_atom_site_fract_y
_atom_site_fract_z
Si Si1 0.671813 0.447340 0.747233
Si Si2 0.333560 0.906675 0.396308
Si Si3 0.376858 0.204770 0.899217
Si Si4 0.516906 0.948063 0.307665
O O1 0.757299 0.454876 0.048510
O O2 0.838302 0.489489 0.701692
O O3 0.651879 0.674571 0.617163
O O4 0.643299 0.344106 0.921748
O O5 0.401043 0.004479 0.455391
O O6 0.148016 0.828234 0.424326
O O7 0.460234 0.133361 0.146282
O O8 0.500000 0.819305 0.500000
O O9 0.500000 0.835416 0.000000
#
# Coordination Sequence:
#
# PCOD9128112 Si02
#       4
#     4   4   4   4
#     4  12  27  45  83 117 157 217 278 328 421 492
#     4  11  26  50  79 118 161 215 271 345 405 494
#     4  11  26  49  74 116 163 209 268 342 408 487
#     4  10  23  46  74 101 155 211 253 329 410 469
#
# _framework density 24.344463000000001
#
# number of rings (size 3 to 8) (size 9 to 14) (size 15 to 20)
#    0.000    1.000    2.500    3.000    3.500    8.000 
#    0.000   27.500    0.000    0.000    0.000    0.000 
#    0.000    0.000    0.000    0.000    0.000    0.000 
#
# Total GULP energy -44577.317274 kJ/mol
# GULP energy per Si atom -5572.164659 kJ/mol
# Density = 2.428905 g / cm^3
# Si number density = 24.344463 Si / 1000 Ang^3
#
#
#
# Elastic Constant Matrix: (Units=GPa)
#
#
# Indices 1 2 3 4 5 6 
#
# 1 130.4155 50.7329 76.6531 0.0000 -8.3759 0.0000
# 2 50.7329 131.0567 76.2285 0.0000 -10.1485 0.0000
# 3 76.6531 76.2285 164.8529 0.0000 -4.6177 0.0000
# 4 0.0000 0.0000 0.0000 29.5139 0.0000 -6.5864
# 5 -8.3759 -10.1485 -4.6177 0.0000 75.9170 0.0000
# 6 0.0000 0.0000 0.0000 -6.5864 0.0000 33.1389
#
#
#
# Elastic Compliance Matrix: (Units=1/GPa)
#
#
# Indices 1 2 3 4 5 6 
#
# 1 0.010869 -0.001674 -0.004259 0.000000 0.000716 0.000000
# 2 -0.001674 0.010789 -0.004182 0.000000 0.001003 0.000000
# 3 -0.004259 -0.004182 0.009968 0.000000 -0.000423 0.000000
# 4 0.000000 0.000000 0.000000 0.035455 0.000000 0.007047
# 5 0.000716 0.001003 -0.000423 0.000000 0.013360 0.000000
# 6 0.000000 0.000000 0.000000 0.007047 0.000000 0.031577
#
#
# Mechanical properties :
#
#
# Convention : Reuss Voigt Hill
#
# Bulk Modulus (GPa) = 87.76469 92.61712 90.19091
# Shear Modulus (GPa) = 36.75214 42.56134 39.65674
#
# Velocity S-wave (km/s) = 3.88966 4.18580 4.04045
# Velocity P-wave (km/s) = 7.50347 7.84144 7.67432
#
# Compressibility (1/GPa) = 0.01139410
#
# Stress axis : x y z
#
# Youngs Moduli (GPa) = 92.00769 92.69050 100.31630
#
# Poissons Ratio (x) = 0.15520 0.42728
# Poissons Ratio (y) = 0.15406 0.41952
# Poissons Ratio (z) = 0.39190 0.38763
#
# Static dielectric constant tensor:
#      x y z
#    x 2.067770 0.000000 -0.079600 
#    y 0.000000 2.016980 0.000000 
#    z -0.079600 0.000000 2.072090 
# 
# From -- ./inp_files/8079.got.cif
#   From: 2010.05.17/outbox.cif.g08.bks.cpg/sg5_5_cif.got.tgz:8079.got - 2010.06.03 18:56:24.
