data_PCOD9128751
_publ_section_title
;
Structure prediction by ZEFSAII (Michael W. Deem and Ramdas Pophale) SiO2 
 PCOD9128751
Probable space group: C 2
;
_chemical_formula_sum "Si O2"
_cell_formula_units_Z 32
_cell_length_a 24.153499
_cell_length_b 7.188480
_cell_length_c 23.089443
_cell_angle_alpha 90.000000
_cell_angle_beta 17.747744
_cell_angle_gamma 90.000000
_cell_volume 1222.035223
_symmetry_space_group_name_H-M "C 2"
_symmetry_group_IT_number 5
_symmetry_cell_setting 'monoclinic'
loop_
_space_group_symop_operation_xyz
x,y,z
-x,y,-z
1/2+x,1/2+y,z
1/2-x,1/2+y,-z
loop_
_atom_site_type_symbol
_atom_site_label
_atom_site_fract_x
_atom_site_fract_y
_atom_site_fract_z
Si Si1 0.169104 0.345860 0.300848
Si Si2 0.790680 0.080044 0.826505
Si Si3 0.379133 0.194826 0.199605
Si Si4 0.669956 0.232922 0.589640
Si Si5 0.143039 0.383850 0.702040
Si Si6 0.160813 0.767461 0.141842
Si Si7 0.937039 0.344268 0.776050
Si Si8 0.021414 0.085111 0.048977
O O1 0.091391 0.182443 0.338861
O O2 0.303720 0.237712 0.210761
O O3 0.280107 0.491641 0.151789
O O4 0.000000 0.440452 0.500000
O O5 0.824026 0.199000 0.850748
O O6 0.846510 0.876478 0.790888
O O7 0.582953 0.114710 0.012023
O O8 0.267099 0.030054 0.341633
O O9 0.399655 0.413291 0.195569
O O10 0.742956 0.236575 0.450270
O O11 0.613414 0.047825 0.681119
O O12 0.484360 0.345769 0.761769
O O13 0.849237 0.303568 0.443835
O O14 0.859745 0.301662 0.917388
O O15 0.115064 0.551719 0.190035
O O16 0.523767 0.754788 0.864374
O O17 0.000000 0.126119 0.000000
#
# Coordination Sequence:
#
# PCOD9128751 Si02
#       8
#     4   4   4   4   4   4   4   4
#     4  10  24  49  85 126 167 216 284 368 446 525
#     4  11  24  45  75 117 159 219 276 341 436 515
#     4  10  24  49  84 116 164 219 275 353 437 515
#     4  12  28  49  77 121 169 231 287 351 423 514
#     4  12  26  47  84 121 169 229 291 347 432 514
#     4  12  26  49  76 116 165 223 287 348 416 509
#     4  12  26  47  75 114 166 219 285 349 420 503
#     4   9  23  49  82 119 166 222 284 354 439 517
#
# _framework density 26.185825000000001
#
# number of rings (size 3 to 8) (size 9 to 14) (size 15 to 20)
#    0.000    1.000    2.500    3.375    5.250    6.500 
#    2.250    2.500   11.000    4.500    0.000    0.000 
#    0.000    0.000    0.000    0.000    0.000    0.000 
#
# Total GULP energy -89090.137425 kJ/mol
# GULP energy per Si atom -5568.133589 kJ/mol
# Density = 2.612623 g / cm^3
# Si number density = 26.185825 Si / 1000 Ang^3
#
#
#
# Elastic Constant Matrix: (Units=GPa)
#
#
# Indices 1 2 3 4 5 6 
#
# 1 119.4022 81.9857 49.8756 -0.0014 11.1309 -0.0007
# 2 81.9857 199.7162 65.2445 -0.0175 12.4049 0.0030
# 3 49.8756 65.2445 134.0774 -0.0143 -1.4418 0.0042
# 4 -0.0014 -0.0175 -0.0143 44.7448 0.0029 11.7180
# 5 11.1309 12.4049 -1.4418 0.0029 39.5739 -0.0005
# 6 -0.0007 0.0030 0.0042 11.7180 -0.0005 46.6582
#
#
#
# Elastic Compliance Matrix: (Units=1/GPa)
#
#
# Indices 1 2 3 4 5 6 
#
# 1 0.012549 -0.004130 -0.002684 -0.000002 -0.002333 0.000001
# 2 -0.004130 0.007471 -0.002113 0.000002 -0.001257 -0.000001
# 3 -0.002684 -0.002113 0.009504 0.000002 0.001763 -0.000001
# 4 -0.000002 0.000002 0.000002 0.023922 -0.000002 -0.006008
# 5 -0.002333 -0.001257 0.001763 -0.000002 0.026384 0.000001
# 6 0.000001 -0.000001 -0.000001 -0.006008 0.000001 0.022941
#
#
# Mechanical properties :
#
#
# Convention : Reuss Voigt Hill
#
# Bulk Modulus (GPa) = 85.68020 94.15640 89.91830
# Shear Modulus (GPa) = 40.15616 43.26806 41.71211
#
# Velocity S-wave (km/s) = 3.92025 4.06932 3.99548
# Velocity P-wave (km/s) = 7.29947 7.62327 7.46312
#
# Compressibility (1/GPa) = 0.01167131
#
# Stress axis : x y z
#
# Youngs Moduli (GPa) = 79.68556 133.85494 105.22297
#
# Poissons Ratio (x) = 0.55283 0.28237
# Poissons Ratio (y) = 0.32911 0.22229
# Poissons Ratio (z) = 0.21384 0.28278
#
# Static dielectric constant tensor:
#      x y z
#    x 2.197430 0.000000 -0.023080 
#    y 0.000000 2.105410 0.000010 
#    z -0.023080 0.000010 2.218780 
# 
# From -- ./inp_files/69644.got.cif
#   From: 2010.05.17/outbox.cif.g08.bks.cpg/sg5_35_cif.got.tgz:69644.got - 2010.06.03 18:56:24.
