data_PCOD9128186
_publ_section_title
;
Structure prediction by ZEFSAII (Michael W. Deem and Ramdas Pophale) SiO2 
 PCOD9128186
Probable space group: C 2
;
_chemical_formula_sum "Si O2"
_cell_formula_units_Z 28
_cell_length_a 9.114804
_cell_length_b 27.115488
_cell_length_c 9.385864
_cell_angle_alpha 90.000000
_cell_angle_beta 35.063112
_cell_angle_gamma 90.000000
_cell_volume 1332.639605
_symmetry_space_group_name_H-M "C 2"
_symmetry_group_IT_number 5
_symmetry_cell_setting 'monoclinic'
loop_
_space_group_symop_operation_xyz
x,y,z
-x,y,-z
1/2+x,1/2+y,z
1/2-x,1/2+y,-z
loop_
_atom_site_type_symbol
_atom_site_label
_atom_site_fract_x
_atom_site_fract_y
_atom_site_fract_z
Si Si1 0.398795 0.230150 0.417128
Si Si2 0.951297 0.894237 0.688798
Si Si3 0.403245 0.825411 0.420123
Si Si4 0.803508 0.635857 0.294921
Si Si5 0.884816 0.983199 0.937623
Si Si6 0.807805 0.302126 0.047707
Si Si7 0.887839 0.542509 0.432523
O O1 0.500000 0.223059 0.500000
O O2 0.179376 0.272169 0.581020
O O3 0.344482 0.181483 0.371714
O O4 0.612380 0.260515 0.161219
O O5 0.194357 0.867794 0.569485
O O6 0.000000 0.920408 0.500000
O O7 0.839809 0.935125 0.879541
O O8 0.792105 0.845672 0.768947
O O9 0.500000 0.818912 0.500000
O O10 0.636251 0.835779 0.131582
O O11 0.500000 0.636436 0.500000
O O12 0.854015 0.587315 0.349696
O O13 0.000000 0.638119 0.000000
O O14 0.113372 0.015839 0.681709
O O15 0.000000 0.969586 0.000000
O O16 0.614048 0.009328 0.184231
O O17 0.000000 0.275533 0.000000
O O18 0.000000 0.557676 0.500000
#
# Coordination Sequence:
#
# PCOD9128186 Si02
#       7
#     4   4   4   4   4   4   4
#     4  11  24  42  65  96 131 181 227 275 337 405
#     4  11  24  39  61  97 132 179 228 276 335 401
#     4  11  24  39  63  93 135 177 227 283 330 389
#     4  12  28  46  72 106 138 171 223 284 341 405
#     4  10  24  42  71 102 134 174 228 281 335 400
#     4  11  21  41  64  91 132 182 231 273 325 404
#     4  10  23  49  72  99 134 177 222 276 342 410
#
# _framework density 21.010932
#
# number of rings (size 3 to 8) (size 9 to 14) (size 15 to 20)
#    0.000    1.143    2.857    2.571    8.000    3.429 
#    0.000    2.143    0.000    0.000    0.000    0.000 
#    0.000    0.000    0.000    0.000    0.000    0.000 
#
# Total GULP energy -77948.364988 kJ/mol
# GULP energy per Si atom -5567.740356 kJ/mol
# Density = 2.096311 g / cm^3
# Si number density = 21.010932 Si / 1000 Ang^3
#
#
#
# Elastic Constant Matrix: (Units=GPa)
#
#
# Indices 1 2 3 4 5 6 
#
# 1 107.5441 50.7403 40.5095 0.0000 22.6235 0.0000
# 2 50.7403 99.5061 28.5471 0.0000 20.7270 0.0000
# 3 40.5095 28.5471 98.8079 0.0000 17.0624 0.0000
# 4 0.0000 0.0000 0.0000 431.1438 0.0000 -240.5920
# 5 22.6235 20.7270 17.0624 0.0000 32.1677 0.0000
# 6 0.0000 0.0000 0.0000 -240.5920 0.0000 181.9061
#
#
#
# Elastic Compliance Matrix: (Units=1/GPa)
#
#
# Indices 1 2 3 4 5 6 
#
# 1 0.014032 -0.005189 -0.003442 0.000000 -0.004699 0.000000
# 2 -0.005189 0.014008 -0.001091 0.000000 -0.004798 0.000000
# 3 -0.003442 -0.001091 0.012448 0.000000 -0.003479 0.000000
# 4 0.000000 0.000000 0.000000 0.008855 0.000000 0.011712
# 5 -0.004699 -0.004798 -0.003479 0.000000 0.039329 0.000000
# 6 0.000000 0.000000 0.000000 0.011712 0.000000 0.020987
#
#
# Mechanical properties :
#
#
# Convention : Reuss Voigt Hill
#
# Bulk Modulus (GPa) = 47.52136 60.60575 54.06355
# Shear Modulus (GPa) = 36.73306 141.44758 89.09032
#
# Velocity S-wave (km/s) = 4.18578 8.21384 6.51874
# Velocity P-wave (km/s) = 6.78436 10.90246 9.07996
#
# Compressibility (1/GPa) = 0.02104317
#
# Stress axis : x y z
#
# Youngs Moduli (GPa) = 71.26686 71.38810 80.33505
#
# Poissons Ratio (x) = 0.37041 0.27653
# Poissons Ratio (y) = 0.36978 0.08767
# Poissons Ratio (z) = 0.24531 0.07791
#
# Static dielectric constant tensor:
#      x y z
#    x 1.137330 0.000000 -0.709090 
#    y 0.000000 1.708940 0.000000 
#    z -0.709090 0.000000 1.359970 
# 
# From -- ./inp_files/17515.got.cif
#   From: 2010.05.17/outbox.cif.g08.bks.cpg/sg5_9_cif.got.tgz:17515.got - 2010.06.03 18:56:24.
