data_PCOD9128221
_publ_section_title
;
Structure prediction by ZEFSAII (Michael W. Deem and Ramdas Pophale) SiO2 
 PCOD9128221
Probable space group: C 2
;
_chemical_formula_sum "Si O2"
_cell_formula_units_Z 28
_cell_length_a 18.474947
_cell_length_b 13.188236
_cell_length_c 5.481429
_cell_angle_alpha 90.000000
_cell_angle_beta 59.896547
_cell_angle_gamma 90.000000
_cell_volume 1155.422064
_symmetry_space_group_name_H-M "C 2"
_symmetry_group_IT_number 5
_symmetry_cell_setting 'monoclinic'
loop_
_space_group_symop_operation_xyz
x,y,z
-x,y,-z
1/2+x,1/2+y,z
1/2-x,1/2+y,-z
loop_
_atom_site_type_symbol
_atom_site_label
_atom_site_fract_x
_atom_site_fract_y
_atom_site_fract_z
Si Si1 0.134114 0.540360 0.860337
Si Si2 0.299899 0.184195 0.857267
Si Si3 0.914860 0.313455 0.024233
Si Si4 0.956547 0.918139 0.831914
Si Si5 0.229600 0.999595 0.740283
Si Si6 0.954429 0.702149 0.349129
Si Si7 0.670780 0.811148 0.331336
O O1 0.148908 0.603585 0.075185
O O2 0.085779 0.435990 0.976362
O O3 0.227930 0.511636 0.600121
O O4 0.081253 0.616405 0.773457
O O5 0.253730 0.252391 0.125612
O O6 0.364409 0.248021 0.584719
O O7 0.234003 0.114589 0.826393
O O8 0.851353 0.288351 0.352108
O O9 0.893125 0.285472 0.781805
O O10 0.000000 0.274766 0.000000
O O11 0.000000 0.950264 0.500000
O O12 0.981218 0.796724 0.803815
O O13 0.859409 0.949046 0.040358
O O14 0.000000 0.963479 0.000000
O O15 0.301808 0.928201 0.734474
O O16 0.000000 0.650494 0.500000
#
# Coordination Sequence:
#
# PCOD9128221 Si02
#       7
#     4   4   4   4   4   4   4
#     4  10  24  40  71 100 139 187 229 295 349 432
#     4  11  24  44  71 103 141 183 246 282 358 434
#     4  11  25  44  68  97 137 178 237 288 346 400
#     4  11  26  43  69 104 147 189 229 295 364 426
#     4  10  24  46  67 103 147 187 239 285 363 433
#     4  10  24  38  64 110 142 178 224 297 363 422
#     4  11  24  43  72  99 135 192 227 291 343 425
#
# _framework density 24.233566
#
# number of rings (size 3 to 8) (size 9 to 14) (size 15 to 20)
#    0.000    1.429    1.429    2.143   14.000    1.143 
#    0.000    2.143    0.000    0.000    0.000    0.000 
#    0.000    0.000    0.000    0.000    0.000    0.000 
#
# Total GULP energy -77958.680382 kJ/mol
# GULP energy per Si atom -5568.477170 kJ/mol
# Density = 2.417841 g / cm^3
# Si number density = 24.233566 Si / 1000 Ang^3
#
#
#
# Elastic Constant Matrix: (Units=GPa)
#
#
# Indices 1 2 3 4 5 6 
#
# 1 101.7885 9.4146 32.4288 0.0000 0.2394 0.0000
# 2 9.4146 45.6050 26.4307 0.0000 -14.6447 0.0000
# 3 32.4288 26.4307 79.7717 0.0000 -17.2822 0.0000
# 4 0.0000 0.0000 0.0000 38.4124 0.0000 -5.7397
# 5 0.2394 -14.6447 -17.2822 0.0000 48.2191 0.0000
# 6 0.0000 0.0000 0.0000 -5.7397 0.0000 20.9233
#
#
#
# Elastic Compliance Matrix: (Units=1/GPa)
#
#
# Indices 1 2 3 4 5 6 
#
# 1 0.011439 -0.000041 -0.005043 0.000000 -0.001877 0.000000
# 2 -0.000041 0.028523 -0.008193 0.000000 0.005727 0.000000
# 3 -0.005043 -0.008193 0.018178 0.000000 0.004052 0.000000
# 4 0.000000 0.000000 0.000000 0.027146 0.000000 0.007447
# 5 -0.001877 0.005727 0.004052 0.000000 0.023940 0.000000
# 6 0.000000 0.000000 0.000000 0.007447 0.000000 0.049836
#
#
# Mechanical properties :
#
#
# Convention : Reuss Voigt Hill
#
# Bulk Modulus (GPa) = 31.66009 40.41260 36.03634
# Shear Modulus (GPa) = 25.49110 32.10368 28.79739
#
# Velocity S-wave (km/s) = 3.24681 3.64368 3.45095
# Velocity P-wave (km/s) = 5.21043 5.86637 5.54810
#
# Compressibility (1/GPa) = 0.03158551
#
# Stress axis : x y z
#
# Youngs Moduli (GPa) = 87.41836 35.05904 55.01023
#
# Poissons Ratio (x) = 0.00145 0.27743
# Poissons Ratio (y) = 0.00362 0.45071
# Poissons Ratio (z) = 0.44087 0.28724
#
# Static dielectric constant tensor:
#      x y z
#    x 1.998460 0.000000 0.019130 
#    y 0.000000 1.906740 0.000000 
#    z 0.019130 0.000000 2.178050 
# 
# From -- ./inp_files/8626.got.cif
#   From: 2010.05.17/outbox.cif.g08.bks.cpg/sg5_5_cif.got.tgz:8626.got - 2010.06.03 18:56:24.
