data_PCOD9128230
_publ_section_title
;
Structure prediction by ZEFSAII (Michael W. Deem and Ramdas Pophale) SiO2 
 PCOD9128230
Probable space group: C 2
;
_chemical_formula_sum "Si O2"
_cell_formula_units_Z 24
_cell_length_a 5.386420
_cell_length_b 18.347605
_cell_length_c 11.872054
_cell_angle_alpha 90.000000
_cell_angle_beta 109.972650
_cell_angle_gamma 90.000000
_cell_volume 1102.723612
_symmetry_space_group_name_H-M "C 2"
_symmetry_group_IT_number 5
_symmetry_cell_setting 'monoclinic'
loop_
_space_group_symop_operation_xyz
x,y,z
-x,y,-z
1/2+x,1/2+y,z
1/2-x,1/2+y,-z
loop_
_atom_site_type_symbol
_atom_site_label
_atom_site_fract_x
_atom_site_fract_y
_atom_site_fract_z
Si Si1 0.000000 0.944350 0.500000
Si Si2 0.754631 0.989000 0.240387
Si Si3 0.232927 0.320535 0.608447
Si Si4 0.820017 0.060998 0.859213
Si Si5 0.015472 0.349394 0.816452
Si Si6 0.000000 0.806614 0.000000
Si Si7 0.149753 0.725403 0.796178
O O1 0.832316 0.888306 0.549917
O O2 0.830784 0.990786 0.384491
O O3 0.455545 0.016672 0.171737
O O4 0.981675 0.027719 0.203566
O O5 0.728268 0.903330 0.205349
O O6 0.121512 0.354411 0.706598
O O7 0.449868 0.259858 0.673728
O O8 0.000000 0.284938 0.500000
O O9 0.712694 0.140843 0.808652
O O10 0.000000 0.064923 0.000000
O O11 0.922506 0.267105 0.818244
O O12 0.251897 0.358441 0.939361
O O13 0.953925 0.755117 0.100010
#
# Coordination Sequence:
#
# PCOD9128230 Si02
#       7
#     2   4   4   4   4   2   4
#     4  12  24  50  74 110 152 196 254 330 372 454
#     4  12  28  48  77 111 150 209 249 312 387 452
#     4  11  21  42  78 107 144 189 253 320 380 440
#     4  12  30  50  74 110 164 201 248 311 390 461
#     4  11  23  42  72 110 139 195 260 311 380 445
#     4  10  24  38  76 104 152 186 264 324 366 452
#     4  11  25  46  73 109 141 205 251 308 388 450
#
# _framework density 21.764292999999999
#
# number of rings (size 3 to 8) (size 9 to 14) (size 15 to 20)
#    0.000    0.667    3.333    3.000   10.500    1.333 
#    1.500    1.667    0.000    0.000    0.000    0.000 
#    0.000    0.000    0.000    0.000    0.000    0.000 
#
# Total GULP energy -67100.046455 kJ/mol
# GULP energy per Si atom -5591.670538 kJ/mol
# Density = 2.171476 g / cm^3
# Si number density = 21.764293 Si / 1000 Ang^3
#
#
#
# Elastic Constant Matrix: (Units=GPa)
#
#
# Indices 1 2 3 4 5 6 
#
# 1 115.7363 27.4953 48.5683 0.0000 -0.3760 0.0000
# 2 27.4953 90.7874 30.4928 0.0000 -4.7988 0.0000
# 3 48.5683 30.4928 111.5021 0.0000 28.4061 0.0000
# 4 0.0000 0.0000 0.0000 38.9125 0.0000 -1.8666
# 5 -0.3760 -4.7988 28.4061 0.0000 53.6829 0.0000
# 6 0.0000 0.0000 0.0000 -1.8666 0.0000 32.3127
#
#
#
# Elastic Compliance Matrix: (Units=1/GPa)
#
#
# Indices 1 2 3 4 5 6 
#
# 1 0.011159 -0.001519 -0.005121 0.000000 0.002652 0.000000
# 2 -0.001519 0.012857 -0.003634 0.000000 0.003062 0.000000
# 3 -0.005121 -0.003634 0.014199 0.000000 -0.007874 0.000000
# 4 0.000000 0.000000 0.000000 0.025770 0.000000 0.001489
# 5 0.002652 0.003062 -0.007874 0.000000 0.023087 0.000000
# 6 0.000000 0.000000 0.000000 0.001489 0.000000 0.031034
#
#
# Mechanical properties :
#
#
# Convention : Reuss Voigt Hill
#
# Bulk Modulus (GPa) = 56.60548 59.01540 57.81044
# Shear Modulus (GPa) = 34.59182 39.07956 36.83569
#
# Velocity S-wave (km/s) = 3.99103 4.24203 4.11844
# Velocity P-wave (km/s) = 6.87769 7.15316 7.01678
#
# Compressibility (1/GPa) = 0.01766613
#
# Stress axis : x y z
#
# Youngs Moduli (GPa) = 89.61564 77.77619 70.42874
#
# Poissons Ratio (x) = 0.11818 0.36064
# Poissons Ratio (y) = 0.13616 0.25596
# Poissons Ratio (z) = 0.45889 0.28266
#
# Static dielectric constant tensor:
#      x y z
#    x 1.823120 0.000000 0.040770 
#    y 0.000000 1.764760 0.000000 
#    z 0.040770 0.000000 1.679410 
# 
# From -- ./inp_files/33564.got.cif
#   From: 2010.05.17/outbox.cif.g08.bks.cpg/sg5_17_cif.got.tgz:33564.got - 2010.06.03 18:56:24.
