data_PCOD9128115
_publ_section_title
;
Structure prediction by ZEFSAII (Michael W. Deem and Ramdas Pophale) SiO2 
 PCOD9128115
Probable space group: C 2
;
_chemical_formula_sum "Si O2"
_cell_formula_units_Z 20
_cell_length_a 5.189438
_cell_length_b 28.969823
_cell_length_c 6.171965
_cell_angle_alpha 90.000000
_cell_angle_beta 79.517492
_cell_angle_gamma 90.000000
_cell_volume 912.389543
_symmetry_space_group_name_H-M "C 2"
_symmetry_group_IT_number 5
_symmetry_cell_setting 'monoclinic'
loop_
_space_group_symop_operation_xyz
x,y,z
-x,y,-z
1/2+x,1/2+y,z
1/2-x,1/2+y,-z
loop_
_atom_site_type_symbol
_atom_site_label
_atom_site_fract_x
_atom_site_fract_y
_atom_site_fract_z
Si Si1 0.500000 0.596810 0.500000
Si Si2 0.129932 0.837044 0.229073
Si Si3 0.285595 0.931648 0.350742
Si Si4 0.228062 0.025941 0.126073
Si Si5 0.500000 0.161063 0.500000
Si Si6 0.227787 0.735589 0.138192
O O1 0.569636 0.562685 0.293043
O O2 0.755660 0.628530 0.481561
O O3 0.279895 0.885657 0.207595
O O4 0.273343 0.787429 0.222184
O O5 0.000000 0.838353 0.500000
O O6 0.000000 0.837120 0.000000
O O7 0.500000 0.924011 0.500000
O O8 0.000000 0.936754 0.500000
O O9 0.332891 0.980553 0.231685
O O10 0.500000 0.048254 0.000000
O O11 0.000000 0.008878 0.000000
O O12 0.616095 0.196585 0.309115
O O13 0.500000 0.719104 0.000000
O O14 0.000000 0.741404 0.000000
#
# Coordination Sequence:
#
# PCOD9128115 Si02
#       6
#     2   4   4   4   2   4
#     4  12  28  46  73 102 147 178 254 312 374 442
#     4  10  23  46  74 112 155 202 251 305 373 452
#     4  11  24  44  73 106 149 191 242 301 364 448
#     4  12  26  45  74 105 144 194 242 302 377 446
#     4  12  26  48  71 104 137 192 242 312 376 444
#     4  11  25  45  73 104 145 189 244 303 370 447
#
# _framework density 21.920461
#
# number of rings (size 3 to 8) (size 9 to 14) (size 15 to 20)
#    0.000    0.800    2.000    4.200    1.400   13.600 
#    1.800    0.000    0.000    0.000    0.000    0.000 
#    0.000    0.000    0.000    0.000    0.000    0.000 
#
# Total GULP energy -55718.789923 kJ/mol
# GULP energy per Si atom -5571.878992 kJ/mol
# Density = 2.187057 g / cm^3
# Si number density = 21.920461 Si / 1000 Ang^3
#
#
#
# Elastic Constant Matrix: (Units=GPa)
#
#
# Indices 1 2 3 4 5 6 
#
# 1 137.0967 27.7225 47.9801 0.0000 -13.3929 0.0000
# 2 27.7225 157.1201 44.3437 0.0000 2.7585 0.0000
# 3 47.9801 44.3437 101.6186 0.0000 -12.8364 0.0000
# 4 0.0000 0.0000 0.0000 51.9296 0.0000 -31.0859
# 5 -13.3929 2.7585 -12.8364 0.0000 48.4391 0.0000
# 6 0.0000 0.0000 0.0000 -31.0859 0.0000 74.1809
#
#
#
# Elastic Compliance Matrix: (Units=1/GPa)
#
#
# Indices 1 2 3 4 5 6 
#
# 1 0.008864 -0.000527 -0.003768 0.000000 0.001482 0.000000
# 2 -0.000527 0.007369 -0.003144 0.000000 -0.001398 0.000000
# 3 -0.003768 -0.003144 0.013329 0.000000 0.002669 0.000000
# 4 0.000000 0.000000 0.000000 0.025705 0.000000 0.010772
# 5 0.001482 -0.001398 0.002669 0.000000 0.021841 0.000000
# 6 0.000000 0.000000 0.000000 0.010772 0.000000 0.017995
#
#
# Mechanical properties :
#
#
# Convention : Reuss Voigt Hill
#
# Bulk Modulus (GPa) = 68.09561 70.65868 69.37714
# Shear Modulus (GPa) = 43.52530 53.29585 48.41058
#
# Velocity S-wave (km/s) = 4.46084 4.93620 4.70453
# Velocity P-wave (km/s) = 7.59371 8.04936 7.82485
#
# Compressibility (1/GPa) = 0.01468523
#
# Stress axis : x y z
#
# Youngs Moduli (GPa) = 112.81342 135.69850 75.02426
#
# Poissons Ratio (x) = 0.07145 0.28272
# Poissons Ratio (y) = 0.05940 0.23586
# Poissons Ratio (z) = 0.42512 0.42661
#
# Static dielectric constant tensor:
#      x y z
#    x 1.782420 0.000000 0.000680 
#    y 0.000000 1.807210 0.000000 
#    z 0.000680 0.000000 1.862370 
# 
# From -- ./inp_files/1100.got.cif
#   From: 2010.05.17/outbox.cif.g08.bks.cpg/sg5_1_cif.got.tgz:1100.got - 2010.06.03 18:56:24.
