data_PCOD9128836
_publ_section_title
;
Structure prediction by ZEFSAII (Michael W. Deem and Ramdas Pophale) SiO2 
 PCOD9128836
Probable space group: C 2
;
_chemical_formula_sum "Si O2"
_cell_formula_units_Z 28
_cell_length_a 17.709525
_cell_length_b 14.189044
_cell_length_c 5.459758
_cell_angle_alpha 90.000000
_cell_angle_beta 103.444968
_cell_angle_gamma 90.000000
_cell_volume 1334.335040
_symmetry_space_group_name_H-M "C 2"
_symmetry_group_IT_number 5
_symmetry_cell_setting 'monoclinic'
loop_
_space_group_symop_operation_xyz
x,y,z
-x,y,-z
1/2+x,1/2+y,z
1/2-x,1/2+y,-z
loop_
_atom_site_type_symbol
_atom_site_label
_atom_site_fract_x
_atom_site_fract_y
_atom_site_fract_z
Si Si1 0.423875 0.805550 0.105239
Si Si2 0.412394 0.607330 0.032235
Si Si3 0.916336 0.895516 0.076615
Si Si4 0.000000 0.457354 0.500000
Si Si5 0.433362 0.109860 0.767885
Si Si6 0.801573 0.735766 0.843846
Si Si7 0.705848 0.734430 0.273339
Si Si8 0.500000 0.276234 0.500000
O O1 0.351712 0.643787 0.781780
O O2 0.445968 0.888195 0.300707
O O3 0.500000 0.795279 0.000000
O O4 0.351649 0.817905 0.865418
O O5 0.391381 0.503061 0.101778
O O6 0.500000 0.599272 0.000000
O O7 0.410722 0.700007 0.207826
O O8 0.933734 0.841969 0.342020
O O9 0.854162 0.830175 0.893907
O O10 0.000000 0.894850 0.000000
O O11 0.936800 0.527553 0.573721
O O12 0.354814 0.143637 0.833703
O O13 0.466558 0.205861 0.675986
O O14 0.500000 0.076048 0.000000
O O15 0.744772 0.744962 0.566294
O O16 0.764253 0.724789 0.085922
#
# Coordination Sequence:
#
# PCOD9128836 Si02
#       8
#     4   4   4   2   4   4   4   2
#     4   9  21  45  69  96 135 179 238 293 336 415
#     4   8  20  45  69  97 132 175 240 284 340 411
#     4  11  21  39  70 102 127 180 235 281 343 411
#     4  11  24  39  76  98 126 187 254 287 352 398
#     4  11  23  41  64  99 135 181 238 284 341 420
#     4  12  23  44  70  96 153 181 219 289 352 418
#     4  10  25  44  70  98 142 190 213 282 365 403
#     4  11  18  37  66  98 132 167 232 287 342 386
#
# _framework density 20.984235999999999
#
# number of rings (size 3 to 8) (size 9 to 14) (size 15 to 20)
#    0.857    0.857    2.857    1.286    4.000    0.571 
#    7.714    0.000    0.000    0.000    0.000    0.000 
#    0.000    0.000    0.000    0.000    0.000    0.000 
#
# Total GULP energy -77944.559066 kJ/mol
# GULP energy per Si atom -5567.468505 kJ/mol
# Density = 2.093647 g / cm^3
# Si number density = 20.984236 Si / 1000 Ang^3
#
#
#
# Elastic Constant Matrix: (Units=GPa)
#
#
# Indices 1 2 3 4 5 6 
#
# 1 80.3306 17.0124 28.4155 0.0000 8.6704 0.0000
# 2 17.0124 161.4870 49.0008 0.0000 15.9792 0.0000
# 3 28.4155 49.0008 91.2067 0.0000 22.8755 0.0000
# 4 0.0000 0.0000 0.0000 16.1815 0.0000 10.6775
# 5 8.6704 15.9792 22.8755 0.0000 35.9821 0.0000
# 6 0.0000 0.0000 0.0000 10.6775 0.0000 -48.3035
#
#
#
# Elastic Compliance Matrix: (Units=1/GPa)
#
#
# Indices 1 2 3 4 5 6 
#
# 1 0.014009 -0.000162 -0.004103 0.000000 -0.000695 0.000000
# 2 -0.000162 0.007425 -0.003714 0.000000 -0.000897 0.000000
# 3 -0.004103 -0.003714 0.016151 0.000000 -0.007630 0.000000
# 4 0.000000 0.000000 0.000000 0.053932 0.000000 0.011922
# 5 -0.000695 -0.000897 -0.007630 0.000000 0.033209 0.000000
# 6 0.000000 0.000000 0.000000 0.011922 0.000000 -0.018067
#
#
# Mechanical properties :
#
#
# Convention : Reuss Voigt Hill
#
# Bulk Modulus (GPa) = 46.23593 57.98684 52.11138
# Shear Modulus (GPa) = 38.51290 16.67840 27.59565
#
# Velocity S-wave (km/s) = 4.28872 2.82229 3.63032
# Velocity P-wave (km/s) = 6.82683 6.18982 6.51612
#
# Compressibility (1/GPa) = 0.02162820
#
# Stress axis : x y z
#
# Youngs Moduli (GPa) = 71.38093 134.67731 61.91431
#
# Poissons Ratio (x) = 0.02182 0.25405
# Poissons Ratio (y) = 0.01156 0.22992
# Poissons Ratio (z) = 0.29289 0.50014
#
# Static dielectric constant tensor:
#      x y z
#    x 1.827610 0.000000 -0.000840 
#    y 0.000000 1.755920 0.000000 
#    z -0.000840 0.000000 1.745000 
# 
# From -- ./inp_files/9720.got.cif
#   From: 2010.05.17/outbox.cif.g08.bks.cpg/sg5_5_cif.got.tgz:9720.got - 2010.06.03 18:56:24.
