data_PCOD9128560
_publ_section_title
;
Structure prediction by ZEFSAII (Michael W. Deem and Ramdas Pophale) SiO2 
 PCOD9128560
Probable space group: C 2
;
_chemical_formula_sum "Si O2"
_cell_formula_units_Z 26
_cell_length_a 8.966744
_cell_length_b 15.559581
_cell_length_c 13.853335
_cell_angle_alpha 90.000000
_cell_angle_beta 142.806889
_cell_angle_gamma 90.000000
_cell_volume 1168.384291
_symmetry_space_group_name_H-M "C 2"
_symmetry_group_IT_number 5
_symmetry_cell_setting 'monoclinic'
loop_
_space_group_symop_operation_xyz
x,y,z
-x,y,-z
1/2+x,1/2+y,z
1/2-x,1/2+y,-z
loop_
_atom_site_type_symbol
_atom_site_label
_atom_site_fract_x
_atom_site_fract_y
_atom_site_fract_z
Si Si1 0.184713 0.324380 0.731909
Si Si2 0.756666 0.655566 0.189153
Si Si3 0.139562 0.811116 0.389231
Si Si4 0.000000 0.684805 0.000000
Si Si5 0.106852 0.977448 0.655533
Si Si6 0.440363 0.569802 0.170508
Si Si7 0.345786 0.978720 0.130247
O O1 0.291663 0.347371 0.681716
O O2 0.186834 0.399797 0.812881
O O3 0.904133 0.292775 0.573136
O O4 0.347220 0.245657 0.851565
O O5 0.663667 0.627273 0.247157
O O6 0.859391 0.567704 0.196176
O O7 0.955531 0.730672 0.287901
O O8 0.500000 0.678047 0.000000
O O9 0.010737 0.885095 0.384517
O O10 0.193137 0.626953 0.042588
O O11 0.400335 0.967676 0.796958
O O12 0.000000 0.012100 0.500000
O O13 0.034666 0.035365 0.709202
O O14 0.376423 0.494679 0.060136
#
# Coordination Sequence:
#
# PCOD9128560 Si02
#       7
#     4   4   4   2   4   4   4
#     4  11  26  46  76 104 151 190 247 305 370 437
#     4  10  24  45  77 109 145 187 251 304 363 439
#     4  11  26  48  71 111 146 193 243 305 373 434
#     4  12  26  46  74 106 142 190 250 298 364 432
#     4  12  25  45  71 104 149 186 244 301 369 437
#     4  11  25  48  73 108 144 192 249 302 366 439
#     4  11  23  47  71 106 141 191 243 300 360 436
#
# _framework density 22.252953000000002
#
# number of rings (size 3 to 8) (size 9 to 14) (size 15 to 20)
#    0.000    0.923    3.077    2.769    7.538    2.462 
#    0.000    1.538    0.000    0.000    0.000    0.000 
#    0.000    0.000    0.000    0.000    0.000    0.000 
#
# Total GULP energy -72773.776398 kJ/mol
# GULP energy per Si atom -5597.982800 kJ/mol
# Density = 2.220230 g / cm^3
# Si number density = 22.252953 Si / 1000 Ang^3
#
#
#
# Elastic Constant Matrix: (Units=GPa)
#
#
# Indices 1 2 3 4 5 6 
#
# 1 143.9821 43.6474 39.9689 0.0003 -7.7234 0.0001
# 2 43.6474 80.1561 63.7073 0.0002 -10.8765 0.0002
# 3 39.9689 63.7073 101.3645 0.0026 -5.6240 0.0006
# 4 0.0003 0.0002 0.0026 1.8193 0.0015 7.8807
# 5 -7.7234 -10.8765 -5.6240 0.0015 45.0458 0.0002
# 6 0.0001 0.0002 0.0006 7.8807 0.0002 45.3277
#
#
#
# Elastic Compliance Matrix: (Units=1/GPa)
#
#
# Indices 1 2 3 4 5 6 
#
# 1 0.008364 -0.003788 -0.000895 0.000000 0.000408 0.000000
# 2 -0.003788 0.027415 -0.015513 0.000065 0.004033 -0.000011
# 3 -0.000895 -0.015513 0.019889 -0.000100 -0.001416 0.000017
# 4 0.000000 0.000065 -0.000100 2.226568 -0.000069 -0.387111
# 5 0.000408 0.004033 -0.001416 -0.000069 0.023067 0.000012
# 6 0.000000 -0.000011 0.000017 -0.387111 0.000012 0.089365
#
#
# Mechanical properties :
#
#
# Convention : Reuss Voigt Hill
#
# Bulk Modulus (GPa) = 65.45632 68.90553 67.18092
# Shear Modulus (GPa) = 2.04905 30.31717 16.18311
#
# Velocity S-wave (km/s) = 0.96062 3.69506 2.69965
# Velocity P-wave (km/s) = 5.54156 7.01687 6.32240
#
# Compressibility (1/GPa) = 0.01527736
#
# Stress axis : x y z
#
# Youngs Moduli (GPa) = 119.56247 36.47617 50.27820
#
# Poissons Ratio (x) = 0.13818 0.04497
# Poissons Ratio (y) = 0.45291 0.77996
# Poissons Ratio (z) = 0.10695 0.56585
#
# Static dielectric constant tensor:
#      x y z
#    x 1.855990 0.000000 -0.033010 
#    y 0.000000 1.788920 0.000000 
#    z -0.033010 0.000000 1.828380 
# 
# From -- ./inp_files/51124.got.cif
#   From: 2010.05.17/outbox.cif.g08.bks.cpg/sg5_26_cif.got.tgz:51124.got - 2010.06.03 18:56:24.
