data_PCOD9128759
_publ_section_title
;
Structure prediction by ZEFSAII (Michael W. Deem and Ramdas Pophale) SiO2 
 PCOD9128759
Probable space group: C 2
;
_chemical_formula_sum "Si O2"
_cell_formula_units_Z 20
_cell_length_a 11.552034
_cell_length_b 9.874175
_cell_length_c 7.476987
_cell_angle_alpha 90.000000
_cell_angle_beta 105.561507
_cell_angle_gamma 90.000000
_cell_volume 821.612159
_symmetry_space_group_name_H-M "C 2"
_symmetry_group_IT_number 5
_symmetry_cell_setting 'monoclinic'
loop_
_space_group_symop_operation_xyz
x,y,z
-x,y,-z
1/2+x,1/2+y,z
1/2-x,1/2+y,-z
loop_
_atom_site_type_symbol
_atom_site_label
_atom_site_fract_x
_atom_site_fract_y
_atom_site_fract_z
Si Si1 0.353487 0.431120 0.605261
Si Si2 0.518926 0.664995 0.794702
Si Si3 0.475614 0.177429 0.780077
Si Si4 0.637425 0.934121 0.792650
Si Si5 0.754584 0.499584 0.787266
O O1 0.415103 0.578497 0.654405
O O2 0.455323 0.321441 0.685848
O O3 0.248836 0.414975 0.708084
O O4 0.297907 0.406313 0.388680
O O5 0.537035 0.817946 0.734799
O O6 0.645831 0.591292 0.812664
O O7 0.500000 0.663277 0.000000
O O8 0.578141 0.081322 0.743930
O O9 0.352363 0.092896 0.728941
O O10 0.500000 0.199520 0.000000
O O11 0.684664 0.928748 0.017537
#
# Coordination Sequence:
#
# PCOD9128759 Si02
#       5
#     4   4   4   4   4
#     4  12  26  49  75 109 151 191 244 309 361 441
#     4  12  24  48  80 106 150 201 240 305 374 437
#     4  10  24  50  74 108 149 190 245 305 366 441
#     4  11  26  52  76 107 148 196 243 303 375 434
#     4  11  25  48  75 110 147 193 248 302 367 440
#
# _framework density 24.342383999999999
#
# number of rings (size 3 to 8) (size 9 to 14) (size 15 to 20)
#    0.000    0.800    4.000    3.000    0.000    4.000 
#   18.000    0.000    0.000    0.000    0.000    0.000 
#    0.000    0.000    0.000    0.000    0.000    0.000 
#
# Total GULP energy -56104.109338 kJ/mol
# GULP energy per Si atom -5610.410934 kJ/mol
# Density = 2.428698 g / cm^3
# Si number density = 24.342384 Si / 1000 Ang^3
#
#
#
# Elastic Constant Matrix: (Units=GPa)
#
#
# Indices 1 2 3 4 5 6 
#
# 1 85.5149 31.4393 35.5594 0.0000 -1.2932 0.0000
# 2 31.4393 126.9007 55.7602 0.0000 4.6465 0.0000
# 3 35.5594 55.7602 73.5859 0.0000 -0.5013 0.0000
# 4 0.0000 0.0000 0.0000 -93.6627 0.0000 -42.8853
# 5 -1.2932 4.6465 -0.5013 0.0000 26.5673 0.0000
# 6 0.0000 0.0000 0.0000 -42.8853 0.0000 5.3271
#
#
#
# Elastic Compliance Matrix: (Units=1/GPa)
#
#
# Indices 1 2 3 4 5 6 
#
# 1 0.014700 -0.000824 -0.006474 0.000000 0.000738 0.000000
# 2 -0.000824 0.011994 -0.008706 0.000000 -0.002302 0.000000
# 3 -0.006474 -0.008706 0.023326 0.000000 0.001648 0.000000
# 4 0.000000 0.000000 0.000000 -0.002278 0.000000 -0.018342
# 5 0.000738 -0.002302 0.001648 0.000000 0.038110 0.000000
# 6 0.000000 0.000000 0.000000 -0.018342 0.000000 0.040059
#
#
# Mechanical properties :
#
#
# Convention : Reuss Voigt Hill
#
# Bulk Modulus (GPa) = 55.51856 59.05770 57.28813
# Shear Modulus (GPa) = 30.50197 -1.47082 14.51558
#
# Velocity S-wave (km/s) = 3.54367 -0.77816 2.44459
# Velocity P-wave (km/s) = 6.29288 4.84836 5.61725
#
# Compressibility (1/GPa) = 0.01801200
#
# Stress axis : x y z
#
# Youngs Moduli (GPa) = 68.02664 83.37440 42.87007
#
# Poissons Ratio (x) = 0.06872 0.27754
# Poissons Ratio (y) = 0.05607 0.37323
# Poissons Ratio (z) = 0.44041 0.72586
#
# Static dielectric constant tensor:
#      x y z
#    x 1.923720 0.000000 0.031260 
#    y 0.000000 1.911990 0.000000 
#    z 0.031260 0.000000 1.910320 
# 
# From -- ./inp_files/18351.got.cif
#   From: 2010.05.17/outbox.cif.g08.bks.cpg/sg5_10_cif.got.tgz:18351.got - 2010.06.03 18:56:24.
