data_PCOD9128239
_publ_section_title
;
Structure prediction by ZEFSAII (Michael W. Deem and Ramdas Pophale) SiO2 
 PCOD9128239
Probable space group: C 2
;
_chemical_formula_sum "Si O2"
_cell_formula_units_Z 32
_cell_length_a 20.695377
_cell_length_b 13.734110
_cell_length_c 14.209215
_cell_angle_alpha 90.000000
_cell_angle_beta 162.380867
_cell_angle_gamma 90.000000
_cell_volume 1222.473367
_symmetry_space_group_name_H-M "C 2"
_symmetry_group_IT_number 5
_symmetry_cell_setting 'monoclinic'
loop_
_space_group_symop_operation_xyz
x,y,z
-x,y,-z
1/2+x,1/2+y,z
1/2-x,1/2+y,-z
loop_
_atom_site_type_symbol
_atom_site_label
_atom_site_fract_x
_atom_site_fract_y
_atom_site_fract_z
Si Si1 0.071245 0.559440 0.222265
Si Si2 0.483346 0.882536 0.214956
Si Si3 0.317890 0.366963 0.818259
Si Si4 0.044823 0.944211 0.324424
Si Si5 0.289952 0.681829 0.245544
Si Si6 0.702765 0.083131 0.819462
Si Si7 0.110554 0.768347 0.804283
Si Si8 0.054892 0.195485 0.185600
O O1 0.234160 0.497824 0.385460
O O2 0.231992 0.630794 0.503207
O O3 0.936105 0.477690 0.089822
O O4 0.878639 0.627907 0.923679
O O5 0.663030 0.926380 0.535335
O O6 0.571624 0.796093 0.268654
O O7 0.288281 0.832888 0.998045
O O8 0.160321 0.280003 0.629186
O O9 0.500000 0.331353 0.000000
O O10 0.436734 0.413268 0.072938
O O11 0.068783 0.847923 0.420481
O O12 0.862136 0.019640 0.105101
O O13 0.500000 0.629719 0.500000
O O14 0.179289 0.724225 0.999184
O O15 0.500000 0.022144 0.500000
O O16 0.585833 0.171866 0.709540
O O17 0.864990 0.131867 0.969906
O O18 0.000000 0.209957 0.000000
#
# Coordination Sequence:
#
# PCOD9128239 Si02
#       8
#     4   4   4   4   4   4   4   4
#     4  11  25  42  71 106 137 187 239 295 354 424
#     4  11  23  43  69 102 141 187 241 295 347 428
#     4  11  21  40  70 105 144 179 242 297 356 415
#     4  10  24  39  68 108 141 183 236 297 360 419
#     4  11  24  44  71 102 140 192 232 299 367 416
#     4  10  24  41  68 104 133 184 236 285 348 424
#     4  10  24  43  66 101 144 181 231 296 358 417
#     4  10  25  45  67 101 149 187 231 291 361 427
#
# _framework density 26.176439999999999
#
# number of rings (size 3 to 8) (size 9 to 14) (size 15 to 20)
#    0.000    1.500    2.500    0.750   10.500    0.000 
#    0.000    4.375    0.000    0.000    0.000    0.000 
#    0.000    0.000    0.000    0.000    0.000    0.000 
#
# Total GULP energy -89440.802482 kJ/mol
# GULP energy per Si atom -5590.050155 kJ/mol
# Density = 2.611686 g / cm^3
# Si number density = 26.176440 Si / 1000 Ang^3
#
#
#
# Elastic Constant Matrix: (Units=GPa)
#
#
# Indices 1 2 3 4 5 6 
#
# 1 87.5054 42.9210 13.2698 0.0001 1.6723 0.0000
# 2 42.9210 104.7872 26.7752 0.0000 12.5308 0.0000
# 3 13.2698 26.7752 76.8588 0.0001 34.2139 0.0000
# 4 0.0001 0.0000 0.0001 34.1246 0.0001 13.4736
# 5 1.6723 12.5308 34.2139 0.0001 33.8576 0.0000
# 6 0.0000 0.0000 0.0000 13.4736 0.0000 46.8445
#
#
#
# Elastic Compliance Matrix: (Units=1/GPa)
#
#
# Indices 1 2 3 4 5 6 
#
# 1 0.014541 -0.005856 -0.002028 0.000000 0.003498 0.000000
# 2 -0.005856 0.012836 -0.002680 0.000000 -0.001753 0.000000
# 3 -0.002028 -0.002680 0.025099 0.000000 -0.024271 0.000000
# 4 0.000000 0.000000 0.000000 0.033059 0.000000 -0.009508
# 5 0.003498 -0.001753 -0.024271 0.000000 0.054538 0.000000
# 6 0.000000 0.000000 0.000000 -0.009508 0.000000 0.024082
#
#
# Mechanical properties :
#
#
# Convention : Reuss Voigt Hill
#
# Bulk Modulus (GPa) = 31.90006 48.34262 40.12134
# Shear Modulus (GPa) = 25.54506 35.37770 30.46138
#
# Velocity S-wave (km/s) = 3.12730 3.68028 3.41500
# Velocity P-wave (km/s) = 5.02524 6.04709 5.55969
#
# Compressibility (1/GPa) = 0.03134790
#
# Stress axis : x y z
#
# Youngs Moduli (GPa) = 68.77134 77.90363 39.84224
#
# Poissons Ratio (x) = 0.45622 0.08079
# Poissons Ratio (y) = 0.40274 0.10679
# Poissons Ratio (z) = 0.13944 0.20881
#
# Static dielectric constant tensor:
#      x y z
#    x 2.181040 0.000000 -0.054590 
#    y 0.000000 2.065690 0.000000 
#    z -0.054590 0.000000 2.017380 
# 
# From -- ./inp_files/57150.got.cif
#   From: 2010.05.17/outbox.cif.g08.bks.cpg/sg5_29_cif.got.tgz:57150.got - 2010.06.03 18:56:24.
