data_PCOD9128949
_publ_section_title
;
Structure prediction by ZEFSAII (Michael W. Deem and Ramdas Pophale) SiO2 
 PCOD9128949
Probable space group: C 2
;
_chemical_formula_sum "Si O2"
_cell_formula_units_Z 28
_cell_length_a 19.399311
_cell_length_b 5.504371
_cell_length_c 11.583985
_cell_angle_alpha 90.000000
_cell_angle_beta 104.057365
_cell_angle_gamma 90.000000
_cell_volume 1199.906662
_symmetry_space_group_name_H-M "C 2"
_symmetry_group_IT_number 5
_symmetry_cell_setting 'monoclinic'
loop_
_space_group_symop_operation_xyz
x,y,z
-x,y,-z
1/2+x,1/2+y,z
1/2-x,1/2+y,-z
loop_
_atom_site_type_symbol
_atom_site_label
_atom_site_fract_x
_atom_site_fract_y
_atom_site_fract_z
Si Si1 0.593643 0.816360 0.390182
Si Si2 0.578786 0.488423 0.186758
Si Si3 0.622614 0.121536 0.618589
Si Si4 0.314963 0.240085 0.922088
Si Si5 0.480645 0.117157 0.219172
Si Si6 0.729613 0.242783 0.844596
Si Si7 0.500000 0.843521 0.000000
Si Si8 0.500000 0.492056 0.500000
O O1 0.622394 0.624396 0.306840
O O2 0.527135 0.671021 0.414363
O O3 0.633313 0.929434 0.518382
O O4 0.555997 0.032469 0.305803
O O5 0.618178 0.275584 0.134209
O O6 0.501642 0.395384 0.200900
O O7 0.561215 0.682293 0.081334
O O8 0.579185 0.036993 0.714772
O O9 0.691726 0.236851 0.704752
O O10 0.567476 0.323731 0.551481
O O11 0.269290 0.484092 0.874165
O O12 0.276694 0.985819 0.876515
O O13 0.322838 0.252733 0.064487
O O14 0.468903 0.994346 0.092522
#
# Coordination Sequence:
#
# PCOD9128949 Si02
#       8
#     4   4   4   4   4   4   2   2
#     4  11  22  40  64 100 137 189 221 288 364 420
#     4  11  24  42  70  97 148 182 233 297 365 430
#     4  12  23  40  71 103 140 180 238 293 353 445
#     4  10  25  50  70 103 141 189 243 303 354 428
#     4  11  22  39  61 105 142 177 225 293 364 426
#     4  10  26  45  75 103 137 192 244 294 362 426
#     4  10  26  34  62 112 140 182 224 284 384 430
#     4  12  20  40  64 100 140 172 226 286 352 424
#
# _framework density 23.335146000000002
#
# number of rings (size 3 to 8) (size 9 to 14) (size 15 to 20)
#    0.000    1.143    4.286    0.429   10.000    2.286 
#    0.000    0.000    6.286    0.000    0.000    0.000 
#    0.000    0.000    0.000    0.000    0.000    0.000 
#
# Total GULP energy -78097.166276 kJ/mol
# GULP energy per Si atom -5578.369020 kJ/mol
# Density = 2.328203 g / cm^3
# Si number density = 23.335146 Si / 1000 Ang^3
#
#
#
# Elastic Constant Matrix: (Units=GPa)
#
#
# Indices 1 2 3 4 5 6 
#
# 1 39.8576 15.0457 27.6022 0.0000 -12.7657 0.0000
# 2 15.0457 108.4685 67.0041 0.0000 3.6599 0.0000
# 3 27.6022 67.0041 176.1704 0.0000 -13.3359 0.0000
# 4 0.0000 0.0000 0.0000 -9.8476 0.0000 -30.5650
# 5 -12.7657 3.6599 -13.3359 0.0000 31.0640 0.0000
# 6 0.0000 0.0000 0.0000 -30.5650 0.0000 22.7823
#
#
#
# Elastic Compliance Matrix: (Units=1/GPa)
#
#
# Indices 1 2 3 4 5 6 
#
# 1 0.032245 -0.003066 -0.002951 0.000000 0.012345 0.000000
# 2 -0.003066 0.012722 -0.004721 0.000000 -0.004785 0.000000
# 3 -0.002951 -0.004721 0.008149 0.000000 0.002842 0.000000
# 4 0.000000 0.000000 0.000000 -0.019664 0.000000 -0.026382
# 5 0.012345 -0.004785 0.002842 0.000000 0.039049 0.000000
# 6 0.000000 0.000000 0.000000 -0.026382 0.000000 0.008500
#
#
# Mechanical properties :
#
#
# Convention : Reuss Voigt Hill
#
# Bulk Modulus (GPa) = 31.60563 60.42227 46.01395
# Shear Modulus (GPa) = 44.23893 23.12271 33.68082
#
# Velocity S-wave (km/s) = 4.35881 3.15127 3.80327
# Velocity P-wave (km/s) = 6.23746 6.26020 6.24884
#
# Compressibility (1/GPa) = 0.03163993
#
# Stress axis : x y z
#
# Youngs Moduli (GPa) = 31.01298 78.60378 122.71039
#
# Poissons Ratio (x) = 0.24100 0.36217
# Poissons Ratio (y) = 0.09509 0.57926
# Poissons Ratio (z) = 0.09153 0.37105
#
# Static dielectric constant tensor:
#      x y z
#    x 1.978850 0.000000 -0.010960 
#    y 0.000000 1.928700 0.000000 
#    z -0.010960 0.000000 1.938470 
# 
# From -- ./inp_files/45728.got.cif
#   From: 2010.05.17/outbox.cif.g08.bks.cpg/sg5_23_cif.got.tgz:45728.got - 2010.06.03 18:56:24.
