data_PCOD9128104
_publ_section_title
;
Structure prediction by ZEFSAII (Michael W. Deem and Ramdas Pophale) SiO2 
 PCOD9128104
Probable space group: C 2
;
_chemical_formula_sum "Si O2"
_cell_formula_units_Z 20
_cell_length_a 18.441366
_cell_length_b 7.348537
_cell_length_c 11.855606
_cell_angle_alpha 90.000000
_cell_angle_beta 148.904548
_cell_angle_gamma 90.000000
_cell_volume 829.772290
_symmetry_space_group_name_H-M "C 2"
_symmetry_group_IT_number 5
_symmetry_cell_setting 'monoclinic'
loop_
_space_group_symop_operation_xyz
x,y,z
-x,y,-z
1/2+x,1/2+y,z
1/2-x,1/2+y,-z
loop_
_atom_site_type_symbol
_atom_site_label
_atom_site_fract_x
_atom_site_fract_y
_atom_site_fract_z
Si Si1 0.128549 0.347370 0.800034
Si Si2 0.252963 0.111465 0.629395
Si Si3 0.186374 0.474742 0.630264
Si Si4 0.354477 0.453787 0.279090
Si Si5 0.368070 0.740703 0.749531
O O1 0.191820 0.445519 0.772343
O O2 0.106490 0.137349 0.737604
O O3 0.975604 0.433187 0.616518
O O4 0.235038 0.360309 0.045720
O O5 0.286474 0.319769 0.706714
O O6 0.204693 0.027908 0.682644
O O7 0.138739 0.139659 0.378837
O O8 0.359387 0.959547 0.724450
O O9 0.235781 0.663947 0.644330
O O10 0.500000 0.350368 0.500000
O O11 0.500000 0.694796 0.000000
#
# Coordination Sequence:
#
# PCOD9128104 Si02
#       5
#     4   4   4   4   4
#     4  10  23  46  72 103 147 178 232 303 359 421
#     4  11  25  47  68 105 141 184 244 288 349 427
#     4  10  23  50  71 106 146 187 237 298 357 426
#     4  11  24  43  72 105 142 182 234 296 356 424
#     4  12  28  46  75  99 145 196 242 291 356 420
#
# _framework density 24.102999000000001
#
# number of rings (size 3 to 8) (size 9 to 14) (size 15 to 20)
#    0.000    1.200    6.000    0.000    8.400    2.400 
#    3.600    0.000    0.000    0.000    0.000    0.000 
#    0.000    0.000    0.000    0.000    0.000    0.000 
#
# Total GULP energy -55901.544295 kJ/mol
# GULP energy per Si atom -5590.154429 kJ/mol
# Density = 2.404814 g / cm^3
# Si number density = 24.102999 Si / 1000 Ang^3
#
#
#
# Elastic Constant Matrix: (Units=GPa)
#
#
# Indices 1 2 3 4 5 6 
#
# 1 91.0831 17.1844 46.2736 0.0000 -28.3762 0.0000
# 2 17.1844 112.7399 28.6811 0.0000 -2.1830 0.0000
# 3 46.2736 28.6811 174.7266 0.0000 -40.3507 0.0000
# 4 0.0000 0.0000 0.0000 29.1107 0.0000 -10.8030
# 5 -28.3762 -2.1830 -40.3507 0.0000 35.7191 0.0000
# 6 0.0000 0.0000 0.0000 -10.8030 0.0000 37.8438
#
#
#
# Elastic Compliance Matrix: (Units=1/GPa)
#
#
# Indices 1 2 3 4 5 6 
#
# 1 0.015266 -0.001788 -0.001318 0.000000 0.010530 0.000000
# 2 -0.001788 0.009530 -0.001738 0.000000 -0.002801 0.000000
# 3 -0.001318 -0.001738 0.008241 0.000000 0.008157 0.000000
# 4 0.000000 0.000000 0.000000 0.038422 0.000000 0.010968
# 5 0.010530 -0.002801 0.008157 0.000000 0.045405 0.000000
# 6 0.000000 0.000000 0.000000 0.010968 0.000000 0.029555
#
#
# Mechanical properties :
#
#
# Convention : Reuss Voigt Hill
#
# Bulk Modulus (GPa) = 42.82462 62.53640 52.68051
# Shear Modulus (GPa) = 30.50824 39.62877 35.06850
#
# Velocity S-wave (km/s) = 3.56159 4.05920 3.81851
# Velocity P-wave (km/s) = 5.89230 6.92613 6.43003
#
# Compressibility (1/GPa) = 0.02335105
#
# Stress axis : x y z
#
# Youngs Moduli (GPa) = 65.50365 104.92822 121.34242
#
# Poissons Ratio (x) = 0.18759 0.15991
# Poissons Ratio (y) = 0.11711 0.21086
# Poissons Ratio (z) = 0.08632 0.18234
#
# Static dielectric constant tensor:
#      x y z
#    x 1.978300 0.000000 0.016650 
#    y 0.000000 1.933120 0.000000 
#    z 0.016650 0.000000 1.875470 
# 
# From -- ./inp_files/44353.got.cif
#   From: 2010.05.17/outbox.cif.g08.bks.cpg/sg5_23_cif.got.tgz:44353.got - 2010.06.03 18:56:24.
