data_PCOD9128162
_publ_section_title
;
Structure prediction by ZEFSAII (Michael W. Deem and Ramdas Pophale) SiO2 
 PCOD9128162
Probable space group: C 2
;
_chemical_formula_sum "Si O2"
_cell_formula_units_Z 20
_cell_length_a 12.204080
_cell_length_b 7.148808
_cell_length_c 18.628798
_cell_angle_alpha 90.000000
_cell_angle_beta 141.610054
_cell_angle_gamma 90.000000
_cell_volume 1009.304669
_symmetry_space_group_name_H-M "C 2"
_symmetry_group_IT_number 5
_symmetry_cell_setting 'monoclinic'
loop_
_space_group_symop_operation_xyz
x,y,z
-x,y,-z
1/2+x,1/2+y,z
1/2-x,1/2+y,-z
loop_
_atom_site_type_symbol
_atom_site_label
_atom_site_fract_x
_atom_site_fract_y
_atom_site_fract_z
Si Si1 0.968314 0.388170 0.783700
Si Si2 0.637911 0.951943 0.019336
Si Si3 0.679460 0.671371 0.634685
Si Si4 0.247457 0.796555 0.174968
Si Si5 0.029225 0.946291 0.185101
O O1 0.111819 0.420190 0.795353
O O2 0.960314 0.166128 0.793504
O O3 0.780162 0.478263 0.670696
O O4 0.038116 0.480352 0.893210
O O5 0.831373 0.875604 0.099279
O O6 0.680927 0.139867 0.085809
O O7 0.500000 0.843684 0.000000
O O8 0.500000 0.693126 0.500000
O O9 0.654704 0.693352 0.708006
O O10 0.826034 0.832138 0.694838
O O11 0.091733 0.906851 0.135525
#
# Coordination Sequence:
#
# PCOD9128162 Si02
#       5
#     4   4   4   4   4
#     4  11  23  41  68 100 125 186 220 269 342 393
#     4  11  21  39  67  96 141 167 212 278 332 398
#     4  10  23  48  67  94 140 177 224 279 324 390
#     4   9  23  46  60  98 138 168 223 274 324 400
#     4   9  24  42  66  96 136 175 219 267 338 389
#
# _framework density 19.815621
#
# number of rings (size 3 to 8) (size 9 to 14) (size 15 to 20)
#    1.200    0.800    2.000    0.000   11.200    2.400 
#    7.200    0.000    0.000    0.000    0.000    0.000 
#    0.000    0.000    0.000    0.000    0.000    0.000 
#
# Total GULP energy -55733.756783 kJ/mol
# GULP energy per Si atom -5573.375678 kJ/mol
# Density = 1.977052 g / cm^3
# Si number density = 19.815621 Si / 1000 Ang^3
#
#
#
# Elastic Constant Matrix: (Units=GPa)
#
#
# Indices 1 2 3 4 5 6 
#
# 1 170.1252 25.3849 40.0665 0.0000 16.1789 0.0000
# 2 25.3849 71.4256 18.4649 0.0000 2.7211 0.0000
# 3 40.0665 18.4649 123.2098 0.0000 23.7333 0.0000
# 4 0.0000 0.0000 0.0000 25.7048 0.0000 3.8551
# 5 16.1789 2.7211 23.7333 0.0000 21.3489 0.0000
# 6 0.0000 0.0000 0.0000 3.8551 0.0000 30.8088
#
#
#
# Elastic Compliance Matrix: (Units=1/GPa)
#
#
# Indices 1 2 3 4 5 6 
#
# 1 0.006797 -0.001962 -0.001237 0.000000 -0.003526 0.000000
# 2 -0.001962 0.015140 -0.001967 0.000000 0.001743 0.000000
# 3 -0.001237 -0.001967 0.010924 0.000000 -0.010955 0.000000
# 4 0.000000 0.000000 0.000000 0.039647 0.000000 -0.004961
# 5 -0.003526 0.001743 -0.010955 0.000000 0.061469 0.000000
# 6 0.000000 0.000000 0.000000 -0.004961 0.000000 0.033079
#
#
# Mechanical properties :
#
#
# Convention : Reuss Voigt Hill
#
# Bulk Modulus (GPa) = 44.38678 59.17704 51.78191
# Shear Modulus (GPa) = 27.04194 34.29545 30.66869
#
# Velocity S-wave (km/s) = 3.69816 4.16472 3.93835
# Velocity P-wave (km/s) = 6.37838 7.28390 6.84613
#
# Compressibility (1/GPa) = 0.02252923
#
# Stress axis : x y z
#
# Youngs Moduli (GPa) = 147.11443 66.05103 91.54480
#
# Poissons Ratio (x) = 0.12957 0.11327
# Poissons Ratio (y) = 0.28859 0.18006
# Poissons Ratio (z) = 0.18203 0.12991
#
# Static dielectric constant tensor:
#      x y z
#    x 1.759470 0.000000 0.016320 
#    y 0.000000 1.748550 0.000000 
#    z 0.016320 0.000000 1.666750 
# 
# From -- ./inp_files/38115.got.cif
#   From: 2010.05.17/outbox.cif.g08.bks.cpg/sg5_20_cif.got.tgz:38115.got - 2010.06.03 18:56:24.
