data_PCOD9128272
_publ_section_title
;
Structure prediction by ZEFSAII (Michael W. Deem and Ramdas Pophale) SiO2 
 PCOD9128272
Probable space group: C 2
;
_chemical_formula_sum "Si O2"
_cell_formula_units_Z 30
_cell_length_a 15.459283
_cell_length_b 14.515332
_cell_length_c 10.795588
_cell_angle_alpha 90.000000
_cell_angle_beta 144.989656
_cell_angle_gamma 90.000000
_cell_volume 1389.843430
_symmetry_space_group_name_H-M "C 2"
_symmetry_group_IT_number 5
_symmetry_cell_setting 'monoclinic'
loop_
_space_group_symop_operation_xyz
x,y,z
-x,y,-z
1/2+x,1/2+y,z
1/2-x,1/2+y,-z
loop_
_atom_site_type_symbol
_atom_site_label
_atom_site_fract_x
_atom_site_fract_y
_atom_site_fract_z
Si Si1 0.120808 0.669580 0.537628
Si Si2 0.144813 0.648056 0.940118
Si Si3 0.597571 0.940104 0.809652
Si Si4 0.316763 0.875611 0.365001
Si Si5 0.000000 0.950681 0.000000
Si Si6 0.835982 0.260840 0.968210
Si Si7 0.147519 0.161903 0.595485
Si Si8 0.409626 0.610167 0.742040
O O1 0.209046 0.751518 0.712294
O O2 0.264407 0.610826 0.661881
O O3 0.000000 0.633204 0.500000
O O4 0.017481 0.686312 0.295800
O O5 0.149250 0.541720 0.904013
O O6 0.264378 0.707475 0.001972
O O7 0.201101 0.651747 0.146417
O O8 0.419062 0.937897 0.573663
O O9 0.660482 0.905397 0.751036
O O10 0.634015 0.864817 0.956567
O O11 0.369266 0.771297 0.446533
O O12 0.143449 0.888331 0.188421
O O13 0.007585 0.021445 0.893258
O O14 0.986862 0.201460 0.118754
O O15 0.146442 0.111182 0.463821
O O16 0.000000 0.131646 0.500000
#
# Coordination Sequence:
#
# PCOD9128272 Si02
#       8
#     4   4   4   4   2   4   4   4
#     4  10  24  40  68  98 131 176 228 283 339 391
#     4  11  23  41  69 101 136 178 230 286 337 413
#     4  11  22  40  71  98 132 188 230 271 350 417
#     4  11  22  41  63 100 138 174 237 279 330 421
#     4  12  26  38  68 108 128 176 246 296 326 392
#     4  11  20  43  68 100 133 178 229 281 339 408
#     4  12  23  47  70  99 143 190 218 275 367 415
#     4  12  22  42  71  98 135 181 229 278 343 414
#
# _framework density 21.585165
#
# number of rings (size 3 to 8) (size 9 to 14) (size 15 to 20)
#    0.000    0.800    6.667    1.600    7.467    1.600 
#    0.000    4.667    2.933    0.000    0.000    0.000 
#    0.000    0.000    0.000    0.000    0.000    0.000 
#
# Total GULP energy -83779.001937 kJ/mol
# GULP energy per Si atom -5585.266796 kJ/mol
# Density = 2.153604 g / cm^3
# Si number density = 21.585165 Si / 1000 Ang^3
#
#
#
# Elastic Constant Matrix: (Units=GPa)
#
#
# Indices 1 2 3 4 5 6 
#
# 1 50.6515 8.2156 38.5872 0.0000 6.4363 0.0000
# 2 8.2156 68.3096 19.4692 0.0000 -0.8478 0.0000
# 3 38.5872 19.4692 150.9576 0.0000 -18.7035 0.0000
# 4 0.0000 0.0000 0.0000 37.2040 0.0000 -3.2717
# 5 6.4363 -0.8478 -18.7035 0.0000 45.9462 0.0000
# 6 0.0000 0.0000 0.0000 -3.2717 0.0000 16.0170
#
#
#
# Elastic Compliance Matrix: (Units=1/GPa)
#
#
# Indices 1 2 3 4 5 6 
#
# 1 0.026468 -0.001142 -0.007456 0.000000 -0.006764 0.000000
# 2 -0.001142 0.015260 -0.001708 0.000000 -0.000254 0.000000
# 3 -0.007456 -0.001708 0.009348 0.000000 0.004818 0.000000
# 4 0.000000 0.000000 0.000000 0.027371 0.000000 0.005591
# 5 -0.006764 -0.000254 0.004818 0.000000 0.024669 0.000000
# 6 0.000000 0.000000 0.000000 0.005591 0.000000 0.063576
#
#
# Mechanical properties :
#
#
# Convention : Reuss Voigt Hill
#
# Bulk Modulus (GPa) = 32.82625 44.71810 38.77217
# Shear Modulus (GPa) = 25.32196 33.40989 29.36592
#
# Velocity S-wave (km/s) = 3.42880 3.93850 3.69245
# Velocity P-wave (km/s) = 5.56025 6.43773 6.01501
#
# Compressibility (1/GPa) = 0.03046343
#
# Stress axis : x y z
#
# Youngs Moduli (GPa) = 37.78160 65.53028 106.97995
#
# Poissons Ratio (x) = 0.07484 0.79768
# Poissons Ratio (y) = 0.04315 0.18268
# Poissons Ratio (z) = 0.28171 0.11190
#
# Static dielectric constant tensor:
#      x y z
#    x 1.824210 0.000000 0.008540 
#    y 0.000000 1.743120 0.000000 
#    z 0.008540 0.000000 1.815820 
# 
# From -- ./inp_files/44915.got.cif
#   From: 2010.05.17/outbox.cif.g08.bks.cpg/sg5_23_cif.got.tgz:44915.got - 2010.06.03 18:56:24.
