data_PCOD9128831
_publ_section_title
;
Structure prediction by ZEFSAII (Michael W. Deem and Ramdas Pophale) SiO2 
 PCOD9128831
Probable space group: C 2
;
_chemical_formula_sum "Si O2"
_cell_formula_units_Z 24
_cell_length_a 27.284937
_cell_length_b 7.374600
_cell_length_c 13.626185
_cell_angle_alpha 90.000000
_cell_angle_beta 24.902131
_cell_angle_gamma 90.000000
_cell_volume 1154.488311
_symmetry_space_group_name_H-M "C 2"
_symmetry_group_IT_number 5
_symmetry_cell_setting 'monoclinic'
loop_
_space_group_symop_operation_xyz
x,y,z
-x,y,-z
1/2+x,1/2+y,z
1/2-x,1/2+y,-z
loop_
_atom_site_type_symbol
_atom_site_label
_atom_site_fract_x
_atom_site_fract_y
_atom_site_fract_z
Si Si1 0.295248 0.931180 0.620404
Si Si2 0.610600 0.641467 0.231135
Si Si3 0.727008 0.810397 0.678879
Si Si4 0.672228 0.266314 0.035140
Si Si5 0.866655 0.980688 0.258454
Si Si6 0.063449 0.419617 0.144926
O O1 0.240429 0.849332 0.817776
O O2 0.213502 0.879939 0.676970
O O3 0.288873 0.151376 0.629449
O O4 0.429261 0.881332 0.365024
O O5 0.500000 0.686275 0.500000
O O6 0.729739 0.680784 0.072572
O O7 0.608940 0.432027 0.203262
O O8 0.604995 0.765151 0.144743
O O9 0.818134 0.929504 0.452903
O O10 0.652673 0.690603 0.736035
O O11 0.642015 0.916120 0.905041
O O12 0.584323 0.111373 0.159642
O O13 0.000000 0.931096 0.000000
#
# Coordination Sequence:
#
# PCOD9128831 Si02
#       6
#     4   4   4   4   4   4
#     4  10  26  43  69 104 135 181 236 282 354 405
#     4  12  25  46  70 103 140 187 230 286 352 408
#     4  10  26  42  70 101 140 183 233 286 352 403
#     4  12  26  44  70 103 139 180 236 288 345 416
#     4  10  25  44  67  99 140 182 234 278 351 413
#     4  12  26  45  73 101 147 178 236 293 343 414
#
# _framework density 20.788430999999999
#
# number of rings (size 3 to 8) (size 9 to 14) (size 15 to 20)
#    1.000    0.000    5.000    0.000    7.000    3.333 
#    0.000    0.000    0.000    0.000    0.000    0.000 
#    0.000    0.000    0.000    0.000    0.000    0.000 
#
# Total GULP energy -67037.292546 kJ/mol
# GULP energy per Si atom -5586.441045 kJ/mol
# Density = 2.074112 g / cm^3
# Si number density = 20.788431 Si / 1000 Ang^3
#
#
#
# Elastic Constant Matrix: (Units=GPa)
#
#
# Indices 1 2 3 4 5 6 
#
# 1 86.9757 29.8239 51.7369 0.0000 -11.6467 0.0000
# 2 29.8239 83.2990 3.4384 0.0000 5.2109 0.0000
# 3 51.7369 3.4384 113.8627 0.0000 2.6800 0.0000
# 4 0.0000 0.0000 0.0000 28.7339 0.0000 12.7711
# 5 -11.6467 5.2109 2.6800 0.0000 30.3407 0.0000
# 6 0.0000 0.0000 0.0000 12.7711 0.0000 29.9666
#
#
#
# Elastic Compliance Matrix: (Units=1/GPa)
#
#
# Indices 1 2 3 4 5 6 
#
# 1 0.021392 -0.007910 -0.009727 0.000000 0.010429 0.000000
# 2 -0.007910 0.015072 0.003278 0.000000 -0.005914 0.000000
# 3 -0.009727 0.003278 0.013232 0.000000 -0.005466 0.000000
# 4 0.000000 0.000000 0.000000 0.042935 0.000000 -0.018298
# 5 0.010429 -0.005914 -0.005466 0.000000 0.038461 0.000000
# 6 0.000000 0.000000 0.000000 -0.018298 0.000000 0.041169
#
#
# Mechanical properties :
#
#
# Convention : Reuss Voigt Hill
#
# Bulk Modulus (GPa) = 47.66785 50.45952 49.06368
# Shear Modulus (GPa) = 24.04186 31.08413 27.56300
#
# Velocity S-wave (km/s) = 3.40443 3.87106 3.64522
# Velocity P-wave (km/s) = 6.19946 6.65625 6.43191
#
# Compressibility (1/GPa) = 0.02097850
#
# Stress axis : x y z
#
# Youngs Moduli (GPa) = 46.74564 66.34944 75.57526
#
# Poissons Ratio (x) = 0.52483 0.73511
# Poissons Ratio (y) = 0.36976 -0.24776
# Poissons Ratio (z) = 0.45469 -0.21751
#
# Static dielectric constant tensor:
#      x y z
#    x 1.733190 0.000000 0.005500 
#    y 0.000000 1.750650 0.000000 
#    z 0.005500 0.000000 1.685340 
# 
# From -- ./inp_files/47233.got.cif
#   From: 2010.05.17/outbox.cif.g08.bks.cpg/sg5_24_cif.got.tgz:47233.got - 2010.06.03 18:56:24.
