data_PCOD9128265
_publ_section_title
;
Structure prediction by ZEFSAII (Michael W. Deem and Ramdas Pophale) SiO2 
 PCOD9128265
Probable space group: C 2
;
_chemical_formula_sum "Si O2"
_cell_formula_units_Z 28
_cell_length_a 15.693385
_cell_length_b 8.616105
_cell_length_c 15.360362
_cell_angle_alpha 90.000000
_cell_angle_beta 141.900908
_cell_angle_gamma 90.000000
_cell_volume 1281.535675
_symmetry_space_group_name_H-M "C 2"
_symmetry_group_IT_number 5
_symmetry_cell_setting 'monoclinic'
loop_
_space_group_symop_operation_xyz
x,y,z
-x,y,-z
1/2+x,1/2+y,z
1/2-x,1/2+y,-z
loop_
_atom_site_type_symbol
_atom_site_label
_atom_site_fract_x
_atom_site_fract_y
_atom_site_fract_z
Si Si1 0.728227 0.506690 0.058604
Si Si2 0.909701 0.866055 0.568416
Si Si3 0.000000 0.370816 0.000000
Si Si4 0.268395 0.374804 0.127250
Si Si5 0.804461 0.523715 0.475242
Si Si6 0.454528 0.631972 0.809129
Si Si7 0.044164 0.281329 0.691704
Si Si8 0.500000 0.552772 0.500000
O O1 0.754323 0.687346 0.102919
O O2 0.819430 0.385533 0.185630
O O3 0.763191 0.465357 0.987216
O O4 0.562035 0.499437 0.925076
O O5 0.875204 0.686824 0.553194
O O6 0.070220 0.890431 0.720716
O O7 0.803051 0.962942 0.539645
O O8 0.892351 0.934720 0.457965
O O9 0.849893 0.439909 0.903276
O O10 0.967057 0.268051 0.888613
O O11 0.699524 0.564323 0.313380
O O12 0.920649 0.394837 0.562519
O O13 0.499576 0.703032 0.749701
O O14 0.056146 0.161215 0.622223
#
# Coordination Sequence:
#
# PCOD9128265 Si02
#       8
#     4   4   2   4   4   4   4   2
#     4  11  21  42  72 100 140 189 235 290 363 420
#     4  12  25  44  71 107 143 192 244 298 361 427
#     4  10  24  40  68 100 138 180 236 290 344 426
#     4  11  23  42  72 106 141 189 242 289 361 432
#     4  12  24  44  73 106 141 194 240 294 359 435
#     4  11  23  44  68 102 142 182 238 299 350 429
#     4  12  24  44  71 104 145 186 241 299 360 426
#     4  12  28  46  66 102 144 190 240 308 350 424
#
# _framework density 21.848787999999999
#
# number of rings (size 3 to 8) (size 9 to 14) (size 15 to 20)
#    0.000    0.571    8.571    0.000    2.000    2.857 
#    0.000    0.000    0.000    0.857    0.000    0.000 
#    0.000    0.000    0.000    0.000    0.000    0.000 
#
# Total GULP energy -78080.004111 kJ/mol
# GULP energy per Si atom -5577.143151 kJ/mol
# Density = 2.179906 g / cm^3
# Si number density = 21.848788 Si / 1000 Ang^3
#
#
#
# Elastic Constant Matrix: (Units=GPa)
#
#
# Indices 1 2 3 4 5 6 
#
# 1 40.9104 23.9101 15.0224 0.0000 10.1701 0.0000
# 2 23.9101 107.6145 32.5623 0.0000 10.2839 0.0000
# 3 15.0224 32.5623 116.6458 0.0000 27.1700 0.0000
# 4 0.0000 0.0000 0.0000 28.4873 0.0000 9.9334
# 5 10.1701 10.2839 27.1700 0.0000 40.0422 0.0000
# 6 0.0000 0.0000 0.0000 9.9334 0.0000 17.2614
#
#
#
# Elastic Compliance Matrix: (Units=1/GPa)
#
#
# Indices 1 2 3 4 5 6 
#
# 1 0.029487 -0.005754 -0.000940 0.000000 -0.005374 0.000000
# 2 -0.005754 0.011295 -0.002467 0.000000 0.000234 0.000000
# 3 -0.000940 -0.002467 0.010903 0.000000 -0.006526 0.000000
# 4 0.000000 0.000000 0.000000 0.043916 0.000000 -0.025272
# 5 -0.005374 0.000234 -0.006526 0.000000 0.030706 0.000000
# 6 0.000000 0.000000 0.000000 -0.025272 0.000000 0.072476
#
#
# Mechanical properties :
#
#
# Convention : Reuss Voigt Hill
#
# Bulk Modulus (GPa) = 29.97162 45.35112 37.66137
# Shear Modulus (GPa) = 21.90825 30.06990 25.98908
#
# Velocity S-wave (km/s) = 3.17001 3.71384 3.45265
# Velocity P-wave (km/s) = 5.21020 6.26035 5.75926
#
# Compressibility (1/GPa) = 0.03336490
#
# Stress axis : x y z
#
# Youngs Moduli (GPa) = 33.91278 88.53670 91.72196
#
# Poissons Ratio (x) = 0.50941 0.08619
# Poissons Ratio (y) = 0.19512 0.22624
# Poissons Ratio (z) = 0.03187 0.21838
#
# Static dielectric constant tensor:
#      x y z
#    x 1.846860 0.000000 -0.013700 
#    y 0.000000 1.814550 0.000000 
#    z -0.013700 0.000000 1.906170 
# 
# From -- ./inp_files/54348.got.cif
#   From: 2010.05.17/outbox.cif.g08.bks.cpg/sg5_28_cif.got.tgz:54348.got - 2010.06.03 18:56:24.
