data_PCOD9128381
_publ_section_title
;
Structure prediction by ZEFSAII (Michael W. Deem and Ramdas Pophale) SiO2 
 PCOD9128381
Probable space group: C 2
;
_chemical_formula_sum "Si O2"
_cell_formula_units_Z 26
_cell_length_a 10.742830
_cell_length_b 9.656833
_cell_length_c 11.309800
_cell_angle_alpha 90.000000
_cell_angle_beta 71.466726
_cell_angle_gamma 90.000000
_cell_volume 1112.449903
_symmetry_space_group_name_H-M "C 2"
_symmetry_group_IT_number 5
_symmetry_cell_setting 'monoclinic'
loop_
_space_group_symop_operation_xyz
x,y,z
-x,y,-z
1/2+x,1/2+y,z
1/2-x,1/2+y,-z
loop_
_atom_site_type_symbol
_atom_site_label
_atom_site_fract_x
_atom_site_fract_y
_atom_site_fract_z
Si Si1 0.004388 0.438720 0.333859
Si Si2 0.463621 0.744757 0.146462
Si Si3 0.787418 0.983550 0.600852
Si Si4 0.626174 0.328017 0.038589
Si Si5 0.655586 0.218096 0.284380
Si Si6 0.788771 0.086098 0.867098
Si Si7 0.000000 0.192131 0.500000
O O1 0.996071 0.389343 0.200934
O O2 0.853424 0.465442 0.415956
O O3 0.047444 0.298945 0.386506
O O4 0.092030 0.571101 0.330381
O O5 0.311629 0.708989 0.211628
O O6 0.558647 0.628574 0.170903
O O7 0.500000 0.754368 0.000000
O O8 0.761733 0.045254 0.740480
O O9 0.881437 0.089198 0.504179
O O10 0.852955 0.834950 0.611075
O O11 0.591459 0.271211 0.180334
O O12 0.721221 0.455917 0.041448
O O13 0.500000 0.370106 0.000000
O O14 0.701837 0.210725 0.942211
#
# Coordination Sequence:
#
# PCOD9128381 Si02
#       7
#     4   4   4   4   4   4   2
#     4  11  26  45  72 103 132 183 229 282 339 407
#     4  11  22  42  69 101 147 183 217 276 338 403
#     4  10  25  48  68 100 135 176 225 293 342 399
#     4  11  24  38  63  98 136 185 222 271 335 406
#     4  10  24  43  65 102 140 177 227 279 338 401
#     4  11  23  43  64 100 139 179 229 272 341 402
#     4  12  26  48  74  98 130 180 234 286 350 400
#
# _framework density 23.371841
#
# number of rings (size 3 to 8) (size 9 to 14) (size 15 to 20)
#    0.000    1.231    3.077    1.385    2.154    4.923 
#    5.538    0.000    0.000    0.000    0.000    0.000 
#    0.000    0.000    0.000    0.000    0.000    0.000 
#
# Total GULP energy -72744.500529 kJ/mol
# GULP energy per Si atom -5595.730810 kJ/mol
# Density = 2.331865 g / cm^3
# Si number density = 23.371841 Si / 1000 Ang^3
#
#
#
# Elastic Constant Matrix: (Units=GPa)
#
#
# Indices 1 2 3 4 5 6 
#
# 1 74.1193 38.6865 20.5821 0.0000 -3.5415 0.0000
# 2 38.6865 148.3131 34.0933 0.0000 -15.2832 0.0000
# 3 20.5821 34.0933 46.9937 0.0000 4.1360 0.0000
# 4 0.0000 0.0000 0.0000 31.9758 0.0000 -20.8132
# 5 -3.5415 -15.2832 4.1360 0.0000 28.7422 0.0000
# 6 0.0000 0.0000 0.0000 -20.8132 0.0000 37.1484
#
#
#
# Elastic Compliance Matrix: (Units=1/GPa)
#
#
# Indices 1 2 3 4 5 6 
#
# 1 0.016554 -0.003007 -0.005173 0.000000 0.001185 0.000000
# 2 -0.003007 0.009491 -0.006057 0.000000 0.005548 0.000000
# 3 -0.005173 -0.006057 0.028642 0.000000 -0.007980 0.000000
# 4 0.000000 0.000000 0.000000 0.049225 0.000000 0.027579
# 5 0.001185 0.005548 -0.007980 0.000000 0.039036 0.000000
# 6 0.000000 0.000000 0.000000 0.027579 0.000000 0.042371
#
#
# Mechanical properties :
#
#
# Convention : Reuss Voigt Hill
#
# Bulk Modulus (GPa) = 38.14912 50.68334 44.41623
# Shear Modulus (GPa) = 22.46882 31.31090 26.88986
#
# Velocity S-wave (km/s) = 3.10395 3.66414 3.39562
# Velocity P-wave (km/s) = 5.40408 6.29555 5.86677
#
# Compressibility (1/GPa) = 0.02621293
#
# Stress axis : x y z
#
# Youngs Moduli (GPa) = 60.40708 105.36600 34.91419
#
# Poissons Ratio (x) = 0.31680 0.18063
# Poissons Ratio (y) = 0.18163 0.21147
# Poissons Ratio (z) = 0.31251 0.63818
#
# Static dielectric constant tensor:
#      x y z
#    x 1.871250 0.000000 0.026920 
#    y 0.000000 1.891190 0.000000 
#    z 0.026920 0.000000 1.931730 
# 
# From -- ./inp_files/52201.got.cif
#   From: 2010.05.17/outbox.cif.g08.bks.cpg/sg5_27_cif.got.tgz:52201.got - 2010.06.03 18:56:24.
