data_PCOD9128956
_publ_section_title
;
Structure prediction by ZEFSAII (Michael W. Deem and Ramdas Pophale) SiO2 
 PCOD9128956
Probable space group: C 2
;
_chemical_formula_sum "Si O2"
_cell_formula_units_Z 24
_cell_length_a 13.162195
_cell_length_b 5.968631
_cell_length_c 20.110741
_cell_angle_alpha 90.000000
_cell_angle_beta 141.258073
_cell_angle_gamma 90.000000
_cell_volume 988.726346
_symmetry_space_group_name_H-M "C 2"
_symmetry_group_IT_number 5
_symmetry_cell_setting 'monoclinic'
loop_
_space_group_symop_operation_xyz
x,y,z
-x,y,-z
1/2+x,1/2+y,z
1/2-x,1/2+y,-z
loop_
_atom_site_type_symbol
_atom_site_label
_atom_site_fract_x
_atom_site_fract_y
_atom_site_fract_z
Si Si1 0.578974 0.705120 0.451592
Si Si2 0.814560 0.761604 0.186220
Si Si3 0.222833 0.930229 0.693283
Si Si4 0.393498 0.946941 0.657346
Si Si5 0.334436 0.351055 0.048566
Si Si6 0.500000 0.086938 0.500000
Si Si7 0.000000 0.956248 0.000000
O O1 0.398020 0.636607 0.380211
O O2 0.577972 0.728737 0.371803
O O3 0.717589 0.535537 0.544466
O O4 0.604230 0.938417 0.501948
O O5 0.758441 0.914066 0.218750
O O6 0.875888 0.865919 0.148386
O O7 0.659566 0.604300 0.094572
O O8 0.965462 0.616914 0.289340
O O9 0.385019 0.932900 0.732588
O O10 0.120432 0.729128 0.607543
O O11 0.459600 0.335823 0.049995
O O12 0.252682 0.602313 0.998284
#
# Coordination Sequence:
#
# PCOD9128956 Si02
#       7
#     4   4   4   4   4   2   2
#     4  12  24  44  69 100 149 192 243 298 354 435
#     4  11  27  45  74 112 139 192 249 303 371 442
#     4  12  25  45  70 104 146 195 239 298 362 432
#     4  12  24  42  69 103 142 193 241 297 361 431
#     4  10  25  50  80 109 144 192 248 312 383 445
#     4  12  20  46  70  96 156 192 230 294 362 422
#     4  10  26  52  78 104 152 186 244 320 374 440
#
# _framework density 24.273652999999999
#
# number of rings (size 3 to 8) (size 9 to 14) (size 15 to 20)
#    0.000    0.667    5.000    2.000    0.000   16.000 
#    0.000    0.000    0.000    0.000    0.000    0.000 
#    0.000    0.000    0.000    0.000    0.000    0.000 
#
# Total GULP energy -66962.493447 kJ/mol
# GULP energy per Si atom -5580.207787 kJ/mol
# Density = 2.421840 g / cm^3
# Si number density = 24.273653 Si / 1000 Ang^3
#
#
#
# Elastic Constant Matrix: (Units=GPa)
#
#
# Indices 1 2 3 4 5 6 
#
# 1 198.4582 28.6349 38.6331 0.0000 -43.6067 0.0000
# 2 28.6349 65.5004 11.4571 0.0000 -8.8187 0.0000
# 3 38.6331 11.4571 51.7040 0.0000 -34.7624 0.0000
# 4 0.0000 0.0000 0.0000 26.1781 0.0000 -10.4144
# 5 -43.6067 -8.8187 -34.7624 0.0000 46.6387 0.0000
# 6 0.0000 0.0000 0.0000 -10.4144 0.0000 47.8683
#
#
#
# Elastic Compliance Matrix: (Units=1/GPa)
#
#
# Indices 1 2 3 4 5 6 
#
# 1 0.006651 -0.002033 -0.001196 0.000000 0.004943 0.000000
# 2 -0.002033 0.016518 -0.002644 0.000000 -0.000749 0.000000
# 3 -0.001196 -0.002644 0.039554 0.000000 0.027864 0.000000
# 4 0.000000 0.000000 0.000000 0.041820 0.000000 0.009098
# 5 0.004943 -0.000749 0.027864 0.000000 0.046690 0.000000
# 6 0.000000 0.000000 0.000000 0.009098 0.000000 0.022870
#
#
# Mechanical properties :
#
#
# Convention : Reuss Voigt Hill
#
# Bulk Modulus (GPa) = 19.61692 52.56808 36.09250
# Shear Modulus (GPa) = 24.64980 39.93284 32.29132
#
# Velocity S-wave (km/s) = 3.19014 4.06040 3.65129
# Velocity P-wave (km/s) = 4.65494 6.60953 5.71639
#
# Compressibility (1/GPa) = 0.05097639
#
# Stress axis : x y z
#
# Youngs Moduli (GPa) = 150.35173 60.54141 25.28169
#
# Poissons Ratio (x) = 0.12308 0.03023
# Poissons Ratio (y) = 0.30566 0.06686
# Poissons Ratio (z) = 0.17980 0.16010
#
# Static dielectric constant tensor:
#      x y z
#    x 1.977000 0.000000 -0.064590 
#    y 0.000000 1.954020 0.000000 
#    z -0.064590 0.000000 1.929410 
# 
# From -- ./inp_files/65742.got.cif
#   From: 2010.05.17/outbox.cif.g08.bks.cpg/sg5_33_cif.got.tgz:65742.got - 2010.06.03 18:56:24.
