data_PCOD9128155
_publ_section_title
;
Structure prediction by ZEFSAII (Michael W. Deem and Ramdas Pophale) SiO2 
 PCOD9128155
Probable space group: C 2
;
_chemical_formula_sum "Si O2"
_cell_formula_units_Z 20
_cell_length_a 16.019699
_cell_length_b 8.920920
_cell_length_c 10.550520
_cell_angle_alpha 90.000000
_cell_angle_beta 33.524071
_cell_angle_gamma 90.000000
_cell_volume 832.727472
_symmetry_space_group_name_H-M "C 2"
_symmetry_group_IT_number 5
_symmetry_cell_setting 'monoclinic'
loop_
_space_group_symop_operation_xyz
x,y,z
-x,y,-z
1/2+x,1/2+y,z
1/2-x,1/2+y,-z
loop_
_atom_site_type_symbol
_atom_site_label
_atom_site_fract_x
_atom_site_fract_y
_atom_site_fract_z
Si Si1 0.053879 0.933790 0.288791
Si Si2 0.592620 0.187940 0.705025
Si Si3 0.100200 0.104328 0.990983
Si Si4 0.898037 0.419651 0.922807
Si Si5 0.291895 0.928287 0.591142
O O1 0.000000 0.960441 0.500000
O O2 0.971994 0.790652 0.328038
O O3 0.234078 0.920417 0.070546
O O4 0.033147 0.062926 0.211301
O O5 0.678660 0.295997 0.693720
O O6 0.452224 0.077107 0.916638
O O7 0.714893 0.069160 0.498345
O O8 0.250033 0.005556 0.776521
O O9 0.114291 0.281889 0.964773
O O10 0.000000 0.052989 0.000000
O O11 0.033033 0.387009 0.651931
#
# Coordination Sequence:
#
# PCOD9128155 Si02
#       5
#     4   4   4   4   4
#     4  12  26  50  77 118 169 212 272 341 416 486
#     4  10  23  47  77 117 153 215 267 335 405 490
#     4  12  24  50  79 114 163 212 270 338 400 494
#     4  10  26  47  80 117 159 215 267 338 413 474
#     4  10  23  47  79 115 158 207 279 329 410 474
#
# _framework density 24.017461000000001
#
# number of rings (size 3 to 8) (size 9 to 14) (size 15 to 20)
#    1.200    0.000    2.000    3.600    0.000    0.800 
#   10.800    0.000    0.000    0.000    0.000    0.000 
#    0.000    0.000    0.000    0.000    0.000    0.000 
#
# Total GULP energy -55766.439815 kJ/mol
# GULP energy per Si atom -5576.643981 kJ/mol
# Density = 2.396280 g / cm^3
# Si number density = 24.017461 Si / 1000 Ang^3
#
#
#
# Elastic Constant Matrix: (Units=GPa)
#
#
# Indices 1 2 3 4 5 6 
#
# 1 83.9030 23.4293 57.7454 0.0000 -5.6205 0.0000
# 2 23.4293 135.3474 47.7492 0.0000 5.9566 0.0000
# 3 57.7454 47.7492 132.7686 0.0000 -12.3460 0.0000
# 4 0.0000 0.0000 0.0000 44.4664 0.0000 2.2057
# 5 -5.6205 5.9566 -12.3460 0.0000 41.3749 0.0000
# 6 0.0000 0.0000 0.0000 2.2057 0.0000 23.6568
#
#
#
# Elastic Compliance Matrix: (Units=1/GPa)
#
#
# Indices 1 2 3 4 5 6 
#
# 1 0.017029 -0.000402 -0.007243 0.000000 0.000210 0.000000
# 2 -0.000402 0.008668 -0.003151 0.000000 -0.002243 0.000000
# 3 -0.007243 -0.003151 0.012102 0.000000 0.003081 0.000000
# 4 0.000000 0.000000 0.000000 0.022593 0.000000 -0.002107
# 5 0.000210 -0.002243 0.003081 0.000000 0.025440 0.000000
# 6 0.000000 0.000000 0.000000 -0.002107 0.000000 0.042468
#
#
# Mechanical properties :
#
#
# Convention : Reuss Voigt Hill
#
# Bulk Modulus (GPa) = 61.69798 67.76299 64.73048
# Shear Modulus (GPa) = 32.19679 36.77261 34.48470
#
# Velocity S-wave (km/s) = 3.66533 3.91714 3.79333
# Velocity P-wave (km/s) = 6.60738 6.98097 6.79674
#
# Compressibility (1/GPa) = 0.01620799
#
# Stress axis : x y z
#
# Youngs Moduli (GPa) = 58.72170 115.36120 82.63277
#
# Poissons Ratio (x) = 0.04638 0.59847
# Poissons Ratio (y) = 0.02361 0.26040
# Poissons Ratio (z) = 0.42529 0.36353
#
# Static dielectric constant tensor:
#      x y z
#    x 1.943670 0.000000 0.009200 
#    y 0.000000 1.927350 0.000000 
#    z 0.009200 0.000000 2.039720 
# 
# From -- ./inp_files/44274.got.cif
#   From: 2010.05.17/outbox.cif.g08.bks.cpg/sg5_23_cif.got.tgz:44274.got - 2010.06.03 18:56:24.
