data_PCOD9128303
_publ_section_title
;
Structure prediction by ZEFSAII (Michael W. Deem and Ramdas Pophale) SiO2 
 PCOD9128303
Probable space group: C 2
;
_chemical_formula_sum "Si O2"
_cell_formula_units_Z 16
_cell_length_a 15.776338
_cell_length_b 9.222843
_cell_length_c 4.902254
_cell_angle_alpha 90.000000
_cell_angle_beta 109.007880
_cell_angle_gamma 90.000000
_cell_volume 674.398075
_symmetry_space_group_name_H-M "C 2"
_symmetry_group_IT_number 5
_symmetry_cell_setting 'monoclinic'
loop_
_space_group_symop_operation_xyz
x,y,z
-x,y,-z
1/2+x,1/2+y,z
1/2-x,1/2+y,-z
loop_
_atom_site_type_symbol
_atom_site_label
_atom_site_fract_x
_atom_site_fract_y
_atom_site_fract_z
Si Si1 0.361315 0.248420 0.571639
Si Si2 0.500000 0.462468 0.000000
Si Si3 0.674509 0.086478 0.976903
Si Si4 0.500000 0.656647 0.500000
Si Si5 0.816919 0.289712 0.335079
O O1 0.425896 0.365334 0.771319
O O2 0.375709 0.198322 0.280055
O O3 0.259191 0.305430 0.510739
O O4 0.368196 0.104890 0.770126
O O5 0.534843 0.561197 0.789105
O O6 0.678873 0.931901 0.845243
O O7 0.772671 0.156104 0.121419
O O8 0.416435 0.748212 0.524753
#
# Coordination Sequence:
#
# PCOD9128303 Si02
#       5
#     4   2   4   2   4
#     4  10  25  40  72  92 138 176 230 269 336 402
#     4  12  26  48  68 106 130 194 222 282 336 424
#     4  10  24  41  71  95 140 178 224 277 339 403
#     4  12  28  40  76  98 146 168 240 276 348 394
#     4  10  26  43  68 103 138 179 223 283 340 404
#
# _framework density 23.72486
#
# number of rings (size 3 to 8) (size 9 to 14) (size 15 to 20)
#    1.500    0.000    0.000    3.000   14.000    2.000 
#    0.000    0.000    0.000    0.000    0.000    0.000 
#    0.000    0.000    0.000    0.000    0.000    0.000 
#
# Total GULP energy -44685.416559 kJ/mol
# GULP energy per Si atom -5585.677070 kJ/mol
# Density = 2.367086 g / cm^3
# Si number density = 23.724860 Si / 1000 Ang^3
#
#
#
# Elastic Constant Matrix: (Units=GPa)
#
#
# Indices 1 2 3 4 5 6 
#
# 1 60.0633 9.9757 28.6200 0.0000 14.3480 0.0000
# 2 9.9757 63.0146 -1.9196 0.0000 18.6932 0.0000
# 3 28.6200 -1.9196 84.6951 0.0000 5.4280 0.0000
# 4 0.0000 0.0000 0.0000 19.9332 0.0000 -6.5363
# 5 14.3480 18.6932 5.4280 0.0000 43.9962 0.0000
# 6 0.0000 0.0000 0.0000 -6.5363 0.0000 18.4416
#
#
#
# Elastic Compliance Matrix: (Units=1/GPa)
#
#
# Indices 1 2 3 4 5 6 
#
# 1 0.021596 -0.002059 -0.007004 0.000000 -0.005304 0.000000
# 2 -0.002059 0.018425 0.001584 0.000000 -0.007352 0.000000
# 3 -0.007004 0.001584 0.014219 0.000000 -0.000143 0.000000
# 4 0.000000 0.000000 0.000000 0.056765 0.000000 0.020119
# 5 -0.005304 -0.007352 -0.000143 0.000000 0.027601 0.000000
# 6 0.000000 0.000000 0.000000 0.020119 0.000000 0.061356
#
#
# Mechanical properties :
#
#
# Convention : Reuss Voigt Hill
#
# Bulk Modulus (GPa) = 25.45687 31.23612 28.34650
# Shear Modulus (GPa) = 21.92870 27.88065 24.90468
#
# Velocity S-wave (km/s) = 3.04352 3.43179 3.24347
# Velocity P-wave (km/s) = 4.80666 5.37564 5.09909
#
# Compressibility (1/GPa) = 0.03928213
#
# Stress axis : x y z
#
# Youngs Moduli (GPa) = 46.30585 54.27524 70.32834
#
# Poissons Ratio (x) = 0.11174 0.49260
# Poissons Ratio (y) = 0.09533 -0.11143
# Poissons Ratio (z) = 0.32434 -0.08600
#
# Static dielectric constant tensor:
#      x y z
#    x 1.912310 0.000000 0.011800 
#    y 0.000000 1.899590 0.000000 
#    z 0.011800 0.000000 1.881510 
# 
# From -- ./inp_files/6313.got.cif
#   From: 2010.05.17/outbox.cif.g08.bks.cpg/sg5_4_cif.got.tgz:6313.got - 2010.06.03 18:56:24.
