data_PCOD9128532
_publ_section_title
;
Structure prediction by ZEFSAII (Michael W. Deem and Ramdas Pophale) SiO2 
 PCOD9128532
Probable space group: C 2
;
_chemical_formula_sum "Si O2"
_cell_formula_units_Z 30
_cell_length_a 10.415304
_cell_length_b 11.498837
_cell_length_c 14.016578
_cell_angle_alpha 90.000000
_cell_angle_beta 130.378461
_cell_angle_gamma 90.000000
_cell_volume 1278.787892
_symmetry_space_group_name_H-M "C 2"
_symmetry_group_IT_number 5
_symmetry_cell_setting 'monoclinic'
loop_
_space_group_symop_operation_xyz
x,y,z
-x,y,-z
1/2+x,1/2+y,z
1/2-x,1/2+y,-z
loop_
_atom_site_type_symbol
_atom_site_label
_atom_site_fract_x
_atom_site_fract_y
_atom_site_fract_z
Si Si1 0.014320 0.478710 0.155978
Si Si2 0.292638 0.638387 0.247167
Si Si3 0.641330 0.171220 0.691374
Si Si4 0.614454 0.969607 0.426015
Si Si5 0.010908 0.227899 0.185615
Si Si6 0.500000 0.762092 0.500000
Si Si7 0.507931 0.421722 0.388774
Si Si8 0.337646 0.549475 0.960485
O O1 0.099403 0.594002 0.152408
O O2 0.088771 0.471353 0.299723
O O3 0.045093 0.345759 0.141872
O O4 0.812777 0.484965 0.059599
O O5 0.376300 0.723270 0.208464
O O6 0.352396 0.686762 0.379622
O O7 0.382050 0.513047 0.281461
O O8 0.542196 0.290856 0.663151
O O9 0.737608 0.118762 0.829730
O O10 0.797397 0.192164 0.693599
O O11 0.505481 0.073985 0.599683
O O12 0.558518 0.848363 0.445187
O O13 0.808867 0.971379 0.547001
O O14 0.926358 0.137453 0.074091
O O15 0.500000 0.423108 0.500000
O O16 0.500000 0.477876 0.000000
#
# Coordination Sequence:
#
# PCOD9128532 Si02
#       8
#     4   4   4   4   4   2   4   4
#     4  11  22  48  68  98 143 180 233 303 354 424
#     4  12  25  43  68 103 143 184 235 293 356 431
#     4  10  24  45  69  97 139 188 239 293 363 422
#     4  11  25  41  65  97 137 190 229 287 352 431
#     4  11  23  47  71 103 138 186 246 296 358 429
#     4  12  26  42  62 104 144 188 232 292 360 426
#     4  12  24  39  67 100 138 184 224 290 350 430
#     4   9  23  46  71  96 135 181 233 300 356 419
#
# _framework density 23.459716
#
# number of rings (size 3 to 8) (size 9 to 14) (size 15 to 20)
#    0.000    1.067    4.667    0.000    8.400    1.600 
#    4.800    0.000    0.000    0.000    0.000    0.000 
#    0.000    0.000    0.000    0.000    0.000    0.000 
#
# Total GULP energy -83673.342267 kJ/mol
# GULP energy per Si atom -5578.222818 kJ/mol
# Density = 2.340632 g / cm^3
# Si number density = 23.459716 Si / 1000 Ang^3
#
#
#
# Elastic Constant Matrix: (Units=GPa)
#
#
# Indices 1 2 3 4 5 6 
#
# 1 79.4959 22.8962 32.8011 0.0000 30.5199 0.0000
# 2 22.8962 95.2387 25.4506 0.0000 23.7304 0.0000
# 3 32.8011 25.4506 77.9905 0.0000 30.5461 0.0000
# 4 0.0000 0.0000 0.0000 958.0897 0.0000 788.3558
# 5 30.5199 23.7304 30.5461 0.0000 50.3697 0.0000
# 6 0.0000 0.0000 0.0000 788.3558 0.0000 675.0644
#
#
#
# Elastic Compliance Matrix: (Units=1/GPa)
#
#
# Indices 1 2 3 4 5 6 
#
# 1 0.017498 -0.001250 -0.003973 0.000000 -0.007604 0.000000
# 2 -0.001250 0.012284 -0.001984 0.000000 -0.003827 0.000000
# 3 -0.003973 -0.001984 0.018140 0.000000 -0.007659 0.000000
# 4 0.000000 0.000000 0.000000 0.026717 0.000000 -0.031201
# 5 -0.007604 -0.003827 -0.007659 0.000000 0.030908 0.000000
# 6 0.000000 0.000000 0.000000 -0.031201 0.000000 0.037918
#
#
# Mechanical properties :
#
#
# Convention : Reuss Voigt Hill
#
# Bulk Modulus (GPa) = 29.84417 46.11342 37.97879
# Shear Modulus (GPa) = 29.57718 348.14324 188.86021
#
# Velocity S-wave (km/s) = 3.55458 12.19519 8.98214
# Velocity P-wave (km/s) = 5.44020 14.76468 11.12636
#
# Compressibility (1/GPa) = 0.03350738
#
# Stress axis : x y z
#
# Youngs Moduli (GPa) = 57.14943 81.40548 55.12608
#
# Poissons Ratio (x) = 0.10178 0.21902
# Poissons Ratio (y) = 0.07145 0.10938
# Poissons Ratio (z) = 0.22706 0.16152
#
# Static dielectric constant tensor:
#      x y z
#    x 2.067750 0.000000 0.067920 
#    y 0.000000 1.873100 0.000000 
#    z 0.067920 0.000000 1.642290 
# 
# From -- ./inp_files/60497.got.cif
#   From: 2010.05.17/outbox.cif.g08.bks.cpg/sg5_31_cif.got.tgz:60497.got - 2010.06.03 18:56:24.
