data_PCOD9128948
_publ_section_title
;
Structure prediction by ZEFSAII (Michael W. Deem and Ramdas Pophale) SiO2 
 PCOD9128948
Probable space group: C 2
;
_chemical_formula_sum "Si O2"
_cell_formula_units_Z 20
_cell_length_a 4.962233
_cell_length_b 14.165467
_cell_length_c 11.519600
_cell_angle_alpha 90.000000
_cell_angle_beta 72.673760
_cell_angle_gamma 90.000000
_cell_volume 772.997392
_symmetry_space_group_name_H-M "C 2"
_symmetry_group_IT_number 5
_symmetry_cell_setting 'monoclinic'
loop_
_space_group_symop_operation_xyz
x,y,z
-x,y,-z
1/2+x,1/2+y,z
1/2-x,1/2+y,-z
loop_
_atom_site_type_symbol
_atom_site_label
_atom_site_fract_x
_atom_site_fract_y
_atom_site_fract_z
Si Si1 0.118575 0.065630 0.615036
Si Si2 0.310269 0.838736 0.911225
Si Si3 0.148193 0.042939 0.858704
Si Si4 0.787705 0.856400 0.419539
Si Si5 0.804630 0.719834 0.739506
O O1 0.964031 0.054308 0.762509
O O2 0.283683 0.161355 0.622211
O O3 0.000000 0.071455 0.500000
O O4 0.276068 0.965184 0.602573
O O5 0.045552 0.797565 0.698343
O O6 0.509667 0.768510 0.812363
O O7 0.272602 0.938341 0.851179
O O8 0.500000 0.858260 0.000000
O O9 0.355809 0.132479 0.819021
O O10 0.000000 0.056528 0.000000
O O11 0.500000 0.811349 0.500000
O O12 0.000000 0.861870 0.500000
O O13 0.000000 0.808503 0.000000
#
# Coordination Sequence:
#
# PCOD9128948 Si02
#       5
#     4   4   4   4   4
#     4   9  23  52  82 118 173 218 276 347 416 493
#     4  11  26  50  85 122 168 219 274 341 423 501
#     4   9  22  49  81 122 164 216 271 341 414 495
#     4  11  27  50  80 112 161 221 275 338 412 488
#     4  10  25  49  84 118 166 218 277 344 412 497
#
# _framework density 25.87331
#
# number of rings (size 3 to 8) (size 9 to 14) (size 15 to 20)
#    1.200    0.800    0.000    0.600    8.400    1.600 
#    3.600   30.000    0.000    0.000    0.000    0.000 
#    0.000    0.000    0.000    0.000    0.000    0.000 
#
# Total GULP energy -55761.156584 kJ/mol
# GULP energy per Si atom -5576.115658 kJ/mol
# Density = 2.581442 g / cm^3
# Si number density = 25.873310 Si / 1000 Ang^3
#
#
#
# Elastic Constant Matrix: (Units=GPa)
#
#
# Indices 1 2 3 4 5 6 
#
# 1 151.4047 70.0298 59.9124 0.0000 -31.2470 0.0000
# 2 70.0298 213.4519 53.2509 0.0000 -36.3547 0.0000
# 3 59.9124 53.2509 199.2493 0.0000 -6.4463 0.0000
# 4 0.0000 0.0000 0.0000 23.2402 0.0000 17.8749
# 5 -31.2470 -36.3547 -6.4463 0.0000 41.5523 0.0000
# 6 0.0000 0.0000 0.0000 17.8749 0.0000 -7.7475
#
#
#
# Elastic Compliance Matrix: (Units=1/GPa)
#
#
# Indices 1 2 3 4 5 6 
#
# 1 0.009301 -0.001610 -0.002197 0.000000 0.005245 0.000000
# 2 -0.001610 0.006154 -0.001031 0.000000 0.004013 0.000000
# 3 -0.002197 -0.001031 0.005902 0.000000 -0.001638 0.000000
# 4 0.000000 0.000000 0.000000 0.015508 0.000000 0.035781
# 5 0.005245 0.004013 -0.001638 0.000000 0.031267 0.000000
# 6 0.000000 0.000000 0.000000 0.035781 0.000000 -0.046521
#
#
# Mechanical properties :
#
#
# Convention : Reuss Voigt Hill
#
# Bulk Modulus (GPa) = 85.60416 103.38801 94.49608
# Shear Modulus (GPa) = 142.12117 36.80320 89.46218
#
# Velocity S-wave (km/s) = 7.41949 3.77561 5.88660
# Velocity P-wave (km/s) = 10.32261 7.68460 9.09971
#
# Compressibility (1/GPa) = 0.01168167
#
# Stress axis : x y z
#
# Youngs Moduli (GPa) = 107.51126 162.50001 169.43874
#
# Poissons Ratio (x) = 0.26167 0.37222
# Poissons Ratio (y) = 0.17312 0.17463
# Poissons Ratio (z) = 0.23618 0.16748
#
# Static dielectric constant tensor:
#      x y z
#    x 2.055570 0.000000 0.044130 
#    y 0.000000 2.014720 0.000000 
#    z 0.044130 0.000000 1.944670 
# 
# From -- ./inp_files/33377.got.cif
#   From: 2010.05.17/outbox.cif.g08.bks.cpg/sg5_17_cif.got.tgz:33377.got - 2010.06.03 18:56:24.
