data_PCOD9128637
_publ_section_title
;
Structure prediction by ZEFSAII (Michael W. Deem and Ramdas Pophale) SiO2 
 PCOD9128637
Probable space group: C 2
;
_chemical_formula_sum "Si O2"
_cell_formula_units_Z 28
_cell_length_a 8.496273
_cell_length_b 16.132477
_cell_length_c 10.701496
_cell_angle_alpha 90.000000
_cell_angle_beta 118.207989
_cell_angle_gamma 90.000000
_cell_volume 1292.608486
_symmetry_space_group_name_H-M "C 2"
_symmetry_group_IT_number 5
_symmetry_cell_setting 'monoclinic'
loop_
_space_group_symop_operation_xyz
x,y,z
-x,y,-z
1/2+x,1/2+y,z
1/2-x,1/2+y,-z
loop_
_atom_site_type_symbol
_atom_site_label
_atom_site_fract_x
_atom_site_fract_y
_atom_site_fract_z
Si Si1 0.804746 0.101940 0.740011
Si Si2 0.871780 0.752830 0.831635
Si Si3 0.809598 0.784860 0.223245
Si Si4 0.301303 0.876927 0.054440
Si Si5 0.877189 0.101358 0.334156
Si Si6 0.843155 0.434329 0.695624
Si Si7 0.000000 0.993003 0.000000
Si Si8 0.500000 0.991515 0.500000
O O1 0.748536 0.195194 0.749769
O O2 0.984057 0.097258 0.726681
O O3 0.649564 0.051672 0.613536
O O4 0.855850 0.050990 0.881467
O O5 0.744364 0.824991 0.837165
O O6 0.761521 0.673467 0.748917
O O7 0.992422 0.779999 0.759964
O O8 0.000000 0.734287 0.000000
O O9 0.774030 0.853975 0.314369
O O10 0.694587 0.813605 0.059066
O O11 0.480399 0.927069 0.150410
O O12 0.125732 0.933360 0.964131
O O13 0.000000 0.120126 0.500000
O O14 0.770182 0.016386 0.317257
O O15 0.911379 0.439724 0.578931
#
# Coordination Sequence:
#
# PCOD9128637 Si02
#       8
#     4   4   4   4   4   4   2   2
#     4  12  28  47  76 106 153 194 254 303 383 444
#     4  10  24  46  76 108 151 188 253 308 373 441
#     4  11  25  47  74 114 144 195 248 312 369 444
#     4  11  23  49  75 113 148 192 251 315 375 436
#     4  12  27  49  72 109 150 200 248 308 374 459
#     4  12  26  47  76 104 155 192 251 309 373 458
#     4  12  24  44  78 108 146 194 246 320 358 446
#     4  12  26  54  70 108 146 210 244 300 386 454
#
# _framework density 21.661625999999998
#
# number of rings (size 3 to 8) (size 9 to 14) (size 15 to 20)
#    0.000    0.571    5.000    3.000    6.000    1.143 
#    6.429    0.000    0.000    0.000    0.000    0.000 
#    0.000    0.000    0.000    0.000    0.000    0.000 
#
# Total GULP energy -78318.843332 kJ/mol
# GULP energy per Si atom -5594.203095 kJ/mol
# Density = 2.161232 g / cm^3
# Si number density = 21.661626 Si / 1000 Ang^3
#
#
#
# Elastic Constant Matrix: (Units=GPa)
#
#
# Indices 1 2 3 4 5 6 
#
# 1 144.5777 69.2523 35.5553 0.0000 -21.8396 0.0000
# 2 69.2523 135.4805 50.5102 0.0000 -9.7281 0.0000
# 3 35.5553 50.5102 82.0863 0.0000 9.7072 0.0000
# 4 0.0000 0.0000 0.0000 29.2555 0.0000 -7.5853
# 5 -21.8396 -9.7281 9.7072 0.0000 45.0714 0.0000
# 6 0.0000 0.0000 0.0000 -7.5853 0.0000 68.3156
#
#
#
# Elastic Compliance Matrix: (Units=1/GPa)
#
#
# Indices 1 2 3 4 5 6 
#
# 1 0.010094 -0.003889 -0.002522 0.000000 0.004595 0.000000
# 2 -0.003889 0.011621 -0.005685 0.000000 0.001848 0.000000
# 3 -0.002522 -0.005685 0.017508 0.000000 -0.006220 0.000000
# 4 0.000000 0.000000 0.000000 0.035195 0.000000 0.003908
# 5 0.004595 0.001848 -0.006220 0.000000 0.026152 0.000000
# 6 0.000000 0.000000 0.000000 0.003908 0.000000 0.015072
#
#
# Mechanical properties :
#
#
# Convention : Reuss Voigt Hill
#
# Bulk Modulus (GPa) = 66.53012 74.75334 70.64173
# Shear Modulus (GPa) = 34.51940 42.31696 38.41818
#
# Velocity S-wave (km/s) = 3.99629 4.42469 4.21593
# Velocity P-wave (km/s) = 7.21622 7.79027 7.50873
#
# Compressibility (1/GPa) = 0.01503079
#
# Stress axis : x y z
#
# Youngs Moduli (GPa) = 99.06768 86.04819 57.11517
#
# Poissons Ratio (x) = 0.33468 0.14406
# Poissons Ratio (y) = 0.38531 0.32469
# Poissons Ratio (z) = 0.24988 0.48917
#
# Static dielectric constant tensor:
#      x y z
#    x 1.802260 0.000000 0.009420 
#    y 0.000000 1.750320 0.000000 
#    z 0.009420 0.000000 1.727040 
# 
# From -- ./inp_files/36526.got.cif
#   From: 2010.05.17/outbox.cif.g08.bks.cpg/sg5_19_cif.got.tgz:36526.got - 2010.06.03 18:56:24.
