data_PCOD9128710
_publ_section_title
;
Structure prediction by ZEFSAII (Michael W. Deem and Ramdas Pophale) SiO2 
 PCOD9128710
Probable space group: C 2
;
_chemical_formula_sum "Si O2"
_cell_formula_units_Z 24
_cell_length_a 24.782868
_cell_length_b 6.680966
_cell_length_c 12.019460
_cell_angle_alpha 90.000000
_cell_angle_beta 27.960748
_cell_angle_gamma 90.000000
_cell_volume 933.093248
_symmetry_space_group_name_H-M "C 2"
_symmetry_group_IT_number 5
_symmetry_cell_setting 'monoclinic'
loop_
_space_group_symop_operation_xyz
x,y,z
-x,y,-z
1/2+x,1/2+y,z
1/2-x,1/2+y,-z
loop_
_atom_site_type_symbol
_atom_site_label
_atom_site_fract_x
_atom_site_fract_y
_atom_site_fract_z
Si Si1 0.680865 0.093550 0.299723
Si Si2 0.676968 0.753523 0.449832
Si Si3 0.564861 0.548233 0.157226
Si Si4 0.500000 0.830680 0.000000
Si Si5 0.311143 0.494065 0.384613
Si Si6 0.000000 0.821751 0.500000
Si Si7 0.972852 0.693347 0.205233
O O1 0.609669 0.179328 0.326387
O O2 0.598260 0.163168 0.551188
O O3 0.692219 0.853912 0.301082
O O4 0.813382 0.160891 0.062312
O O5 0.732780 0.564357 0.412863
O O6 0.721607 0.927391 0.454421
O O7 0.545023 0.674898 0.682766
O O8 0.534389 0.461712 0.333943
O O9 0.568615 0.356258 0.066542
O O10 0.608831 0.679022 0.800372
O O11 0.510900 0.986986 0.081785
O O12 0.391376 0.306694 0.266177
#
# Coordination Sequence:
#
# PCOD9128710 Si02
#       7
#     4   4   4   2   4   2   4
#     4  11  24  48  80 110 154 201 265 340 403 471
#     4  11  25  44  71 111 156 206 266 312 380 482
#     4  10  26  50  81 110 158 206 268 338 411 464
#     4  12  24  44  78 108 172 222 264 318 384 458
#     4  11  25  45  69 110 166 219 262 318 382 467
#     4  10  26  52  76 116 148 194 280 334 414 488
#     4  10  24  48  73 119 156 212 277 315 383 489
#
# _framework density 25.720901999999999
#
# number of rings (size 3 to 8) (size 9 to 14) (size 15 to 20)
#    0.000    1.333    1.667    1.500    7.000    3.333 
#    0.000   10.000    0.000    0.000    0.000    0.000 
#    0.000    0.000    0.000    0.000    0.000    0.000 
#
# Total GULP energy -67003.609467 kJ/mol
# GULP energy per Si atom -5583.634122 kJ/mol
# Density = 2.566236 g / cm^3
# Si number density = 25.720902 Si / 1000 Ang^3
#
#
#
# Elastic Constant Matrix: (Units=GPa)
#
#
# Indices 1 2 3 4 5 6 
#
# 1 165.1707 63.2941 53.5245 0.0000 -27.1336 0.0000
# 2 63.2941 137.9582 36.3655 0.0000 -3.0062 0.0000
# 3 53.5245 36.3655 103.6220 0.0000 -21.9257 0.0000
# 4 0.0000 0.0000 0.0000 36.6475 0.0000 4.1512
# 5 -27.1336 -3.0062 -21.9257 0.0000 55.5420 0.0000
# 6 0.0000 0.0000 0.0000 4.1512 0.0000 40.9309
#
#
#
# Elastic Compliance Matrix: (Units=1/GPa)
#
#
# Indices 1 2 3 4 5 6 
#
# 1 0.008645 -0.003185 -0.002717 0.000000 0.002978 0.000000
# 2 -0.003185 0.009189 -0.001968 0.000000 -0.001835 0.000000
# 3 -0.002717 -0.001968 0.012484 0.000000 0.003494 0.000000
# 4 0.000000 0.000000 0.000000 0.027604 0.000000 -0.002800
# 5 0.002978 -0.001835 0.003494 0.000000 0.020739 0.000000
# 6 0.000000 0.000000 0.000000 -0.002800 0.000000 0.024715
#
#
# Mechanical properties :
#
#
# Convention : Reuss Voigt Hill
#
# Bulk Modulus (GPa) = 68.60223 79.23547 73.91885
# Shear Modulus (GPa) = 40.33066 43.52854 41.92960
#
# Velocity S-wave (km/s) = 3.96411 4.11827 4.04192
# Velocity P-wave (km/s) = 6.90521 7.31343 7.11225
#
# Compressibility (1/GPa) = 0.01457678
#
# Stress axis : x y z
#
# Youngs Moduli (GPa) = 115.67907 108.83158 80.10210
#
# Poissons Ratio (x) = 0.34662 0.21767
# Poissons Ratio (y) = 0.36842 0.15763
# Poissons Ratio (z) = 0.31435 0.21417
#
# Static dielectric constant tensor:
#      x y z
#    x 2.005030 0.000000 0.047190 
#    y 0.000000 2.088540 0.000000 
#    z 0.047190 0.000000 2.220680 
# 
# From -- ./inp_files/47859.got.cif
#   From: 2010.05.17/outbox.cif.g08.bks.cpg/sg5_24_cif.got.tgz:47859.got - 2010.06.03 18:56:24.
