data_PCOD9128600
_publ_section_title
;
Structure prediction by ZEFSAII (Michael W. Deem and Ramdas Pophale) SiO2 
 PCOD9128600
Probable space group: C 2
;
_chemical_formula_sum "Si O2"
_cell_formula_units_Z 28
_cell_length_a 27.112933
_cell_length_b 5.762985
_cell_length_c 9.795562
_cell_angle_alpha 90.000000
_cell_angle_beta 58.767593
_cell_angle_gamma 90.000000
_cell_volume 1308.746664
_symmetry_space_group_name_H-M "C 2"
_symmetry_group_IT_number 5
_symmetry_cell_setting 'monoclinic'
loop_
_space_group_symop_operation_xyz
x,y,z
-x,y,-z
1/2+x,1/2+y,z
1/2-x,1/2+y,-z
loop_
_atom_site_type_symbol
_atom_site_label
_atom_site_fract_x
_atom_site_fract_y
_atom_site_fract_z
Si Si1 0.395270 0.579490 0.308575
Si Si2 0.431215 0.860833 0.853108
Si Si3 0.673449 0.990687 0.552569
Si Si4 0.633859 0.362555 0.084206
Si Si5 0.888224 0.804505 0.576393
Si Si6 0.500000 0.676835 0.000000
Si Si7 0.794921 0.824380 0.278452
Si Si8 0.000000 0.508632 0.500000
O O1 0.383654 0.850361 0.329909
O O2 0.401472 0.517567 0.458223
O O3 0.339688 0.477304 0.307113
O O4 0.452233 0.521457 0.143968
O O5 0.395493 0.616131 0.901213
O O6 0.468897 0.834733 0.933668
O O7 0.399675 0.115022 0.897038
O O8 0.471978 0.861797 0.661627
O O9 0.728761 0.870009 0.407250
O O10 0.654192 0.166107 0.462886
O O11 0.693765 0.075863 0.671312
O O12 0.641352 0.358139 0.236919
O O13 0.687554 0.351616 0.903294
O O14 0.947479 0.667749 0.520417
#
# Coordination Sequence:
#
# PCOD9128600 Si02
#       8
#     4   4   4   4   4   2   4   2
#     4  11  24  43  69 106 139 189 239 298 364 433
#     4  11  26  43  69 104 146 189 240 293 366 428
#     4  11  23  46  71 106 136 194 243 306 360 440
#     4  11  26  47  68 106 144 189 239 300 362 432
#     4  10  26  44  69 103 144 190 246 289 372 434
#     4  12  24  40  72 106 144 180 244 306 356 444
#     4  11  23  45  75  99 145 185 247 301 368 421
#     4  10  24  46  70  98 148 198 232 296 364 442
#
# _framework density 21.394515999999999
#
# number of rings (size 3 to 8) (size 9 to 14) (size 15 to 20)
#    0.000    1.143    2.857    1.714   10.000    2.286 
#    2.571    0.000    0.000    0.000    0.000    0.000 
#    0.000    0.000    0.000    0.000    0.000    0.000 
#
# Total GULP energy -78038.842305 kJ/mol
# GULP energy per Si atom -5574.203022 kJ/mol
# Density = 2.134582 g / cm^3
# Si number density = 21.394516 Si / 1000 Ang^3
#
#
#
# Elastic Constant Matrix: (Units=GPa)
#
#
# Indices 1 2 3 4 5 6 
#
# 1 31.5558 -1.4689 2.1597 0.0000 3.4895 0.0000
# 2 -1.4689 52.5913 -8.7591 0.0000 -10.6918 0.0000
# 3 2.1597 -8.7591 106.8024 0.0000 -15.0353 0.0000
# 4 0.0000 0.0000 0.0000 11.7086 0.0000 -1.0438
# 5 3.4895 -10.6918 -15.0353 0.0000 27.2555 0.0000
# 6 0.0000 0.0000 0.0000 -1.0438 0.0000 16.7701
#
#
#
# Elastic Compliance Matrix: (Units=1/GPa)
#
#
# Indices 1 2 3 4 5 6 
#
# 1 0.032327 -0.000355 -0.001393 0.000000 -0.005047 0.000000
# 2 -0.000355 0.021641 0.003235 0.000000 0.010319 0.000000
# 3 -0.001393 0.003235 0.010690 0.000000 0.007345 0.000000
# 4 0.000000 0.000000 0.000000 0.085884 0.000000 0.005345
# 5 -0.005047 0.010319 0.007345 0.000000 0.045436 0.000000
# 6 0.000000 0.000000 0.000000 0.005345 0.000000 0.059963
#
#
# Mechanical properties :
#
#
# Convention : Reuss Voigt Hill
#
# Bulk Modulus (GPa) = 14.78606 19.42366 17.10486
# Shear Modulus (GPa) = 18.14804 24.41469 21.28137
#
# Velocity S-wave (km/s) = 2.91564 3.38178 3.15733
# Velocity P-wave (km/s) = 4.27326 4.93428 4.61562
#
# Compressibility (1/GPa) = 0.06763126
#
# Stress axis : x y z
#
# Youngs Moduli (GPa) = 30.93404 46.20790 93.54102
#
# Poissons Ratio (x) = 0.01641 0.13033
# Poissons Ratio (y) = 0.01099 -0.30258
# Poissons Ratio (z) = 0.04310 -0.14947
#
# Static dielectric constant tensor:
#      x y z
#    x 1.774870 0.000000 -0.020310 
#    y 0.000000 1.903540 0.000000 
#    z -0.020310 0.000000 1.782200 
# 
# From -- ./inp_files/31388.got.cif
#   From: 2010.05.17/outbox.cif.g08.bks.cpg/sg5_16_cif.got.tgz:31388.got - 2010.06.03 18:56:24.
