data_PCOD9128503
_publ_section_title
;
Structure prediction by ZEFSAII (Michael W. Deem and Ramdas Pophale) SiO2 
 PCOD9128503
Probable space group: C 2
;
_chemical_formula_sum "Si O2"
_cell_formula_units_Z 20
_cell_length_a 22.859686
_cell_length_b 7.061640
_cell_length_c 9.422624
_cell_angle_alpha 90.000000
_cell_angle_beta 149.450618
_cell_angle_gamma 90.000000
_cell_volume 773.127988
_symmetry_space_group_name_H-M "C 2"
_symmetry_group_IT_number 5
_symmetry_cell_setting 'monoclinic'
loop_
_space_group_symop_operation_xyz
x,y,z
-x,y,-z
1/2+x,1/2+y,z
1/2-x,1/2+y,-z
loop_
_atom_site_type_symbol
_atom_site_label
_atom_site_fract_x
_atom_site_fract_y
_atom_site_fract_z
Si Si1 0.500000 0.521301 0.500000
Si Si2 0.908412 0.709295 0.110537
Si Si3 0.740849 0.528309 0.571464
Si Si4 0.456577 0.861310 0.598625
Si Si5 0.000000 0.197679 0.000000
Si Si6 0.356812 0.152727 0.540894
O O1 0.419960 0.379591 0.243621
O O2 0.438809 0.668420 0.478324
O O3 0.883230 0.076128 0.750916
O O4 0.942005 0.502076 0.244800
O O5 0.789863 0.683343 0.781576
O O6 0.727050 0.329949 0.622249
O O7 0.830084 0.537130 0.628087
O O8 0.649313 0.006606 0.602293
O O9 0.486185 0.232025 0.783576
O O10 0.495939 0.806276 0.840857
#
# Coordination Sequence:
#
# PCOD9128503 Si02
#       6
#     2   4   4   4   2   4
#     4  12  24  50  86 116 182 224 272 344 412 520
#     4  10  25  47  82 119 168 218 277 339 415 509
#     4  12  24  44  82 127 168 212 268 359 419 487
#     4  10  24  48  76 120 164 215 273 345 412 495
#     4  12  26  46  86 122 162 212 284 350 424 476
#     4  10  24  44  77 124 167 207 276 346 421 486
#
# _framework density 25.868938
#
# number of rings (size 3 to 8) (size 9 to 14) (size 15 to 20)
#    1.200    0.000    0.000    6.000    5.600    0.000 
#    3.600    0.000   35.200    0.000    0.000    0.000 
#    0.000    0.000    0.000    0.000    0.000    0.000 
#
# Total GULP energy -55871.972935 kJ/mol
# GULP energy per Si atom -5587.197293 kJ/mol
# Density = 2.581006 g / cm^3
# Si number density = 25.868938 Si / 1000 Ang^3
#
#
#
# Elastic Constant Matrix: (Units=GPa)
#
#
# Indices 1 2 3 4 5 6 
#
# 1 87.2175 64.1826 72.9535 0.0000 -2.5003 0.0000
# 2 64.1826 193.2537 70.6985 0.0000 -16.2567 0.0000
# 3 72.9535 70.6985 116.3433 0.0000 3.4395 0.0000
# 4 0.0000 0.0000 0.0000 38.0121 0.0000 -20.6104
# 5 -2.5003 -16.2567 3.4395 0.0000 33.5115 0.0000
# 6 0.0000 0.0000 0.0000 -20.6104 0.0000 64.2251
#
#
#
# Elastic Compliance Matrix: (Units=1/GPa)
#
#
# Indices 1 2 3 4 5 6 
#
# 1 0.025847 -0.003188 -0.014325 0.000000 0.001852 0.000000
# 2 -0.003188 0.007525 -0.002683 0.000000 0.003688 0.000000
# 3 -0.014325 -0.002683 0.019337 0.000000 -0.004355 0.000000
# 4 0.000000 0.000000 0.000000 0.031849 0.000000 0.010221
# 5 0.001852 0.003688 -0.004355 0.000000 0.032215 0.000000
# 6 0.000000 0.000000 0.000000 0.010221 0.000000 0.018850
#
#
# Mechanical properties :
#
#
# Convention : Reuss Voigt Hill
#
# Bulk Modulus (GPa) = 81.18598 90.27597 85.73097
# Shear Modulus (GPa) = 27.75939 39.74840 33.75390
#
# Velocity S-wave (km/s) = 3.27934 3.92411 3.61613
# Velocity P-wave (km/s) = 6.76687 7.45015 7.11671
#
# Compressibility (1/GPa) = 0.01231740
#
# Stress axis : x y z
#
# Youngs Moduli (GPa) = 38.68970 132.89128 51.71493
#
# Poissons Ratio (x) = 0.42363 0.74081
# Poissons Ratio (y) = 0.12333 0.13874
# Poissons Ratio (z) = 0.55423 0.35652
#
# Static dielectric constant tensor:
#      x y z
#    x 2.089640 0.000000 -0.051740 
#    y 0.000000 2.095890 0.000000 
#    z -0.051740 0.000000 2.001820 
# 
# From -- ./inp_files/31456.got.cif
#   From: 2010.05.17/outbox.cif.g08.bks.cpg/sg5_16_cif.got.tgz:31456.got - 2010.06.03 18:56:24.
