data_PCOD9128541
_publ_section_title
;
Structure prediction by ZEFSAII (Michael W. Deem and Ramdas Pophale) SiO2 
 PCOD9128541
Probable space group: C 2
;
_chemical_formula_sum "Si O2"
_cell_formula_units_Z 28
_cell_length_a 14.462633
_cell_length_b 17.671470
_cell_length_c 5.617753
_cell_angle_alpha 90.000000
_cell_angle_beta 59.844578
_cell_angle_gamma 90.000000
_cell_volume 1241.455106
_symmetry_space_group_name_H-M "C 2"
_symmetry_group_IT_number 5
_symmetry_cell_setting 'monoclinic'
loop_
_space_group_symop_operation_xyz
x,y,z
-x,y,-z
1/2+x,1/2+y,z
1/2-x,1/2+y,-z
loop_
_atom_site_type_symbol
_atom_site_label
_atom_site_fract_x
_atom_site_fract_y
_atom_site_fract_z
Si Si1 0.608536 0.648230 0.701888
Si Si2 0.937566 0.310524 0.332303
Si Si3 0.000000 0.729020 0.000000
Si Si4 0.296022 0.438664 0.819361
Si Si5 0.617067 0.281732 0.235749
Si Si6 0.180326 0.468390 0.469867
Si Si7 0.151420 0.633224 0.455651
Si Si8 0.500000 0.529695 0.500000
O O1 0.631052 0.733381 0.583452
O O2 0.721040 0.624534 0.668119
O O3 0.572664 0.586947 0.556713
O O4 0.500000 0.651599 0.000000
O O5 0.884215 0.391640 0.411441
O O6 0.000000 0.302780 0.500000
O O7 0.000000 0.309773 0.000000
O O8 0.927893 0.675937 0.260187
O O9 0.089564 0.783916 0.995132
O O10 0.304456 0.347239 0.784565
O O11 0.249132 0.470582 0.629658
O O12 0.412992 0.473338 0.722176
O O13 0.234566 0.457805 0.140910
O O14 0.500000 0.294996 0.500000
O O15 0.647224 0.194227 0.246170
O O16 0.115322 0.546264 0.515688
#
# Coordination Sequence:
#
# PCOD9128541 Si02
#       8
#     4   4   2   4   4   4   4   2
#     4  11  24  45  70 104 142 188 241 298 370 436
#     4  11  25  46  72 101 143 189 240 297 358 440
#     4  10  26  44  76 102 144 194 250 302 368 440
#     4  12  27  46  73 109 148 186 247 306 380 435
#     4  10  24  45  71 105 141 197 241 310 369 443
#     4  12  28  46  72 110 142 198 241 308 367 439
#     4  11  25  46  73 105 146 192 248 300 372 441
#     4  12  24  44  74 102 146 188 236 316 364 444
#
# _framework density 22.554178
#
# number of rings (size 3 to 8) (size 9 to 14) (size 15 to 20)
#    0.000    0.857    2.857    2.571    9.000    4.000 
#    0.000    0.000    0.000    0.000    0.000    0.000 
#    0.000    0.000    0.000    0.000    0.000    0.000 
#
# Total GULP energy -77972.526296 kJ/mol
# GULP energy per Si atom -5569.466164 kJ/mol
# Density = 2.250284 g / cm^3
# Si number density = 22.554178 Si / 1000 Ang^3
#
#
#
# Elastic Constant Matrix: (Units=GPa)
#
#
# Indices 1 2 3 4 5 6 
#
# 1 50.4020 1.9540 11.1663 0.0000 18.6170 0.0000
# 2 1.9540 137.5997 5.9187 0.0000 17.6839 0.0000
# 3 11.1663 5.9187 73.3989 0.0000 14.4638 0.0000
# 4 0.0000 0.0000 0.0000 280.8076 0.0000 341.3539
# 5 18.6170 17.6839 14.4638 0.0000 27.9190 0.0000
# 6 0.0000 0.0000 0.0000 341.3539 0.0000 521.3864
#
#
#
# Elastic Compliance Matrix: (Units=1/GPa)
#
#
# Indices 1 2 3 4 5 6 
#
# 1 0.026883 0.002079 -0.000518 0.000000 -0.018975 0.000000
# 2 0.002079 0.008082 0.000350 0.000000 -0.006687 0.000000
# 3 -0.000518 0.000350 0.015202 0.000000 -0.007752 0.000000
# 4 0.000000 0.000000 0.000000 0.017445 0.000000 -0.011422
# 5 -0.018975 -0.006687 -0.007752 0.000000 0.056722 0.000000
# 6 0.000000 0.000000 0.000000 -0.011422 0.000000 0.009396
#
#
# Mechanical properties :
#
#
# Convention : Reuss Voigt Hill
#
# Bulk Modulus (GPa) = 18.52227 33.27539 25.89883
# Shear Modulus (GPa) = 33.80509 182.18005 107.99257
#
# Velocity S-wave (km/s) = 3.87568 8.99721 6.92715
# Velocity P-wave (km/s) = 5.31583 11.07784 8.68840
#
# Compressibility (1/GPa) = 0.05398906
#
# Stress axis : x y z
#
# Youngs Moduli (GPa) = 37.19757 123.72766 65.77920
#
# Poissons Ratio (x) = -0.25725 0.03410
# Poissons Ratio (y) = -0.07734 -0.02300
# Poissons Ratio (z) = 0.01928 -0.04326
#
# Static dielectric constant tensor:
#      x y z
#    x 0.866450 0.000000 0.004500 
#    y 0.000000 1.858930 0.000000 
#    z 0.004500 0.000000 1.849210 
# 
# From -- ./inp_files/7274.got.cif
#   From: 2010.05.17/outbox.cif.g08.bks.cpg/sg5_4_cif.got.tgz:7274.got - 2010.06.03 18:56:24.
