data_PCOD9128895
_publ_section_title
;
Structure prediction by ZEFSAII (Michael W. Deem and Ramdas Pophale) SiO2 
 PCOD9128895
Probable space group: C 2
;
_chemical_formula_sum "Si O2"
_cell_formula_units_Z 16
_cell_length_a 11.638364
_cell_length_b 7.080608
_cell_length_c 10.655718
_cell_angle_alpha 90.000000
_cell_angle_beta 129.322178
_cell_angle_gamma 90.000000
_cell_volume 679.295677
_symmetry_space_group_name_H-M "C 2"
_symmetry_group_IT_number 5
_symmetry_cell_setting 'monoclinic'
loop_
_space_group_symop_operation_xyz
x,y,z
-x,y,-z
1/2+x,1/2+y,z
1/2-x,1/2+y,-z
loop_
_atom_site_type_symbol
_atom_site_label
_atom_site_fract_x
_atom_site_fract_y
_atom_site_fract_z
Si Si1 0.762539 0.873100 0.892718
Si Si2 0.551376 0.827113 0.408760
Si Si3 0.819007 0.439839 0.884401
Si Si4 0.715729 0.621249 0.313111
O O1 0.590892 0.928105 0.748337
O O2 0.797037 0.664068 0.868179
O O3 0.843402 0.011317 0.850938
O O4 0.764656 0.878351 0.044451
O O5 0.500000 0.726466 0.500000
O O6 0.603032 0.677984 0.343268
O O7 0.666625 0.985353 0.536217
O O8 0.743749 0.324448 0.718852
O O9 0.000000 0.406223 0.000000
#
# Coordination Sequence:
#
# PCOD9128895 Si02
#       4
#     4   4   4   4
#     4  11  25  47  71 107 142 189 239 293 357 427
#     4  10  25  47  67 103 146 185 237 286 354 424
#     4  12  25  45  75 107 143 185 241 297 358 424
#     4  11  25  48  70 106 144 189 238 293 355 427
#
# _framework density 23.553809000000001
#
# number of rings (size 3 to 8) (size 9 to 14) (size 15 to 20)
#    0.000    1.000    5.000    0.000    7.000    3.000 
#   13.500    0.000    0.000    0.000    0.000    0.000 
#    0.000    0.000    0.000    0.000    0.000    0.000 
#
# Total GULP energy -44615.551776 kJ/mol
# GULP energy per Si atom -5576.943972 kJ/mol
# Density = 2.350020 g / cm^3
# Si number density = 23.553809 Si / 1000 Ang^3
#
#
#
# Elastic Constant Matrix: (Units=GPa)
#
#
# Indices 1 2 3 4 5 6 
#
# 1 131.5426 64.1561 64.5963 0.0000 -48.3548 0.0000
# 2 64.1561 124.3895 4.0906 0.0000 -9.9776 0.0000
# 3 64.5963 4.0906 60.0883 0.0000 -8.2783 0.0000
# 4 0.0000 0.0000 0.0000 43.2028 0.0000 -19.3231
# 5 -48.3548 -9.9776 -8.2783 0.0000 61.6608 0.0000
# 6 0.0000 0.0000 0.0000 -19.3231 0.0000 43.0137
#
#
#
# Elastic Compliance Matrix: (Units=1/GPa)
#
#
# Indices 1 2 3 4 5 6 
#
# 1 0.077312 -0.033801 -0.074592 0.000000 0.045145 0.000000
# 2 -0.033801 0.022931 0.032231 0.000000 -0.018469 0.000000
# 3 -0.074592 0.032231 0.088941 0.000000 -0.041339 0.000000
# 4 0.000000 0.000000 0.000000 0.028967 0.000000 0.013013
# 5 0.045145 -0.018469 -0.041339 0.000000 0.043082 0.000000
# 6 0.000000 0.000000 0.000000 0.013013 0.000000 0.029094
#
#
# Mechanical properties :
#
#
# Convention : Reuss Voigt Hill
#
# Bulk Modulus (GPa) = 27.12886 64.63404 45.88145
# Shear Modulus (GPa) = 10.99051 41.78729 26.38890
#
# Velocity S-wave (km/s) = 2.16247 4.21660 3.35082
# Velocity P-wave (km/s) = 4.21638 7.15590 5.87302
#
# Compressibility (1/GPa) = 0.03686111
#
# Stress axis : x y z
#
# Youngs Moduli (GPa) = 12.93454 43.60844 11.24346
#
# Poissons Ratio (x) = 1.47401 0.83867
# Poissons Ratio (y) = 0.43720 -0.36239
# Poissons Ratio (z) = 0.96481 -1.40556
#
# Static dielectric constant tensor:
#      x y z
#    x 1.969600 0.000000 0.019320 
#    y 0.000000 1.898720 0.000000 
#    z 0.019320 0.000000 1.925970 
# 
# From -- ./inp_files/37746.got.cif
#   From: 2010.05.17/outbox.cif.g08.bks.cpg/sg5_19_cif.got.tgz:37746.got - 2010.06.03 18:56:24.
