data_PCOD9128403
_publ_section_title
;
Structure prediction by ZEFSAII (Michael W. Deem and Ramdas Pophale) SiO2 
 PCOD9128403
Probable space group: C 2
;
_chemical_formula_sum "Si O2"
_cell_formula_units_Z 20
_cell_length_a 12.115964
_cell_length_b 7.241190
_cell_length_c 20.625273
_cell_angle_alpha 90.000000
_cell_angle_beta 154.020986
_cell_angle_gamma 90.000000
_cell_volume 792.653330
_symmetry_space_group_name_H-M "C 2"
_symmetry_group_IT_number 5
_symmetry_cell_setting 'monoclinic'
loop_
_space_group_symop_operation_xyz
x,y,z
-x,y,-z
1/2+x,1/2+y,z
1/2-x,1/2+y,-z
loop_
_atom_site_type_symbol
_atom_site_label
_atom_site_fract_x
_atom_site_fract_y
_atom_site_fract_z
Si Si1 0.467367 0.867730 0.411035
Si Si2 0.020959 0.356509 0.822553
Si Si3 0.319685 0.049909 0.597693
Si Si4 0.533032 0.183461 0.115046
Si Si5 0.794453 0.307066 0.837090
O O1 0.500000 0.947492 0.500000
O O2 0.559048 0.655265 0.465122
O O3 0.198905 0.844021 0.234594
O O4 0.646602 0.967037 0.455157
O O5 0.866253 0.393977 0.675963
O O6 0.069913 0.557634 0.880254
O O7 0.872943 0.259243 0.803994
O O8 0.289160 0.263990 0.951294
O O9 0.537599 0.205813 0.719534
O O10 0.695809 0.031691 0.161347
O O11 0.000000 0.254517 0.000000
#
# Coordination Sequence:
#
# PCOD9128403 Si02
#       5
#     4   4   4   4   4
#     4  12  27  47  70 102 143 194 234 292 352 434
#     4  10  24  44  73 106 142 182 240 299 347 422
#     4  12  27  47  72 101 150 185 241 289 362 416
#     4  10  24  44  73 104 144 180 244 289 358 411
#     4  10  24  43  70 105 142 178 235 298 346 418
#
# _framework density 25.231711000000001
#
# number of rings (size 3 to 8) (size 9 to 14) (size 15 to 20)
#    1.200    0.000    2.000    2.400    8.400    1.600 
#    0.000    0.000    0.000    0.000    0.000    0.000 
#    0.000    0.000    0.000    0.000    0.000    0.000 
#
# Total GULP energy -55909.904361 kJ/mol
# GULP energy per Si atom -5590.990436 kJ/mol
# Density = 2.517428 g / cm^3
# Si number density = 25.231711 Si / 1000 Ang^3
#
#
#
# Elastic Constant Matrix: (Units=GPa)
#
#
# Indices 1 2 3 4 5 6 
#
# 1 108.8322 23.9174 11.1971 0.0013 -39.6994 0.0000
# 2 23.9174 68.7149 7.5839 0.0014 -4.4470 0.0002
# 3 11.1971 7.5839 66.5161 0.0065 -18.4883 0.0011
# 4 0.0013 0.0014 0.0065 40.9778 0.0011 13.7919
# 5 -39.6994 -4.4470 -18.4883 0.0011 38.0327 -0.0002
# 6 0.0000 0.0002 0.0011 13.7919 -0.0002 43.0239
#
#
#
# Elastic Compliance Matrix: (Units=1/GPa)
#
#
# Indices 1 2 3 4 5 6 
#
# 1 0.016578 -0.004908 0.002797 -0.000001 0.018091 0.000000
# 2 -0.004908 0.016228 -0.002221 0.000000 -0.004306 0.000000
# 3 0.002797 -0.002221 0.017986 -0.000003 0.011403 0.000001
# 4 -0.000001 0.000000 -0.000003 0.027355 -0.000004 -0.008769
# 5 0.018091 -0.004306 0.011403 -0.000004 0.050217 0.000001
# 6 0.000000 0.000000 0.000001 -0.008769 0.000001 0.026054
#
#
# Mechanical properties :
#
#
# Convention : Reuss Voigt Hill
#
# Bulk Modulus (GPa) = 23.73689 36.60666 30.17178
# Shear Modulus (GPa) = 28.22880 37.83121 33.03001
#
# Velocity S-wave (km/s) = 3.34845 3.87635 3.62203
# Velocity P-wave (km/s) = 4.93735 5.88000 5.42918
#
# Compressibility (1/GPa) = 0.04212851
#
# Stress axis : x y z
#
# Youngs Moduli (GPa) = 60.31921 61.62270 55.59922
#
# Poissons Ratio (x) = 0.30247 -0.15553
# Poissons Ratio (y) = 0.29607 0.12347
# Poissons Ratio (z) = -0.16873 0.13685
#
# Static dielectric constant tensor:
#      x y z
#    x 2.024290 0.000000 0.013010 
#    y 0.000000 2.005190 0.000000 
#    z 0.013010 0.000000 1.987190 
# 
# From -- ./inp_files/68605.got.cif
#   From: 2010.05.17/outbox.cif.g08.bks.cpg/sg5_35_cif.got.tgz:68605.got - 2010.06.03 18:56:24.
