data_PCOD9128075
_publ_section_title
;
Structure prediction by ZEFSAII (Michael W. Deem and Ramdas Pophale) SiO2 
 PCOD9128075
Probable space group: C 2
;
_chemical_formula_sum "Si O2"
_cell_formula_units_Z 32
_cell_length_a 11.500041
_cell_length_b 8.997575
_cell_length_c 12.531843
_cell_angle_alpha 90.000000
_cell_angle_beta 81.674617
_cell_angle_gamma 90.000000
_cell_volume 1283.035920
_symmetry_space_group_name_H-M "C 2"
_symmetry_group_IT_number 5
_symmetry_cell_setting 'monoclinic'
loop_
_space_group_symop_operation_xyz
x,y,z
-x,y,-z
1/2+x,1/2+y,z
1/2-x,1/2+y,-z
loop_
_atom_site_type_symbol
_atom_site_label
_atom_site_fract_x
_atom_site_fract_y
_atom_site_fract_z
Si Si1 0.329342 0.609830 0.742976
Si Si2 0.688172 0.066078 0.565008
Si Si3 0.688481 0.586633 0.673363
Si Si4 0.471052 0.853496 0.296112
Si Si5 0.459728 0.332731 0.385589
Si Si6 0.908071 0.516446 0.917450
Si Si7 0.567761 0.334165 0.155672
Si Si8 0.697718 0.367313 0.862390
O O1 0.288488 0.529035 0.638988
O O2 0.423043 0.737934 0.698942
O O3 0.370245 0.489009 0.824657
O O4 0.228480 0.703979 0.815910
O O5 0.724344 0.076797 0.437848
O O6 0.656071 0.233070 0.602798
O O7 0.578497 0.958577 0.603492
O O8 0.641037 0.746868 0.713957
O O9 0.575459 0.497958 0.641615
O O10 0.728925 0.489786 0.767220
O O11 0.517633 0.954500 0.193781
O O12 0.500000 0.320790 0.500000
O O13 0.541898 0.276111 0.280338
O O14 0.878318 0.691907 0.910059
O O15 0.788746 0.418800 0.941133
O O16 0.000000 0.498090 0.000000
O O17 0.443109 0.372015 0.115296
#
# Coordination Sequence:
#
# PCOD9128075 Si02
#       8
#     4   4   4   4   4   4   4   4
#     4  11  22  41  70  95 140 188 228 278 347 412
#     4  12  24  40  64 103 145 188 235 271 337 421
#     4  11  23  41  63 101 144 187 232 273 344 414
#     4  11  24  43  71 100 141 189 229 294 345 407
#     4  11  22  40  61  95 143 183 227 275 330 409
#     4  11  26  50  73 103 136 180 242 303 368 425
#     4  11  22  46  68  97 140 179 231 296 348 409
#     4  10  23  46  66 102 139 173 234 294 339 433
#
# _framework density 24.940844999999999
#
# number of rings (size 3 to 8) (size 9 to 14) (size 15 to 20)
#    0.000    1.000    6.250    1.500    3.500    0.000 
#    4.500    2.500    0.000    0.000    0.000    0.000 
#    0.000    0.000    0.000    0.000    0.000    0.000 
#
# Total GULP energy -89450.357285 kJ/mol
# GULP energy per Si atom -5590.647330 kJ/mol
# Density = 2.488408 g / cm^3
# Si number density = 24.940845 Si / 1000 Ang^3
#
#
#
# Elastic Constant Matrix: (Units=GPa)
#
#
# Indices 1 2 3 4 5 6 
#
# 1 81.1739 42.6031 44.2883 0.0000 20.1088 0.0000
# 2 42.6031 117.9807 20.0480 0.0000 -3.3785 0.0000
# 3 44.2883 20.0480 84.0056 0.0000 1.1712 0.0000
# 4 0.0000 0.0000 0.0000 19.9941 0.0000 -9.1246
# 5 20.1088 -3.3785 1.1712 0.0000 43.1528 0.0000
# 6 0.0000 0.0000 0.0000 -9.1246 0.0000 38.6859
#
#
#
# Elastic Compliance Matrix: (Units=1/GPa)
#
#
# Indices 1 2 3 4 5 6 
#
# 1 0.025664 -0.007658 -0.011532 0.000000 -0.012246 0.000000
# 2 -0.007658 0.011144 0.001317 0.000000 0.004406 0.000000
# 3 -0.011532 0.001317 0.017600 0.000000 0.004999 0.000000
# 4 0.000000 0.000000 0.000000 0.056048 0.000000 0.013220
# 5 -0.012246 0.004406 0.004999 0.000000 0.029089 0.000000
# 6 0.000000 0.000000 0.000000 0.013220 0.000000 0.028967
#
#
# Mechanical properties :
#
#
# Convention : Reuss Voigt Hill
#
# Bulk Modulus (GPa) = 53.58944 55.22655 54.40800
# Shear Modulus (GPa) = 23.75534 32.11460 27.93497
#
# Velocity S-wave (km/s) = 3.08956 3.59225 3.35034
# Velocity P-wave (km/s) = 5.85324 6.27668 6.06866
#
# Compressibility (1/GPa) = 0.01866039
#
# Stress axis : x y z
#
# Youngs Moduli (GPa) = 38.96513 89.73549 56.81928
#
# Poissons Ratio (x) = 0.68723 0.65523
# Poissons Ratio (y) = 0.29841 -0.07481
# Poissons Ratio (z) = 0.44934 -0.11815
#
# Static dielectric constant tensor:
#      x y z
#    x 2.061590 0.000000 -0.022910 
#    y 0.000000 1.920430 0.000000 
#    z -0.022910 0.000000 2.023090 
# 
# From -- ./inp_files/52451.got.cif
#   From: 2010.05.17/outbox.cif.g08.bks.cpg/sg5_27_cif.got.tgz:52451.got - 2010.06.03 18:56:24.
