data_PCOD9128227
_publ_section_title
;
Structure prediction by ZEFSAII (Michael W. Deem and Ramdas Pophale) SiO2 
 PCOD9128227
Probable space group: C 2
;
_chemical_formula_sum "Si O2"
_cell_formula_units_Z 20
_cell_length_a 9.066676
_cell_length_b 5.296735
_cell_length_c 20.019652
_cell_angle_alpha 90.000000
_cell_angle_beta 118.381047
_cell_angle_gamma 90.000000
_cell_volume 845.862389
_symmetry_space_group_name_H-M "C 2"
_symmetry_group_IT_number 5
_symmetry_cell_setting 'monoclinic'
loop_
_space_group_symop_operation_xyz
x,y,z
-x,y,-z
1/2+x,1/2+y,z
1/2-x,1/2+y,-z
loop_
_atom_site_type_symbol
_atom_site_label
_atom_site_fract_x
_atom_site_fract_y
_atom_site_fract_z
Si Si1 0.301182 0.457950 0.472673
Si Si2 0.847530 0.624374 0.295256
Si Si3 0.320433 0.626643 0.335650
Si Si4 0.137483 0.362958 0.971061
Si Si5 0.034563 0.442010 0.207897
O O1 0.500000 0.453980 0.500000
O O2 0.257808 0.689045 0.512455
O O3 0.234289 0.531105 0.384568
O O4 0.931156 0.892346 0.334179
O O5 0.903161 0.529040 0.234985
O O6 0.650027 0.701555 0.252649
O O7 0.888998 0.405654 0.356982
O O8 0.182584 0.648713 0.246745
O O9 0.045515 0.407308 0.880760
O O10 0.259352 0.601871 0.009041
O O11 0.000000 0.350512 0.000000
#
# Coordination Sequence:
#
# PCOD9128227 Si02
#       5
#     4   4   4   4   4
#     4  12  28  46  73 103 146 186 234 290 358 414
#     4  10  24  38  71  94 134 170 240 279 341 397
#     4  10  26  42  71  97 139 178 237 280 344 412
#     4  12  28  46  73 103 147 185 233 290 357 415
#     4  10  26  42  71  98 137 180 235 280 345 411
#
# _framework density 23.644508999999999
#
# number of rings (size 3 to 8) (size 9 to 14) (size 15 to 20)
#    1.200    0.000    0.000    3.600   14.000    0.000 
#    0.000    0.000    0.000    0.000    0.000    0.000 
#    0.000    0.000    0.000    0.000    0.000    0.000 
#
# Total GULP energy -55838.731211 kJ/mol
# GULP energy per Si atom -5583.873121 kJ/mol
# Density = 2.359069 g / cm^3
# Si number density = 23.644509 Si / 1000 Ang^3
#
#
#
# Elastic Constant Matrix: (Units=GPa)
#
#
# Indices 1 2 3 4 5 6 
#
# 1 127.7068 64.1478 13.2586 0.0000 -25.4991 0.0000
# 2 64.1478 161.0869 13.0144 0.0000 -20.3840 0.0000
# 3 13.2586 13.0144 82.5759 0.0000 -9.1688 0.0000
# 4 0.0000 0.0000 0.0000 27.0398 0.0000 -3.4344
# 5 -25.4991 -20.3840 -9.1688 0.0000 45.3356 0.0000
# 6 0.0000 0.0000 0.0000 -3.4344 0.0000 16.0072
#
#
#
# Elastic Compliance Matrix: (Units=1/GPa)
#
#
# Indices 1 2 3 4 5 6 
#
# 1 0.010551 -0.003620 -0.000660 0.000000 0.004173 0.000000
# 2 -0.003620 0.007867 -0.000503 0.000000 0.001399 0.000000
# 3 -0.000660 -0.000503 0.012510 0.000000 0.001932 0.000000
# 4 0.000000 0.000000 0.000000 0.038019 0.000000 0.008157
# 5 0.004173 0.001399 0.001932 0.000000 0.025425 0.000000
# 6 0.000000 0.000000 0.000000 0.008157 0.000000 0.064222
#
#
# Mechanical properties :
#
#
# Convention : Reuss Voigt Hill
#
# Bulk Modulus (GPa) = 46.81484 61.35681 54.08582
# Shear Modulus (GPa) = 28.52575 36.40644 32.46609
#
# Velocity S-wave (km/s) = 3.47716 3.92821 3.70955
# Velocity P-wave (km/s) = 5.99694 6.82499 6.42432
#
# Compressibility (1/GPa) = 0.02136075
#
# Stress axis : x y z
#
# Youngs Moduli (GPa) = 94.78170 127.11111 79.93630
#
# Poissons Ratio (x) = 0.46015 0.05277
# Poissons Ratio (y) = 0.34311 0.04023
# Poissons Ratio (z) = 0.06257 0.06397
#
# Static dielectric constant tensor:
#      x y z
#    x 1.936200 0.000000 0.074380 
#    y 0.000000 1.966260 0.000000 
#    z 0.074380 0.000000 1.922750 
# 
# From -- ./inp_files/64195.got.cif
#   From: 2010.05.17/outbox.cif.g08.bks.cpg/sg5_33_cif.got.tgz:64195.got - 2010.06.03 18:56:24.
