data_PCOD9128268
_publ_section_title
;
Structure prediction by ZEFSAII (Michael W. Deem and Ramdas Pophale) SiO2 
 PCOD9128268
Probable space group: C 2
;
_chemical_formula_sum "Si O2"
_cell_formula_units_Z 22
_cell_length_a 21.512456
_cell_length_b 8.275395
_cell_length_c 5.310415
_cell_angle_alpha 90.000000
_cell_angle_beta 107.592412
_cell_angle_gamma 90.000000
_cell_volume 901.166860
_symmetry_space_group_name_H-M "C 2"
_symmetry_group_IT_number 5
_symmetry_cell_setting 'monoclinic'
loop_
_space_group_symop_operation_xyz
x,y,z
-x,y,-z
1/2+x,1/2+y,z
1/2-x,1/2+y,-z
loop_
_atom_site_type_symbol
_atom_site_label
_atom_site_fract_x
_atom_site_fract_y
_atom_site_fract_z
Si Si1 0.921788 0.274940 0.250650
Si Si2 0.304228 0.995239 0.035201
Si Si3 0.124440 0.718217 0.233068
Si Si4 0.759516 0.193252 0.671531
Si Si5 0.609974 0.588762 0.309877
Si Si6 0.500000 0.000568 0.000000
O O1 0.929046 0.156754 0.497868
O O2 0.860102 0.390564 0.240105
O O3 0.905973 0.176819 0.973581
O O4 0.976821 0.393657 0.207878
O O5 0.339920 0.156173 0.977179
O O6 0.280540 0.869531 0.792984
O O7 0.242714 0.055327 0.116899
O O8 0.185169 0.694518 0.493760
O O9 0.102030 0.900638 0.244739
O O10 0.061330 0.604927 0.168874
O O11 0.814053 0.132197 0.546271
#
# Coordination Sequence:
#
# PCOD9128268 Si02
#       6
#     4   4   4   4   4   2
#     4  10  26  49  74 108 149 208 251 322 372 460
#     4  10  24  40  68 112 155 198 250 303 399 454
#     4  11  25  45  76 111 149 209 250 323 371 467
#     4  11  24  40  75 110 160 194 243 321 389 469
#     4  11  26  45  77 114 155 191 261 315 403 444
#     4  10  26  56  76 106 156 206 276 302 380 458
#
# _framework density 24.412796
#
# number of rings (size 3 to 8) (size 9 to 14) (size 15 to 20)
#    0.000    1.455    0.000    2.182   22.909    1.455 
#    3.273    0.000    0.000    0.000    0.000    0.000 
#    0.000    0.000    0.000    0.000    0.000    0.000 
#
# Total GULP energy -61506.846303 kJ/mol
# GULP energy per Si atom -5591.531482 kJ/mol
# Density = 2.435723 g / cm^3
# Si number density = 24.412796 Si / 1000 Ang^3
#
#
#
# Elastic Constant Matrix: (Units=GPa)
#
#
# Indices 1 2 3 4 5 6 
#
# 1 161.2739 74.7271 44.7529 0.0000 -13.2605 0.0000
# 2 74.7271 165.3145 71.5189 0.0000 -20.0288 0.0000
# 3 44.7529 71.5189 84.2080 0.0000 -18.7349 0.0000
# 4 0.0000 0.0000 0.0000 35.8085 0.0000 -7.8538
# 5 -13.2605 -20.0288 -18.7349 0.0000 45.8785 0.0000
# 6 0.0000 0.0000 0.0000 -7.8538 0.0000 48.7596
#
#
#
# Elastic Compliance Matrix: (Units=1/GPa)
#
#
# Indices 1 2 3 4 5 6 
#
# 1 0.008031 -0.002806 -0.001805 0.000000 0.000359 0.000000
# 2 -0.002806 0.010580 -0.007312 0.000000 0.000822 0.000000
# 3 -0.001805 -0.007312 0.020039 0.000000 0.004469 0.000000
# 4 0.000000 0.000000 0.000000 0.028949 0.000000 0.004663
# 5 0.000359 0.000822 0.004469 0.000000 0.024085 0.000000
# 6 0.000000 0.000000 0.000000 0.004663 0.000000 0.021260
#
#
# Mechanical properties :
#
#
# Convention : Reuss Voigt Hill
#
# Bulk Modulus (GPa) = 67.54621 88.08825 77.81723
# Shear Modulus (GPa) = 35.27957 40.74248 38.01102
#
# Velocity S-wave (km/s) = 3.80561 4.08965 3.95018
# Velocity P-wave (km/s) = 6.85847 7.64601 7.26292
#
# Compressibility (1/GPa) = 0.01480468
#
# Stress axis : x y z
#
# Youngs Moduli (GPa) = 124.51399 94.51543 49.90209
#
# Poissons Ratio (x) = 0.26519 0.09009
# Poissons Ratio (y) = 0.34936 0.36488
# Poissons Ratio (z) = 0.22479 0.69109
#
# Static dielectric constant tensor:
#      x y z
#    x 1.935750 0.000000 0.045320 
#    y 0.000000 1.900120 0.000000 
#    z 0.045320 0.000000 2.086250 
# 
# From -- ./inp_files/9284.got.cif
#   From: 2010.05.17/outbox.cif.g08.bks.cpg/sg5_5_cif.got.tgz:9284.got - 2010.06.03 18:56:24.
