data_PCOD9128288
_publ_section_title
;
Structure prediction by ZEFSAII (Michael W. Deem and Ramdas Pophale) SiO2 
 PCOD9128288
Probable space group: C 2
;
_chemical_formula_sum "Si O2"
_cell_formula_units_Z 32
_cell_length_a 9.779551
_cell_length_b 10.087311
_cell_length_c 28.442406
_cell_angle_alpha 90.000000
_cell_angle_beta 31.718154
_cell_angle_gamma 90.000000
_cell_volume 1475.138071
_symmetry_space_group_name_H-M "C 2"
_symmetry_group_IT_number 5
_symmetry_cell_setting 'monoclinic'
loop_
_space_group_symop_operation_xyz
x,y,z
-x,y,-z
1/2+x,1/2+y,z
1/2-x,1/2+y,-z
loop_
_atom_site_type_symbol
_atom_site_label
_atom_site_fract_x
_atom_site_fract_y
_atom_site_fract_z
Si Si1 0.864931 0.983280 0.087362
Si Si2 0.185917 0.712581 0.199583
Si Si3 0.396680 0.186576 0.082796
Si Si4 0.560134 0.420335 0.403886
Si Si5 0.350873 0.646155 0.694560
Si Si6 0.271516 0.672006 0.281636
Si Si7 0.090925 0.426992 0.610520
Si Si8 0.102262 0.488846 0.842870
O O1 0.965056 0.839802 0.073848
O O2 0.578266 0.953210 0.149014
O O3 0.859031 0.091123 0.129676
O O4 0.000000 0.030564 0.000000
O O5 0.151009 0.704510 0.265541
O O6 0.308250 0.857111 0.157232
O O7 0.925984 0.691587 0.245903
O O8 0.083365 0.167556 0.180534
O O9 0.524184 0.085687 0.082069
O O10 0.500000 0.163268 0.000000
O O11 0.536791 0.534729 0.372263
O O12 0.678534 0.288229 0.344562
O O13 0.284059 0.404708 0.510285
O O14 0.748971 0.472535 0.390215
O O15 0.503203 0.781490 0.651266
O O16 0.322373 0.577047 0.753337
O O17 0.139556 0.530576 0.333137
#
# Coordination Sequence:
#
# PCOD9128288 Si02
#       8
#     4   4   4   4   4   4   4   4
#     4  10  24  41  62  92 126 166 216 269 321 375
#     4  11  22  40  66  92 124 174 211 261 328 384
#     4  11  25  44  66  98 131 174 221 268 321 384
#     4  11  23  44  64  98 129 165 220 272 322 393
#     4  11  22  41  64  92 126 169 212 261 328 385
#     4  12  22  43  68  93 135 173 212 271 325 380
#     4  11  25  40  69  94 127 173 216 265 334 391
#     4  11  23  41  62  91 129 166 214 270 314 385
#
# _framework density 21.692886000000001
#
# number of rings (size 3 to 8) (size 9 to 14) (size 15 to 20)
#    0.000    1.000    3.750    3.000    3.500    0.500 
#    0.000    0.000    0.000    0.000    0.000    0.000 
#    0.000    0.000    0.000    0.000    0.000    0.000 
#
# Total GULP energy -89350.889913 kJ/mol
# GULP energy per Si atom -5584.430620 kJ/mol
# Density = 2.164351 g / cm^3
# Si number density = 21.692886 Si / 1000 Ang^3
#
#
#
# Elastic Constant Matrix: (Units=GPa)
#
#
# Indices 1 2 3 4 5 6 
#
# 1 57.4073 29.7390 21.1708 -0.0012 16.1685 0.0035
# 2 29.7390 108.4981 32.6049 -0.0002 24.2255 0.0049
# 3 21.1708 32.6049 108.2021 -0.0108 15.3989 -0.0014
# 4 -0.0012 -0.0002 -0.0108 26.1686 0.0013 11.6604
# 5 16.1685 24.2255 15.3989 0.0013 33.7830 -0.0026
# 6 0.0035 0.0049 -0.0014 11.6604 -0.0026 20.5212
#
#
#
# Elastic Compliance Matrix: (Units=1/GPa)
#
#
# Indices 1 2 3 4 5 6 
#
# 1 0.022165 -0.003894 -0.002193 0.000003 -0.006816 -0.000006
# 2 -0.003894 0.012241 -0.002077 0.000001 -0.005967 -0.000004
# 3 -0.002193 -0.002077 0.010625 0.000005 -0.002304 -0.000002
# 4 0.000003 0.000001 0.000005 0.051169 -0.000009 -0.029075
# 5 -0.006816 -0.005967 -0.002304 -0.000009 0.038192 0.000012
# 6 -0.000006 -0.000004 -0.000002 -0.029075 0.000012 0.065251
#
#
# Mechanical properties :
#
#
# Convention : Reuss Voigt Hill
#
# Bulk Modulus (GPa) = 34.84229 49.01521 41.92875
# Shear Modulus (GPa) = 22.16904 28.80075 25.48490
#
# Velocity S-wave (km/s) = 3.20026 3.64766 3.43126
# Velocity P-wave (km/s) = 5.45455 6.35489 5.92185
#
# Compressibility (1/GPa) = 0.02870075
#
# Stress axis : x y z
#
# Youngs Moduli (GPa) = 45.11538 81.69402 94.11827
#
# Poissons Ratio (x) = 0.31816 0.20643
# Poissons Ratio (y) = 0.17570 0.19552
# Poissons Ratio (z) = 0.09895 0.16971
#
# Static dielectric constant tensor:
#      x y z
#    x 1.823040 0.000000 -0.073970 
#    y 0.000000 1.794500 -0.000010 
#    z -0.073970 -0.000010 1.851840 
# 
# From -- ./inp_files/71748.got.cif
#   From: 2010.05.17/outbox.cif.g08.bks.cpg/sg5_36_cif.got.tgz:71748.got - 2010.06.03 18:56:24.
