data_PCOD9128882
_publ_section_title
;
Structure prediction by ZEFSAII (Michael W. Deem and Ramdas Pophale) SiO2 
 PCOD9128882
Probable space group: C 2
;
_chemical_formula_sum "Si O2"
_cell_formula_units_Z 30
_cell_length_a 27.250661
_cell_length_b 5.424427
_cell_length_c 8.317693
_cell_angle_alpha 90.000000
_cell_angle_beta 108.738195
_cell_angle_gamma 90.000000
_cell_volume 1164.346109
_symmetry_space_group_name_H-M "C 2"
_symmetry_group_IT_number 5
_symmetry_cell_setting 'monoclinic'
loop_
_space_group_symop_operation_xyz
x,y,z
-x,y,-z
1/2+x,1/2+y,z
1/2-x,1/2+y,-z
loop_
_atom_site_type_symbol
_atom_site_label
_atom_site_fract_x
_atom_site_fract_y
_atom_site_fract_z
Si Si1 0.353923 0.808120 0.840161
Si Si2 0.253631 0.511522 0.751840
Si Si3 0.613012 0.478101 0.636192
Si Si4 0.647890 0.981597 0.497099
Si Si5 0.022179 0.496688 0.840661
Si Si6 0.820967 0.696250 0.043505
Si Si7 0.000000 0.755369 0.500000
Si Si8 0.054518 0.998826 0.962423
O O1 0.297211 0.702964 0.747457
O O2 0.370468 0.968486 0.705205
O O3 0.396252 0.589915 0.887581
O O4 0.349953 0.958122 0.002114
O O5 0.210001 0.452497 0.577203
O O6 0.220084 0.611762 0.866301
O O7 0.287679 0.290342 0.857785
O O8 0.625081 0.749058 0.576297
O O9 0.645086 0.413702 0.835190
O O10 0.551780 0.417051 0.571675
O O11 0.634314 0.251129 0.549516
O O12 0.045037 0.228169 0.833130
O O13 0.991490 0.586638 0.650841
O O14 0.060457 0.726531 0.902517
O O15 0.000000 0.471428 0.000000
O O16 0.000000 0.978851 0.000000
#
# Coordination Sequence:
#
# PCOD9128882 Si02
#       8
#     4   4   4   4   4   4   2   4
#     4  12  28  43  81 112 150 213 254 328 406 472
#     4  11  25  45  76 102 155 192 262 320 393 466
#     4  11  29  50  76 115 155 208 261 327 395 482
#     4  11  30  49  75 113 160 198 261 333 404 473
#     4  10  25  46  73 105 151 197 253 315 381 455
#     4  11  24  48  73 108 147 207 257 323 391 477
#     4  12  28  48  86 110 162 206 270 324 400 462
#     4  10  25  46  73 107 153 196 251 313 385 470
#
# _framework density 25.765536000000001
#
# number of rings (size 3 to 8) (size 9 to 14) (size 15 to 20)
#    0.000    1.067    1.333    1.600   18.667    2.133 
#    0.000    0.000    0.000    0.000    0.000    0.000 
#    0.000    0.000    0.000    0.000    0.000    0.000 
#
# Total GULP energy -83858.662061 kJ/mol
# GULP energy per Si atom -5590.577471 kJ/mol
# Density = 2.570689 g / cm^3
# Si number density = 25.765536 Si / 1000 Ang^3
#
#
#
# Elastic Constant Matrix: (Units=GPa)
#
#
# Indices 1 2 3 4 5 6 
#
# 1 121.3404 18.8766 30.8138 0.0000 17.2097 0.0000
# 2 18.8766 115.5863 17.3055 0.0000 2.1981 0.0000
# 3 30.8138 17.3055 103.4521 0.0000 -4.4465 0.0000
# 4 0.0000 0.0000 0.0000 40.1962 0.0000 -1.3262
# 5 17.2097 2.1981 -4.4465 0.0000 38.9803 0.0000
# 6 0.0000 0.0000 0.0000 -1.3262 0.0000 59.2924
#
#
#
# Elastic Compliance Matrix: (Units=1/GPa)
#
#
# Indices 1 2 3 4 5 6 
#
# 1 0.009808 -0.001074 -0.002940 0.000000 -0.004605 0.000000
# 2 -0.001074 0.009009 -0.001194 0.000000 -0.000170 0.000000
# 3 -0.002940 -0.001194 0.010854 0.000000 0.002603 0.000000
# 4 0.000000 0.000000 0.000000 0.024896 0.000000 0.000557
# 5 -0.004605 -0.000170 0.002603 0.000000 0.027994 0.000000
# 6 0.000000 0.000000 0.000000 0.000557 0.000000 0.016878
#
#
# Mechanical properties :
#
#
# Convention : Reuss Voigt Hill
#
# Bulk Modulus (GPa) = 51.93629 52.70785 52.32207
# Shear Modulus (GPa) = 43.00230 45.91934 44.46082
#
# Velocity S-wave (km/s) = 4.08975 4.22619 4.15853
# Velocity P-wave (km/s) = 6.51939 6.65698 6.58855
#
# Compressibility (1/GPa) = 0.01925436
#
# Stress axis : x y z
#
# Youngs Moduli (GPa) = 101.95772 110.99997 92.13541
#
# Poissons Ratio (x) = 0.11922 0.27084
# Poissons Ratio (y) = 0.10951 0.11005
# Poissons Ratio (z) = 0.29972 0.13258
#
# Static dielectric constant tensor:
#      x y z
#    x 1.481870 0.000000 0.366810 
#    y 0.000000 2.020370 0.000000 
#    z 0.366810 0.000000 1.836230 
# 
# From -- ./inp_files/32299.got.cif
#   From: 2010.05.17/outbox.cif.g08.bks.cpg/sg5_17_cif.got.tgz:32299.got - 2010.06.03 18:56:24.
