data_PCOD9128945
_publ_section_title
;
Structure prediction by ZEFSAII (Michael W. Deem and Ramdas Pophale) SiO2 
 PCOD9128945
Probable space group: C 2
;
_chemical_formula_sum "Si O2"
_cell_formula_units_Z 20
_cell_length_a 17.109717
_cell_length_b 5.530087
_cell_length_c 9.156058
_cell_angle_alpha 90.000000
_cell_angle_beta 119.435719
_cell_angle_gamma 90.000000
_cell_volume 754.493336
_symmetry_space_group_name_H-M "C 2"
_symmetry_group_IT_number 5
_symmetry_cell_setting 'monoclinic'
loop_
_space_group_symop_operation_xyz
x,y,z
-x,y,-z
1/2+x,1/2+y,z
1/2-x,1/2+y,-z
loop_
_atom_site_type_symbol
_atom_site_label
_atom_site_fract_x
_atom_site_fract_y
_atom_site_fract_z
Si Si1 0.992483 0.958280 0.212233
Si Si2 0.500000 0.062534 0.000000
Si Si3 0.344289 0.747165 0.746062
Si Si4 0.813126 0.384425 0.380938
Si Si5 0.207652 0.101279 0.909503
Si Si6 0.500000 0.757775 0.500000
O O1 0.985576 0.690318 0.144918
O O2 0.073881 0.052691 0.187626
O O3 0.022992 0.067642 0.393944
O O4 0.892870 0.067383 0.121277
O O5 0.401936 0.945259 0.884867
O O6 0.319086 0.844473 0.560223
O O7 0.789381 0.146072 0.263677
O O8 0.913431 0.429807 0.412124
O O9 0.742202 0.594945 0.284329
O O10 0.243801 0.354916 0.003249
#
# Coordination Sequence:
#
# PCOD9128945 Si02
#       6
#     4   2   4   4   4   2
#     4  10  25  49  78 119 158 222 273 347 423 495
#     4  12  28  48  84 120 172 214 286 356 420 502
#     4  11  27  48  83 121 165 215 285 354 420 504
#     4  10  25  51  82 120 162 220 282 347 428 503
#     4  11  28  50  81 119 175 222 279 348 429 515
#     4   8  20  56  80 114 162 208 280 338 430 504
#
# _framework density 26.507853999999998
#
# number of rings (size 3 to 8) (size 9 to 14) (size 15 to 20)
#    0.000    1.600    0.000    0.600   11.200    1.600 
#   10.800    1.000    0.000    0.000    0.000    0.000 
#    0.000    0.000    0.000    0.000    0.000    0.000 
#
# Total GULP energy -55841.835787 kJ/mol
# GULP energy per Si atom -5584.183579 kJ/mol
# Density = 2.644752 g / cm^3
# Si number density = 26.507854 Si / 1000 Ang^3
#
#
#
# Elastic Constant Matrix: (Units=GPa)
#
#
# Indices 1 2 3 4 5 6 
#
# 1 149.3086 64.5460 62.5359 0.0000 15.0012 0.0000
# 2 64.5460 79.2669 33.6926 0.0000 17.7996 0.0000
# 3 62.5359 33.6926 97.2631 0.0000 11.1142 0.0000
# 4 0.0000 0.0000 0.0000 35.5793 0.0000 10.2010
# 5 15.0012 17.7996 11.1142 0.0000 49.6641 0.0000
# 6 0.0000 0.0000 0.0000 10.2010 0.0000 59.8463
#
#
#
# Elastic Compliance Matrix: (Units=1/GPa)
#
#
# Indices 1 2 3 4 5 6 
#
# 1 0.012214 -0.007804 -0.005180 0.000000 0.000267 0.000000
# 2 -0.007804 0.020715 -0.001621 0.000000 -0.004705 0.000000
# 3 -0.005180 -0.001621 0.014294 0.000000 -0.001053 0.000000
# 4 0.000000 0.000000 0.000000 0.029550 0.000000 -0.005037
# 5 0.000267 -0.004705 -0.001053 0.000000 0.021976 0.000000
# 6 0.000000 0.000000 0.000000 -0.005037 0.000000 0.017568
#
#
# Mechanical properties :
#
#
# Convention : Reuss Voigt Hill
#
# Bulk Modulus (GPa) = 55.51395 71.93195 63.72295
# Shear Modulus (GPa) = 32.99622 40.02221 36.50922
#
# Velocity S-wave (km/s) = 3.53196 3.88986 3.71522
# Velocity P-wave (km/s) = 6.13359 6.88256 6.51884
#
# Compressibility (1/GPa) = 0.01801349
#
# Stress axis : x y z
#
# Youngs Moduli (GPa) = 81.87367 48.27316 69.95976
#
# Poissons Ratio (x) = 0.37671 0.36241
# Poissons Ratio (y) = 0.63892 0.11340
# Poissons Ratio (z) = 0.42413 0.07825
#
# Static dielectric constant tensor:
#      x y z
#    x 2.145800 0.000000 -0.033400 
#    y 0.000000 2.159960 0.000000 
#    z -0.033400 0.000000 2.217290 
# 
# From -- ./inp_files/30119.got.cif
#   From: 2010.05.17/outbox.cif.g08.bks.cpg/sg5_16_cif.got.tgz:30119.got - 2010.06.03 18:56:24.
