data_PCOD9128725
_publ_section_title
;
Structure prediction by ZEFSAII (Michael W. Deem and Ramdas Pophale) SiO2 
 PCOD9128725
Probable space group: C 2
;
_chemical_formula_sum "Si O2"
_cell_formula_units_Z 20
_cell_length_a 7.902397
_cell_length_b 12.233694
_cell_length_c 11.698461
_cell_angle_alpha 90.000000
_cell_angle_beta 133.825848
_cell_angle_gamma 90.000000
_cell_volume 815.924861
_symmetry_space_group_name_H-M "C 2"
_symmetry_group_IT_number 5
_symmetry_cell_setting 'monoclinic'
loop_
_space_group_symop_operation_xyz
x,y,z
-x,y,-z
1/2+x,1/2+y,z
1/2-x,1/2+y,-z
loop_
_atom_site_type_symbol
_atom_site_label
_atom_site_fract_x
_atom_site_fract_y
_atom_site_fract_z
Si Si1 0.632252 0.146700 0.282805
Si Si2 0.750939 0.463007 0.056825
Si Si3 0.482758 0.376382 0.262564
Si Si4 0.069788 0.266544 0.167464
Si Si5 0.112034 0.092764 0.376317
O O1 0.572751 0.273410 0.232528
O O2 0.859234 0.107797 0.319332
O O3 0.702527 0.142636 0.448994
O O4 0.416065 0.066209 0.157816
O O5 0.889990 0.349747 0.144157
O O6 0.500000 0.469302 0.000000
O O7 0.690798 0.450054 0.895334
O O8 0.319620 0.326842 0.283409
O O9 0.669044 0.464378 0.390450
O O10 0.097209 0.156178 0.250391
O O11 0.000000 0.250545 0.000000
#
# Coordination Sequence:
#
# PCOD9128725 Si02
#       5
#     4   4   4   4   4
#     4  11  27  48  74 115 147 199 249 302 384 438
#     4  11  25  46  76 106 150 195 254 306 364 441
#     4  11  26  46  72 110 147 197 247 303 373 439
#     4  10  24  48  76 109 148 198 251 306 371 439
#     4  11  26  49  77 105 159 190 245 316 371 446
#
# _framework density 24.512060999999999
#
# number of rings (size 3 to 8) (size 9 to 14) (size 15 to 20)
#    0.000    1.200    2.000    1.200   11.200    0.800 
#    0.000    0.000    0.000    0.000    0.000    0.000 
#    0.000    0.000    0.000    0.000    0.000    0.000 
#
# Total GULP energy -55984.925239 kJ/mol
# GULP energy per Si atom -5598.492524 kJ/mol
# Density = 2.445627 g / cm^3
# Si number density = 24.512061 Si / 1000 Ang^3
#
#
#
# Elastic Constant Matrix: (Units=GPa)
#
#
# Indices 1 2 3 4 5 6 
#
# 1 109.5436 59.4214 32.8621 0.0001 7.5919 0.0000
# 2 59.4214 184.7325 62.2236 0.0000 -2.6793 0.0000
# 3 32.8621 62.2236 94.1102 0.0001 -5.9754 0.0001
# 4 0.0001 0.0000 0.0001 37.4224 0.0001 0.4576
# 5 7.5919 -2.6793 -5.9754 0.0001 29.6751 0.0000
# 6 0.0000 0.0000 0.0001 0.4576 0.0000 36.8765
#
#
#
# Elastic Compliance Matrix: (Units=1/GPa)
#
#
# Indices 1 2 3 4 5 6 
#
# 1 0.011738 -0.003048 -0.002321 0.000000 -0.003746 0.000000
# 2 -0.003048 0.007758 -0.004023 0.000000 0.000670 0.000000
# 3 -0.002321 -0.004023 0.014294 0.000000 0.003109 0.000000
# 4 0.000000 0.000000 0.000000 0.026726 0.000000 -0.000332
# 5 -0.003746 0.000670 0.003109 0.000000 0.035343 0.000000
# 6 0.000000 0.000000 0.000000 -0.000332 0.000000 0.027122
#
#
# Mechanical properties :
#
#
# Convention : Reuss Voigt Hill
#
# Bulk Modulus (GPa) = 66.64103 77.48892 72.06497
# Shear Modulus (GPa) = 34.06755 36.38676 35.22715
#
# Velocity S-wave (km/s) = 3.73208 3.85703 3.79507
# Velocity P-wave (km/s) = 6.76885 7.17752 6.97618
#
# Compressibility (1/GPa) = 0.01500577
#
# Stress axis : x y z
#
# Youngs Moduli (GPa) = 85.19189 128.89216 69.96169
#
# Poissons Ratio (x) = 0.39289 0.16240
# Poissons Ratio (y) = 0.25968 0.28144
# Poissons Ratio (z) = 0.19775 0.51850
#
# Static dielectric constant tensor:
#      x y z
#    x 1.952110 0.000000 0.008740 
#    y 0.000000 1.980180 0.000000 
#    z 0.008740 0.000000 1.972310 
# 
# From -- ./inp_files/35518.got.cif
#   From: 2010.05.17/outbox.cif.g08.bks.cpg/sg5_18_cif.got.tgz:35518.got - 2010.06.03 18:56:24.
