data_PCOD9128916
_publ_section_title
;
Structure prediction by ZEFSAII (Michael W. Deem and Ramdas Pophale) SiO2 
 PCOD9128916
Probable space group: C 2
;
_chemical_formula_sum "Si O2"
_cell_formula_units_Z 14
_cell_length_a 5.132606
_cell_length_b 19.821497
_cell_length_c 5.288591
_cell_angle_alpha 90.000000
_cell_angle_beta 92.704475
_cell_angle_gamma 90.000000
_cell_volume 537.440475
_symmetry_space_group_name_H-M "C 2"
_symmetry_group_IT_number 5
_symmetry_cell_setting 'monoclinic'
loop_
_space_group_symop_operation_xyz
x,y,z
-x,y,-z
1/2+x,1/2+y,z
1/2-x,1/2+y,-z
loop_
_atom_site_type_symbol
_atom_site_label
_atom_site_fract_x
_atom_site_fract_y
_atom_site_fract_z
Si Si1 0.273066 0.905880 0.166072
Si Si2 0.321725 0.551667 0.741748
Si Si3 0.500000 0.308986 0.500000
Si Si4 0.678575 0.699452 0.254970
O O1 0.217171 0.857967 0.397531
O O2 0.339319 0.982806 0.246969
O O3 0.500000 0.879438 0.000000
O O4 0.000000 0.907966 0.000000
O O5 0.500000 0.546598 0.500000
O O6 0.189633 0.625068 0.736544
O O7 0.500000 0.552960 0.000000
O O8 0.385021 0.258995 0.285385
O O9 0.500000 0.703207 0.500000
O O10 0.500000 0.705191 0.000000
#
# Coordination Sequence:
#
# PCOD9128916 Si02
#       4
#     4   4   2   4
#     4  11  27  49  79 112 159 208 265 323 397 470
#     4   9  19  48  75 110 148 204 260 323 383 465
#     4  12  28  46  78 118 158 206 260 328 398 480
#     4  10  25  47  78 110 159 204 262 323 396 466
#
# _framework density 26.049396000000002
#
# number of rings (size 3 to 8) (size 9 to 14) (size 15 to 20)
#    0.000    1.714    1.429    0.000    8.000    0.000 
#   25.714    0.000    0.000    0.000    0.000    0.000 
#    0.000    0.000    0.000    0.000    0.000    0.000 
#
# Total GULP energy -39278.156572 kJ/mol
# GULP energy per Si atom -5611.165225 kJ/mol
# Density = 2.599011 g / cm^3
# Si number density = 26.049396 Si / 1000 Ang^3
#
#
#
# Elastic Constant Matrix: (Units=GPa)
#
#
# Indices 1 2 3 4 5 6 
#
# 1 94.5593 39.1299 50.0096 0.0000 0.5432 0.0000
# 2 39.1299 231.6387 40.8120 0.0000 -6.8168 0.0000
# 3 50.0096 40.8120 183.7869 0.0000 -0.1041 0.0000
# 4 0.0000 0.0000 0.0000 26.3074 0.0000 19.5563
# 5 0.5432 -6.8168 -0.1041 0.0000 65.0248 0.0000
# 6 0.0000 0.0000 0.0000 19.5563 0.0000 -54.6767
#
#
#
# Elastic Compliance Matrix: (Units=1/GPa)
#
#
# Indices 1 2 3 4 5 6 
#
# 1 0.012921 -0.001636 -0.003153 0.000000 -0.000284 0.000000
# 2 -0.001636 0.004714 -0.000602 0.000000 0.000507 0.000000
# 3 -0.003153 -0.000602 0.006433 0.000000 -0.000026 0.000000
# 4 0.000000 0.000000 0.000000 0.030028 0.000000 0.010740
# 5 -0.000284 0.000507 -0.000026 0.000000 0.015434 0.000000
# 6 0.000000 0.000000 0.000000 0.010740 0.000000 -0.014448
#
#
# Mechanical properties :
#
#
# Convention : Reuss Voigt Hill
#
# Bulk Modulus (GPa) = 75.25553 85.54310 80.39931
# Shear Modulus (GPa) = 71.13171 32.66665 51.89918
#
# Velocity S-wave (km/s) = 5.23123 3.54507 4.46840
# Velocity P-wave (km/s) = 8.08950 7.04746 7.58639
#
# Compressibility (1/GPa) = 0.01328806
#
# Stress axis : x y z
#
# Youngs Moduli (GPa) = 77.39132 212.12217 155.45869
#
# Poissons Ratio (x) = 0.34695 0.49015
# Poissons Ratio (y) = 0.12658 0.09351
# Poissons Ratio (z) = 0.24401 0.12759
#
# Static dielectric constant tensor:
#      x y z
#    x 2.016130 0.000000 0.049450 
#    y 0.000000 2.042400 0.000000 
#    z 0.049450 0.000000 2.020720 
# 
# From -- ./inp_files/339.got.cif
#   From: 2010.05.17/outbox.cif.g08.bks.cpg/sg5_1_cif.got.tgz:339.got - 2010.06.03 18:56:24.
