data_PCOD9128524
_publ_section_title
;
Structure prediction by ZEFSAII (Michael W. Deem and Ramdas Pophale) SiO2 
 PCOD9128524
Probable space group: C 2
;
_chemical_formula_sum "Si O2"
_cell_formula_units_Z 26
_cell_length_a 11.072901
_cell_length_b 8.899523
_cell_length_c 25.902699
_cell_angle_alpha 90.000000
_cell_angle_beta 150.649400
_cell_angle_gamma 90.000000
_cell_volume 1251.135406
_symmetry_space_group_name_H-M "C 2"
_symmetry_group_IT_number 5
_symmetry_cell_setting 'monoclinic'
loop_
_space_group_symop_operation_xyz
x,y,z
-x,y,-z
1/2+x,1/2+y,z
1/2-x,1/2+y,-z
loop_
_atom_site_type_symbol
_atom_site_label
_atom_site_fract_x
_atom_site_fract_y
_atom_site_fract_z
Si Si1 0.837557 0.494520 0.529551
Si Si2 0.039549 0.328650 0.694758
Si Si3 0.261852 0.253195 0.577091
Si Si4 0.367950 0.115986 0.205108
Si Si5 0.500000 0.208794 0.500000
Si Si6 0.986067 0.625069 0.858656
Si Si7 0.928844 0.348817 0.031869
O O1 0.654535 0.384579 0.430693
O O2 0.719350 0.602432 0.528165
O O3 0.029928 0.391539 0.632600
O O4 0.963311 0.605456 0.536233
O O5 0.146751 0.457946 0.771058
O O6 0.205787 0.181420 0.760132
O O7 0.753163 0.299326 0.600709
O O8 0.440927 0.214603 0.690196
O O9 0.000000 0.305239 0.500000
O O10 0.456495 0.089213 0.179748
O O11 0.118049 0.211595 0.112513
O O12 0.042082 0.485362 0.917149
O O13 0.162177 0.769461 0.935292
O O14 0.000000 0.400638 0.000000
#
# Coordination Sequence:
#
# PCOD9128524 Si02
#       7
#     4   4   4   4   2   4   4
#     4  11  24  39  61  90 134 171 224 261 317 378
#     4  11  26  42  62  98 132 176 221 266 321 387
#     4  11  23  38  62  89 128 173 216 263 316 380
#     4  10  25  40  66  96 129 167 222 265 329 387
#     4  12  26  38  62  94 136 174 226 262 316 380
#     4  11  24  44  72  94 131 168 213 274 337 387
#     4  10  24  45  69 100 126 164 216 272 334 400
#
# _framework density 20.781124999999999
#
# number of rings (size 3 to 8) (size 9 to 14) (size 15 to 20)
#    0.000    1.231    2.308    1.846    6.462    4.923 
#    0.000    0.000    0.000    0.000    0.000    0.000 
#    0.000    0.000    0.000    0.000    0.000    0.000 
#
# Total GULP energy -72638.474821 kJ/mol
# GULP energy per Si atom -5587.574986 kJ/mol
# Density = 2.073383 g / cm^3
# Si number density = 20.781125 Si / 1000 Ang^3
#
#
#
# Elastic Constant Matrix: (Units=GPa)
#
#
# Indices 1 2 3 4 5 6 
#
# 1 87.9794 50.3802 47.4722 0.0000 -18.9724 0.0000
# 2 50.3802 96.5137 37.3551 0.0000 -19.6527 0.0000
# 3 47.4722 37.3551 73.5663 0.0000 -12.4710 0.0002
# 4 0.0000 0.0000 0.0000 45.5661 0.0000 -17.2147
# 5 -18.9724 -19.6527 -12.4710 0.0000 41.5313 0.0000
# 6 0.0000 0.0000 0.0002 -17.2147 0.0000 34.4361
#
#
#
# Elastic Compliance Matrix: (Units=1/GPa)
#
#
# Indices 1 2 3 4 5 6 
#
# 1 0.021126 -0.006531 -0.009697 0.000000 0.003648 0.000000
# 2 -0.006531 0.015710 -0.003169 0.000000 0.003498 0.000000
# 3 -0.009697 -0.003169 0.021552 0.000000 0.000542 0.000000
# 4 0.000000 0.000000 0.000000 0.027056 0.000000 0.013525
# 5 0.003648 0.003498 0.000542 0.000000 0.027563 0.000000
# 6 0.000000 0.000000 0.000000 0.013525 0.000000 0.035801
#
#
# Mechanical properties :
#
#
# Convention : Reuss Voigt Hill
#
# Bulk Modulus (GPa) = 51.04323 58.71937 54.88130
# Shear Modulus (GPa) = 25.75547 32.49681 29.12614
#
# Velocity S-wave (km/s) = 3.52429 3.95874 3.74781
# Velocity P-wave (km/s) = 6.41689 7.01519 6.72270
#
# Compressibility (1/GPa) = 0.01959124
#
# Stress axis : x y z
#
# Youngs Moduli (GPa) = 47.33569 63.65524 46.39937
#
# Poissons Ratio (x) = 0.41576 0.44996
# Poissons Ratio (y) = 0.30917 0.14705
# Poissons Ratio (z) = 0.45904 0.20173
#
# Static dielectric constant tensor:
#      x y z
#    x 1.746650 0.000000 0.009530 
#    y 0.000000 1.746340 0.000000 
#    z 0.009530 0.000000 1.762650 
# 
# From -- ./inp_files/38396.got.cif
#   From: 2010.05.17/outbox.cif.g08.bks.cpg/sg5_20_cif.got.tgz:38396.got - 2010.06.03 18:56:24.
