data_PCOD9128744
_publ_section_title
;
Structure prediction by ZEFSAII (Michael W. Deem and Ramdas Pophale) SiO2 
 PCOD9128744
Probable space group: C 2
;
_chemical_formula_sum "Si O2"
_cell_formula_units_Z 22
_cell_length_a 5.149488
_cell_length_b 22.675504
_cell_length_c 8.664681
_cell_angle_alpha 90.000000
_cell_angle_beta 78.426761
_cell_angle_gamma 90.000000
_cell_volume 991.181003
_symmetry_space_group_name_H-M "C 2"
_symmetry_group_IT_number 5
_symmetry_cell_setting 'monoclinic'
loop_
_space_group_symop_operation_xyz
x,y,z
-x,y,-z
1/2+x,1/2+y,z
1/2-x,1/2+y,-z
loop_
_atom_site_type_symbol
_atom_site_label
_atom_site_fract_x
_atom_site_fract_y
_atom_site_fract_z
Si Si1 0.500000 0.535580 0.500000
Si Si2 0.406066 0.136665 0.356264
Si Si3 0.688753 0.957382 0.328130
Si Si4 0.790996 0.560589 0.894150
Si Si5 0.207862 0.350090 0.108071
Si Si6 0.293255 0.714521 0.891136
O O1 0.738553 0.579568 0.430002
O O2 0.444806 0.491925 0.363874
O O3 0.500000 0.169149 0.500000
O O4 0.664498 0.110382 0.240250
O O5 0.235071 0.174783 0.257606
O O6 0.500000 0.957697 0.500000
O O7 0.710028 0.892913 0.254579
O O8 0.616576 0.999458 0.193797
O O9 0.500000 0.556215 0.000000
O O10 0.000000 0.576548 0.000000
O O11 0.139955 0.282393 0.157428
O O12 0.500000 0.351916 0.000000
O O13 0.000000 0.368914 0.000000
O O14 0.500000 0.695682 0.000000
O O15 0.000000 0.715089 0.000000
#
# Coordination Sequence:
#
# PCOD9128744 Si02
#       6
#     2   4   4   4   4   4
#     4  12  24  44  66  98 158 174 234 282 360 430
#     4  12  26  45  70 104 150 192 234 302 355 426
#     4  12  25  43  67 102 142 186 225 299 350 424
#     4  12  25  42  68 100 138 187 240 278 352 425
#     4  10  24  49  74 101 136 182 241 295 347 419
#     4  10  25  49  74 103 139 187 245 296 352 423
#
# _framework density 22.195743
#
# number of rings (size 3 to 8) (size 9 to 14) (size 15 to 20)
#    0.000    0.727    3.636    2.727    5.091    2.909 
#    3.273    0.000    0.000    0.000    0.000    0.000 
#    0.000    0.000    0.000    0.000    0.000    0.000 
#
# Total GULP energy -61530.348603 kJ/mol
# GULP energy per Si atom -5593.668055 kJ/mol
# Density = 2.214522 g / cm^3
# Si number density = 22.195743 Si / 1000 Ang^3
#
#
#
# Elastic Constant Matrix: (Units=GPa)
#
#
# Indices 1 2 3 4 5 6 
#
# 1 125.4561 27.8438 60.6382 0.0000 9.2788 0.0000
# 2 27.8438 129.9981 72.4986 0.0000 21.7667 0.0000
# 3 60.6382 72.4986 144.7670 0.0000 13.1087 0.0000
# 4 0.0000 0.0000 0.0000 28.7089 0.0000 24.5400
# 5 9.2788 21.7667 13.1087 0.0000 51.4645 0.0000
# 6 0.0000 0.0000 0.0000 24.5400 0.0000 20.9691
#
#
#
# Elastic Compliance Matrix: (Units=1/GPa)
#
#
# Indices 1 2 3 4 5 6 
#
# 1 0.010038 0.000413 -0.004332 0.000000 -0.000881 0.000000
# 2 0.000413 0.011241 -0.005492 0.000000 -0.003430 0.000000
# 3 -0.004332 -0.005492 0.011456 0.000000 0.000186 0.000000
# 4 0.000000 0.000000 0.000000-98.077180 0.000000114.779314
# 5 -0.000881 -0.003430 0.000186 0.000000 0.020993 0.000000
# 6 0.000000 0.000000 0.000000114.779314 0.000000**********
#
#
# Mechanical properties :
#
#
# Convention : Reuss Voigt Hill
#
# Bulk Modulus (GPa) = 71.87106 80.24249 76.05677
# Shear Modulus (GPa) = -0.02153 36.17786 18.07817
#
# Velocity S-wave (km/s) = -0.09859 4.04164 2.85702
# Velocity P-wave (km/s) = 5.69543 7.61646 6.72489
#
# Compressibility (1/GPa) = 0.01391381
#
# Stress axis : x y z
#
# Youngs Moduli (GPa) = 99.62020 88.95981 87.29311
#
# Poissons Ratio (x) = -0.03677 0.37814
# Poissons Ratio (y) = -0.04118 0.47941
# Poissons Ratio (z) = 0.43154 0.48857
#
# Static dielectric constant tensor:
#      x y z
#    x 1.853910 0.000000 0.014750 
#    y 0.000000 1.817260 0.000000 
#    z 0.014750 0.000000 1.823510 
# 
# From -- ./inp_files/12699.got.cif
#   From: 2010.05.17/outbox.cif.g08.bks.cpg/sg5_7_cif.got.tgz:12699.got - 2010.06.03 18:56:24.
