data_PCOD9128470
_publ_section_title
;
Structure prediction by ZEFSAII (Michael W. Deem and Ramdas Pophale) SiO2 
 PCOD9128470
Probable space group: C 2
;
_chemical_formula_sum "Si O2"
_cell_formula_units_Z 28
_cell_length_a 10.063832
_cell_length_b 13.565686
_cell_length_c 9.392601
_cell_angle_alpha 90.000000
_cell_angle_beta 119.733075
_cell_angle_gamma 90.000000
_cell_volume 1113.482765
_symmetry_space_group_name_H-M "C 2"
_symmetry_group_IT_number 5
_symmetry_cell_setting 'monoclinic'
loop_
_space_group_symop_operation_xyz
x,y,z
-x,y,-z
1/2+x,1/2+y,z
1/2-x,1/2+y,-z
loop_
_atom_site_type_symbol
_atom_site_label
_atom_site_fract_x
_atom_site_fract_y
_atom_site_fract_z
Si Si1 0.724941 0.259160 0.913497
Si Si2 0.564822 0.442089 0.378713
Si Si3 0.835106 0.816137 0.838348
Si Si4 0.600914 0.973519 0.411060
Si Si5 0.150948 0.258600 0.319678
Si Si6 0.923514 0.088725 0.112099
Si Si7 0.598514 0.179582 0.334545
O O1 0.819916 0.287965 0.827545
O O2 0.552627 0.248181 0.761842
O O3 0.759122 0.329361 0.067278
O O4 0.774831 0.149764 0.989533
O O5 0.500000 0.407505 0.500000
O O6 0.650887 0.387454 0.288244
O O7 0.717864 0.502878 0.498758
O O8 0.428861 0.498213 0.223845
O O9 0.797871 0.712215 0.744153
O O10 0.000000 0.808184 0.000000
O O11 0.500000 0.979392 0.500000
O O12 0.540935 0.068541 0.294557
O O13 0.598978 0.859270 0.366252
O O14 0.304081 0.214279 0.476384
O O15 0.031092 0.170396 0.244643
O O16 0.000000 0.058112 0.000000
#
# Coordination Sequence:
#
# PCOD9128470 Si02
#       7
#     4   4   4   4   4   4   4
#     4  10  24  45  78 102 151 196 242 306 384 426
#     4  12  27  45  76 111 144 196 253 302 362 450
#     4  10  24  44  71 105 143 193 238 304 366 437
#     4  12  28  44  75 112 145 191 253 307 366 423
#     4  11  23  45  74 105 146 195 249 303 359 450
#     4  10  24  46  70 108 145 193 240 313 369 432
#     4  11  23  47  72 105 148 197 249 299 367 445
#
# _framework density 25.146326999999999
#
# number of rings (size 3 to 8) (size 9 to 14) (size 15 to 20)
#    0.000    1.143    2.857    1.714   10.000    1.143 
#    0.000    6.429    0.000    0.000    0.000    0.000 
#    0.000    0.000    0.000    0.000    0.000    0.000 
#
# Total GULP energy -77950.357469 kJ/mol
# GULP energy per Si atom -5567.882676 kJ/mol
# Density = 2.508909 g / cm^3
# Si number density = 25.146327 Si / 1000 Ang^3
#
#
#
# Elastic Constant Matrix: (Units=GPa)
#
#
# Indices 1 2 3 4 5 6 
#
# 1 69.1573 -4.1016 45.3370 0.0000 -11.4096 0.0000
# 2 -4.1016 72.4154 34.2637 0.0000 -17.5081 0.0000
# 3 45.3370 34.2637 148.4889 0.0000 -19.8865 0.0000
# 4 0.0000 0.0000 0.0000 36.5968 0.0000 -1.2424
# 5 -11.4096 -17.5081 -19.8865 0.0000 52.9590 0.0000
# 6 0.0000 0.0000 0.0000 -1.2424 0.0000 11.3896
#
#
#
# Elastic Compliance Matrix: (Units=1/GPa)
#
#
# Indices 1 2 3 4 5 6 
#
# 1 0.019763 0.005146 -0.006764 0.000000 0.003419 0.000000
# 2 0.005146 0.017683 -0.004970 0.000000 0.005088 0.000000
# 3 -0.006764 -0.004970 0.010036 0.000000 0.000668 0.000000
# 4 0.000000 0.000000 0.000000 0.027426 0.000000 0.002992
# 5 0.003419 0.005088 0.000668 0.000000 0.021552 0.000000
# 6 0.000000 0.000000 0.000000 0.002992 0.000000 0.088125
#
#
# Mechanical properties :
#
#
# Convention : Reuss Voigt Hill
#
# Bulk Modulus (GPa) = 29.14872 49.00665 39.07769
# Shear Modulus (GPa) = 23.90100 34.49326 29.19713
#
# Velocity S-wave (km/s) = 3.08633 3.70767 3.41117
# Velocity P-wave (km/s) = 4.93126 6.15305 5.57572
#
# Compressibility (1/GPa) = 0.03430682
#
# Stress axis : x y z
#
# Youngs Moduli (GPa) = 50.59909 56.55299 99.64146
#
# Poissons Ratio (x) = -0.29104 0.67395
# Poissons Ratio (y) = -0.26040 0.49523
# Poissons Ratio (z) = 0.34224 0.28107
#
# Static dielectric constant tensor:
#      x y z
#    x 2.104230 0.000000 -0.005870 
#    y 0.000000 2.056830 0.000000 
#    z -0.005870 0.000000 1.986300 
# 
# From -- ./inp_files/20721.got.cif
#   From: 2010.05.17/outbox.cif.g08.bks.cpg/sg5_11_cif.got.tgz:20721.got - 2010.06.03 18:56:24.
