data_PCOD9128244
_publ_section_title
;
Structure prediction by ZEFSAII (Michael W. Deem and Ramdas Pophale) SiO2 
 PCOD9128244
Probable space group: C 2
;
_chemical_formula_sum "Si O2"
_cell_formula_units_Z 20
_cell_length_a 9.072719
_cell_length_b 5.299933
_cell_length_c 17.958385
_cell_angle_alpha 90.000000
_cell_angle_beta 100.885974
_cell_angle_gamma 90.000000
_cell_volume 847.986240
_symmetry_space_group_name_H-M "C 2"
_symmetry_group_IT_number 5
_symmetry_cell_setting 'monoclinic'
loop_
_space_group_symop_operation_xyz
x,y,z
-x,y,-z
1/2+x,1/2+y,z
1/2-x,1/2+y,-z
loop_
_atom_site_type_symbol
_atom_site_label
_atom_site_fract_x
_atom_site_fract_y
_atom_site_fract_z
Si Si1 0.180299 0.856770 0.527241
Si Si2 0.431474 0.524642 0.335858
Si Si3 0.514220 0.022260 0.704532
Si Si4 0.178539 0.273393 0.028978
Si Si5 0.267933 0.840272 0.791753
O O1 0.249367 0.588049 0.512327
O O2 0.187691 0.929203 0.615289
O O3 0.000000 0.852993 0.500000
O O4 0.485398 0.803661 0.357133
O O5 0.353776 0.546790 0.247074
O O6 0.542972 0.290211 0.334367
O O7 0.417476 0.926623 0.764494
O O8 0.682686 0.099636 0.747270
O O9 0.246297 0.516006 0.993162
O O10 0.211722 0.307835 0.119610
O O11 0.000000 0.261212 0.000000
#
# Coordination Sequence:
#
# PCOD9128244 Si02
#       5
#     4   4   4   4   4
#     4  12  28  46  72 102 145 185 231 286 353 410
#     4  10  26  42  71  97 137 175 235 277 340 407
#     4  10  24  39  71  96 131 169 235 278 338 393
#     4  12  28  47  71 103 144 184 230 287 352 414
#     4  10  26  42  72  96 136 177 232 278 342 404
#
# _framework density 23.585287999999998
#
# number of rings (size 3 to 8) (size 9 to 14) (size 15 to 20)
#    1.200    0.000    0.000    3.600   14.000    0.000 
#    0.000    0.000    0.000    0.000    0.000    0.000 
#    0.000    0.000    0.000    0.000    0.000    0.000 
#
# Total GULP energy -55838.157138 kJ/mol
# GULP energy per Si atom -5583.815714 kJ/mol
# Density = 2.353161 g / cm^3
# Si number density = 23.585288 Si / 1000 Ang^3
#
#
#
# Elastic Constant Matrix: (Units=GPa)
#
#
# Indices 1 2 3 4 5 6 
#
# 1 132.0285 66.5943 10.2895 0.0000 -9.7989 0.0000
# 2 66.5943 176.1714 18.9602 0.0000 -23.6067 0.0000
# 3 10.2895 18.9602 83.8238 0.0000 -3.4135 0.0000
# 4 0.0000 0.0000 0.0000 25.2316 0.0000 -4.7593
# 5 -9.7989 -23.6067 -3.4135 0.0000 41.4955 0.0000
# 6 0.0000 0.0000 0.0000 -4.7593 0.0000 31.5009
#
#
#
# Elastic Compliance Matrix: (Units=1/GPa)
#
#
# Indices 1 2 3 4 5 6 
#
# 1 0.009371 -0.003476 -0.000356 0.000000 0.000206 0.000000
# 2 -0.003476 0.007568 -0.001147 0.000000 0.003390 0.000000
# 3 -0.000356 -0.001147 0.012244 0.000000 0.000271 0.000000
# 4 0.000000 0.000000 0.000000 0.040795 0.000000 0.006164
# 5 0.000206 0.003390 0.000271 0.000000 0.026099 0.000000
# 6 0.000000 0.000000 0.000000 0.006164 0.000000 0.032676
#
#
# Mechanical properties :
#
#
# Convention : Reuss Voigt Hill
#
# Bulk Modulus (GPa) = 52.01634 64.85684 58.43659
# Shear Modulus (GPa) = 34.45449 39.39091 36.92270
#
# Velocity S-wave (km/s) = 3.82625 4.09118 3.96093
# Velocity P-wave (km/s) = 6.45157 7.06226 6.76381
#
# Compressibility (1/GPa) = 0.01922473
#
# Stress axis : x y z
#
# Youngs Moduli (GPa) = 106.71758 132.13376 81.67325
#
# Poissons Ratio (x) = 0.45933 0.02904
# Poissons Ratio (y) = 0.37098 0.09368
# Poissons Ratio (z) = 0.03794 0.15156
#
# Static dielectric constant tensor:
#      x y z
#    x 1.923150 0.000000 0.070850 
#    y 0.000000 1.964540 0.000000 
#    z 0.070850 0.000000 1.928600 
# 
# From -- ./inp_files/59151.got.cif
#   From: 2010.05.17/outbox.cif.g08.bks.cpg/sg5_30_cif.got.tgz:59151.got - 2010.06.03 18:56:24.
