data_PCOD9128305
_publ_section_title
;
Structure prediction by ZEFSAII (Michael W. Deem and Ramdas Pophale) SiO2 
 PCOD9128305
Probable space group: C 2
;
_chemical_formula_sum "Si O2"
_cell_formula_units_Z 18
_cell_length_a 7.924260
_cell_length_b 5.767277
_cell_length_c 14.690383
_cell_angle_alpha 90.000000
_cell_angle_beta 78.492154
_cell_angle_gamma 90.000000
_cell_volume 657.874797
_symmetry_space_group_name_H-M "C 2"
_symmetry_group_IT_number 5
_symmetry_cell_setting 'monoclinic'
loop_
_space_group_symop_operation_xyz
x,y,z
-x,y,-z
1/2+x,1/2+y,z
1/2-x,1/2+y,-z
loop_
_atom_site_type_symbol
_atom_site_label
_atom_site_fract_x
_atom_site_fract_y
_atom_site_fract_z
Si Si1 0.764762 0.117500 0.876582
Si Si2 0.311020 0.531838 0.589171
Si Si3 0.896365 0.297070 0.245895
Si Si4 0.500000 0.422412 0.000000
Si Si5 0.825607 0.534830 0.603206
O O1 0.595755 0.266449 0.914700
O O2 0.909383 0.250834 0.803092
O O3 0.708346 0.883674 0.831077
O O4 0.856318 0.067347 0.962790
O O5 0.149754 0.497465 0.675306
O O6 0.252287 0.535677 0.490941
O O7 0.412135 0.291475 0.597070
O O8 0.399643 0.775767 0.600911
O O9 0.815049 0.071354 0.302539
#
# Coordination Sequence:
#
# PCOD9128305 Si02
#       5
#     4   4   4   2   4
#     4  12  26  50  77 114 144 202 253 336 386 494
#     4   8  16  35  66 106 157 205 252 306 372 441
#     4  10  24  41  77 114 150 200 267 301 384 460
#     4  12  28  52  78 104 154 186 256 328 434 438
#     4   8  16  35  66 106 157 205 252 306 372 441
#
# _framework density 27.360828999999999
#
# number of rings (size 3 to 8) (size 9 to 14) (size 15 to 20)
#    1.333    0.889    0.000    2.667    3.111    0.000 
#    0.000    1.111    0.000    2.667    0.000    0.000 
#    0.000    0.000    0.000    0.000    0.000    0.000 
#
# Total GULP energy -50356.079866 kJ/mol
# GULP energy per Si atom -5595.119985 kJ/mol
# Density = 2.729855 g / cm^3
# Si number density = 27.360829 Si / 1000 Ang^3
#
#
#
# Elastic Constant Matrix: (Units=GPa)
#
#
# Indices 1 2 3 4 5 6 
#
# 1 85.5721 49.9928 32.8367 0.0000 -15.6025 0.0000
# 2 49.9928 214.2587 20.6789 0.0000 1.6137 0.0000
# 3 32.8367 20.6789 136.1914 0.0000 -21.9020 0.0000
# 4 0.0000 0.0000 0.0000 54.1396 0.0000 7.2148
# 5 -15.6025 1.6137 -21.9020 0.0000 73.8755 0.0000
# 6 0.0000 0.0000 0.0000 7.2148 0.0000 37.4414
#
#
#
# Elastic Compliance Matrix: (Units=1/GPa)
#
#
# Indices 1 2 3 4 5 6 
#
# 1 0.015102 -0.003277 -0.002750 0.000000 0.002446 0.000000
# 2 -0.003277 0.005455 -0.000177 0.000000 -0.000864 0.000000
# 3 -0.002750 -0.000177 0.008337 0.000000 0.001895 0.000000
# 4 0.000000 0.000000 0.000000 0.018958 0.000000 -0.003653
# 5 0.002446 -0.000864 0.001895 0.000000 0.014633 0.000000
# 6 0.000000 0.000000 0.000000 -0.003653 0.000000 0.027412
#
#
# Mechanical properties :
#
#
# Convention : Reuss Voigt Hill
#
# Bulk Modulus (GPa) = 60.65714 71.44874 66.05294
# Shear Modulus (GPa) = 46.38163 55.25888 50.82025
#
# Velocity S-wave (km/s) = 4.12173 4.49891 4.31444
# Velocity P-wave (km/s) = 6.69843 7.29089 7.00093
#
# Compressibility (1/GPa) = 0.01648611
#
# Stress axis : x y z
#
# Youngs Moduli (GPa) = 66.21809 183.30474 119.94225
#
# Poissons Ratio (x) = 0.60062 0.32988
# Poissons Ratio (y) = 0.21697 0.02126
# Poissons Ratio (z) = 0.18212 0.03248
#
# Static dielectric constant tensor:
#      x y z
#    x 2.090420 0.000000 0.036660 
#    y 0.000000 2.094430 0.000000 
#    z 0.036660 0.000000 2.138520 
# 
# From -- ./inp_files/59075.got.cif
#   From: 2010.05.17/outbox.cif.g08.bks.cpg/sg5_30_cif.got.tgz:59075.got - 2010.06.03 18:56:24.
