data_PCOD9128450
_publ_section_title
;
Structure prediction by ZEFSAII (Michael W. Deem and Ramdas Pophale) SiO2 
 PCOD9128450
Probable space group: C 2
;
_chemical_formula_sum "Si O2"
_cell_formula_units_Z 20
_cell_length_a 23.988080
_cell_length_b 5.280742
_cell_length_c 5.593900
_cell_angle_alpha 90.000000
_cell_angle_beta 74.047725
_cell_angle_gamma 90.000000
_cell_volume 681.318749
_symmetry_space_group_name_H-M "C 2"
_symmetry_group_IT_number 5
_symmetry_cell_setting 'monoclinic'
loop_
_space_group_symop_operation_xyz
x,y,z
-x,y,-z
1/2+x,1/2+y,z
1/2-x,1/2+y,-z
loop_
_atom_site_type_symbol
_atom_site_label
_atom_site_fract_x
_atom_site_fract_y
_atom_site_fract_z
Si Si1 0.175537 0.900970 0.365975
Si Si2 0.425415 0.342503 0.805522
Si Si3 0.523472 0.716808 0.716513
Si Si4 0.121890 0.342781 0.881910
Si Si5 0.279200 0.178515 0.190657
O O1 0.107477 0.838130 0.409814
O O2 0.194666 0.823860 0.610377
O O3 0.210037 0.164888 0.292486
O O4 0.202311 0.761197 0.097319
O O5 0.491772 0.438848 0.744618
O O6 0.393482 0.591408 0.953132
O O7 0.407607 0.092923 0.967153
O O8 0.500000 0.839306 0.500000
O O9 0.590911 0.780862 0.666830
O O10 0.500000 0.811311 0.000000
O O11 0.189060 0.407849 0.805798
#
# Coordination Sequence:
#
# PCOD9128450 Si02
#       5
#     4   4   4   4   4
#     4  11  24  43  71 106 146 188 238 296 361 430
#     4  10  24  47  72 104 144 189 241 296 357 424
#     4  10  24  44  70 100 138 186 238 292 348 416
#     4  10  24  47  72 104 144 189 241 296 357 424
#     4  11  24  43  71 106 146 188 238 296 361 430
#
# _framework density 29.354832999999999
#
# number of rings (size 3 to 8) (size 9 to 14) (size 15 to 20)
#    0.000    1.600    0.000    2.400    0.000   24.800 
#    0.000    8.000    0.000    0.000    0.000    0.000 
#    0.000    0.000    0.000    0.000    0.000    0.000 
#
# Total GULP energy -55839.710021 kJ/mol
# GULP energy per Si atom -5583.971002 kJ/mol
# Density = 2.928802 g / cm^3
# Si number density = 29.354833 Si / 1000 Ang^3
#
#
#
# Elastic Constant Matrix: (Units=GPa)
#
#
# Indices 1 2 3 4 5 6 
#
# 1 206.4903 27.1108 40.0879 0.0000 23.7568 0.0000
# 2 27.1108 141.7974 43.0865 0.0000 -2.8993 0.0000
# 3 40.0879 43.0865 192.9108 0.0000 19.8486 0.0000
# 4 0.0000 0.0000 0.0000 69.7528 0.0000 -3.1229
# 5 23.7568 -2.8993 19.8486 0.0000 62.9530 0.0000
# 6 0.0000 0.0000 0.0000 -3.1229 0.0000 58.1333
#
#
#
# Elastic Compliance Matrix: (Units=1/GPa)
#
#
# Indices 1 2 3 4 5 6 
#
# 1 0.005302 -0.000829 -0.000731 0.000000 -0.001808 0.000000
# 2 -0.000829 0.007746 -0.001681 0.000000 0.001200 0.000000
# 3 -0.000731 -0.001681 0.005881 0.000000 -0.001656 0.000000
# 4 0.000000 0.000000 0.000000 0.014371 0.000000 0.000772
# 5 -0.001808 0.001200 -0.001656 0.000000 0.017145 0.000000
# 6 0.000000 0.000000 0.000000 0.000772 0.000000 0.017243
#
#
# Mechanical properties :
#
#
# Convention : Reuss Voigt Hill
#
# Bulk Modulus (GPa) = 80.33300 84.64101 82.48700
# Shear Modulus (GPa) = 63.84189 66.89539 65.36864
#
# Velocity S-wave (km/s) = 4.66857 4.77891 4.72406
# Velocity P-wave (km/s) = 7.51574 7.70370 7.61030
#
# Compressibility (1/GPa) = 0.01244819
#
# Stress axis : x y z
#
# Youngs Moduli (GPa) = 188.62492 129.09628 170.02526
#
# Poissons Ratio (x) = 0.10697 0.12421
# Poissons Ratio (y) = 0.15630 0.28587
# Poissons Ratio (z) = 0.13780 0.21705
#
# Static dielectric constant tensor:
#      x y z
#    x 2.741180 0.000000 -0.050950 
#    y 0.000000 2.356940 0.000000 
#    z -0.050950 0.000000 2.314630 
# 
# From -- ./inp_files/11017.got.cif
#   From: 2010.05.17/outbox.cif.g08.bks.cpg/sg5_6_cif.got.tgz:11017.got - 2010.06.03 18:56:24.
