data_PCOD9128865
_publ_section_title
;
Structure prediction by ZEFSAII (Michael W. Deem and Ramdas Pophale) SiO2 
 PCOD9128865
Probable space group: C 2
;
_chemical_formula_sum "Si O2"
_cell_formula_units_Z 20
_cell_length_a 25.127784
_cell_length_b 5.008859
_cell_length_c 13.305491
_cell_angle_alpha 90.000000
_cell_angle_beta 150.454909
_cell_angle_gamma 90.000000
_cell_volume 825.783636
_symmetry_space_group_name_H-M "C 2"
_symmetry_group_IT_number 5
_symmetry_cell_setting 'monoclinic'
loop_
_space_group_symop_operation_xyz
x,y,z
-x,y,-z
1/2+x,1/2+y,z
1/2-x,1/2+y,-z
loop_
_atom_site_type_symbol
_atom_site_label
_atom_site_fract_x
_atom_site_fract_y
_atom_site_fract_z
Si Si1 0.500000 0.553071 0.000000
Si Si2 0.682280 0.480473 0.679353
Si Si3 0.500000 0.153560 0.500000
Si Si4 0.191256 0.348546 0.860380
Si Si5 0.554410 0.306382 0.289572
Si Si6 0.920874 0.287105 0.061506
O O1 0.436342 0.375946 0.813582
O O2 0.574918 0.732097 0.051904
O O3 0.685149 0.777981 0.731113
O O4 0.653457 0.411710 0.517643
O O5 0.586133 0.332293 0.582050
O O6 0.803152 0.379925 0.897335
O O7 0.426605 0.964525 0.309320
O O8 0.225069 0.072994 0.967734
O O9 0.456742 0.502580 0.164193
O O10 0.513403 0.006375 0.234211
#
# Coordination Sequence:
#
# PCOD9128865 Si02
#       6
#     2   4   2   4   4   4
#     4   8  22  52  70 106 152 184 232 324 360 434
#     4  12  29  48  78 110 146 203 252 295 377 443
#     4  12  30  48  74 114 152 206 250 312 360 452
#     4  12  29  49  74 105 152 204 249 309 372 429
#     4  10  25  47  74 107 147 185 251 302 368 441
#     4  10  25  45  74 104 146 191 239 308 368 432
#
# _framework density 24.219418999999998
#
# number of rings (size 3 to 8) (size 9 to 14) (size 15 to 20)
#    1.200    0.000    2.000    1.200    8.400    1.600 
#    7.200    0.000    0.000    0.000    0.000    0.000 
#    0.000    0.000    0.000    0.000    0.000    0.000 
#
# Total GULP energy -55855.702902 kJ/mol
# GULP energy per Si atom -5585.570290 kJ/mol
# Density = 2.416429 g / cm^3
# Si number density = 24.219419 Si / 1000 Ang^3
#
#
#
# Elastic Constant Matrix: (Units=GPa)
#
#
# Indices 1 2 3 4 5 6 
#
# 1 66.1373 7.2470 -0.4907 0.0000 -2.8460 0.0000
# 2 7.2470 103.6301 26.1798 0.0002 -6.3520 0.0000
# 3 -0.4907 26.1798 141.7931 0.0000 -11.4159 0.0000
# 4 0.0000 0.0002 0.0000 47.3763 0.0000 2.0091
# 5 -2.8460 -6.3520 -11.4159 0.0000 46.3378 0.0000
# 6 0.0000 0.0000 0.0000 2.0091 0.0000 32.8321
#
#
#
# Elastic Compliance Matrix: (Units=1/GPa)
#
#
# Indices 1 2 3 4 5 6 
#
# 1 0.015280 -0.001098 0.000325 0.000000 0.000868 0.000000
# 2 -0.001098 0.010241 -0.001823 0.000000 0.000887 0.000000
# 3 0.000325 -0.001823 0.007521 0.000000 0.001623 0.000000
# 4 0.000000 0.000000 0.000000 0.021163 0.000000 -0.001295
# 5 0.000868 0.000887 0.001623 0.000000 0.022155 0.000000
# 6 0.000000 0.000000 0.000000 -0.001295 0.000000 0.030537
#
#
# Mechanical properties :
#
#
# Convention : Reuss Voigt Hill
#
# Bulk Modulus (GPa) = 35.90445 41.93696 38.92071
# Shear Modulus (GPa) = 41.19552 43.88420 42.53986
#
# Velocity S-wave (km/s) = 4.12871 4.26131 4.19553
# Velocity P-wave (km/s) = 6.13067 6.44707 6.29086
#
# Compressibility (1/GPa) = 0.02785170
#
# Stress axis : x y z
#
# Youngs Moduli (GPa) = 65.44458 97.64237 132.96171
#
# Poissons Ratio (x) = 0.10717 -0.04327
# Poissons Ratio (y) = 0.07183 0.24243
# Poissons Ratio (z) = -0.02130 0.17803
#
# Static dielectric constant tensor:
#      x y z
#    x 1.932780 0.000000 -0.097570 
#    y 0.000000 1.934330 0.000000 
#    z -0.097570 0.000000 2.002230 
# 
# From -- ./inp_files/47601.got.cif
#   From: 2010.05.17/outbox.cif.g08.bks.cpg/sg5_24_cif.got.tgz:47601.got - 2010.06.03 18:56:24.
