data_PCOD9128909
_publ_section_title
;
Structure prediction by ZEFSAII (Michael W. Deem and Ramdas Pophale) SiO2 
 PCOD9128909
Probable space group: C 2
;
_chemical_formula_sum "Si O2"
_cell_formula_units_Z 18
_cell_length_a 9.163846
_cell_length_b 17.772499
_cell_length_c 5.249637
_cell_angle_alpha 90.000000
_cell_angle_beta 118.377349
_cell_angle_gamma 90.000000
_cell_volume 752.241946
_symmetry_space_group_name_H-M "C 2"
_symmetry_group_IT_number 5
_symmetry_cell_setting 'monoclinic'
loop_
_space_group_symop_operation_xyz
x,y,z
-x,y,-z
1/2+x,1/2+y,z
1/2-x,1/2+y,-z
loop_
_atom_site_type_symbol
_atom_site_label
_atom_site_fract_x
_atom_site_fract_y
_atom_site_fract_z
Si Si1 0.500000 0.293221 0.500000
Si Si2 0.834511 0.304649 0.028388
Si Si3 0.686535 0.524767 0.571586
Si Si4 0.827300 0.681297 0.750117
Si Si5 0.342812 0.966998 0.222918
O O1 0.399284 0.241021 0.611639
O O2 0.657726 0.332445 0.758445
O O3 0.780471 0.230178 0.139232
O O4 0.878122 0.379136 0.218680
O O5 0.000000 0.288311 0.000000
O O6 0.500000 0.516824 0.500000
O O7 0.725627 0.612589 0.553205
O O8 0.706992 0.479177 0.327639
O O9 0.797888 0.499311 0.907831
O O10 0.000000 0.648628 0.000000
O O11 0.500000 0.003863 0.500000
#
# Coordination Sequence:
#
# PCOD9128909 Si02
#       5
#     2   4   4   4   4
#     4  10  26  46  76 108 158 196 256 330 376 466
#     4  11  27  47  80 114 151 207 260 321 390 469
#     4  12  29  47  78 113 155 203 259 322 385 466
#     4  10  25  47  74 110 152 202 254 319 387 461
#     4  12  28  51  74 111 155 207 255 316 392 466
#
# _framework density 23.928470999999998
#
# number of rings (size 3 to 8) (size 9 to 14) (size 15 to 20)
#    0.000    0.889    0.000    4.000   18.667    3.556 
#    0.000    0.000    0.000    0.000    0.000    0.000 
#    0.000    0.000    0.000    0.000    0.000    0.000 
#
# Total GULP energy -50282.406669 kJ/mol
# GULP energy per Si atom -5586.934074 kJ/mol
# Density = 2.387401 g / cm^3
# Si number density = 23.928471 Si / 1000 Ang^3
#
#
#
# Elastic Constant Matrix: (Units=GPa)
#
#
# Indices 1 2 3 4 5 6 
#
# 1 192.2891 53.8433 13.1128 0.0000 -18.6812 0.0000
# 2 53.8433 74.8374 23.1093 0.0000 -8.4077 0.0000
# 3 13.1128 23.1093 105.9311 0.0000 5.7517 0.0000
# 4 0.0000 0.0000 0.0000 98.4665 0.0000 -51.1257
# 5 -18.6812 -8.4077 5.7517 0.0000 33.3327 0.0000
# 6 0.0000 0.0000 0.0000 -51.1257 0.0000 53.9136
#
#
#
# Elastic Compliance Matrix: (Units=1/GPa)
#
#
# Indices 1 2 3 4 5 6 
#
# 1 0.006728 -0.004552 0.000018 0.000000 0.002620 0.000000
# 2 -0.004552 0.018012 -0.003507 0.000000 0.002597 0.000000
# 3 0.000018 -0.003507 0.010347 0.000000 -0.002660 0.000000
# 4 0.000000 0.000000 0.000000 0.020006 0.000000 0.018972
# 5 0.002620 0.002597 -0.002660 0.000000 0.032583 0.000000
# 6 0.000000 0.000000 0.000000 0.018972 0.000000 0.036539
#
#
# Mechanical properties :
#
#
# Convention : Reuss Voigt Hill
#
# Bulk Modulus (GPa) = 52.61596 61.46539 57.04068
# Shear Modulus (GPa) = 34.09865 56.00871 45.05368
#
# Velocity S-wave (km/s) = 3.77904 4.84330 4.34389
# Velocity P-wave (km/s) = 6.40922 7.55113 7.00349
#
# Compressibility (1/GPa) = 0.01900564
#
# Stress axis : x y z
#
# Youngs Moduli (GPa) = 148.62298 55.51809 96.64298
#
# Poissons Ratio (x) = 0.25273 -0.00173
# Poissons Ratio (y) = 0.67655 0.33892
# Poissons Ratio (z) = -0.00267 0.19470
#
# Static dielectric constant tensor:
#      x y z
#    x 1.913790 0.000000 -0.056870 
#    y 0.000000 1.860690 0.000000 
#    z -0.056870 0.000000 2.213690 
# 
# From -- ./inp_files/2288.got.cif
#   From: 2010.05.17/outbox.cif.g08.bks.cpg/sg5_2_cif.got.tgz:2288.got - 2010.06.03 18:56:24.
