data_PCOD9128704
_publ_section_title
;
Structure prediction by ZEFSAII (Michael W. Deem and Ramdas Pophale) SiO2 
 PCOD9128704
Probable space group: C 2
;
_chemical_formula_sum "Si O2"
_cell_formula_units_Z 26
_cell_length_a 21.785146
_cell_length_b 8.830504
_cell_length_c 14.012233
_cell_angle_alpha 90.000000
_cell_angle_beta 23.721704
_cell_angle_gamma 90.000000
_cell_volume 1084.420020
_symmetry_space_group_name_H-M "C 2"
_symmetry_group_IT_number 5
_symmetry_cell_setting 'monoclinic'
loop_
_space_group_symop_operation_xyz
x,y,z
-x,y,-z
1/2+x,1/2+y,z
1/2-x,1/2+y,-z
loop_
_atom_site_type_symbol
_atom_site_label
_atom_site_fract_x
_atom_site_fract_y
_atom_site_fract_z
Si Si1 0.847414 0.377680 0.102405
Si Si2 0.768841 0.431356 0.830850
Si Si3 0.500000 0.615556 0.000000
Si Si4 0.255893 0.362950 0.349313
Si Si5 0.983419 0.944240 0.355535
Si Si6 0.500000 0.205590 0.500000
Si Si7 0.927382 0.295440 0.791879
Si Si8 0.500000 0.120305 0.000000
O O1 0.698497 0.419971 0.379318
O O2 0.814697 0.351506 0.037593
O O3 0.930239 0.225301 0.019897
O O4 0.045119 0.516733 0.024319
O O5 0.770219 0.351202 0.727827
O O6 0.863724 0.367112 0.785281
O O7 0.855297 0.591893 0.691490
O O8 0.590360 0.416725 0.112186
O O9 0.642440 0.508566 0.769777
O O10 0.081161 0.355081 0.625140
O O11 0.359471 0.223937 0.231524
O O12 0.023932 0.814954 0.375512
O O13 0.033889 0.121589 0.294845
#
# Coordination Sequence:
#
# PCOD9128704 Si02
#       8
#     4   4   2   4   4   2   4   2
#     4  11  25  48  71 111 145 192 255 303 374 436
#     4  12  26  49  73 111 153 194 245 306 374 449
#     4  10  24  48  72 100 150 192 248 310 356 444
#     4  11  23  48  73 107 148 197 246 302 377 434
#     4  12  25  44  71 108 148 195 243 303 372 443
#     4  12  26  44  72 110 156 194 244 300 374 450
#     4  12  26  46  77 107 152 193 243 312 376 445
#     4  10  24  48  72 106 146 198 254 306 358 446
#
# _framework density 23.975949
#
# number of rings (size 3 to 8) (size 9 to 14) (size 15 to 20)
#    0.000    0.615    3.077    4.615    2.154    3.692 
#   11.077    0.000    0.000    0.000    0.000    0.000 
#    0.000    0.000    0.000    0.000    0.000    0.000 
#
# Total GULP energy -72468.360730 kJ/mol
# GULP energy per Si atom -5574.489287 kJ/mol
# Density = 2.392138 g / cm^3
# Si number density = 23.975949 Si / 1000 Ang^3
#
#
#
# Elastic Constant Matrix: (Units=GPa)
#
#
# Indices 1 2 3 4 5 6 
#
# 1 72.3026 38.8861 25.2618 0.0000 -12.1122 0.0000
# 2 38.8861 113.2870 25.0193 0.0000 -2.0508 0.0000
# 3 25.2618 25.0193 94.4860 0.0000 -2.7557 0.0000
# 4 0.0000 0.0000 0.0000 45.8323 0.0000 -2.3021
# 5 -12.1122 -2.0508 -2.7557 0.0000 44.8634 0.0000
# 6 0.0000 0.0000 0.0000 -2.3021 0.0000 19.3671
#
#
#
# Elastic Compliance Matrix: (Units=1/GPa)
#
#
# Indices 1 2 3 4 5 6 
#
# 1 0.018819 -0.005623 -0.003408 0.000000 0.004614 0.000000
# 2 -0.005623 0.011059 -0.001457 0.000000 -0.001102 0.000000
# 3 -0.003408 -0.001457 0.011873 0.000000 -0.000257 0.000000
# 4 0.000000 0.000000 0.000000 0.021950 0.000000 0.002609
# 5 0.004614 -0.001102 -0.000257 0.000000 0.023469 0.000000
# 6 0.000000 0.000000 0.000000 0.002609 0.000000 0.051944
#
#
# Mechanical properties :
#
#
# Convention : Reuss Voigt Hill
#
# Bulk Modulus (GPa) = 48.13606 50.93444 49.53525
# Shear Modulus (GPa) = 29.93727 34.73978 32.33852
#
# Velocity S-wave (km/s) = 3.53744 3.81063 3.67657
# Velocity P-wave (km/s) = 6.06672 6.37583 6.22319
#
# Compressibility (1/GPa) = 0.02077445
#
# Stress axis : x y z
#
# Youngs Moduli (GPa) = 53.13821 90.42207 84.22476
#
# Poissons Ratio (x) = 0.50849 0.28702
# Poissons Ratio (y) = 0.29882 0.12272
# Poissons Ratio (z) = 0.18108 0.13175
#
# Static dielectric constant tensor:
#      x y z
#    x 1.854680 0.000000 -0.020950 
#    y 0.000000 1.937270 0.000000 
#    z -0.020950 0.000000 2.300840 
# 
# From -- ./inp_files/63581.got.cif
#   From: 2010.05.17/outbox.cif.g08.bks.cpg/sg5_32_cif.got.tgz:63581.got - 2010.06.03 18:56:24.
