data_PCOD9128427
_publ_section_title
;
Structure prediction by ZEFSAII (Michael W. Deem and Ramdas Pophale) SiO2 
 PCOD9128427
Probable space group: C 2
;
_chemical_formula_sum "Si O2"
_cell_formula_units_Z 24
_cell_length_a 23.185679
_cell_length_b 6.243086
_cell_length_c 12.492608
_cell_angle_alpha 90.000000
_cell_angle_beta 150.366172
_cell_angle_gamma 90.000000
_cell_volume 894.126865
_symmetry_space_group_name_H-M "C 2"
_symmetry_group_IT_number 5
_symmetry_cell_setting 'monoclinic'
loop_
_space_group_symop_operation_xyz
x,y,z
-x,y,-z
1/2+x,1/2+y,z
1/2-x,1/2+y,-z
loop_
_atom_site_type_symbol
_atom_site_label
_atom_site_fract_x
_atom_site_fract_y
_atom_site_fract_z
Si Si1 0.883511 0.304720 0.453769
Si Si2 0.626604 0.788114 0.897565
Si Si3 0.325689 0.470647 0.779869
Si Si4 0.047687 0.562112 0.966162
Si Si5 0.575318 0.485241 0.279321
Si Si6 0.623656 0.454099 0.738720
O O1 0.790415 0.486528 0.336838
O O2 0.894846 0.136471 0.572874
O O3 0.855101 0.160870 0.304984
O O4 0.015840 0.389245 0.654986
O O5 0.609939 0.538590 0.837886
O O6 0.607298 0.911819 0.976744
O O7 0.760151 0.820783 0.081608
O O8 0.330432 0.527474 0.662892
O O9 0.351481 0.218063 0.829450
O O10 0.447498 0.550780 0.026903
O O11 0.950980 0.726771 0.757775
O O12 0.000000 0.465632 0.000000
O O13 0.500000 0.363482 0.500000
#
# Coordination Sequence:
#
# PCOD9128427 Si02
#       6
#     4   4   4   4   4   4
#     4  11  21  39  65  93 125 168 217 263 317 377
#     4  11  23  42  67  91 126 172 216 270 318 382
#     4   8  17  37  63  88 136 166 199 256 319 379
#     4   8  17  39  66  91 134 167 195 262 324 373
#     4   8  18  37  62  91 135 170 200 263 315 381
#     4  10  24  44  65  90 126 170 217 271 320 370
#
# _framework density 26.841829000000001
#
# number of rings (size 3 to 8) (size 9 to 14) (size 15 to 20)
#    1.000    1.667    1.667    0.000    0.000    8.000 
#    3.000   10.833    0.000    0.000    0.000    0.000 
#    0.000    0.000    0.000    0.000    0.000    0.000 
#
# Total GULP energy -66856.965249 kJ/mol
# GULP energy per Si atom -5571.413771 kJ/mol
# Density = 2.678074 g / cm^3
# Si number density = 26.841829 Si / 1000 Ang^3
#
#
#
# Elastic Constant Matrix: (Units=GPa)
#
#
# Indices 1 2 3 4 5 6 
#
# 1 105.8090 25.2225 56.5701 0.0000 -6.7480 0.0000
# 2 25.2225 54.1918 27.6484 0.0000 -9.5281 0.0000
# 3 56.5701 27.6484 126.6294 0.0000 20.9876 0.0000
# 4 0.0000 0.0000 0.0000 30.7925 0.0000 -10.9413
# 5 -6.7480 -9.5281 20.9876 0.0000 69.2499 0.0000
# 6 0.0000 0.0000 0.0000 -10.9413 0.0000 33.6694
#
#
#
# Elastic Compliance Matrix: (Units=1/GPa)
#
#
# Indices 1 2 3 4 5 6 
#
# 1 0.013401 -0.002795 -0.005822 0.000000 0.002686 0.000000
# 2 -0.002795 0.022742 -0.004412 0.000000 0.004194 0.000000
# 3 -0.005822 -0.004412 0.012272 0.000000 -0.004894 0.000000
# 4 0.000000 0.000000 0.000000 0.036715 0.000000 0.011931
# 5 0.002686 0.004194 -0.004894 0.000000 0.016762 0.000000
# 6 0.000000 0.000000 0.000000 0.011931 0.000000 0.033578
#
#
# Mechanical properties :
#
#
# Convention : Reuss Voigt Hill
#
# Bulk Modulus (GPa) = 44.72617 56.16804 50.44710
# Shear Modulus (GPa) = 29.58927 38.55498 34.07212
#
# Velocity S-wave (km/s) = 3.32378 3.79407 3.56668
# Velocity P-wave (km/s) = 5.60616 6.33753 5.98303
#
# Compressibility (1/GPa) = 0.02235827
#
# Stress axis : x y z
#
# Youngs Moduli (GPa) = 74.62127 43.97107 81.48482
#
# Poissons Ratio (x) = 0.12289 0.47437
# Poissons Ratio (y) = 0.20856 0.35952
# Poissons Ratio (z) = 0.43442 0.19400
#
# Static dielectric constant tensor:
#      x y z
#    x 2.252580 0.000000 0.063280 
#    y 0.000000 2.159730 0.000000 
#    z 0.063280 0.000000 2.166000 
# 
# From -- ./inp_files/47338.got.cif
#   From: 2010.05.17/outbox.cif.g08.bks.cpg/sg5_24_cif.got.tgz:47338.got - 2010.06.03 18:56:24.
