data_PCOD9128858
_publ_section_title
;
Structure prediction by ZEFSAII (Michael W. Deem and Ramdas Pophale) SiO2 
 PCOD9128858
Probable space group: C 2
;
_chemical_formula_sum "Si O2"
_cell_formula_units_Z 16
_cell_length_a 5.183970
_cell_length_b 25.572779
_cell_length_c 6.971523
_cell_angle_alpha 90.000000
_cell_angle_beta 130.552172
_cell_angle_gamma 90.000000
_cell_volume 702.223762
_symmetry_space_group_name_H-M "C 2"
_symmetry_group_IT_number 5
_symmetry_cell_setting 'monoclinic'
loop_
_space_group_symop_operation_xyz
x,y,z
-x,y,-z
1/2+x,1/2+y,z
1/2-x,1/2+y,-z
loop_
_atom_site_type_symbol
_atom_site_label
_atom_site_fract_x
_atom_site_fract_y
_atom_site_fract_z
Si Si1 0.000000 0.524320 0.500000
Si Si2 0.613352 0.943845 0.836429
Si Si3 0.500000 0.344532 0.000000
Si Si4 0.000000 0.665974 0.000000
Si Si5 0.000000 0.094626 0.000000
Si Si6 0.613856 0.260413 0.338263
O O1 0.874661 0.481381 0.596470
O O2 0.247743 0.561317 0.741990
O O3 0.685020 0.884004 0.808809
O O4 0.500000 0.944469 0.000000
O O5 0.000000 0.965131 0.000000
O O6 0.589647 0.305694 0.870361
O O7 0.093966 0.705584 0.216807
O O8 0.288404 0.629809 0.047614
O O9 0.500000 0.254578 0.500000
O O10 0.000000 0.277571 0.500000
#
# Coordination Sequence:
#
# PCOD9128858 Si02
#       6
#     2   4   2   2   2   4
#     4  12  28  52  72 116 140 200 250 304 366 434
#     4  10  25  45  70 103 148 193 234 304 350 439
#     4   9  25  42  70 108 144 188 237 287 370 428
#     4  11  28  50  69 110 141 190 248 305 374 426
#     4  12  29  48  83 100 153 192 249 308 370 432
#     4  11  25  43  73 106 143 188 237 301 357 449
#
# _framework density 22.784759000000001
#
# number of rings (size 3 to 8) (size 9 to 14) (size 15 to 20)
#    0.750    0.500    1.250    1.500   12.250    5.000 
#    0.000    0.000    0.000    0.000    0.000    0.000 
#    0.000    0.000    0.000    0.000    0.000    0.000 
#
# Total GULP energy -44627.453380 kJ/mol
# GULP energy per Si atom -5578.431672 kJ/mol
# Density = 2.273290 g / cm^3
# Si number density = 22.784759 Si / 1000 Ang^3
#
#
#
# Elastic Constant Matrix: (Units=GPa)
#
#
# Indices 1 2 3 4 5 6 
#
# 1 156.7883 66.3016 60.7798 0.0000 -39.7593 0.0000
# 2 66.3016 196.0430 97.3533 0.0000 -19.3331 0.0000
# 3 60.7798 97.3533 146.6749 0.0000 -32.4348 0.0000
# 4 0.0000 0.0000 0.0000 -114.8024 0.0000 -39.9913
# 5 -39.7593 -19.3331 -32.4348 0.0000 47.2541 0.0000
# 6 0.0000 0.0000 0.0000 -39.9913 0.0000 11.4541
#
#
#
# Elastic Compliance Matrix: (Units=1/GPa)
#
#
# Indices 1 2 3 4 5 6 
#
# 1 0.009208 -0.001922 -0.001180 0.000000 0.006151 0.000000
# 2 -0.001922 0.008017 -0.004901 0.000000 -0.001701 0.000000
# 3 -0.001180 -0.004901 0.011668 0.000000 0.005011 0.000000
# 4 0.000000 0.000000 0.000000 -0.003930 0.000000 -0.013723
# 5 0.006151 -0.001701 0.005011 0.000000 0.029081 0.000000
# 6 0.000000 0.000000 0.000000 -0.013723 0.000000 0.039393
#
#
# Mechanical properties :
#
#
# Convention : Reuss Voigt Hill
#
# Bulk Modulus (GPa) = 77.59352 105.37507 91.48429
# Shear Modulus (GPa) = 43.96098 7.11927 25.54013
#
# Velocity S-wave (km/s) = 4.39726 1.76957 3.35166
# Velocity P-wave (km/s) = 7.74017 7.10800 7.43081
#
# Compressibility (1/GPa) = 0.01288767
#
# Stress axis : x y z
#
# Youngs Moduli (GPa) = 108.60218 124.73823 85.70697
#
# Poissons Ratio (x) = 0.23969 0.10113
# Poissons Ratio (y) = 0.20868 0.42004
# Poissons Ratio (z) = 0.12815 0.61133
#
# Static dielectric constant tensor:
#      x y z
#    x 1.882350 0.000000 0.129190 
#    y 0.000000 1.870350 0.000000 
#    z 0.129190 0.000000 2.045170 
# 
# From -- ./inp_files/1211.got.cif
#   From: 2010.05.17/outbox.cif.g08.bks.cpg/sg5_1_cif.got.tgz:1211.got - 2010.06.03 18:56:24.
