data_PCOD9128558
_publ_section_title
;
Structure prediction by ZEFSAII (Michael W. Deem and Ramdas Pophale) SiO2 
 PCOD9128558
Probable space group: C 2
;
_chemical_formula_sum "Si O2"
_cell_formula_units_Z 26
_cell_length_a 16.508793
_cell_length_b 5.747398
_cell_length_c 16.570869
_cell_angle_alpha 90.000000
_cell_angle_beta 52.046244
_cell_angle_gamma 90.000000
_cell_volume 1239.760097
_symmetry_space_group_name_H-M "C 2"
_symmetry_group_IT_number 5
_symmetry_cell_setting 'monoclinic'
loop_
_space_group_symop_operation_xyz
x,y,z
-x,y,-z
1/2+x,1/2+y,z
1/2-x,1/2+y,-z
loop_
_atom_site_type_symbol
_atom_site_label
_atom_site_fract_x
_atom_site_fract_y
_atom_site_fract_z
Si Si1 0.500000 0.164690 0.000000
Si Si2 0.695362 0.983565 0.629778
Si Si3 0.385914 0.409941 0.931156
Si Si4 0.804789 0.562571 0.846285
Si Si5 0.121394 0.981531 0.604863
Si Si6 0.704454 0.932094 0.814046
Si Si7 0.591135 0.647588 0.236481
O O1 0.528620 0.321629 0.059723
O O2 0.401604 0.007617 0.080206
O O3 0.806287 0.983934 0.517867
O O4 0.643553 0.231530 0.634608
O O5 0.701681 0.982037 0.721912
O O6 0.646914 0.730528 0.634216
O O7 0.359674 0.231903 0.876008
O O8 0.417278 0.628541 0.856303
O O9 0.281526 0.441692 0.044972
O O10 0.898456 0.418252 0.751960
O O11 0.735946 0.670963 0.817626
O O12 0.999979 0.009139 0.666577
O O13 0.798159 0.064737 0.799925
#
# Coordination Sequence:
#
# PCOD9128558 Si02
#       7
#     2   4   4   4   4   4   4
#     4  12  24  40  58 100 130 180 218 286 332 404
#     4  10  24  48  70 104 134 176 224 291 342 410
#     4  11  22  40  61  90 137 170 230 269 345 397
#     4  11  22  41  60  94 130 189 216 285 329 423
#     4  10  24  45  76  98 135 177 228 280 354 403
#     4  11  26  39  64  96 140 171 235 273 346 397
#     4  11  24  41  68  94 131 181 226 277 340 410
#
# _framework density 20.971800000000002
#
# number of rings (size 3 to 8) (size 9 to 14) (size 15 to 20)
#    0.000    1.231    3.077    1.846    8.615    2.462 
#    0.000    0.000    0.000    0.000    0.000    0.000 
#    0.000    0.000    0.000    0.000    0.000    0.000 
#
# Total GULP energy -72461.068833 kJ/mol
# GULP energy per Si atom -5573.928372 kJ/mol
# Density = 2.092407 g / cm^3
# Si number density = 20.971800 Si / 1000 Ang^3
#
#
#
# Elastic Constant Matrix: (Units=GPa)
#
#
# Indices 1 2 3 4 5 6 
#
# 1 101.8319 36.0034 55.8031 0.0002 -12.6729 0.0013
# 2 36.0034 84.7335 34.5162 0.0007 -6.5265 0.0036
# 3 55.8031 34.5162 92.0811 -0.0001 -8.4664 0.0004
# 4 0.0002 0.0007 -0.0001 25.4237 -0.0002 -7.8401
# 5 -12.6729 -6.5265 -8.4664 -0.0002 27.7531 0.0000
# 6 0.0013 0.0036 0.0004 -7.8401 0.0000 12.9485
#
#
#
# Elastic Compliance Matrix: (Units=1/GPa)
#
#
# Indices 1 2 3 4 5 6 
#
# 1 0.015848 -0.003141 -0.008055 0.000000 0.004041 -0.000001
# 2 -0.003141 0.014632 -0.003495 -0.000002 0.000940 -0.000005
# 3 -0.008055 -0.003495 0.017118 0.000001 0.000722 0.000002
# 4 0.000000 -0.000002 0.000001 0.048364 0.000000 0.029283
# 5 0.004041 0.000940 0.000722 0.000000 0.038318 -0.000001
# 6 -0.000001 -0.000005 0.000002 0.029283 -0.000001 0.094959
#
#
# Mechanical properties :
#
#
# Convention : Reuss Voigt Hill
#
# Bulk Modulus (GPa) = 54.89708 59.03245 56.96476
# Shear Modulus (GPa) = 18.88979 23.37999 21.13489
#
# Velocity S-wave (km/s) = 3.00446 3.34253 3.17799
# Velocity P-wave (km/s) = 6.18621 6.56554 6.37869
#
# Compressibility (1/GPa) = 0.01821591
#
# Stress axis : x y z
#
# Youngs Moduli (GPa) = 63.10083 68.34116 58.41844
#
# Poissons Ratio (x) = 0.21468 0.47056
# Poissons Ratio (y) = 0.19822 0.20416
# Poissons Ratio (z) = 0.50828 0.23884
#
# Static dielectric constant tensor:
#      x y z
#    x 1.719340 0.000000 -0.045610 
#    y 0.000000 2.078370 0.000000 
#    z -0.045610 0.000000 1.814610 
# 
# From -- ./inp_files/61045.got.cif
#   From: 2010.05.17/outbox.cif.g08.bks.cpg/sg5_31_cif.got.tgz:61045.got - 2010.06.03 18:56:24.
