data_PCOD9128154
_publ_section_title
;
Structure prediction by ZEFSAII (Michael W. Deem and Ramdas Pophale) SiO2 
 PCOD9128154
Probable space group: C 2
;
_chemical_formula_sum "Si O2"
_cell_formula_units_Z 14
_cell_length_a 5.417442
_cell_length_b 20.140448
_cell_length_c 5.297185
_cell_angle_alpha 90.000000
_cell_angle_beta 98.360404
_cell_angle_gamma 90.000000
_cell_volume 571.832210
_symmetry_space_group_name_H-M "C 2"
_symmetry_group_IT_number 5
_symmetry_cell_setting 'monoclinic'
loop_
_space_group_symop_operation_xyz
x,y,z
-x,y,-z
1/2+x,1/2+y,z
1/2-x,1/2+y,-z
loop_
_atom_site_type_symbol
_atom_site_label
_atom_site_fract_x
_atom_site_fract_y
_atom_site_fract_z
Si Si1 0.848670 0.977510 0.217031
Si Si2 0.500000 0.352757 0.000000
Si Si3 0.658118 0.747644 0.778590
Si Si4 0.718597 0.110285 0.344036
O O1 0.000000 0.966145 0.500000
O O2 0.804814 0.903936 0.101010
O O3 0.654222 0.035298 0.249592
O O4 0.000000 0.008053 0.000000
O O5 0.629714 0.303022 0.212602
O O6 0.500000 0.746712 0.500000
O O7 0.753506 0.672421 0.837189
O O8 0.500000 0.765861 0.000000
O O9 0.500000 0.130849 0.500000
O O10 0.000000 0.103265 0.500000
#
# Coordination Sequence:
#
# PCOD9128154 Si02
#       4
#     4   2   4   4
#     4   9  21  44  71 104 146 189 245 293 378 429
#     4  10  26  46  78 100 162 186 244 312 374 444
#     4  11  27  45  75 112 145 196 253 302 376 442
#     4  10  23  47  77 107 146 194 251 310 364 441
#
# _framework density 24.482703000000001
#
# number of rings (size 3 to 8) (size 9 to 14) (size 15 to 20)
#    0.857    1.143    0.000    0.857   12.000    0.000 
#   10.286    0.000    0.000    0.000    0.000    0.000 
#    0.000    0.000    0.000    0.000    0.000    0.000 
#
# Total GULP energy -39008.188286 kJ/mol
# GULP energy per Si atom -5572.598327 kJ/mol
# Density = 2.442698 g / cm^3
# Si number density = 24.482703 Si / 1000 Ang^3
#
#
#
# Elastic Constant Matrix: (Units=GPa)
#
#
# Indices 1 2 3 4 5 6 
#
# 1 76.1421 12.4612 21.4725 0.0000 4.6754 0.0000
# 2 12.4612 215.2919 2.2912 0.0000 11.6251 0.0000
# 3 21.4725 2.2912 110.8433 0.0000 9.0891 0.0000
# 4 0.0000 0.0000 0.0000 17.2381 0.0000 -20.6339
# 5 4.6754 11.6251 9.0891 0.0000 50.6582 0.0000
# 6 0.0000 0.0000 0.0000 -20.6339 0.0000 29.9250
#
#
#
# Elastic Compliance Matrix: (Units=1/GPa)
#
#
# Indices 1 2 3 4 5 6 
#
# 1 0.014044 -0.000750 -0.002652 0.000000 -0.000648 0.000000
# 2 -0.000750 0.004743 0.000133 0.000000 -0.001043 0.000000
# 3 -0.002652 0.000133 0.009657 0.000000 -0.001518 0.000000
# 4 0.000000 0.000000 0.000000 0.332165 0.000000 0.229035
# 5 -0.000648 -0.001043 -0.001518 0.000000 0.020312 0.000000
# 6 0.000000 0.000000 0.000000 0.229035 0.000000 0.191341
#
#
# Mechanical properties :
#
#
# Convention : Reuss Voigt Hill
#
# Bulk Modulus (GPa) = 45.64862 52.74745 49.19803
# Shear Modulus (GPa) = 8.53093 43.96776 26.24935
#
# Velocity S-wave (km/s) = 1.86870 4.24237 3.27794
# Velocity P-wave (km/s) = 4.83133 6.75192 5.87070
#
# Compressibility (1/GPa) = 0.02190647
#
# Stress axis : x y z
#
# Youngs Moduli (GPa) = 71.20645 210.83005 103.54939
#
# Poissons Ratio (x) = 0.15804 0.27460
# Poissons Ratio (y) = 0.05338 -0.01374
# Poissons Ratio (z) = 0.18883 -0.02798
#
# Static dielectric constant tensor:
#      x y z
#    x 2.261390 0.000000 0.196540 
#    y 0.000000 1.912160 0.000000 
#    z 0.196540 0.000000 1.974830 
# 
# From -- ./inp_files/591.got.cif
#   From: 2010.05.17/outbox.cif.g08.bks.cpg/sg5_1_cif.got.tgz:591.got - 2010.06.03 18:56:24.
