data_PCOD9128533
_publ_section_title
;
Structure prediction by ZEFSAII (Michael W. Deem and Ramdas Pophale) SiO2 
 PCOD9128533
Probable space group: C 2
;
_chemical_formula_sum "Si O2"
_cell_formula_units_Z 28
_cell_length_a 12.696902
_cell_length_b 4.809128
_cell_length_c 20.638035
_cell_angle_alpha 90.000000
_cell_angle_beta 62.811679
_cell_angle_gamma 90.000000
_cell_volume 1120.941771
_symmetry_space_group_name_H-M "C 2"
_symmetry_group_IT_number 5
_symmetry_cell_setting 'monoclinic'
loop_
_space_group_symop_operation_xyz
x,y,z
-x,y,-z
1/2+x,1/2+y,z
1/2-x,1/2+y,-z
loop_
_atom_site_type_symbol
_atom_site_label
_atom_site_fract_x
_atom_site_fract_y
_atom_site_fract_z
Si Si1 0.512460 0.924670 0.140405
Si Si2 0.500000 0.152937 0.000000
Si Si3 0.391518 0.059683 0.754223
Si Si4 0.905225 0.288316 0.390378
Si Si5 0.747476 0.062916 0.751745
Si Si6 0.500000 0.787759 0.500000
Si Si7 0.748918 0.337005 0.957713
Si Si8 0.742184 0.282985 0.607818
O O1 0.556054 0.111256 0.189077
O O2 0.374003 0.905691 0.195342
O O3 0.629060 0.725089 0.108097
O O4 0.510351 0.991826 0.064531
O O5 0.376324 0.313747 0.041935
O O6 0.491855 0.924486 0.681089
O O7 0.281683 0.841259 0.781990
O O8 0.350545 0.345177 0.735262
O O9 0.847352 0.035945 0.369005
O O10 0.806642 0.535665 0.425429
O O11 0.958183 0.165691 0.442546
O O12 0.743593 0.149672 0.678222
O O13 0.372112 0.909713 0.556066
O O14 0.762794 0.657623 0.973235
#
# Coordination Sequence:
#
# PCOD9128533 Si02
#       8
#     4   2   4   4   4   2   4   4
#     4  11  26  45  76 104 150 193 251 308 372 449
#     4  10  24  48  72 108 146 198 246 304 372 442
#     4  12  27  47  74 109 149 195 247 311 378 448
#     4  12  27  49  75 111 148 196 253 305 377 451
#     4  12  27  48  75 110 148 196 250 310 382 442
#     4  12  28  46  80 106 160 194 252 310 384 434
#     4  10  24  45  70 103 143 190 242 303 363 441
#     4  12  27  49  76 111 149 198 254 310 370 461
#
# _framework density 24.978997
#
# number of rings (size 3 to 8) (size 9 to 14) (size 15 to 20)
#    0.000    0.571    2.857    3.429    0.000   13.714 
#    0.000    0.000    0.000    0.000    0.000    0.000 
#    0.000    0.000    0.000    0.000    0.000    0.000 
#
# Total GULP energy -78079.617671 kJ/mol
# GULP energy per Si atom -5577.115548 kJ/mol
# Density = 2.492214 g / cm^3
# Si number density = 24.978997 Si / 1000 Ang^3
#
#
#
# Elastic Constant Matrix: (Units=GPa)
#
#
# Indices 1 2 3 4 5 6 
#
# 1 159.4260 39.2110 50.5093 0.0013 1.8418 0.0021
# 2 39.2110 106.6505 14.2442 0.0035 7.9540 0.0113
# 3 50.5093 14.2442 136.7206 0.0008 8.2458 0.0009
# 4 0.0013 0.0035 0.0008 1.8451 -0.0003 0.7162
# 5 1.8418 7.9540 8.2458 -0.0003 63.3263 0.0005
# 6 0.0021 0.0113 0.0009 0.7162 0.0005 39.5864
#
#
#
# Elastic Compliance Matrix: (Units=1/GPa)
#
#
# Indices 1 2 3 4 5 6 
#
# 1 0.007715 -0.002520 -0.002614 0.000001 0.000432 0.000000
# 2 -0.002520 0.010405 -0.000079 -0.000017 -0.001223 -0.000002
# 3 -0.002614 -0.000079 0.008348 -0.000002 -0.001001 0.000000
# 4 0.000001 -0.000017 -0.000002 0.545811 0.000006 -0.009875
# 5 0.000432 -0.001223 -0.001001 0.000006 0.016063 0.000000
# 6 0.000000 -0.000002 0.000000 -0.009875 0.000000 0.025440
#
#
# Mechanical properties :
#
#
# Convention : Reuss Voigt Hill
#
# Bulk Modulus (GPa) = 62.33427 67.85844 65.09636
# Shear Modulus (GPa) = 7.94211 40.87372 24.40792
#
# Velocity S-wave (km/s) = 1.78505 4.04954 3.12931
# Velocity P-wave (km/s) = 5.40901 7.00644 6.25890
#
# Compressibility (1/GPa) = 0.01604254
#
# Stress axis : x y z
#
# Youngs Moduli (GPa) = 129.61132 96.11079 119.78215
#
# Poissons Ratio (x) = 0.24218 0.31310
# Poissons Ratio (y) = 0.32659 0.00950
# Poissons Ratio (z) = 0.33879 0.00763
#
# Static dielectric constant tensor:
#      x y z
#    x 2.057370 0.000000 -0.069990 
#    y 0.000000 1.981210 0.000000 
#    z -0.069990 0.000000 2.050260 
# 
# From -- ./inp_files/64874.got.cif
#   From: 2010.05.17/outbox.cif.g08.bks.cpg/sg5_33_cif.got.tgz:64874.got - 2010.06.03 18:56:24.
