data_PCOD9128937
_publ_section_title
;
Structure prediction by ZEFSAII (Michael W. Deem and Ramdas Pophale) SiO2 
 PCOD9128937
Probable space group: C 2
;
_chemical_formula_sum "Si O2"
_cell_formula_units_Z 16
_cell_length_a 24.669929
_cell_length_b 4.993980
_cell_length_c 4.932360
_cell_angle_alpha 90.000000
_cell_angle_beta 112.934245
_cell_angle_gamma 90.000000
_cell_volume 559.637458
_symmetry_space_group_name_H-M "C 2"
_symmetry_group_IT_number 5
_symmetry_cell_setting 'monoclinic'
loop_
_space_group_symop_operation_xyz
x,y,z
-x,y,-z
1/2+x,1/2+y,z
1/2-x,1/2+y,-z
loop_
_atom_site_type_symbol
_atom_site_label
_atom_site_fract_x
_atom_site_fract_y
_atom_site_fract_z
Si Si1 0.599422 0.594810 0.881499
Si Si2 0.500000 0.807658 0.000000
Si Si3 0.825001 0.489826 0.767535
Si Si4 0.307226 0.482272 0.344672
Si Si5 0.500000 0.212166 0.500000
O O1 0.661114 0.476742 0.883202
O O2 0.554360 0.418396 0.620462
O O3 0.556872 0.621210 0.061610
O O4 0.621177 0.907942 0.932514
O O5 0.492237 0.006702 0.733188
O O6 0.763404 0.478619 0.808139
O O7 0.828819 0.745877 0.583736
O O8 0.822460 0.247163 0.544724
#
# Coordination Sequence:
#
# PCOD9128937 Si02
#       5
#     4   2   4   4   2
#     4  12  28  48  84 116 170 226 280 356 428 508
#     4  12  30  52  82 124 172 226 294 350 422 508
#     4  10  25  48  79 122 167 215 279 350 427 513
#     4  10  25  48  79 122 167 215 279 350 427 513
#     4  12  30  52  82 124 172 226 294 350 422 508
#
# _framework density 28.589939000000001
#
# number of rings (size 3 to 8) (size 9 to 14) (size 15 to 20)
#    0.000    1.000    0.000    3.000   17.500    6.000 
#    0.000    0.000    0.000    0.000    0.000    0.000 
#    0.000    0.000    0.000    0.000    0.000    0.000 
#
# Total GULP energy -44719.519142 kJ/mol
# GULP energy per Si atom -5589.939893 kJ/mol
# Density = 2.852487 g / cm^3
# Si number density = 28.589939 Si / 1000 Ang^3
#
#
#
# Elastic Constant Matrix: (Units=GPa)
#
#
# Indices 1 2 3 4 5 6 
#
# 1 264.5469 60.4899 74.7640 0.0000 -24.0380 0.0000
# 2 60.4899 180.1520 78.2422 0.0000 -22.1490 0.0000
# 3 74.7640 78.2422 151.3671 0.0000 -40.8533 0.0000
# 4 0.0000 0.0000 0.0000 64.3322 0.0000 -7.4086
# 5 -24.0380 -22.1490 -40.8533 0.0000 50.5840 0.0000
# 6 0.0000 0.0000 0.0000 -7.4086 0.0000 -3.7537
#
#
#
# Elastic Compliance Matrix: (Units=1/GPa)
#
#
# Indices 1 2 3 4 5 6 
#
# 1 0.004467 -0.000695 -0.001734 0.000000 0.000418 0.000000
# 2 -0.000695 0.007267 -0.003380 0.000000 0.000122 0.000000
# 3 -0.001734 -0.003380 0.010982 0.000000 0.006565 0.000000
# 4 0.000000 0.000000 0.000000 0.012666 0.000000 -0.024998
# 5 0.000418 0.000122 0.006565 0.000000 0.025323 0.000000
# 6 0.000000 0.000000 0.000000 -0.024998 0.000000 -0.217066
#
#
# Mechanical properties :
#
#
# Convention : Reuss Voigt Hill
#
# Bulk Modulus (GPa) = 90.11372 113.67313 101.89342
# Shear Modulus (GPa) = -35.45059 47.73717 6.14329
#
# Velocity S-wave (km/s) = -3.52514 4.09065 1.46746
# Velocity P-wave (km/s) = 3.87544 7.88400 6.21194
#
# Compressibility (1/GPa) = 0.01109709
#
# Stress axis : x y z
#
# Youngs Moduli (GPa) = 223.85783 137.60093 91.05584
#
# Poissons Ratio (x) = 0.09568 0.15791
# Poissons Ratio (y) = 0.15566 0.30779
# Poissons Ratio (z) = 0.38822 0.46512
#
# Static dielectric constant tensor:
#      x y z
#    x 2.153880 0.000000 0.140010 
#    y 0.000000 2.240020 0.000000 
#    z 0.140010 0.000000 2.433920 
# 
# From -- ./inp_files/9070.got.cif
#   From: 2010.05.17/outbox.cif.g08.bks.cpg/sg5_5_cif.got.tgz:9070.got - 2010.06.03 18:56:24.
