data_PCOD9128375
_publ_section_title
;
Structure prediction by ZEFSAII (Michael W. Deem and Ramdas Pophale) SiO2 
 PCOD9128375
Probable space group: C 2
;
_chemical_formula_sum "Si O2"
_cell_formula_units_Z 24
_cell_length_a 12.592296
_cell_length_b 17.157837
_cell_length_c 4.976227
_cell_angle_alpha 90.000000
_cell_angle_beta 96.130887
_cell_angle_gamma 90.000000
_cell_volume 1068.997214
_symmetry_space_group_name_H-M "C 2"
_symmetry_group_IT_number 5
_symmetry_cell_setting 'monoclinic'
loop_
_space_group_symop_operation_xyz
x,y,z
-x,y,-z
1/2+x,1/2+y,z
1/2-x,1/2+y,-z
loop_
_atom_site_type_symbol
_atom_site_label
_atom_site_fract_x
_atom_site_fract_y
_atom_site_fract_z
Si Si1 0.276114 0.406910 0.761805
Si Si2 0.000000 0.649348 0.500000
Si Si3 0.611712 0.022429 0.877421
Si Si4 0.220981 0.150321 0.006222
Si Si5 0.799326 0.735221 0.543148
Si Si6 0.000000 0.082699 0.000000
Si Si7 0.097056 0.948845 0.674430
O O1 0.159794 0.440373 0.799711
O O2 0.283939 0.324829 0.614083
O O3 0.321750 0.465010 0.545793
O O4 0.346442 0.408717 0.053681
O O5 0.920330 0.587316 0.347145
O O6 0.919744 0.704544 0.644097
O O7 0.712448 0.069931 0.027539
O O8 0.500000 0.011405 0.000000
O O9 0.277127 0.210673 0.229533
O O10 0.219066 0.189920 0.716374
O O11 0.104685 0.132236 0.090590
O O12 0.041682 0.025015 0.780114
O O13 0.000000 0.902713 0.500000
#
# Coordination Sequence:
#
# PCOD9128375 Si02
#       7
#     4   2   4   4   4   2   4
#     4  12  27  44  74 104 154 184 247 311 369 437
#     4  10  24  42  74 100 144 194 244 302 366 442
#     4  11  23  45  74 104 138 193 249 303 361 447
#     4  11  25  46  72 101 142 191 250 293 369 445
#     4  11  26  47  67 106 145 194 242 302 376 431
#     4  12  26  42  78 104 144 186 244 312 360 428
#     4  12  24  44  69 112 140 183 234 302 375 427
#
# _framework density 22.450948
#
# number of rings (size 3 to 8) (size 9 to 14) (size 15 to 20)
#    0.000    0.667    5.000    1.000   10.500    0.000 
#    7.500    0.000    0.000    0.000    0.000    0.000 
#    0.000    0.000    0.000    0.000    0.000    0.000 
#
# Total GULP energy -66944.110872 kJ/mol
# GULP energy per Si atom -5578.675906 kJ/mol
# Density = 2.239985 g / cm^3
# Si number density = 22.450948 Si / 1000 Ang^3
#
#
#
# Elastic Constant Matrix: (Units=GPa)
#
#
# Indices 1 2 3 4 5 6 
#
# 1 113.2117 39.8513 21.0060 0.0000 1.7066 0.0000
# 2 39.8513 99.7954 18.4834 0.0000 7.1154 0.0000
# 3 21.0060 18.4834 104.0829 0.0000 -4.8854 0.0000
# 4 0.0000 0.0000 0.0000 26.7040 0.0000 -20.1153
# 5 1.7066 7.1154 -4.8854 0.0000 19.6779 0.0000
# 6 0.0000 0.0000 0.0000 -20.1153 0.0000 126.0219
#
#
#
# Elastic Compliance Matrix: (Units=1/GPa)
#
#
# Indices 1 2 3 4 5 6 
#
# 1 0.010477 -0.003935 -0.001408 0.000000 0.000165 0.000000
# 2 -0.003935 0.012203 -0.001583 0.000000 -0.004464 0.000000
# 3 -0.001408 -0.001583 0.010326 0.000000 0.003258 0.000000
# 4 0.000000 0.000000 0.000000 0.042566 0.000000 0.006794
# 5 0.000165 -0.004464 0.003258 0.000000 0.053227 0.000000
# 6 0.000000 0.000000 0.000000 0.006794 0.000000 0.009020
#
#
# Mechanical properties :
#
#
# Convention : Reuss Voigt Hill
#
# Bulk Modulus (GPa) = 52.20447 52.86351 52.53399
# Shear Modulus (GPa) = 31.63484 50.33070 40.98277
#
# Velocity S-wave (km/s) = 3.75782 4.73991 4.27715
# Velocity P-wave (km/s) = 6.49088 7.31799 6.91681
#
# Compressibility (1/GPa) = 0.01915545
#
# Stress axis : x y z
#
# Youngs Moduli (GPa) = 95.44899 81.94620 96.84444
#
# Poissons Ratio (x) = 0.32243 0.13635
# Poissons Ratio (y) = 0.37556 0.15326
# Poissons Ratio (z) = 0.13439 0.12968
#
# Static dielectric constant tensor:
#      x y z
#    x 1.942780 0.000000 0.020150 
#    y 0.000000 1.860650 0.000000 
#    z 0.020150 0.000000 1.796200 
# 
# From -- ./inp_files/5191.got.cif
#   From: 2010.05.17/outbox.cif.g08.bks.cpg/sg5_3_cif.got.tgz:5191.got - 2010.06.03 18:56:24.
