data_PCOD9128606
_publ_section_title
;
Structure prediction by ZEFSAII (Michael W. Deem and Ramdas Pophale) SiO2 
 PCOD9128606
Probable space group: C 2
;
_chemical_formula_sum "Si O2"
_cell_formula_units_Z 28
_cell_length_a 13.872405
_cell_length_b 5.056654
_cell_length_c 20.300765
_cell_angle_alpha 90.000000
_cell_angle_beta 46.984810
_cell_angle_gamma 90.000000
_cell_volume 1041.231909
_symmetry_space_group_name_H-M "C 2"
_symmetry_group_IT_number 5
_symmetry_cell_setting 'monoclinic'
loop_
_space_group_symop_operation_xyz
x,y,z
-x,y,-z
1/2+x,1/2+y,z
1/2-x,1/2+y,-z
loop_
_atom_site_type_symbol
_atom_site_label
_atom_site_fract_x
_atom_site_fract_y
_atom_site_fract_z
Si Si1 0.000000 0.478570 0.500000
Si Si2 0.082401 0.309137 0.081528
Si Si3 0.239468 0.411859 0.179886
Si Si4 0.257427 0.841271 0.396483
Si Si5 0.000000 0.985340 0.000000
Si Si6 0.130057 0.798439 0.121521
Si Si7 0.805713 0.892415 0.715206
Si Si8 0.070184 0.099629 0.581445
O O1 0.864937 0.640675 0.556572
O O2 0.004463 0.297695 0.432901
O O3 0.041217 0.605324 0.117806
O O4 0.002829 0.175765 0.060954
O O5 0.080772 0.098606 0.142566
O O6 0.229224 0.319519 0.981512
O O7 0.362949 0.339400 0.074554
O O8 0.152508 0.611665 0.174184
O O9 0.202366 0.132665 0.229046
O O10 0.255440 0.616089 0.233163
O O11 0.384783 0.706838 0.369021
O O12 0.264864 0.967126 0.320902
O O13 0.202832 0.033594 0.479016
O O14 0.965235 0.862963 0.634484
#
# Coordination Sequence:
#
# PCOD9128606 Si02
#       8
#     2   4   4   4   2   4   4   4
#     4  12  20  44  74 108 148 192 256 300 352 446
#     4   9  18  34  65  90 117 157 233 285 327 422
#     4  11  26  46  72  98 148 192 239 311 383 426
#     4  12  25  43  77 108 147 204 252 296 374 463
#     4  10  24  46  72 100 134 196 248 296 374 458
#     4   9  18  37  60  90 119 170 218 275 347 421
#     4  12  26  48  69 112 156 188 240 327 368 428
#     4  12  25  43  77 107 146 206 250 297 373 464
#
# _framework density 26.891223
#
# number of rings (size 3 to 8) (size 9 to 14) (size 15 to 20)
#    0.000    1.143    4.286    1.714    0.000    5.714 
#    7.714    0.000    0.000    0.000    0.000    0.000 
#    0.000    0.000    0.000    0.000    0.000    0.000 
#
# Total GULP energy -78295.504023 kJ/mol
# GULP energy per Si atom -5592.536002 kJ/mol
# Density = 2.683002 g / cm^3
# Si number density = 26.891223 Si / 1000 Ang^3
#
#
#
# Elastic Constant Matrix: (Units=GPa)
#
#
# Indices 1 2 3 4 5 6 
#
# 1 123.0993 6.7379 16.1605 -0.0308 21.1315 0.0090
# 2 6.7379 124.5358 10.7818 -0.1122 1.7045 -0.0211
# 3 16.1605 10.7818 80.8049 -0.0370 -0.4396 -0.0117
# 4 -0.0308 -0.1122 -0.0370 32.9978 -0.0169 11.0240
# 5 21.1315 1.7045 -0.4396 -0.0169 32.4777 -0.0041
# 6 0.0090 -0.0211 -0.0117 11.0240 -0.0041 32.2867
#
#
#
# Elastic Compliance Matrix: (Units=1/GPa)
#
#
# Indices 1 2 3 4 5 6 
#
# 1 0.009442 -0.000263 -0.001887 0.000005 -0.006155 -0.000006
# 2 -0.000263 0.008137 -0.001035 0.000028 -0.000270 -0.000004
# 3 -0.001887 -0.001035 0.012899 0.000009 0.001456 0.000001
# 4 0.000005 0.000028 0.000009 0.034207 0.000012 -0.011680
# 5 -0.006155 -0.000270 0.001456 0.000012 0.034829 0.000002
# 6 -0.000006 -0.000004 0.000001 -0.011680 0.000002 0.034960
#
#
# Mechanical properties :
#
#
# Convention : Reuss Voigt Hill
#
# Bulk Modulus (GPa) = 41.47788 43.97781 42.72785
# Shear Modulus (GPa) = 33.58392 39.20310 36.39351
#
# Velocity S-wave (km/s) = 3.53778 3.82231 3.68280
# Velocity P-wave (km/s) = 5.66972 5.98912 5.83160
#
# Compressibility (1/GPa) = 0.02410924
#
# Stress axis : x y z
#
# Youngs Moduli (GPa) = 105.90678 122.89018 77.52663
#
# Poissons Ratio (x) = 0.03235 0.14627
# Poissons Ratio (y) = 0.02788 0.08021
# Poissons Ratio (z) = 0.19982 0.12714
#
# Static dielectric constant tensor:
#      x y z
#    x 2.181450 0.000010 0.030030 
#    y 0.000010 2.058580 -0.000020 
#    z 0.030030 -0.000020 2.221230 
# 
# From -- ./inp_files/65669.got.cif
#   From: 2010.05.17/outbox.cif.g08.bks.cpg/sg5_33_cif.got.tgz:65669.got - 2010.06.03 18:56:24.
