data_PCOD9128635
_publ_section_title
;
Structure prediction by ZEFSAII (Michael W. Deem and Ramdas Pophale) SiO2 
 PCOD9128635
Probable space group: C 2
;
_chemical_formula_sum "Si O2"
_cell_formula_units_Z 18
_cell_length_a 7.463604
_cell_length_b 12.301491
_cell_length_c 9.994934
_cell_angle_alpha 90.000000
_cell_angle_beta 57.585171
_cell_angle_gamma 90.000000
_cell_volume 774.686652
_symmetry_space_group_name_H-M "C 2"
_symmetry_group_IT_number 5
_symmetry_cell_setting 'monoclinic'
loop_
_space_group_symop_operation_xyz
x,y,z
-x,y,-z
1/2+x,1/2+y,z
1/2-x,1/2+y,-z
loop_
_atom_site_type_symbol
_atom_site_label
_atom_site_fract_x
_atom_site_fract_y
_atom_site_fract_z
Si Si1 0.000000 0.460030 0.000000
Si Si2 0.699188 0.586896 0.825491
Si Si3 0.243242 0.730081 0.446215
Si Si4 0.632088 0.856713 0.217195
Si Si5 0.364255 0.150205 0.225033
O O1 0.841244 0.541176 0.145032
O O2 0.103212 0.385947 0.072477
O O3 0.663605 0.653594 0.706358
O O4 0.773951 0.466206 0.758659
O O5 0.888801 0.643588 0.832670
O O6 0.500000 0.580816 0.000000
O O7 0.404362 0.830611 0.375638
O O8 0.243691 0.666674 0.586529
O O9 0.000000 0.755631 0.500000
O O10 0.786581 0.755563 0.177529
#
# Coordination Sequence:
#
# PCOD9128635 Si02
#       5
#     2   4   4   4   4
#     4  10  26  44  72 110 152 184 256 302 364 432
#     4  10  25  47  76 114 151 191 246 311 370 445
#     4  10  24  46  75 108 156 193 244 309 370 438
#     4  11  25  45  76 107 146 201 245 300 372 440
#     4  10  24  47  73 108 146 197 246 303 366 443
#
# _framework density 23.235201
#
# number of rings (size 3 to 8) (size 9 to 14) (size 15 to 20)
#    0.000    1.778    0.000    0.667    9.333   10.667 
#    8.000   13.333    0.000    0.000    0.000    0.000 
#    0.000    0.000    0.000    0.000    0.000    0.000 
#
# Total GULP energy -50346.836824 kJ/mol
# GULP energy per Si atom -5594.092980 kJ/mol
# Density = 2.318232 g / cm^3
# Si number density = 23.235201 Si / 1000 Ang^3
#
#
#
# Elastic Constant Matrix: (Units=GPa)
#
#
# Indices 1 2 3 4 5 6 
#
# 1 73.5902 66.8422 54.0010 0.0000 -1.3090 0.0000
# 2 66.8422 129.5532 63.2044 0.0000 -7.7514 0.0000
# 3 54.0010 63.2044 172.3761 0.0000 -6.8154 0.0000
# 4 0.0000 0.0000 0.0000 27.2170 0.0000 -15.4130
# 5 -1.3090 -7.7514 -6.8154 0.0000 51.6739 0.0000
# 6 0.0000 0.0000 0.0000 -15.4130 0.0000 25.2642
#
#
#
# Elastic Compliance Matrix: (Units=1/GPa)
#
#
# Indices 1 2 3 4 5 6 
#
# 1 0.028029 -0.012480 -0.004273 0.000000 -0.001726 0.000000
# 2 -0.012480 0.015005 -0.001524 0.000000 0.001734 0.000000
# 3 -0.004273 -0.001524 0.007726 0.000000 0.000682 0.000000
# 4 0.000000 0.000000 0.000000 0.056136 0.000000 0.034247
# 5 -0.001726 0.001734 0.000682 0.000000 0.019658 0.000000
# 6 0.000000 0.000000 0.000000 0.034247 0.000000 0.060475
#
#
# Mechanical properties :
#
#
# Convention : Reuss Voigt Hill
#
# Bulk Modulus (GPa) = 70.39125 82.62385 76.50755
# Shear Modulus (GPa) = 21.89925 33.59581 27.74753
#
# Velocity S-wave (km/s) = 3.07335 3.80663 3.45947
# Velocity P-wave (km/s) = 6.55399 7.41333 6.99687
#
# Compressibility (1/GPa) = 0.01420631
#
# Stress axis : x y z
#
# Youngs Moduli (GPa) = 35.67675 66.64483 129.44137
#
# Poissons Ratio (x) = 0.83174 0.55311
# Poissons Ratio (y) = 0.44525 0.19721
# Poissons Ratio (z) = 0.15245 0.10153
#
# Static dielectric constant tensor:
#      x y z
#    x 1.927770 0.000000 0.014610 
#    y 0.000000 1.859310 0.000000 
#    z 0.014610 0.000000 1.866080 
# 
# From -- ./inp_files/35105.got.cif
#   From: 2010.05.17/outbox.cif.g08.bks.cpg/sg5_18_cif.got.tgz:35105.got - 2010.06.03 18:56:24.
