data_PCOD9128889
_publ_section_title
;
Structure prediction by ZEFSAII (Michael W. Deem and Ramdas Pophale) SiO2 
 PCOD9128889
Probable space group: C 2
;
_chemical_formula_sum "Si O2"
_cell_formula_units_Z 20
_cell_length_a 5.216215
_cell_length_b 28.919745
_cell_length_c 6.210016
_cell_angle_alpha 90.000000
_cell_angle_beta 78.876547
_cell_angle_gamma 90.000000
_cell_volume 919.192134
_symmetry_space_group_name_H-M "C 2"
_symmetry_group_IT_number 5
_symmetry_cell_setting 'monoclinic'
loop_
_space_group_symop_operation_xyz
x,y,z
-x,y,-z
1/2+x,1/2+y,z
1/2-x,1/2+y,-z
loop_
_atom_site_type_symbol
_atom_site_label
_atom_site_fract_x
_atom_site_fract_y
_atom_site_fract_z
Si Si1 0.000000 0.597800 0.500000
Si Si2 0.222718 0.935340 0.641372
Si Si3 0.289270 0.738518 0.853406
Si Si4 0.500000 0.661803 0.500000
Si Si5 0.620530 0.332716 0.730548
Si Si6 0.268879 0.027318 0.878266
O O1 0.749784 0.629899 0.502604
O O2 0.916732 0.563451 0.703059
O O3 0.500000 0.947061 0.500000
O O4 0.248443 0.883540 0.730583
O O5 0.000000 0.933213 0.500000
O O6 0.164820 0.979837 0.792325
O O7 0.409556 0.695303 0.707796
O O8 0.264738 0.783607 0.706546
O O9 0.500000 0.751215 0.000000
O O10 0.000000 0.728183 0.000000
O O11 0.500000 0.334077 0.500000
O O12 0.500000 0.329329 0.000000
O O13 0.500000 0.012762 0.000000
O O14 0.000000 0.050918 0.000000
#
# Coordination Sequence:
#
# PCOD9128889 Si02
#       6
#     2   4   4   2   4   4
#     4  12  28  48  69 110 139 188 246 318 372 446
#     4  11  24  44  73 107 148 190 241 297 364 448
#     4  11  27  46  75 108 145 193 247 306 372 451
#     4  12  28  46  77  98 147 186 250 308 384 440
#     4  10  25  46  75 113 154 200 249 304 372 452
#     4  12  26  45  75 105 144 192 243 303 372 445
#
# _framework density 21.758234000000002
#
# number of rings (size 3 to 8) (size 9 to 14) (size 15 to 20)
#    0.000    0.800    1.000    4.200    9.800   10.400 
#    0.000    0.000    0.000    0.000    0.000    0.000 
#    0.000    0.000    0.000    0.000    0.000    0.000 
#
# Total GULP energy -55692.920423 kJ/mol
# GULP energy per Si atom -5569.292042 kJ/mol
# Density = 2.170871 g / cm^3
# Si number density = 21.758234 Si / 1000 Ang^3
#
#
#
# Elastic Constant Matrix: (Units=GPa)
#
#
# Indices 1 2 3 4 5 6 
#
# 1 140.9093 36.4836 42.8035 0.0000 -10.6413 0.0000
# 2 36.4836 158.5230 41.4597 0.0000 5.3924 0.0000
# 3 42.8035 41.4597 92.7508 0.0000 -10.1410 0.0000
# 4 0.0000 0.0000 0.0000 -538.3036 0.0000 -531.3641
# 5 -10.6413 5.3924 -10.1410 0.0000 46.0191 0.0000
# 6 0.0000 0.0000 0.0000 -531.3641 0.0000 -465.7260
#
#
#
# Elastic Compliance Matrix: (Units=1/GPa)
#
#
# Indices 1 2 3 4 5 6 
#
# 1 0.008486 -0.001150 -0.003252 0.000000 0.001381 0.000000
# 2 -0.001150 0.007413 -0.002979 0.000000 -0.001791 0.000000
# 3 -0.003252 -0.002979 0.013905 0.000000 0.002661 0.000000
# 4 0.000000 0.000000 0.000000 0.014717 0.000000 -0.016791
# 5 0.001381 -0.001791 0.002661 0.000000 0.022846 0.000000
# 6 0.000000 0.000000 0.000000 -0.016791 0.000000 0.017010
#
#
# Mechanical properties :
#
#
# Convention : Reuss Voigt Hill
#
# Bulk Modulus (GPa) = 66.47238 70.40854 68.44046
# Shear Modulus (GPa) = 48.00715 -173.50637 -62.74961
#
# Velocity S-wave (km/s) = 4.70232 -8.93957 -5.37607
# Velocity P-wave (km/s) = 7.75237 8.60958 2.64818
#
# Compressibility (1/GPa) = 0.01504384
#
# Stress axis : x y z
#
# Youngs Moduli (GPa) = 117.83561 134.90160 71.91861
#
# Poissons Ratio (x) = 0.15509 0.23385
# Poissons Ratio (y) = 0.13547 0.21423
# Poissons Ratio (z) = 0.38315 0.40184
#
# Static dielectric constant tensor:
#      x y z
#    x 3.055220 0.000000 0.164890 
#    y 0.000000 1.791930 0.000000 
#    z 0.164890 0.000000 1.923180 
# 
# From -- ./inp_files/1104.got.cif
#   From: 2010.05.17/outbox.cif.g08.bks.cpg/sg5_1_cif.got.tgz:1104.got - 2010.06.03 18:56:24.
