data_PCOD9128731
_publ_section_title
;
Structure prediction by ZEFSAII (Michael W. Deem and Ramdas Pophale) SiO2 
 PCOD9128731
Probable space group: C 2
;
_chemical_formula_sum "Si O2"
_cell_formula_units_Z 20
_cell_length_a 16.698688
_cell_length_b 7.323634
_cell_length_c 7.874764
_cell_angle_alpha 90.000000
_cell_angle_beta 134.963585
_cell_angle_gamma 90.000000
_cell_volume 681.408235
_symmetry_space_group_name_H-M "C 2"
_symmetry_group_IT_number 5
_symmetry_cell_setting 'monoclinic'
loop_
_space_group_symop_operation_xyz
x,y,z
-x,y,-z
1/2+x,1/2+y,z
1/2-x,1/2+y,-z
loop_
_atom_site_type_symbol
_atom_site_label
_atom_site_fract_x
_atom_site_fract_y
_atom_site_fract_z
Si Si1 0.127388 0.436610 0.649672
Si Si2 0.638140 0.567706 0.482446
Si Si3 0.648853 0.620774 0.123720
Si Si4 0.645691 0.352499 0.836057
Si Si5 0.607453 0.050374 0.052902
O O1 0.100367 0.267879 0.484604
O O2 0.217506 0.356903 0.924185
O O3 0.000000 0.493562 0.500000
O O4 0.888044 0.666667 0.116676
O O5 0.614116 0.531965 0.250326
O O6 0.618439 0.422386 0.605727
O O7 0.774261 0.599263 0.684698
O O8 0.598718 0.510769 0.889432
O O9 0.785438 0.583326 0.303352
O O10 0.611782 0.829816 0.065924
O O11 0.500000 0.108598 0.000000
#
# Coordination Sequence:
#
# PCOD9128731 Si02
#       5
#     4   4   4   4   4
#     4   9  22  48  75 111 158 201 264 331 403 474
#     4  11  23  49  74 112 153 208 260 330 393 478
#     4  10  24  48  78 108 161 207 261 332 400 467
#     4   9  25  48  77 109 163 197 271 326 401 468
#     4  11  26  49  78 116 161 213 266 329 405 483
#
# _framework density 29.350978000000001
#
# number of rings (size 3 to 8) (size 9 to 14) (size 15 to 20)
#    1.200    0.800    0.000    1.200    5.600    4.000 
#    3.600    4.000    0.000    4.800    0.000    0.000 
#    0.000    0.000    0.000    0.000    0.000    0.000 
#
# Total GULP energy -55961.761916 kJ/mol
# GULP energy per Si atom -5596.176192 kJ/mol
# Density = 2.928417 g / cm^3
# Si number density = 29.350978 Si / 1000 Ang^3
#
#
#
# Elastic Constant Matrix: (Units=GPa)
#
#
# Indices 1 2 3 4 5 6 
#
# 1 252.6026 72.5174 99.7732 0.0000 -10.8967 0.0000
# 2 72.5174 201.9408 64.5259 0.0000 -10.3106 0.0000
# 3 99.7732 64.5259 185.7515 0.0000 -28.1356 0.0000
# 4 0.0000 0.0000 0.0000 81.4295 0.0000 43.5353
# 5 -10.8967 -10.3106 -28.1356 0.0000 56.7117 0.0000
# 6 0.0000 0.0000 0.0000 43.5353 0.0000 76.9145
#
#
#
# Elastic Compliance Matrix: (Units=1/GPa)
#
#
# Indices 1 2 3 4 5 6 
#
# 1 0.005245 -0.001107 -0.002498 0.000000 -0.000433 0.000000
# 2 -0.001107 0.005804 -0.001399 0.000000 0.000148 0.000000
# 3 -0.002498 -0.001399 0.007677 0.000000 0.003074 0.000000
# 4 0.000000 0.000000 0.000000 0.017610 0.000000 -0.009967
# 5 -0.000433 0.000148 0.003074 0.000000 0.019102 0.000000
# 6 0.000000 0.000000 0.000000 -0.009967 0.000000 0.018643
#
#
# Mechanical properties :
#
#
# Convention : Reuss Voigt Hill
#
# Bulk Modulus (GPa) = 114.71573 123.76978 119.24275
# Shear Modulus (GPa) = 57.47462 69.90968 63.69215
#
# Velocity S-wave (km/s) = 4.42994 4.88572 4.66340
# Velocity P-wave (km/s) = 8.08299 8.60740 8.34932
#
# Compressibility (1/GPa) = 0.00871720
#
# Stress axis : x y z
#
# Youngs Moduli (GPa) = 190.67022 172.28987 130.26022
#
# Poissons Ratio (x) = 0.19077 0.32539
# Poissons Ratio (y) = 0.21113 0.18223
# Poissons Ratio (z) = 0.47629 0.24103
#
# Static dielectric constant tensor:
#      x y z
#    x 2.368870 0.000000 0.046010 
#    y 0.000000 2.295270 0.000000 
#    z 0.046010 0.000000 2.079390 
# 
# From -- ./inp_files/29048.got.cif
#   From: 2010.05.17/outbox.cif.g08.bks.cpg/sg5_15_cif.got.tgz:29048.got - 2010.06.03 18:56:24.
