data_PCOD9128205
_publ_section_title
;
Structure prediction by ZEFSAII (Michael W. Deem and Ramdas Pophale) SiO2 
 PCOD9128205
Probable space group: C 2
;
_chemical_formula_sum "Si O2"
_cell_formula_units_Z 14
_cell_length_a 12.327036
_cell_length_b 7.134098
_cell_length_c 7.046757
_cell_angle_alpha 90.000000
_cell_angle_beta 55.795554
_cell_angle_gamma 90.000000
_cell_volume 512.521333
_symmetry_space_group_name_H-M "C 2"
_symmetry_group_IT_number 5
_symmetry_cell_setting 'monoclinic'
loop_
_space_group_symop_operation_xyz
x,y,z
-x,y,-z
1/2+x,1/2+y,z
1/2-x,1/2+y,-z
loop_
_atom_site_type_symbol
_atom_site_label
_atom_site_fract_x
_atom_site_fract_y
_atom_site_fract_z
Si Si1 0.354757 0.460530 0.082409
Si Si2 0.143836 0.552321 0.569686
Si Si3 0.140360 0.942512 0.358332
Si Si4 0.000000 0.331243 0.000000
O O1 0.224817 0.435357 0.333946
O O2 0.382007 0.683812 0.087680
O O3 0.500000 0.380002 0.000000
O O4 0.330926 0.412122 0.889603
O O5 0.116704 0.752269 0.502722
O O6 0.245354 0.551203 0.646610
O O7 0.021585 0.451704 0.789466
O O8 0.000000 0.046727 0.500000
#
# Coordination Sequence:
#
# PCOD9128205 Si02
#       4
#     4   4   4   2
#     4  10  23  51  79 115 167 215 262 342 409 480
#     4  12  26  51  83 124 157 220 279 331 415 498
#     4  12  26  51  80 118 168 214 270 344 410 489
#     4  10  24  54  82 118 166 210 278 334 410 488
#
# _framework density 27.315933999999999
#
# number of rings (size 3 to 8) (size 9 to 14) (size 15 to 20)
#    0.857    0.000    5.714    0.000    0.000    6.857 
#    5.143    0.000    0.000    0.000    0.000    0.000 
#    0.000    0.000    0.000    0.000    0.000    0.000 
#
# Total GULP energy -39190.796803 kJ/mol
# GULP energy per Si atom -5598.685258 kJ/mol
# Density = 2.725376 g / cm^3
# Si number density = 27.315934 Si / 1000 Ang^3
#
#
#
# Elastic Constant Matrix: (Units=GPa)
#
#
# Indices 1 2 3 4 5 6 
#
# 1 104.7035 -18.1568 13.8200 0.0000 22.9202 0.0000
# 2 -18.1568 127.8263 26.4324 0.0000 6.4888 0.0000
# 3 13.8200 26.4324 221.3318 0.0000 6.2576 0.0000
# 4 0.0000 0.0000 0.0000 34.5002 0.0000 16.0507
# 5 22.9202 6.4888 6.2576 0.0000 66.6572 0.0000
# 6 0.0000 0.0000 0.0000 16.0507 0.0000 16.9221
#
#
#
# Elastic Compliance Matrix: (Units=1/GPa)
#
#
# Indices 1 2 3 4 5 6 
#
# 1 0.010823 0.001896 -0.000794 0.000000 -0.003832 0.000000
# 2 0.001896 0.008385 -0.001081 0.000000 -0.001367 0.000000
# 3 -0.000794 -0.001081 0.004699 0.000000 -0.000063 0.000000
# 4 0.000000 0.000000 0.000000 0.051878 0.000000 -0.049207
# 5 -0.003832 -0.001367 -0.000063 0.000000 0.016459 0.000000
# 6 0.000000 0.000000 0.000000 -0.049207 0.000000 0.105767
#
#
# Mechanical properties :
#
#
# Convention : Reuss Voigt Hill
#
# Bulk Modulus (GPa) = 41.75550 55.33922 48.54736
# Shear Modulus (GPa) = 24.27750 52.40029 38.33889
#
# Velocity S-wave (km/s) = 2.98445 4.38460 3.75044
# Velocity P-wave (km/s) = 5.21491 6.77760 6.04695
#
# Compressibility (1/GPa) = 0.02394894
#
# Stress axis : x y z
#
# Youngs Moduli (GPa) = 92.39490 119.25523 212.83076
#
# Poissons Ratio (x) = -0.22611 0.16897
# Poissons Ratio (y) = -0.17518 0.23011
# Poissons Ratio (z) = 0.07335 0.12893
#
# Static dielectric constant tensor:
#      x y z
#    x 2.152080 0.000000 -0.074440 
#    y 0.000000 2.177010 0.000000 
#    z -0.074440 0.000000 2.108990 
# 
# From -- ./inp_files/4152.got.cif
#   From: 2010.05.17/outbox.cif.g08.bks.cpg/sg5_3_cif.got.tgz:4152.got - 2010.06.03 18:56:24.
