data_PCOD9128580
_publ_section_title
;
Structure prediction by ZEFSAII (Michael W. Deem and Ramdas Pophale) SiO2 
 PCOD9128580
Probable space group: C 2
;
_chemical_formula_sum "Si O2"
_cell_formula_units_Z 14
_cell_length_a 5.367714
_cell_length_b 16.174713
_cell_length_c 7.279514
_cell_angle_alpha 90.000000
_cell_angle_beta 108.394009
_cell_angle_gamma 90.000000
_cell_volume 599.726042
_symmetry_space_group_name_H-M "C 2"
_symmetry_group_IT_number 5
_symmetry_cell_setting 'monoclinic'
loop_
_space_group_symop_operation_xyz
x,y,z
-x,y,-z
1/2+x,1/2+y,z
1/2-x,1/2+y,-z
loop_
_atom_site_type_symbol
_atom_site_label
_atom_site_fract_x
_atom_site_fract_y
_atom_site_fract_z
Si Si1 0.830103 0.873550 0.734371
Si Si2 0.708746 0.696812 0.881905
Si Si3 0.182625 0.439348 0.320507
Si Si4 0.500000 0.591960 0.500000
O O1 0.792142 0.784332 0.811864
O O2 0.761324 0.026648 0.427355
O O3 0.622208 0.933067 0.784913
O O4 0.745890 0.874632 0.499945
O O5 0.620297 0.411787 0.793403
O O6 0.500000 0.707409 0.000000
O O7 0.000000 0.659066 0.000000
O O8 0.453862 0.646717 0.309964
#
# Coordination Sequence:
#
# PCOD9128580 Si02
#       4
#     4   4   4   2
#     4   9  18  38  60  91 125 158 221 263 303 386
#     4  12  27  43  67 102 134 177 222 268 337 402
#     4   9  19  38  70  93 118 179 217 261 337 373
#     4  10  24  46  68  94 144 172 212 284 332 396
#
# _framework density 23.343995
#
# number of rings (size 3 to 8) (size 9 to 14) (size 15 to 20)
#    0.000    2.286    0.000    3.429    0.000   12.571 
#    0.000   18.571    0.000    0.000    0.000    0.000 
#    0.000    0.000    0.000    0.000    0.000    0.000 
#
# Total GULP energy -39011.184299 kJ/mol
# GULP energy per Si atom -5573.026328 kJ/mol
# Density = 2.329086 g / cm^3
# Si number density = 23.343995 Si / 1000 Ang^3
#
#
#
# Elastic Constant Matrix: (Units=GPa)
#
#
# Indices 1 2 3 4 5 6 
#
# 1 226.5514 46.5040 67.7977 0.0000 -36.3595 0.0000
# 2 46.5040 107.5297 66.3086 0.0000 -13.0938 0.0000
# 3 67.7977 66.3086 159.0819 0.0000 2.8630 0.0000
# 4 0.0000 0.0000 0.0000 -40.8650 0.0000 18.4434
# 5 -36.3595 -13.0938 2.8630 0.0000 18.2378 0.0000
# 6 0.0000 0.0000 0.0000 18.4434 0.0000 -2.0336
#
#
#
# Elastic Compliance Matrix: (Units=1/GPa)
#
#
# Indices 1 2 3 4 5 6 
#
# 1 0.008464 0.001390 -0.004521 0.000000 0.018581 0.000000
# 2 0.001390 0.014791 -0.007019 0.000000 0.014493 0.000000
# 3 -0.004521 -0.007019 0.011423 0.000000 -0.015845 0.000000
# 4 0.000000 0.000000 0.000000 0.007911 0.000000 0.071748
# 5 0.018581 0.014493 -0.015845 0.000000 0.104768 0.000000
# 6 0.000000 0.000000 0.000000 0.071748 0.000000 0.158972
#
#
# Mechanical properties :
#
#
# Convention : Reuss Voigt Hill
#
# Bulk Modulus (GPa) = 69.54222 94.93148 82.23685
# Shear Modulus (GPa) = 15.08652 15.90470 15.49561
#
# Velocity S-wave (km/s) = 2.54494 2.61304 2.57922
# Velocity P-wave (km/s) = 6.20407 7.06106 6.64639
#
# Compressibility (1/GPa) = 0.01437975
#
# Stress axis : x y z
#
# Youngs Moduli (GPa) = 118.15132 67.60691 87.53907
#
# Poissons Ratio (x) = -0.09398 0.39576
# Poissons Ratio (y) = -0.16424 0.61440
# Poissons Ratio (z) = 0.53415 0.47451
#
# Static dielectric constant tensor:
#      x y z
#    x 1.992070 0.000000 0.016380 
#    y 0.000000 1.892040 0.000000 
#    z 0.016380 0.000000 1.941780 
# 
# From -- ./inp_files/11516.got.cif
#   From: 2010.05.17/outbox.cif.g08.bks.cpg/sg5_6_cif.got.tgz:11516.got - 2010.06.03 18:56:24.
