data_PCOD9128310
_publ_section_title
;
Structure prediction by ZEFSAII (Michael W. Deem and Ramdas Pophale) SiO2 
 PCOD9128310
Probable space group: C 2
;
_chemical_formula_sum "Si O2"
_cell_formula_units_Z 26
_cell_length_a 12.289767
_cell_length_b 7.569362
_cell_length_c 15.213930
_cell_angle_alpha 90.000000
_cell_angle_beta 129.306980
_cell_angle_gamma 90.000000
_cell_volume 1095.096325
_symmetry_space_group_name_H-M "C 2"
_symmetry_group_IT_number 5
_symmetry_cell_setting 'monoclinic'
loop_
_space_group_symop_operation_xyz
x,y,z
-x,y,-z
1/2+x,1/2+y,z
1/2-x,1/2+y,-z
loop_
_atom_site_type_symbol
_atom_site_label
_atom_site_fract_x
_atom_site_fract_y
_atom_site_fract_z
Si Si1 0.805722 0.780320 0.641950
Si Si2 0.353925 0.716832 0.268229
Si Si3 0.248537 0.932143 0.051883
Si Si4 0.162098 0.368176 0.390294
Si Si5 0.401472 0.239385 0.171461
Si Si6 0.000000 0.176608 0.000000
Si Si7 0.240373 0.319732 0.241077
O O1 0.695792 0.798806 0.664287
O O2 0.843684 0.574259 0.640633
O O3 0.755399 0.860681 0.525415
O O4 0.954873 0.844515 0.754592
O O5 0.273046 0.791128 0.141537
O O6 0.516233 0.768700 0.336458
O O7 0.308132 0.512880 0.258026
O O8 0.388440 0.051599 0.117337
O O9 0.115032 0.050901 0.011908
O O10 0.211775 0.852699 0.939572
O O11 0.230195 0.281093 0.338554
O O12 0.349245 0.198722 0.243012
O O13 0.090276 0.287187 0.117379
#
# Coordination Sequence:
#
# PCOD9128310 Si02
#       7
#     4   4   4   4   4   2   4
#     4  11  26  46  71 100 140 184 243 288 361 421
#     4  11  24  46  71 101 138 191 232 302 357 424
#     4  11  23  41  71 102 147 181 237 297 363 426
#     4  11  26  47  68 101 141 189 240 292 351 432
#     4  11  24  43  68 108 136 187 233 296 362 427
#     4  10  24  42  64 108 144 188 242 292 362 430
#     4  10  26  42  70 101 143 183 241 289 361 425
#
# _framework density 23.742204000000001
#
# number of rings (size 3 to 8) (size 9 to 14) (size 15 to 20)
#    0.000    1.231    1.538    2.308    8.615    6.154 
#    2.769    0.000    0.000    0.000    0.000    0.000 
#    0.000    0.000    0.000    0.000    0.000    0.000 
#
# Total GULP energy -72681.208290 kJ/mol
# GULP energy per Si atom -5590.862176 kJ/mol
# Density = 2.368817 g / cm^3
# Si number density = 23.742204 Si / 1000 Ang^3
#
#
#
# Elastic Constant Matrix: (Units=GPa)
#
#
# Indices 1 2 3 4 5 6 
#
# 1 125.4883 22.7487 39.2798 0.0000 -16.8174 0.0000
# 2 22.7487 30.6875 26.0437 0.0000 7.8384 0.0000
# 3 39.2798 26.0437 111.6895 0.0000 -20.8976 0.0000
# 4 0.0000 0.0000 0.0000 38.4986 0.0000 -4.2982
# 5 -16.8174 7.8384 -20.8976 0.0000 38.3644 0.0000
# 6 0.0000 0.0000 0.0000 -4.2982 0.0000 38.3425
#
#
#
# Elastic Compliance Matrix: (Units=1/GPa)
#
#
# Indices 1 2 3 4 5 6 
#
# 1 0.010590 -0.009079 -0.000436 0.000000 0.006260 0.000000
# 2 -0.009079 0.057972 -0.014793 0.000000 -0.023883 0.000000
# 3 -0.000436 -0.014793 0.014571 0.000000 0.010768 0.000000
# 4 0.000000 0.000000 0.000000 0.026304 0.000000 0.002949
# 5 0.006260 -0.023883 0.010768 0.000000 0.039555 0.000000
# 6 0.000000 0.000000 0.000000 0.002949 0.000000 0.026411
#
#
# Mechanical properties :
#
#
# Convention : Reuss Voigt Hill
#
# Bulk Modulus (GPa) = 28.97225 49.33440 39.15333
# Shear Modulus (GPa) = 21.22900 35.02731 28.12816
#
# Velocity S-wave (km/s) = 2.99347 3.84515 3.44573
# Velocity P-wave (km/s) = 4.91703 6.36694 5.68837
#
# Compressibility (1/GPa) = 0.03451579
#
# Stress axis : x y z
#
# Youngs Moduli (GPa) = 94.42684 17.24967 68.62910
#
# Poissons Ratio (x) = 0.15662 0.02993
# Poissons Ratio (y) = 0.85734 1.01525
# Poissons Ratio (z) = 0.04118 0.25518
#
# Static dielectric constant tensor:
#      x y z
#    x 1.888250 0.000000 0.026600 
#    y 0.000000 2.001200 0.000000 
#    z 0.026600 0.000000 1.879910 
# 
# From -- ./inp_files/54315.got.cif
#   From: 2010.05.17/outbox.cif.g08.bks.cpg/sg5_28_cif.got.tgz:54315.got - 2010.06.03 18:56:24.
