data_PCOD9128576
_publ_section_title
;
Structure prediction by ZEFSAII (Michael W. Deem and Ramdas Pophale) SiO2 
 PCOD9128576
Probable space group: C 2
;
_chemical_formula_sum "Si O2"
_cell_formula_units_Z 14
_cell_length_a 10.565771
_cell_length_b 8.030310
_cell_length_c 9.182801
_cell_angle_alpha 90.000000
_cell_angle_beta 135.838677
_cell_angle_gamma 90.000000
_cell_volume 542.803506
_symmetry_space_group_name_H-M "C 2"
_symmetry_group_IT_number 5
_symmetry_cell_setting 'monoclinic'
loop_
_space_group_symop_operation_xyz
x,y,z
-x,y,-z
1/2+x,1/2+y,z
1/2-x,1/2+y,-z
loop_
_atom_site_type_symbol
_atom_site_label
_atom_site_fract_x
_atom_site_fract_y
_atom_site_fract_z
Si Si1 0.494086 0.929160 0.168134
Si Si2 0.718632 0.594608 0.426292
Si Si3 0.788907 0.853473 0.843962
Si Si4 0.000000 0.083308 0.500000
O O1 0.615998 0.768376 0.315100
O O2 0.293167 0.902351 0.067230
O O3 0.588721 0.080980 0.332857
O O4 0.500000 0.941801 0.000000
O O5 0.742613 0.505196 0.293039
O O6 0.582067 0.497186 0.425769
O O7 0.664188 0.701726 0.687467
O O8 0.000000 0.817500 0.000000
#
# Coordination Sequence:
#
# PCOD9128576 Si02
#       4
#     4   4   4   2
#     4  11  26  50  76 113 148 201 254 304 384 447
#     4  11  22  50  73 105 156 188 251 313 363 452
#     4  11  23  48  73 105 151 194 245 315 369 445
#     4  10  24  46  68 110 150 188 250 312 370 440
#
# _framework density 25.792020999999998
#
# number of rings (size 3 to 8) (size 9 to 14) (size 15 to 20)
#    0.000    1.143    5.714    0.857    4.000    1.143 
#   20.571    0.000    0.000    0.000    0.000    0.000 
#    0.000    0.000    0.000    0.000    0.000    0.000 
#
# Total GULP energy -39176.071992 kJ/mol
# GULP energy per Si atom -5596.581713 kJ/mol
# Density = 2.573332 g / cm^3
# Si number density = 25.792021 Si / 1000 Ang^3
#
#
#
# Elastic Constant Matrix: (Units=GPa)
#
#
# Indices 1 2 3 4 5 6 
#
# 1 259.8982 45.2639 92.4384 0.0000 0.8044 0.0000
# 2 45.2639 61.6774 33.1942 0.0000 -6.3123 0.0000
# 3 92.4384 33.1942 156.1983 0.0000 11.0949 0.0000
# 4 0.0000 0.0000 0.0000 24.0705 0.0000 2.1559
# 5 0.8044 -6.3123 11.0949 0.0000 62.6534 0.0000
# 6 0.0000 0.0000 0.0000 2.1559 0.0000 37.1647
#
#
#
# Elastic Compliance Matrix: (Units=1/GPa)
#
#
# Indices 1 2 3 4 5 6 
#
# 1 0.005178 -0.002406 -0.002563 0.000000 0.000145 0.000000
# 2 -0.002406 0.019841 -0.002975 0.000000 0.002557 0.000000
# 3 -0.002563 -0.002975 0.008679 0.000000 -0.001804 0.000000
# 4 0.000000 0.000000 0.000000 0.041762 0.000000 -0.002423
# 5 0.000145 0.002557 -0.001804 0.000000 0.016536 0.000000
# 6 0.000000 0.000000 0.000000 -0.002423 0.000000 0.027048
#
#
# Mechanical properties :
#
#
# Convention : Reuss Voigt Hill
#
# Bulk Modulus (GPa) = 56.14299 91.06301 73.60300
# Shear Modulus (GPa) = 35.49423 45.23621 40.36522
#
# Velocity S-wave (km/s) = 3.71370 4.19248 3.96033
# Velocity P-wave (km/s) = 6.34063 7.66937 7.03643
#
# Compressibility (1/GPa) = 0.01781166
#
# Stress axis : x y z
#
# Youngs Moduli (GPa) = 193.12935 50.39995 115.21555
#
# Poissons Ratio (x) = 0.12124 0.29534
# Poissons Ratio (y) = 0.46458 0.34271
# Poissons Ratio (z) = 0.49506 0.14992
#
# Static dielectric constant tensor:
#      x y z
#    x 2.032540 0.000000 -0.006930 
#    y 0.000000 2.073940 0.000000 
#    z -0.006930 0.000000 2.042170 
# 
# From -- ./inp_files/18436.got.cif
#   From: 2010.05.17/outbox.cif.g08.bks.cpg/sg5_10_cif.got.tgz:18436.got - 2010.06.03 18:56:24.
