data_PCOD9128181
_publ_section_title
;
Structure prediction by ZEFSAII (Michael W. Deem and Ramdas Pophale) SiO2 
 PCOD9128181
Probable space group: C 2
;
_chemical_formula_sum "Si O2"
_cell_formula_units_Z 28
_cell_length_a 16.134941
_cell_length_b 6.591860
_cell_length_c 13.505741
_cell_angle_alpha 90.000000
_cell_angle_beta 56.571208
_cell_angle_gamma 90.000000
_cell_volume 1198.828703
_symmetry_space_group_name_H-M "C 2"
_symmetry_group_IT_number 5
_symmetry_cell_setting 'monoclinic'
loop_
_space_group_symop_operation_xyz
x,y,z
-x,y,-z
1/2+x,1/2+y,z
1/2-x,1/2+y,-z
loop_
_atom_site_type_symbol
_atom_site_label
_atom_site_fract_x
_atom_site_fract_y
_atom_site_fract_z
Si Si1 0.812997 0.623390 0.837046
Si Si2 0.508351 0.386744 0.332369
Si Si3 0.000000 0.165184 0.500000
Si Si4 0.611804 0.739191 0.613397
Si Si5 0.843160 0.464085 0.035207
Si Si6 0.673589 0.166662 0.600679
Si Si7 0.000000 0.165654 0.000000
Si Si8 0.669133 0.353960 0.819281
O O1 0.807921 0.538426 0.951174
O O2 0.772267 0.451823 0.790517
O O3 0.922010 0.714241 0.753703
O O4 0.742569 0.816960 0.868714
O O5 0.557691 0.506204 0.391029
O O6 0.468677 0.578168 0.293531
O O7 0.404084 0.275690 0.421723
O O8 0.932429 0.284445 0.467891
O O9 0.720317 0.646022 0.521504
O O10 0.629796 0.946717 0.656563
O O11 0.939798 0.320078 0.968487
O O12 0.855823 0.657677 0.097379
O O13 0.678978 0.289245 0.699331
O O14 0.917462 0.019235 0.103528
#
# Coordination Sequence:
#
# PCOD9128181 Si02
#       8
#     4   4   2   4   4   4   2   4
#     4  11  25  47  72 108 146 192 246 293 360 421
#     4  10  25  44  71 107 140 194 237 297 352 440
#     4   8  22  46  68  98 142 184 238 282 356 426
#     4  10  23  49  69 104 141 189 233 305 353 439
#     4  11  24  47  75 101 155 189 237 305 346 437
#     4  12  25  45  74 104 145 183 242 299 370 420
#     4  10  26  48  70 102 148 194 238 296 358 426
#     4  11  27  46  73 110 140 197 241 300 358 436
#
# _framework density 23.356133
#
# number of rings (size 3 to 8) (size 9 to 14) (size 15 to 20)
#    0.857    0.571    2.857    0.429    6.000    6.286 
#    0.000    0.000    0.000    0.000    0.000    0.000 
#    0.000    0.000    0.000    0.000    0.000    0.000 
#
# Total GULP energy -78128.772454 kJ/mol
# GULP energy per Si atom -5580.626604 kJ/mol
# Density = 2.330297 g / cm^3
# Si number density = 23.356133 Si / 1000 Ang^3
#
#
#
# Elastic Constant Matrix: (Units=GPa)
#
#
# Indices 1 2 3 4 5 6 
#
# 1 96.5614 47.2743 26.5064 0.0000 -4.9546 0.0000
# 2 47.2743 140.0247 36.7343 0.0000 3.3238 0.0000
# 3 26.5064 36.7343 46.3099 0.0000 7.1362 0.0000
# 4 0.0000 0.0000 0.0000 23.1220 0.0000 1.8205
# 5 -4.9546 3.3238 7.1362 0.0000 36.2764 0.0000
# 6 0.0000 0.0000 0.0000 1.8205 0.0000 52.8992
#
#
#
# Elastic Compliance Matrix: (Units=1/GPa)
#
#
# Indices 1 2 3 4 5 6 
#
# 1 0.013675 -0.003167 -0.005824 0.000000 0.003304 0.000000
# 2 -0.003167 0.009765 -0.005907 0.000000 -0.000165 0.000000
# 3 -0.005824 -0.005907 0.030579 0.000000 -0.006269 0.000000
# 4 0.000000 0.000000 0.000000 0.043366 0.000000 -0.001492
# 5 0.003304 -0.000165 -0.006269 0.000000 0.029266 0.000000
# 6 0.000000 0.000000 0.000000 -0.001492 0.000000 0.018955
#
#
# Mechanical properties :
#
#
# Convention : Reuss Voigt Hill
#
# Bulk Modulus (GPa) = 41.28518 55.99178 48.63848
# Shear Modulus (GPa) = 27.25154 33.95161 30.60157
#
# Velocity S-wave (km/s) = 3.41953 3.81681 3.62362
# Velocity P-wave (km/s) = 5.77110 6.59160 6.19495
#
# Compressibility (1/GPa) = 0.02422177
#
# Stress axis : x y z
#
# Youngs Moduli (GPa) = 73.12647 102.41095 32.70249
#
# Poissons Ratio (x) = 0.32438 0.19045
# Poissons Ratio (y) = 0.23163 0.19318
# Poissons Ratio (z) = 0.42586 0.60495
#
# Static dielectric constant tensor:
#      x y z
#    x 1.895890 0.000000 -0.027670 
#    y 0.000000 1.915200 0.000000 
#    z -0.027670 0.000000 1.889650 
# 
# From -- ./inp_files/55258.got.cif
#   From: 2010.05.17/outbox.cif.g08.bks.cpg/sg5_28_cif.got.tgz:55258.got - 2010.06.03 18:56:24.
