data_PCOD9128642
_publ_section_title
;
Structure prediction by ZEFSAII (Michael W. Deem and Ramdas Pophale) SiO2 
 PCOD9128642
Probable space group: C 2
;
_chemical_formula_sum "Si O2"
_cell_formula_units_Z 22
_cell_length_a 4.830074
_cell_length_b 13.306712
_cell_length_c 13.763400
_cell_angle_alpha 90.000000
_cell_angle_beta 112.372587
_cell_angle_gamma 90.000000
_cell_volume 818.020898
_symmetry_space_group_name_H-M "C 2"
_symmetry_group_IT_number 5
_symmetry_cell_setting 'monoclinic'
loop_
_space_group_symop_operation_xyz
x,y,z
-x,y,-z
1/2+x,1/2+y,z
1/2-x,1/2+y,-z
loop_
_atom_site_type_symbol
_atom_site_label
_atom_site_fract_x
_atom_site_fract_y
_atom_site_fract_z
Si Si1 0.197899 0.698110 0.931386
Si Si2 0.500000 0.735931 0.500000
Si Si3 0.944491 0.986943 0.887280
Si Si4 0.006215 0.739458 0.703142
Si Si5 0.697984 0.940144 0.246615
Si Si6 0.739166 0.066959 0.602135
O O1 0.351852 0.600748 0.901435
O O2 0.978961 0.734614 0.816188
O O3 0.500000 0.759849 0.000000
O O4 0.000000 0.678530 0.000000
O O5 0.329296 0.661619 0.548916
O O6 0.736992 0.784677 0.603247
O O7 0.655146 0.951881 0.789216
O O8 0.225911 0.970812 0.855062
O O9 0.000000 0.936670 0.000000
O O10 0.255018 0.823743 0.724500
O O11 0.090286 0.629359 0.671979
O O12 0.956013 0.005708 0.335366
O O13 0.500000 0.010512 0.500000
#
# Coordination Sequence:
#
# PCOD9128642 Si02
#       6
#     4   2   4   4   4   4
#     4  11  24  43  74 101 142 196 239 296 367 442
#     4  10  24  46  76  94 150 188 248 306 368 458
#     4  11  24  46  70 105 144 194 244 304 370 443
#     4  11  26  45  72 110 146 193 251 307 379 445
#     4  12  26  43  77 104 149 189 244 313 369 450
#     4  10  24  48  70 108 145 198 242 311 380 449
#
# _framework density 26.894176999999999
#
# number of rings (size 3 to 8) (size 9 to 14) (size 15 to 20)
#    0.000    1.091    1.818    3.818    8.909    2.182 
#    4.909    0.000    0.000    0.000    0.000    0.000 
#    0.000    0.000    0.000    0.000    0.000    0.000 
#
# Total GULP energy -61448.557109 kJ/mol
# GULP energy per Si atom -5586.232464 kJ/mol
# Density = 2.683296 g / cm^3
# Si number density = 26.894177 Si / 1000 Ang^3
#
#
#
# Elastic Constant Matrix: (Units=GPa)
#
#
# Indices 1 2 3 4 5 6 
#
# 1 98.4483 8.9965 16.3369 0.0000 -7.7674 0.0000
# 2 8.9965 78.4942 27.7878 0.0000 15.9799 0.0000
# 3 16.3369 27.7878 186.6143 0.0000 8.3469 0.0000
# 4 0.0000 0.0000 0.0000 22.0165 0.0000 16.4479
# 5 -7.7674 15.9799 8.3469 0.0000 41.7983 0.0000
# 6 0.0000 0.0000 0.0000 16.4479 0.0000 32.1427
#
#
#
# Elastic Compliance Matrix: (Units=1/GPa)
#
#
# Indices 1 2 3 4 5 6 
#
# 1 0.010645 -0.001477 -0.000833 0.000000 0.002709 0.000000
# 2 -0.001477 0.014674 -0.001809 0.000000 -0.005523 0.000000
# 3 -0.000833 -0.001809 0.005728 0.000000 -0.000607 0.000000
# 4 0.000000 0.000000 0.000000 0.073530 0.000000 -0.037627
# 5 0.002709 -0.005523 -0.000607 0.000000 0.026661 0.000000
# 6 0.000000 0.000000 0.000000 -0.037627 0.000000 0.050365
#
#
# Mechanical properties :
#
#
# Convention : Reuss Voigt Hill
#
# Bulk Modulus (GPa) = 43.84136 52.19992 48.02064
# Shear Modulus (GPa) = 25.32380 39.88721 32.60550
#
# Velocity S-wave (km/s) = 3.07189 3.85530 3.48568
# Velocity P-wave (km/s) = 5.37763 6.26652 5.83902
#
# Compressibility (1/GPa) = 0.02280951
#
# Stress axis : x y z
#
# Youngs Moduli (GPa) = 93.94487 68.14904 174.57899
#
# Poissons Ratio (x) = 0.10063 0.14545
# Poissons Ratio (y) = 0.13871 0.31576
# Poissons Ratio (z) = 0.07827 0.12326
#
# Static dielectric constant tensor:
#      x y z
#    x 2.145290 0.000000 0.000710 
#    y 0.000000 2.100410 0.000000 
#    z 0.000710 0.000000 2.301720 
# 
# From -- ./inp_files/33228.got.cif
#   From: 2010.05.17/outbox.cif.g08.bks.cpg/sg5_17_cif.got.tgz:33228.got - 2010.06.03 18:56:24.
