data_PCOD9128989
_publ_section_title
;
Structure prediction by ZEFSAII (Michael W. Deem and Ramdas Pophale) SiO2 
 PCOD9128989
Probable space group: C 2
;
_chemical_formula_sum "Si O2"
_cell_formula_units_Z 30
_cell_length_a 9.122681
_cell_length_b 16.458259
_cell_length_c 15.208475
_cell_angle_alpha 90.000000
_cell_angle_beta 40.280282
_cell_angle_gamma 90.000000
_cell_volume 1476.314549
_symmetry_space_group_name_H-M "C 2"
_symmetry_group_IT_number 5
_symmetry_cell_setting 'monoclinic'
loop_
_space_group_symop_operation_xyz
x,y,z
-x,y,-z
1/2+x,1/2+y,z
1/2-x,1/2+y,-z
loop_
_atom_site_type_symbol
_atom_site_label
_atom_site_fract_x
_atom_site_fract_y
_atom_site_fract_z
Si Si1 0.659069 0.430000 0.851385
Si Si2 0.996855 0.047722 0.211873
Si Si3 0.848078 0.188834 0.980892
Si Si4 0.500000 0.718743 0.500000
Si Si5 0.548463 0.828184 0.758189
Si Si6 0.055518 0.782862 0.785269
Si Si7 0.233047 0.397161 0.837757
Si Si8 0.245292 0.681286 0.438656
O O1 0.682068 0.494657 0.763023
O O2 0.532343 0.350806 0.871004
O O3 0.881376 0.390072 0.787465
O O4 0.500000 0.465758 0.000000
O O5 0.886480 0.107848 0.331618
O O6 0.121746 0.106091 0.085730
O O7 0.160274 0.981816 0.181009
O O8 0.930616 0.262879 0.879535
O O9 0.585294 0.204041 0.123409
O O10 0.000000 0.188868 0.000000
O O11 0.325430 0.679008 0.505918
O O12 0.685532 0.767649 0.357685
O O13 0.691599 0.887194 0.754448
O O14 0.674961 0.769821 0.632265
O O15 0.909978 0.824677 0.775696
O O16 0.000000 0.385787 0.000000
O O17 0.000000 0.672407 0.500000
#
# Coordination Sequence:
#
# PCOD9128989 Si02
#       8
#     4   4   4   2   4   4   4   4
#     4  11  20  40  66 102 135 165 214 289 359 406
#     4  10  26  41  63 101 141 178 221 286 364 415
#     4  11  20  38  67 102 131 176 222 285 365 406
#     4  12  26  44  72 100 136 190 248 282 330 416
#     4  11  19  39  72  96 124 171 231 284 343 405
#     4  11  21  39  67  99 134 174 232 288 336 413
#     4  11  20  41  67 103 137 169 219 296 358 419
#     4  11  26  49  68  99 140 190 243 286 336 418
#
# _framework density 20.320874
#
# number of rings (size 3 to 8) (size 9 to 14) (size 15 to 20)
#    0.000    1.067    5.333    2.000    1.867    1.067 
#    7.200    0.000    0.000    0.000    0.000    0.000 
#    0.000    0.000    0.000    0.000    0.000    0.000 
#
# Total GULP energy -83558.382241 kJ/mol
# GULP energy per Si atom -5570.558816 kJ/mol
# Density = 2.027462 g / cm^3
# Si number density = 20.320874 Si / 1000 Ang^3
#
#
#
# Elastic Constant Matrix: (Units=GPa)
#
#
# Indices 1 2 3 4 5 6 
#
# 1 116.7303 45.0507 8.3793 0.0004 10.7504 -0.0002
# 2 45.0507 108.8199 20.7406 0.0006 2.8810 -0.0009
# 3 8.3793 20.7406 47.5009 0.0011 -5.9405 -0.0009
# 4 0.0004 0.0006 0.0011 -7.5029 -0.0005 -20.0102
# 5 10.7504 2.8810 -5.9405 -0.0005 33.6679 0.0010
# 6 -0.0002 -0.0009 -0.0009 -20.0102 0.0010 -3.3885
#
#
#
# Elastic Compliance Matrix: (Units=1/GPa)
#
#
# Indices 1 2 3 4 5 6 
#
# 1 0.010494 -0.004186 -0.000407 0.000000 -0.003064 0.000000
# 2 -0.004186 0.011786 -0.004465 0.000000 -0.000460 0.000000
# 3 -0.000407 -0.004465 0.023660 -0.000001 0.004687 0.000001
# 4 0.000000 0.000000 -0.000001 0.009036 0.000002 -0.053363
# 5 -0.003064 -0.000460 0.004687 0.000002 0.031547 -0.000001
# 6 0.000000 0.000000 0.000001 -0.053363 -0.000001 0.020009
#
#
# Mechanical properties :
#
#
# Convention : Reuss Voigt Hill
#
# Bulk Modulus (GPa) = 35.94039 46.82137 41.38088
# Shear Modulus (GPa) = 37.33577 17.81401 27.57489
#
# Velocity S-wave (km/s) = 4.29104 2.96402 3.68771
# Velocity P-wave (km/s) = 6.50196 5.89957 6.20808
#
# Compressibility (1/GPa) = 0.02782385
#
# Stress axis : x y z
#
# Youngs Moduli (GPa) = 95.29665 84.84984 42.26590
#
# Poissons Ratio (x) = 0.35515 0.01719
# Poissons Ratio (y) = 0.39888 0.18872
# Poissons Ratio (z) = 0.03876 0.37887
#
# Static dielectric constant tensor:
#      x y z
#    x 2.310770 0.000000 0.036930 
#    y 0.000000 1.678720 0.000000 
#    z 0.036930 0.000000 1.729910 
# 
# From -- ./inp_files/51370.got.cif
#   From: 2010.05.17/outbox.cif.g08.bks.cpg/sg5_26_cif.got.tgz:51370.got - 2010.06.03 18:56:24.
