data_PCOD9128314
_publ_section_title
;
Structure prediction by ZEFSAII (Michael W. Deem and Ramdas Pophale) SiO2 
 PCOD9128314
Probable space group: C 2
;
_chemical_formula_sum "Si O2"
_cell_formula_units_Z 26
_cell_length_a 8.404683
_cell_length_b 15.274385
_cell_length_c 14.159392
_cell_angle_alpha 90.000000
_cell_angle_beta 135.242635
_cell_angle_gamma 90.000000
_cell_volume 1279.875502
_symmetry_space_group_name_H-M "C 2"
_symmetry_group_IT_number 5
_symmetry_cell_setting 'monoclinic'
loop_
_space_group_symop_operation_xyz
x,y,z
-x,y,-z
1/2+x,1/2+y,z
1/2-x,1/2+y,-z
loop_
_atom_site_type_symbol
_atom_site_label
_atom_site_fract_x
_atom_site_fract_y
_atom_site_fract_z
Si Si1 0.500000 0.040910 0.500000
Si Si2 0.098260 0.035285 0.940776
Si Si3 0.982111 0.422501 0.101907
Si Si4 0.809882 0.906843 0.705340
Si Si5 0.930360 0.847859 0.362726
Si Si6 0.761935 0.785749 0.862552
Si Si7 0.654058 0.674470 0.279092
O O1 0.289276 0.108133 0.404871
O O2 0.588918 0.969990 0.614351
O O3 0.972692 0.124255 0.859701
O O4 0.014217 0.968977 0.824669
O O5 0.000000 0.008093 0.000000
O O6 0.365452 0.018169 0.057779
O O7 0.824993 0.355151 0.094824
O O8 0.225882 0.412990 0.251163
O O9 0.000000 0.395511 0.000000
O O10 0.795586 0.834233 0.778390
O O11 0.872399 0.867163 0.629729
O O12 0.825144 0.749354 0.313739
O O13 0.000000 0.860543 0.500000
O O14 0.556364 0.720001 0.759776
O O15 0.000000 0.748501 0.000000
#
# Coordination Sequence:
#
# PCOD9128314 Si02
#       7
#     2   4   4   4   4   4   4
#     4  10  24  42  64  92 134 176 214 264 342 394
#     4  11  21  41  63  98 131 175 216 286 338 390
#     4  11  20  38  66  94 133 168 233 279 321 396
#     4  11  22  40  71  92 126 177 232 269 322 401
#     4  11  24  41  68  99 133 182 225 276 329 407
#     4  11  21  41  68  98 126 168 227 279 324 397
#     4  10  25  41  65  92 142 172 214 275 347 392
#
# _framework density 20.314477
#
# number of rings (size 3 to 8) (size 9 to 14) (size 15 to 20)
#    0.000    1.231    5.385    0.000    4.308    4.308 
#    0.000    0.000    6.769    0.000    0.000    0.000 
#    0.000    0.000    0.000    0.000    0.000    0.000 
#
# Total GULP energy -72389.683391 kJ/mol
# GULP energy per Si atom -5568.437184 kJ/mol
# Density = 2.026824 g / cm^3
# Si number density = 20.314477 Si / 1000 Ang^3
#
#
#
# Elastic Constant Matrix: (Units=GPa)
#
#
# Indices 1 2 3 4 5 6 
#
# 1 105.1338 34.8750 45.5873 0.0000 -15.3753 0.0000
# 2 34.8750 69.3364 62.9305 0.0000 6.3956 0.0000
# 3 45.5873 62.9305 127.7232 0.0000 3.0105 -0.0001
# 4 0.0000 0.0000 0.0000 38.5459 0.0000 1.8404
# 5 -15.3753 6.3956 3.0105 0.0000 37.0456 0.0000
# 6 0.0000 0.0000 -0.0001 1.8404 0.0000 4.5083
#
#
#
# Elastic Compliance Matrix: (Units=1/GPa)
#
#
# Indices 1 2 3 4 5 6 
#
# 1 0.013177 -0.005106 -0.002342 0.000000 0.006541 0.000000
# 2 -0.005106 0.028520 -0.012087 0.000000 -0.006061 0.000000
# 3 -0.002342 -0.012087 0.014622 0.000000 -0.000074 0.000000
# 4 0.000000 0.000000 0.000000 0.026459 0.000000 -0.010801
# 5 0.006541 -0.006061 -0.000074 0.000000 0.030761 0.000000
# 6 0.000000 0.000000 0.000000 -0.010801 0.000000 0.226220
#
#
# Mechanical properties :
#
#
# Convention : Reuss Voigt Hill
#
# Bulk Modulus (GPa) = 57.96904 65.44212 61.70558
# Shear Modulus (GPa) = 13.00126 26.60668 19.80397
#
# Velocity S-wave (km/s) = 2.53257 3.62296 3.12568
# Velocity P-wave (km/s) = 6.09505 7.05589 6.59300
#
# Compressibility (1/GPa) = 0.01725059
#
# Stress axis : x y z
#
# Youngs Moduli (GPa) = 75.88735 35.06354 68.38921
#
# Poissons Ratio (x) = 0.17903 0.16015
# Poissons Ratio (y) = 0.38748 0.82660
# Poissons Ratio (z) = 0.17771 0.42380
#
# Static dielectric constant tensor:
#      x y z
#    x 1.728340 0.000000 0.049910 
#    y 0.000000 1.809270 0.000000 
#    z 0.049910 0.000000 1.755970 
# 
# From -- ./inp_files/51125.got.cif
#   From: 2010.05.17/outbox.cif.g08.bks.cpg/sg5_26_cif.got.tgz:51125.got - 2010.06.03 18:56:24.
