data_PCOD9128347
_publ_section_title
;
Structure prediction by ZEFSAII (Michael W. Deem and Ramdas Pophale) SiO2 
 PCOD9128347
Probable space group: C 2
;
_chemical_formula_sum "Si O2"
_cell_formula_units_Z 28
_cell_length_a 7.461212
_cell_length_b 30.652346
_cell_length_c 4.980006
_cell_angle_alpha 90.000000
_cell_angle_beta 74.552049
_cell_angle_gamma 90.000000
_cell_volume 1097.798669
_symmetry_space_group_name_H-M "C 2"
_symmetry_group_IT_number 5
_symmetry_cell_setting 'monoclinic'
loop_
_space_group_symop_operation_xyz
x,y,z
-x,y,-z
1/2+x,1/2+y,z
1/2-x,1/2+y,-z
loop_
_atom_site_type_symbol
_atom_site_label
_atom_site_fract_x
_atom_site_fract_y
_atom_site_fract_z
Si Si1 0.868844 0.378860 0.783667
Si Si2 0.138084 0.612795 0.693590
Si Si3 0.800784 0.261483 0.039273
Si Si4 0.340226 0.547076 0.246150
Si Si5 0.000000 0.822357 0.000000
Si Si6 0.206868 0.707866 0.549396
Si Si7 0.000000 0.966821 0.500000
Si Si8 0.699713 0.968713 0.044438
O O1 0.809479 0.429138 0.737991
O O2 0.000000 0.360972 0.500000
O O3 0.674798 0.352402 0.849008
O O4 0.000000 0.378137 0.000000
O O5 0.274145 0.575803 0.520911
O O6 0.235618 0.659975 0.665016
O O7 0.000000 0.615877 0.500000
O O8 0.000000 0.606422 0.000000
O O9 0.617449 0.291359 0.160381
O O10 0.821040 0.222254 0.244570
O O11 0.000000 0.284775 0.000000
O O12 0.403073 0.500961 0.339287
O O13 0.207016 0.521624 0.092530
O O14 0.500000 0.568949 0.000000
O O15 0.745262 0.742000 0.235438
O O16 0.000000 0.708454 0.500000
O O17 0.848549 0.949193 0.768215
O O18 0.500000 0.966024 0.000000
#
# Coordination Sequence:
#
# PCOD9128347 Si02
#       8
#     4   4   4   4   2   4   2   4
#     4  11  29  50  76 119 153 206 267 321 399 482
#     4  11  26  43  75 110 151 204 268 323 391 474
#     4  12  26  47  79 118 149 206 262 319 403 489
#     4  10  25  44  67 106 151 205 256 324 390 460
#     4  12  28  52  86 108 172 198 260 336 406 464
#     4  11  22  49  74 108 155 204 255 325 399 469
#     4  10  24  42  68 102 146 194 262 300 396 450
#     4  10  25  45  73 105 151 202 263 324 384 472
#
# _framework density 25.505587999999999
#
# number of rings (size 3 to 8) (size 9 to 14) (size 15 to 20)
#    0.000    1.143    1.429    2.571   13.000    4.571 
#    2.571    0.000    0.000    0.000    0.000    0.000 
#    0.000    0.000    0.000    0.000    0.000    0.000 
#
# Total GULP energy -77943.458565 kJ/mol
# GULP energy per Si atom -5567.389897 kJ/mol
# Density = 2.544754 g / cm^3
# Si number density = 25.505588 Si / 1000 Ang^3
#
#
#
# Elastic Constant Matrix: (Units=GPa)
#
#
# Indices 1 2 3 4 5 6 
#
# 1 131.6363 55.3826 51.9979 0.0000 -27.0735 0.0000
# 2 55.3826 117.3594 55.0227 0.0000 -14.8729 0.0000
# 3 51.9979 55.0227 168.3759 0.0000 -10.2067 0.0000
# 4 0.0000 0.0000 0.0000 14.5972 0.0000 -15.4579
# 5 -27.0735 -14.8729 -10.2067 0.0000 44.9791 0.0000
# 6 0.0000 0.0000 0.0000 -15.4579 0.0000 71.2616
#
#
#
# Elastic Compliance Matrix: (Units=1/GPa)
#
#
# Indices 1 2 3 4 5 6 
#
# 1 0.010877 -0.003630 -0.001874 0.000000 0.004921 0.000000
# 2 -0.003630 0.011588 -0.002601 0.000000 0.001056 0.000000
# 3 -0.001874 -0.002601 0.007349 0.000000 -0.000321 0.000000
# 4 0.000000 0.000000 0.000000 0.088936 0.000000 0.019292
# 5 0.004921 0.001056 -0.000321 0.000000 0.025471 0.000000
# 6 0.000000 0.000000 0.000000 0.019292 0.000000 0.018218
#
#
# Mechanical properties :
#
#
# Convention : Reuss Voigt Hill
#
# Bulk Modulus (GPa) = 73.52683 82.46422 77.99552
# Shear Modulus (GPa) = 27.29518 43.16547 35.23032
#
# Velocity S-wave (km/s) = 3.27489 4.11833 3.72059
# Velocity P-wave (km/s) = 6.57192 7.41729 7.00737
#
# Compressibility (1/GPa) = 0.01360048
#
# Stress axis : x y z
#
# Youngs Moduli (GPa) = 91.94130 86.29977 136.08072
#
# Poissons Ratio (x) = 0.31330 0.25505
# Poissons Ratio (y) = 0.33378 0.35401
# Poissons Ratio (z) = 0.17232 0.22451
#
# Static dielectric constant tensor:
#      x y z
#    x 1.621750 0.000000 -0.449630 
#    y 0.000000 2.102320 0.000000 
#    z -0.449630 0.000000 1.770460 
# 
# From -- ./inp_files/3888.got.cif
#   From: 2010.05.17/outbox.cif.g08.bks.cpg/sg5_2_cif.got.tgz:3888.got - 2010.06.03 18:56:24.
