data_PCOD9128826
_publ_section_title
;
Structure prediction by ZEFSAII (Michael W. Deem and Ramdas Pophale) SiO2 
 PCOD9128826
Probable space group: C 2
;
_chemical_formula_sum "Si O2"
_cell_formula_units_Z 32
_cell_length_a 19.873312
_cell_length_b 4.825805
_cell_length_c 17.234990
_cell_angle_alpha 90.000000
_cell_angle_beta 127.699338
_cell_angle_gamma 90.000000
_cell_volume 1307.838535
_symmetry_space_group_name_H-M "C 2"
_symmetry_group_IT_number 5
_symmetry_cell_setting 'monoclinic'
loop_
_space_group_symop_operation_xyz
x,y,z
-x,y,-z
1/2+x,1/2+y,z
1/2-x,1/2+y,-z
loop_
_atom_site_type_symbol
_atom_site_label
_atom_site_fract_x
_atom_site_fract_y
_atom_site_fract_z
Si Si1 0.786875 0.336730 0.483882
Si Si2 0.766948 0.766520 0.964556
Si Si3 0.153858 0.567638 0.766529
Si Si4 0.080538 0.345033 0.960677
Si Si5 0.609152 0.935669 0.150054
Si Si6 0.525151 0.923375 0.333986
Si Si7 0.543602 0.406988 0.799415
Si Si8 0.713308 0.473372 0.266522
O O1 0.726990 0.527516 0.495384
O O2 0.883517 0.435278 0.563941
O O3 0.757470 0.367124 0.375063
O O4 0.703620 0.825633 0.848602
O O5 0.779415 0.079154 0.003489
O O6 0.852640 0.588390 0.014780
O O7 0.216481 0.618224 0.739762
O O8 0.058303 0.491670 0.672775
O O9 0.129228 0.796757 0.814585
O O10 0.057097 0.090833 0.886322
O O11 0.989756 0.493113 0.909304
O O12 0.986667 0.629471 0.748633
O O13 0.113592 0.271184 0.070265
O O14 0.645561 0.714495 0.236656
O O15 0.664524 0.213798 0.192868
O O16 0.504959 0.618325 0.290571
#
# Coordination Sequence:
#
# PCOD9128826 Si02
#       8
#     4   4   4   4   4   4   4   4
#     4  12  28  52  83 120 153 207 270 335 421 500
#     4  12  29  43  72 112 150 208 262 324 381 477
#     4  10  27  49  75 113 161 197 266 329 412 466
#     4  11  27  51  76 112 162 218 270 321 399 483
#     4  11  29  48  77 113 162 215 268 326 402 485
#     4  10  25  47  78 115 152 197 266 329 401 488
#     4  10  25  43  80 112 156 205 258 329 394 478
#     4  12  28  50  81 112 161 207 262 349 400 489
#
# _framework density 24.467852000000001
#
# number of rings (size 3 to 8) (size 9 to 14) (size 15 to 20)
#    0.750    0.250    1.250    2.250   12.250    4.500 
#    2.250    0.000    2.750    0.000    0.000    0.000 
#    0.000    0.000    0.000    0.000    0.000    0.000 
#
# Total GULP energy -89335.426401 kJ/mol
# GULP energy per Si atom -5583.464150 kJ/mol
# Density = 2.441216 g / cm^3
# Si number density = 24.467852 Si / 1000 Ang^3
#
#
#
# Elastic Constant Matrix: (Units=GPa)
#
#
# Indices 1 2 3 4 5 6 
#
# 1 86.9198 26.5483 67.1000 0.0000 32.3195 0.0001
# 2 26.5483 138.4839 37.2728 0.0010 7.5003 0.0009
# 3 67.1000 37.2728 133.5615 0.0002 24.8225 0.0008
# 4 0.0000 0.0010 0.0002 33.2494 0.0001 7.4945
# 5 32.3195 7.5003 24.8225 0.0001 40.9916 0.0002
# 6 0.0001 0.0009 0.0008 7.4945 0.0002 32.6750
#
#
#
# Elastic Compliance Matrix: (Units=1/GPa)
#
#
# Indices 1 2 3 4 5 6 
#
# 1 0.023844 -0.001398 -0.009175 0.000000 -0.012988 0.000000
# 2 -0.001398 0.007890 -0.001618 0.000000 0.000639 0.000000
# 3 -0.009175 -0.001618 0.012563 0.000000 -0.000077 0.000000
# 4 0.000000 0.000000 0.000000 0.031715 0.000000 -0.007274
# 5 -0.012988 0.000639 -0.000077 0.000000 0.034565 0.000000
# 6 0.000000 0.000000 0.000000 -0.007274 0.000000 0.032273
#
#
# Mechanical properties :
#
#
# Convention : Reuss Voigt Hill
#
# Bulk Modulus (GPa) = 50.21590 68.97862 59.59726
# Shear Modulus (GPa) = 28.75690 36.58612 32.67151
#
# Velocity S-wave (km/s) = 3.43197 3.87107 3.65812
# Velocity P-wave (km/s) = 6.02265 6.94500 6.50021
#
# Compressibility (1/GPa) = 0.01991401
#
# Stress axis : x y z
#
# Youngs Moduli (GPa) = 41.93898 126.74227 79.60167
#
# Poissons Ratio (x) = 0.17721 0.73035
# Poissons Ratio (y) = 0.05864 0.12880
# Poissons Ratio (z) = 0.38479 0.20508
#
# Static dielectric constant tensor:
#      x y z
#    x 2.086560 0.000000 -0.002570 
#    y 0.000000 1.924500 0.000000 
#    z -0.002570 0.000000 1.938960 
# 
# From -- ./inp_files/63170.got.cif
#   From: 2010.05.17/outbox.cif.g08.bks.cpg/sg5_32_cif.got.tgz:63170.got - 2010.06.03 18:56:24.
