data_PCOD9128867
_publ_section_title
;
Structure prediction by ZEFSAII (Michael W. Deem and Ramdas Pophale) SiO2 
 PCOD9128867
Probable space group: C 2
;
_chemical_formula_sum "Si O2"
_cell_formula_units_Z 30
_cell_length_a 14.339181
_cell_length_b 5.136663
_cell_length_c 18.188296
_cell_angle_alpha 90.000000
_cell_angle_beta 112.845548
_cell_angle_gamma 90.000000
_cell_volume 1234.578188
_symmetry_space_group_name_H-M "C 2"
_symmetry_group_IT_number 5
_symmetry_cell_setting 'monoclinic'
loop_
_space_group_symop_operation_xyz
x,y,z
-x,y,-z
1/2+x,1/2+y,z
1/2-x,1/2+y,-z
loop_
_atom_site_type_symbol
_atom_site_label
_atom_site_fract_x
_atom_site_fract_y
_atom_site_fract_z
Si Si1 0.843438 0.928400 0.842286
Si Si2 0.291517 0.460394 0.973111
Si Si3 0.564631 0.451043 0.760140
Si Si4 0.695784 0.700478 0.685053
Si Si5 0.457055 0.690504 0.092846
Si Si6 0.000000 0.655796 0.000000
Si Si7 0.502061 0.943174 0.326784
Si Si8 0.218009 0.605343 0.446528
O O1 0.790606 0.834455 0.753425
O O2 0.924902 0.152004 0.855285
O O3 0.907218 0.717654 0.908777
O O4 0.763541 0.011787 0.880334
O O5 0.415252 0.467914 0.022697
O O6 0.243738 0.204951 0.990746
O O7 0.657102 0.483052 0.731346
O O8 0.590213 0.581769 0.845696
O O9 0.524998 0.157550 0.744133
O O10 0.482323 0.655338 0.701896
O O11 0.727081 0.599408 0.615727
O O12 0.599014 0.896245 0.655191
O O13 0.442195 0.947678 0.041030
O O14 0.599861 0.041204 0.398758
O O15 0.265777 0.387333 0.513448
#
# Coordination Sequence:
#
# PCOD9128867 Si02
#       8
#     4   4   4   4   4   2   4   4
#     4  12  25  46  71 102 152 206 264 328 379 466
#     4  12  26  42  65 100 145 195 265 314 384 444
#     4  10  25  45  76 108 156 200 257 319 381 457
#     4  10  28  48  78 118 153 211 260 322 398 475
#     4  12  25  43  68 102 146 210 257 334 379 451
#     4  12  24  44  68 110 152 212 272 330 390 450
#     4  10  25  52  75 119 152 199 254 319 387 478
#     4  12  28  52  85 121 160 205 252 322 406 488
#
# _framework density 24.299799
#
# number of rings (size 3 to 8) (size 9 to 14) (size 15 to 20)
#    0.800    0.000    2.667    3.200    7.467    1.600 
#    0.000    0.000    0.000    0.000    0.000    0.000 
#    0.000    0.000    0.000    0.000    0.000    0.000 
#
# Total GULP energy -83662.967667 kJ/mol
# GULP energy per Si atom -5577.531178 kJ/mol
# Density = 2.424449 g / cm^3
# Si number density = 24.299799 Si / 1000 Ang^3
#
#
#
# Elastic Constant Matrix: (Units=GPa)
#
#
# Indices 1 2 3 4 5 6 
#
# 1 88.0988 -6.9785 36.4340 0.0000 0.9305 0.0000
# 2 -6.9785 47.1845 -8.7437 0.0000 4.3245 0.0001
# 3 36.4340 -8.7437 83.2205 0.0000 -13.7327 0.0000
# 4 0.0000 0.0000 0.0000 18.4950 0.0000 13.3249
# 5 0.9305 4.3245 -13.7327 0.0000 49.7806 0.0000
# 6 0.0000 0.0001 0.0000 13.3249 0.0000 25.2471
#
#
#
# Elastic Compliance Matrix: (Units=1/GPa)
#
#
# Indices 1 2 3 4 5 6 
#
# 1 0.014113 0.001094 -0.006415 0.000000 -0.002128 0.000000
# 2 0.001094 0.021781 0.001565 0.000000 -0.001481 0.000000
# 3 -0.006415 0.001565 0.015701 0.000000 0.004315 0.000000
# 4 0.000000 0.000000 0.000000 0.087242 0.000000 -0.046045
# 5 -0.002128 -0.001481 0.004315 0.000000 0.021447 0.000000
# 6 0.000000 0.000000 0.000000 -0.046045 0.000000 0.063910
#
#
# Mechanical properties :
#
#
# Convention : Reuss Voigt Hill
#
# Bulk Modulus (GPa) = 22.68446 28.88082 25.78264
# Shear Modulus (GPa) = 20.29209 31.89066 26.09138
#
# Velocity S-wave (km/s) = 2.89290 3.62661 3.28033
# Velocity P-wave (km/s) = 4.52924 5.42655 4.99807
#
# Compressibility (1/GPa) = 0.04408305
#
# Stress axis : x y z
#
# Youngs Moduli (GPa) = 70.85677 45.91178 63.68886
#
# Poissons Ratio (x) = -0.05021 0.40856
# Poissons Ratio (y) = -0.07749 -0.09969
# Poissons Ratio (z) = 0.45455 -0.07187
#
# Static dielectric constant tensor:
#      x y z
#    x 2.275880 0.000000 -0.022920 
#    y 0.000000 2.020580 0.000000 
#    z -0.022920 0.000000 1.878160 
# 
# From -- ./inp_files/61238.got.cif
#   From: 2010.05.17/outbox.cif.g08.bks.cpg/sg5_31_cif.got.tgz:61238.got - 2010.06.03 18:56:24.
