data_PCOD9128652
_publ_section_title
;
Structure prediction by ZEFSAII (Michael W. Deem and Ramdas Pophale) SiO2 
 PCOD9128652
Probable space group: C 2
;
_chemical_formula_sum "Si O2"
_cell_formula_units_Z 22
_cell_length_a 5.635534
_cell_length_b 13.379921
_cell_length_c 11.504409
_cell_angle_alpha 90.000000
_cell_angle_beta 91.384942
_cell_angle_gamma 90.000000
_cell_volume 867.213541
_symmetry_space_group_name_H-M "C 2"
_symmetry_group_IT_number 5
_symmetry_cell_setting 'monoclinic'
loop_
_space_group_symop_operation_xyz
x,y,z
-x,y,-z
1/2+x,1/2+y,z
1/2-x,1/2+y,-z
loop_
_atom_site_type_symbol
_atom_site_label
_atom_site_fract_x
_atom_site_fract_y
_atom_site_fract_z
Si Si1 0.635811 0.646970 0.749179
Si Si2 0.816371 0.447345 0.415883
Si Si3 0.323293 0.931726 0.763901
Si Si4 0.000000 0.121588 0.000000
Si Si5 0.000000 0.113915 0.500000
Si Si6 0.030751 0.769607 0.636659
Si Si7 0.000000 0.496265 0.000000
O O1 0.640301 0.525176 0.756444
O O2 0.502308 0.667491 0.624274
O O3 0.891980 0.695551 0.722097
O O4 0.543003 0.676269 0.875762
O O5 0.719463 0.538110 0.489957
O O6 0.620958 0.370042 0.380903
O O7 0.000000 0.390518 0.500000
O O8 0.956126 0.476383 0.304842
O O9 0.244339 0.826668 0.707897
O O10 0.418860 0.926500 0.894057
O O11 0.744235 0.061459 0.980840
O O12 0.000000 0.730203 0.500000
#
# Coordination Sequence:
#
# PCOD9128652 Si02
#       7
#     4   4   4   2   2   4   2
#     4  11  25  44  80 107 158 207 263 325 404 473
#     4  12  20  41  67 105 154 192 249 328 389 467
#     4  11  24  47  76 107 154 206 261 326 395 484
#     4  10  24  54  75 117 154 210 276 324 386 495
#     4  12  22  40  70 118 144 210 258 316 412 476
#     4  12  25  44  69 121 158 195 266 333 399 476
#     4  10  24  46  89 107 150 216 270 316 404 481
#
# _framework density 25.368607000000001
#
# number of rings (size 3 to 8) (size 9 to 14) (size 15 to 20)
#    0.000    0.727    6.364    1.091    6.364    0.000 
#    6.545    0.909    8.000    0.000    0.000    0.000 
#    0.000    0.000    0.000    0.000    0.000    0.000 
#
# Total GULP energy -61295.337182 kJ/mol
# GULP energy per Si atom -5572.303380 kJ/mol
# Density = 2.531087 g / cm^3
# Si number density = 25.368607 Si / 1000 Ang^3
#
#
#
# Elastic Constant Matrix: (Units=GPa)
#
#
# Indices 1 2 3 4 5 6 
#
# 1 83.3688 42.6129 70.5136 0.0000 1.4752 0.0000
# 2 42.6129 124.4416 62.4387 0.0000 4.7521 0.0000
# 3 70.5136 62.4387 259.4808 0.0000 -5.3590 0.0000
# 4 0.0000 0.0000 0.0000 11.5153 0.0000 1.7771
# 5 1.4752 4.7521 -5.3590 0.0000 53.1331 0.0000
# 6 0.0000 0.0000 0.0000 1.7771 0.0000 40.2985
#
#
#
# Elastic Compliance Matrix: (Units=1/GPa)
#
#
# Indices 1 2 3 4 5 6 
#
# 1 0.017196 -0.004003 -0.003720 0.000000 -0.000495 0.000000
# 2 -0.004003 0.010129 -0.001369 0.000000 -0.000933 0.000000
# 3 -0.003720 -0.001369 0.005210 0.000000 0.000751 0.000000
# 4 0.000000 0.000000 0.000000 0.087436 0.000000 -0.003856
# 5 -0.000495 -0.000933 0.000751 0.000000 0.018994 0.000000
# 6 0.000000 0.000000 0.000000 -0.003856 0.000000 0.024985
#
#
# Mechanical properties :
#
#
# Convention : Reuss Voigt Hill
#
# Bulk Modulus (GPa) = 69.68100 90.93574 80.30837
# Shear Modulus (GPa) = 26.74983 40.43779 33.59381
#
# Velocity S-wave (km/s) = 3.25075 3.99684 3.64294
# Velocity P-wave (km/s) = 6.45111 7.56460 7.02994
#
# Compressibility (1/GPa) = 0.01435111
#
# Stress axis : x y z
#
# Youngs Moduli (GPa) = 58.15251 98.72539 191.95216
#
# Poissons Ratio (x) = 0.39521 0.71406
# Poissons Ratio (y) = 0.23279 0.26274
# Poissons Ratio (z) = 0.21633 0.13513
#
# Static dielectric constant tensor:
#      x y z
#    x 2.412810 0.000000 0.073690 
#    y 0.000000 1.954830 0.000000 
#    z 0.073690 0.000000 2.052050 
# 
# From -- ./inp_files/33291.got.cif
#   From: 2010.05.17/outbox.cif.g08.bks.cpg/sg5_17_cif.got.tgz:33291.got - 2010.06.03 18:56:24.
