data_PCOD9128044
_publ_section_title
;
Structure prediction by ZEFSAII (Michael W. Deem and Ramdas Pophale) SiO2 
 PCOD9128044
Probable space group: C 2
;
_chemical_formula_sum "Si O2"
_cell_formula_units_Z 24
_cell_length_a 16.894521
_cell_length_b 10.894241
_cell_length_c 12.284769
_cell_angle_alpha 90.000000
_cell_angle_beta 27.052007
_cell_angle_gamma 90.000000
_cell_volume 1028.322710
_symmetry_space_group_name_H-M "C 2"
_symmetry_group_IT_number 5
_symmetry_cell_setting 'monoclinic'
loop_
_space_group_symop_operation_xyz
x,y,z
-x,y,-z
1/2+x,1/2+y,z
1/2-x,1/2+y,-z
loop_
_atom_site_type_symbol
_atom_site_label
_atom_site_fract_x
_atom_site_fract_y
_atom_site_fract_z
Si Si1 0.076484 0.518070 0.596825
Si Si2 0.801558 0.055047 0.030780
Si Si3 0.850191 0.473722 0.255999
Si Si4 0.172319 0.744007 0.362294
Si Si5 0.676401 0.346325 0.842038
Si Si6 0.944018 0.130972 0.460051
O O1 0.072906 0.458894 0.719193
O O2 0.117637 0.662193 0.533999
O O3 0.227219 0.447903 0.349074
O O4 0.891818 0.509700 0.764068
O O5 0.786622 0.156811 0.143739
O O6 0.877814 0.925820 0.984046
O O7 0.886860 0.126926 0.824441
O O8 0.779778 0.356526 0.277398
O O9 0.690167 0.565606 0.455925
O O10 0.000000 0.530672 0.000000
O O11 0.000000 0.771549 0.500000
O O12 0.828423 0.241939 0.655210
O O13 0.500000 0.304592 0.000000
O O14 0.000000 0.058277 0.500000
#
# Coordination Sequence:
#
# PCOD9128044 Si02
#       6
#     4   4   4   4   4   4
#     4  10  23  45  72 103 139 192 245 299 367 442
#     4  10  23  49  76  98 144 194 247 297 365 451
#     4  12  26  40  65 105 145 178 239 304 361 434
#     4   9  22  46  71  98 137 191 241 294 369 440
#     4  11  24  46  75 107 144 193 247 302 368 440
#     4  12  26  46  69 109 143 188 242 301 369 436
#
# _framework density 23.338978999999998
#
# number of rings (size 3 to 8) (size 9 to 14) (size 15 to 20)
#    0.000    1.333    0.000    5.500    4.667    2.667 
#   18.000    0.000    0.000    0.000    0.000    0.000 
#    0.000    0.000    0.000    0.000    0.000    0.000 
#
# Total GULP energy -66896.453500 kJ/mol
# GULP energy per Si atom -5574.704458 kJ/mol
# Density = 2.328586 g / cm^3
# Si number density = 23.338979 Si / 1000 Ang^3
#
#
#
# Elastic Constant Matrix: (Units=GPa)
#
#
# Indices 1 2 3 4 5 6 
#
# 1 86.0758 35.3535 16.0061 0.0000 6.4745 0.0000
# 2 35.3535 94.5275 17.8422 0.0000 0.6695 0.0000
# 3 16.0061 17.8422 84.3627 0.0000 6.5822 0.0000
# 4 0.0000 0.0000 0.0000 33.0704 0.0000 10.4278
# 5 6.4745 0.6695 6.5822 0.0000 44.1851 0.0000
# 6 0.0000 0.0000 0.0000 10.4278 0.0000 60.3416
#
#
#
# Elastic Compliance Matrix: (Units=1/GPa)
#
#
# Indices 1 2 3 4 5 6 
#
# 1 0.014067 -0.004969 -0.001480 0.000000 -0.001765 0.000000
# 2 -0.004969 0.012776 -0.001822 0.000000 0.000806 0.000000
# 3 -0.001480 -0.001822 0.012648 0.000000 -0.001640 0.000000
# 4 0.000000 0.000000 0.000000 0.031981 0.000000 -0.005527
# 5 -0.001765 0.000806 -0.001640 0.000000 0.023123 0.000000
# 6 0.000000 0.000000 0.000000 -0.005527 0.000000 0.017527
#
#
# Mechanical properties :
#
#
# Convention : Reuss Voigt Hill
#
# Bulk Modulus (GPa) = 43.57812 44.81882 44.19847
# Shear Modulus (GPa) = 36.68028 40.57037 38.62533
#
# Velocity S-wave (km/s) = 3.96868 4.17383 4.07255
# Velocity P-wave (km/s) = 6.30182 6.51712 6.41038
#
# Compressibility (1/GPa) = 0.02294730
#
# Stress axis : x y z
#
# Youngs Moduli (GPa) = 71.09029 78.27434 79.06582
#
# Poissons Ratio (x) = 0.38895 0.11703
# Poissons Ratio (y) = 0.35325 0.14406
# Poissons Ratio (z) = 0.10523 0.14262
#
# Static dielectric constant tensor:
#      x y z
#    x 1.240650 0.000000 -0.079330 
#    y 0.000000 1.929490 0.000000 
#    z -0.079330 0.000000 1.895830 
# 
# From -- ./inp_files/44640.got.cif
#   From: 2010.05.17/outbox.cif.g08.bks.cpg/sg5_23_cif.got.tgz:44640.got - 2010.06.03 18:56:24.
