data_PCOD9128129
_publ_section_title
;
Structure prediction by ZEFSAII (Michael W. Deem and Ramdas Pophale) SiO2 
 PCOD9128129
Probable space group: C 2
;
_chemical_formula_sum "Si O2"
_cell_formula_units_Z 16
_cell_length_a 13.090264
_cell_length_b 4.812792
_cell_length_c 9.728087
_cell_angle_alpha 90.000000
_cell_angle_beta 106.432332
_cell_angle_gamma 90.000000
_cell_volume 587.843217
_symmetry_space_group_name_H-M "C 2"
_symmetry_group_IT_number 5
_symmetry_cell_setting 'monoclinic'
loop_
_space_group_symop_operation_xyz
x,y,z
-x,y,-z
1/2+x,1/2+y,z
1/2-x,1/2+y,-z
loop_
_atom_site_type_symbol
_atom_site_label
_atom_site_fract_x
_atom_site_fract_y
_atom_site_fract_z
Si Si1 0.687334 0.112530 0.434591
Si Si2 0.138331 0.648203 0.127445
Si Si3 0.362392 0.928395 0.165922
Si Si4 0.490725 0.414671 0.283821
O O1 0.777241 0.353415 0.461224
O O2 0.669398 0.980945 0.277091
O O3 0.580615 0.293527 0.420392
O O4 0.242699 0.823692 0.128404
O O5 0.049182 0.849977 0.159583
O O6 0.112499 0.463743 0.986491
O O7 0.447534 0.723358 0.269057
O O8 0.385809 0.224758 0.241634
#
# Coordination Sequence:
#
# PCOD9128129 Si02
#       4
#     4   4   4   4
#     4  10  23  47  68  94 136 184 224 272 333 392
#     4  10  27  41  72  99 143 171 217 295 323 409
#     4  12  23  45  65 108 130 175 225 270 358 387
#     4  10  26  42  70  98 136 178 220 277 338 401
#
# _framework density 27.218140999999999
#
# number of rings (size 3 to 8) (size 9 to 14) (size 15 to 20)
#    1.500    0.000    0.000    3.750    0.000   16.000 
#    0.000    7.500    0.000    0.000    0.000    0.000 
#    0.000    0.000    0.000    0.000    0.000    0.000 
#
# Total GULP energy -44745.348962 kJ/mol
# GULP energy per Si atom -5593.168620 kJ/mol
# Density = 2.715619 g / cm^3
# Si number density = 27.218141 Si / 1000 Ang^3
#
#
#
# Elastic Constant Matrix: (Units=GPa)
#
#
# Indices 1 2 3 4 5 6 
#
# 1 138.3450 27.0565 -15.3813 0.0000 -2.6346 0.0000
# 2 27.0565 100.3917 20.0449 0.0000 12.9178 0.0000
# 3 -15.3813 20.0449 89.2935 0.0000 15.0468 0.0000
# 4 0.0000 0.0000 0.0000 41.2870 0.0000 11.0806
# 5 -2.6346 12.9178 15.0468 0.0000 36.4172 0.0000
# 6 0.0000 0.0000 0.0000 11.0806 0.0000 50.6283
#
#
#
# Elastic Compliance Matrix: (Units=1/GPa)
#
#
# Indices 1 2 3 4 5 6 
#
# 1 0.007955 -0.002605 0.001830 0.000000 0.000744 0.000000
# 2 -0.002605 0.011582 -0.002499 0.000000 -0.003264 0.000000
# 3 0.001830 -0.002499 0.012794 0.000000 -0.004268 0.000000
# 4 0.000000 0.000000 0.000000 0.025732 0.000000 -0.005632
# 5 0.000744 -0.003264 -0.004268 0.000000 0.030435 0.000000
# 6 0.000000 0.000000 0.000000 -0.005632 0.000000 0.020984
#
#
# Mechanical properties :
#
#
# Convention : Reuss Voigt Hill
#
# Bulk Modulus (GPa) = 38.78375 43.49670 41.14023
# Shear Modulus (GPa) = 40.12030 45.42051 42.77041
#
# Velocity S-wave (km/s) = 3.84347 4.08948 3.96838
# Velocity P-wave (km/s) = 5.82894 6.18982 6.01209
#
# Compressibility (1/GPa) = 0.02578399
#
# Stress axis : x y z
#
# Youngs Moduli (GPa) = 125.70081 86.34071 78.16001
#
# Poissons Ratio (x) = 0.22493 -0.14302
# Poissons Ratio (y) = 0.32746 0.19529
# Poissons Ratio (z) = -0.23002 0.21573
#
# Static dielectric constant tensor:
#      x y z
#    x 2.156750 0.000000 -0.001060 
#    y 0.000000 2.002460 0.000000 
#    z -0.001060 0.000000 2.179130 
# 
# From -- ./inp_files/37789.got.cif
#   From: 2010.05.17/outbox.cif.g08.bks.cpg/sg5_19_cif.got.tgz:37789.got - 2010.06.03 18:56:24.
