data_PCOD9128335
_publ_section_title
;
Structure prediction by ZEFSAII (Michael W. Deem and Ramdas Pophale) SiO2 
 PCOD9128335
Probable space group: C 2
;
_chemical_formula_sum "Si O2"
_cell_formula_units_Z 22
_cell_length_a 10.944887
_cell_length_b 19.826573
_cell_length_c 10.738347
_cell_angle_alpha 90.000000
_cell_angle_beta 153.611190
_cell_angle_gamma 90.000000
_cell_volume 1035.688805
_symmetry_space_group_name_H-M "C 2"
_symmetry_group_IT_number 5
_symmetry_cell_setting 'monoclinic'
loop_
_space_group_symop_operation_xyz
x,y,z
-x,y,-z
1/2+x,1/2+y,z
1/2-x,1/2+y,-z
loop_
_atom_site_type_symbol
_atom_site_label
_atom_site_fract_x
_atom_site_fract_y
_atom_site_fract_z
Si Si1 0.500000 0.671450 0.000000
Si Si2 0.972773 0.061047 0.764940
Si Si3 0.755386 0.300299 0.861240
Si Si4 0.327077 0.857331 0.597970
Si Si5 0.447963 0.009936 0.803711
Si Si6 0.000000 0.957572 0.000000
Si Si7 0.000000 0.379335 0.500000
O O1 0.445248 0.626509 0.827827
O O2 0.258700 0.723672 0.817078
O O3 0.888026 0.002287 0.784227
O O4 0.798098 0.054642 0.479575
O O5 0.282992 0.042171 0.013490
O O6 0.458097 0.332607 0.599972
O O7 0.000000 0.333936 0.000000
O O8 0.916061 0.308859 0.136551
O O9 0.384454 0.933460 0.699121
O O10 0.304424 0.849935 0.428272
O O11 0.500000 0.010144 0.000000
O O12 0.271166 0.917842 0.208826
#
# Coordination Sequence:
#
# PCOD9128335 Si02
#       7
#     2   4   4   4   4   2   2
#     4   9  26  46  78 100 136 190 255 302 324 419
#     4  11  22  42  70  99 136 180 240 297 347 416
#     4  10  24  42  67 100 134 187 243 288 342 410
#     4  12  22  41  65 101 151 180 233 287 362 436
#     4  12  25  40  66 107 145 189 217 295 380 424
#     4  11  18  38  60  98 132 174 223 278 350 413
#     4  12  22  36  64  98 142 180 220 288 352 426
#
# _framework density 21.241903000000001
#
# number of rings (size 3 to 8) (size 9 to 14) (size 15 to 20)
#    0.545    0.364    3.636    3.818    0.000    6.545 
#    0.000    0.000    8.000    0.000    0.000    0.000 
#    0.000    0.000    0.000    0.000    0.000    0.000 
#
# Total GULP energy -61251.633806 kJ/mol
# GULP energy per Si atom -5568.330346 kJ/mol
# Density = 2.119356 g / cm^3
# Si number density = 21.241903 Si / 1000 Ang^3
#
#
#
# Elastic Constant Matrix: (Units=GPa)
#
#
# Indices 1 2 3 4 5 6 
#
# 1 117.3027 56.0396 34.7311 0.0016 -8.9325 0.0004
# 2 56.0396 99.7210 56.0914 0.0015 -0.0230 0.0001
# 3 34.7311 56.0914 154.5009 0.0068 5.4873 0.0022
# 4 0.0016 0.0015 0.0068 8.1671 0.0024 2.6353
# 5 -8.9325 -0.0230 5.4873 0.0024 47.2262 0.0008
# 6 0.0004 0.0001 0.0022 2.6353 0.0008 35.0678
#
#
#
# Elastic Compliance Matrix: (Units=1/GPa)
#
#
# Indices 1 2 3 4 5 6 
#
# 1 0.011908 -0.006459 -0.000414 -0.000001 0.002297 0.000000
# 2 -0.006459 0.016118 -0.004375 0.000002 -0.000705 0.000000
# 3 -0.000414 -0.004375 0.008190 -0.000006 -0.001032 0.000000
# 4 -0.000001 0.000002 -0.000006 0.125486 -0.000006 -0.009430
# 5 0.002297 -0.000705 -0.001032 -0.000006 0.021729 0.000000
# 6 0.000000 0.000000 0.000000 -0.009430 0.000000 0.029225
#
#
# Mechanical properties :
#
#
# Convention : Reuss Voigt Hill
#
# Bulk Modulus (GPa) = 72.87398 73.91651 73.39524
# Shear Modulus (GPa) = 20.85737 33.06974 26.96355
#
# Velocity S-wave (km/s) = 3.13692 3.94993 3.56667
# Velocity P-wave (km/s) = 6.89214 7.46161 7.18252
#
# Compressibility (1/GPa) = 0.01372232
#
# Stress axis : x y z
#
# Youngs Moduli (GPa) = 83.97826 62.04241 122.09529
#
# Poissons Ratio (x) = 0.40071 0.05050
# Poissons Ratio (y) = 0.54238 0.53413
# Poissons Ratio (z) = 0.03474 0.27142
#
# Static dielectric constant tensor:
#      x y z
#    x 2.047480 0.000000 -0.098970 
#    y 0.000000 1.806460 0.000000 
#    z -0.098970 0.000000 1.861690 
# 
# From -- ./inp_files/40792.got.cif
#   From: 2010.05.17/outbox.cif.g08.bks.cpg/sg5_21_cif.got.tgz:40792.got - 2010.06.03 18:56:24.
