data_PCOD9128157
_publ_section_title
;
Structure prediction by ZEFSAII (Michael W. Deem and Ramdas Pophale) SiO2 
 PCOD9128157
Probable space group: C 2
;
_chemical_formula_sum "Si O2"
_cell_formula_units_Z 16
_cell_length_a 6.936252
_cell_length_b 18.452113
_cell_length_c 5.397818
_cell_angle_alpha 90.000000
_cell_angle_beta 102.875423
_cell_angle_gamma 90.000000
_cell_volume 673.488309
_symmetry_space_group_name_H-M "C 2"
_symmetry_group_IT_number 5
_symmetry_cell_setting 'monoclinic'
loop_
_space_group_symop_operation_xyz
x,y,z
-x,y,-z
1/2+x,1/2+y,z
1/2-x,1/2+y,-z
loop_
_atom_site_type_symbol
_atom_site_label
_atom_site_fract_x
_atom_site_fract_y
_atom_site_fract_z
Si Si1 0.500000 0.811710 0.000000
Si Si2 0.679286 0.376340 0.236052
Si Si3 0.218686 0.237848 0.448819
Si Si4 0.118994 0.588783 0.294713
Si Si5 0.000000 0.002304 0.500000
O O1 0.611156 0.865703 0.843014
O O2 0.331688 0.756483 0.850212
O O3 0.685841 0.311346 0.430410
O O4 0.500000 0.363528 0.000000
O O5 0.375308 0.450908 0.647165
O O6 0.329974 0.169241 0.589580
O O7 0.000000 0.232333 0.500000
O O8 0.331204 0.549906 0.319863
O O9 0.000000 0.556407 0.500000
O O10 0.000000 0.588496 0.000000
#
# Coordination Sequence:
#
# PCOD9128157 Si02
#       5
#     2   4   4   4   2
#     4  10  24  44  80 122 154 206 272 340 398 482
#     4  11  25  46  77 111 160 204 268 328 408 470
#     4  10  23  47  79 116 155 205 272 337 396 478
#     4  12  31  52  84 119 165 218 274 331 415 484
#     4  12  30  54  76 118 170 214 262 342 408 494
#
# _framework density 23.756905
#
# number of rings (size 3 to 8) (size 9 to 14) (size 15 to 20)
#    0.000    1.000    1.250    2.250   15.750    5.000 
#    2.250    0.000    0.000    0.000    0.000    0.000 
#    0.000    0.000    0.000    0.000    0.000    0.000 
#
# Total GULP energy -44679.510073 kJ/mol
# GULP energy per Si atom -5584.938759 kJ/mol
# Density = 2.370283 g / cm^3
# Si number density = 23.756905 Si / 1000 Ang^3
#
#
#
# Elastic Constant Matrix: (Units=GPa)
#
#
# Indices 1 2 3 4 5 6 
#
# 1 156.1747 60.6762 42.3489 0.0000 -2.8357 0.0000
# 2 60.6762 122.9959 79.9889 0.0000 24.8112 0.0000
# 3 42.3489 79.9889 177.4834 0.0000 34.4045 0.0000
# 4 0.0000 0.0000 0.0000 32.0784 0.0000 20.8379
# 5 -2.8357 24.8112 34.4045 0.0000 42.0633 0.0000
# 6 0.0000 0.0000 0.0000 20.8379 0.0000 41.8684
#
#
#
# Elastic Compliance Matrix: (Units=1/GPa)
#
#
# Indices 1 2 3 4 5 6 
#
# 1 0.008390 -0.004418 -0.000744 0.000000 0.003779 0.000000
# 2 -0.004418 0.014161 -0.004339 0.000000 -0.005102 0.000000
# 3 -0.000744 -0.004339 0.008653 0.000000 -0.004568 0.000000
# 4 0.000000 0.000000 0.000000 0.046067 0.000000 -0.022928
# 5 0.003779 -0.005102 -0.004568 0.000000 0.030774 0.000000
# 6 0.000000 0.000000 0.000000 -0.022928 0.000000 0.035295
#
#
# Mechanical properties :
#
#
# Convention : Reuss Voigt Hill
#
# Bulk Modulus (GPa) = 81.94887 91.40910 86.67899
# Shear Modulus (GPa) = 30.04673 41.44470 35.74572
#
# Velocity S-wave (km/s) = 3.56020 4.18129 3.88318
# Velocity P-wave (km/s) = 7.17424 7.86583 7.52798
#
# Compressibility (1/GPa) = 0.01220273
#
# Stress axis : x y z
#
# Youngs Moduli (GPa) = 119.19457 70.61880 115.57065
#
# Poissons Ratio (x) = 0.31197 0.08593
# Poissons Ratio (y) = 0.52656 0.50145
# Poissons Ratio (z) = 0.08862 0.30641
#
# Static dielectric constant tensor:
#      x y z
#    x 1.984920 0.000000 0.002910 
#    y 0.000000 1.889590 0.000000 
#    z 0.002910 0.000000 2.081770 
# 
# From -- ./inp_files/2522.got.cif
#   From: 2010.05.17/outbox.cif.g08.bks.cpg/sg5_2_cif.got.tgz:2522.got - 2010.06.03 18:56:24.
