data_PCOD9128682
_publ_section_title
;
Structure prediction by ZEFSAII (Michael W. Deem and Ramdas Pophale) SiO2 
 PCOD9128682
Probable space group: C 2
;
_chemical_formula_sum "Si O2"
_cell_formula_units_Z 22
_cell_length_a 14.267053
_cell_length_b 9.306944
_cell_length_c 22.425435
_cell_angle_alpha 90.000000
_cell_angle_beta 17.056022
_cell_angle_gamma 90.000000
_cell_volume 873.381726
_symmetry_space_group_name_H-M "C 2"
_symmetry_group_IT_number 5
_symmetry_cell_setting 'monoclinic'
loop_
_space_group_symop_operation_xyz
x,y,z
-x,y,-z
1/2+x,1/2+y,z
1/2-x,1/2+y,-z
loop_
_atom_site_type_symbol
_atom_site_label
_atom_site_fract_x
_atom_site_fract_y
_atom_site_fract_z
Si Si1 0.794301 0.331330 0.922049
Si Si2 0.500000 0.447711 0.500000
Si Si3 0.786179 0.153848 0.043454
Si Si4 0.116225 0.184855 0.517332
Si Si5 0.990599 0.097860 0.726815
Si Si6 0.500000 0.943291 0.500000
Si Si7 0.000000 0.351445 0.000000
O O1 0.639143 0.487917 0.012449
O O2 0.176124 0.361835 0.687392
O O3 0.744785 0.216730 0.900743
O O4 0.709152 0.245607 0.032630
O O5 0.434729 0.551361 0.596320
O O6 0.474972 0.163046 0.274410
O O7 0.059579 0.244596 0.908975
O O8 0.118356 0.164079 0.586992
O O9 0.977352 0.329408 0.570271
O O10 0.232137 0.048971 0.633438
O O11 0.797852 0.953505 0.829980
#
# Coordination Sequence:
#
# PCOD9128682 Si02
#       7
#     4   2   4   4   4   2   2
#     4  11  25  47  73 112 152 207 259 329 400 476
#     4   9  21  44  76 110 146 206 260 328 402 470
#     4  11  25  46  74 108 157 202 262 327 396 471
#     4  10  24  47  78 113 157 205 267 330 392 487
#     4  12  27  48  82 114 164 206 271 329 410 476
#     4  11  25  48  80 118 158 212 266 328 404 478
#     4  12  26  50  74 120 154 210 260 340 398 486
#
# _framework density 25.189443000000001
#
# number of rings (size 3 to 8) (size 9 to 14) (size 15 to 20)
#    0.000    1.091    1.818    2.727    5.091    6.545 
#    0.000    0.000    0.000    0.000    0.000    0.000 
#    0.000    0.000    0.000    0.000    0.000    0.000 
#
# Total GULP energy -61506.549268 kJ/mol
# GULP energy per Si atom -5591.504479 kJ/mol
# Density = 2.513211 g / cm^3
# Si number density = 25.189443 Si / 1000 Ang^3
#
#
#
# Elastic Constant Matrix: (Units=GPa)
#
#
# Indices 1 2 3 4 5 6 
#
# 1 177.7750 85.5285 52.7544 -0.0461 10.1838 -0.7108
# 2 85.5285 234.1455 35.3155 -0.0770 2.7852 -0.8722
# 3 52.7544 35.3155 47.2918 -0.4172 -8.6972 -3.4536
# 4 -0.0461 -0.0770 -0.4172 35.0816 0.1161 2.0148
# 5 10.1838 2.7852 -8.6972 0.1161 54.1578 1.1192
# 6 -0.7108 -0.8722 -3.4536 2.0148 1.1192 -156.1552
#
#
#
# Elastic Compliance Matrix: (Units=1/GPa)
#
#
# Indices 1 2 3 4 5 6 
#
# 1 0.009744 -0.002016 -0.009966 -0.000108 -0.003332 0.000162
# 2 -0.002016 0.005268 -0.001715 -0.000012 -0.000168 0.000016
# 3 -0.009966 -0.001715 0.034892 0.000411 0.007578 -0.000657
# 4 -0.000108 -0.000012 0.000411 0.028489 0.000018 0.000359
# 5 -0.003332 -0.000168 0.007578 0.000018 0.020317 -0.000006
# 6 0.000162 0.000016 -0.000657 0.000359 -0.000006 -0.006386
#
#
# Mechanical properties :
#
#
# Convention : Reuss Voigt Hill
#
# Bulk Modulus (GPa) = 44.42323 89.60100 67.01211
# Shear Modulus (GPa) = 39.30185 5.65777 22.47981
#
# Velocity S-wave (km/s) = 3.95429 1.50032 2.99060
# Velocity P-wave (km/s) = 6.20665 6.21686 6.21176
#
# Compressibility (1/GPa) = 0.02251075
#
# Stress axis : x y z
#
# Youngs Moduli (GPa) = 102.62976 189.82889 28.65981
#
# Poissons Ratio (x) = 0.38267 0.28562
# Poissons Ratio (y) = 0.20689 0.04915
# Poissons Ratio (z) = 1.02279 0.32553
#
# Static dielectric constant tensor:
#      x y z
#    x 2.409990 -0.000940 0.008420 
#    y -0.000940 1.971470 -0.000060 
#    z 0.008420 -0.000060 2.068010 
# 
# From -- ./inp_files/44083.got.cif
#   From: 2010.05.17/outbox.cif.g08.bks.cpg/sg5_23_cif.got.tgz:44083.got - 2010.06.03 18:56:24.
