data_PCOD9128811
_publ_section_title
;
Structure prediction by ZEFSAII (Michael W. Deem and Ramdas Pophale) SiO2 
 PCOD9128811
Probable space group: C 2
;
_chemical_formula_sum "Si O2"
_cell_formula_units_Z 32
_cell_length_a 8.381199
_cell_length_b 11.254867
_cell_length_c 20.200796
_cell_angle_alpha 90.000000
_cell_angle_beta 130.104164
_cell_angle_gamma 90.000000
_cell_volume 1457.488827
_symmetry_space_group_name_H-M "C 2"
_symmetry_group_IT_number 5
_symmetry_cell_setting 'monoclinic'
loop_
_space_group_symop_operation_xyz
x,y,z
-x,y,-z
1/2+x,1/2+y,z
1/2-x,1/2+y,-z
loop_
_atom_site_type_symbol
_atom_site_label
_atom_site_fract_x
_atom_site_fract_y
_atom_site_fract_z
Si Si1 0.144106 0.043910 0.137397
Si Si2 0.666712 0.175746 0.140639
Si Si3 0.711997 0.358531 0.263524
Si Si4 0.486625 0.796614 0.856725
Si Si5 0.875113 0.959678 0.272020
Si Si6 0.104674 0.304632 0.455754
Si Si7 0.624508 0.543005 0.465326
Si Si8 0.692334 0.005982 0.967517
O O1 0.246477 0.018518 0.093844
O O2 0.134508 0.183153 0.148480
O O3 0.244152 0.972850 0.224757
O O4 0.901679 0.004477 0.065581
O O5 0.618144 0.259823 0.189748
O O6 0.814131 0.249634 0.130932
O O7 0.455816 0.117192 0.057205
O O8 0.799297 0.065662 0.204295
O O9 0.554976 0.390494 0.280486
O O10 0.925908 0.313030 0.352375
O O11 0.323935 0.874465 0.770670
O O12 0.567344 0.883058 0.936272
O O13 0.968793 0.012910 0.363665
O O14 0.230413 0.427722 0.488124
O O15 0.218041 0.175920 0.478033
O O16 0.000000 0.303095 0.500000
O O17 0.500000 0.552114 0.500000
#
# Coordination Sequence:
#
# PCOD9128811 Si02
#       8
#     4   4   4   4   4   4   4   4
#     4  11  24  42  66 103 129 182 229 276 348 404
#     4  11  23  43  69  95 134 175 225 279 336 407
#     4  12  23  43  72  96 135 181 226 282 346 402
#     4  11  24  43  65  97 132 176 226 277 338 408
#     4  11  24  44  66  98 132 173 228 277 338 411
#     4  11  25  46  69 101 138 182 228 284 347 410
#     4  11  26  44  68 102 135 179 225 283 347 413
#     4  10  25  43  64  95 140 176 223 284 338 405
#
# _framework density 21.955572
#
# number of rings (size 3 to 8) (size 9 to 14) (size 15 to 20)
#    0.000    1.000    5.000    0.750    3.500    2.000 
#    0.000    0.000    0.000    0.000    0.000    0.000 
#    0.000    0.000    0.000    0.000    0.000    0.000 
#
# Total GULP energy -89492.477767 kJ/mol
# GULP energy per Si atom -5593.279860 kJ/mol
# Density = 2.190560 g / cm^3
# Si number density = 21.955572 Si / 1000 Ang^3
#
#
#
# Elastic Constant Matrix: (Units=GPa)
#
#
# Indices 1 2 3 4 5 6 
#
# 1 68.0809 37.4880 22.3175 0.0000 -7.4286 0.0000
# 2 37.4880 173.0184 36.7195 0.0000 9.1472 0.0000
# 3 22.3175 36.7195 81.3896 0.0000 -9.4778 0.0000
# 4 0.0000 0.0000 0.0000 19.2559 0.0000 11.0926
# 5 -7.4286 9.1472 -9.4778 0.0000 27.5079 0.0000
# 6 0.0000 0.0000 0.0000 11.0926 0.0000 35.9689
#
#
#
# Elastic Compliance Matrix: (Units=1/GPa)
#
#
# Indices 1 2 3 4 5 6 
#
# 1 0.018144 -0.003623 -0.002740 0.000000 0.005161 0.000000
# 2 -0.003623 0.007407 -0.002864 0.000000 -0.004428 0.000000
# 3 -0.002740 -0.002864 0.014955 0.000000 0.005365 0.000000
# 4 0.000000 0.000000 0.000000 0.063151 0.000000 -0.019475
# 5 0.005161 -0.004428 0.005365 0.000000 0.041068 0.000000
# 6 0.000000 0.000000 0.000000 -0.019475 0.000000 0.033808
#
#
# Mechanical properties :
#
#
# Convention : Reuss Voigt Hill
#
# Bulk Modulus (GPa) = 45.34571 57.28208 51.31390
# Shear Modulus (GPa) = 24.46945 31.61080 28.04013
#
# Velocity S-wave (km/s) = 3.34203 3.79854 3.57757
# Velocity P-wave (km/s) = 5.96578 6.73685 6.36300
#
# Compressibility (1/GPa) = 0.02205280
#
# Stress axis : x y z
#
# Youngs Moduli (GPa) = 55.11317 135.01577 66.86877
#
# Poissons Ratio (x) = 0.48912 0.18322
# Poissons Ratio (y) = 0.19966 0.19150
# Poissons Ratio (z) = 0.15101 0.38666
#
# Static dielectric constant tensor:
#      x y z
#    x 1.805440 0.000000 0.010870 
#    y 0.000000 1.844510 0.000000 
#    z 0.010870 0.000000 1.756250 
# 
# From -- ./inp_files/64564.got.cif
#   From: 2010.05.17/outbox.cif.g08.bks.cpg/sg5_33_cif.got.tgz:64564.got - 2010.06.03 18:56:24.
