data_PCOD9128121
_publ_section_title
;
Structure prediction by ZEFSAII (Michael W. Deem and Ramdas Pophale) SiO2 
 PCOD9128121
Probable space group: C 2
;
_chemical_formula_sum "Si O2"
_cell_formula_units_Z 20
_cell_length_a 9.100027
_cell_length_b 11.045715
_cell_length_c 9.539946
_cell_angle_alpha 90.000000
_cell_angle_beta 133.440521
_cell_angle_gamma 90.000000
_cell_volume 696.260932
_symmetry_space_group_name_H-M "C 2"
_symmetry_group_IT_number 5
_symmetry_cell_setting 'monoclinic'
loop_
_space_group_symop_operation_xyz
x,y,z
-x,y,-z
1/2+x,1/2+y,z
1/2-x,1/2+y,-z
loop_
_atom_site_type_symbol
_atom_site_label
_atom_site_fract_x
_atom_site_fract_y
_atom_site_fract_z
Si Si1 0.364311 0.758800 0.770863
Si Si2 0.710976 0.002637 0.815335
Si Si3 0.178874 0.255611 0.727224
Si Si4 0.232231 0.584089 0.531062
Si Si5 0.680832 0.501174 0.785691
O O1 0.567585 0.766030 0.803309
O O2 0.212623 0.727863 0.523118
O O3 0.256027 0.881466 0.759913
O O4 0.500000 0.731296 0.000000
O O5 0.796546 0.881032 0.799736
O O6 0.769040 0.100695 0.730337
O O7 0.467873 0.014750 0.638830
O O8 0.769184 0.008175 0.014752
O O9 0.000000 0.261436 0.500000
O O10 0.279505 0.124027 0.782829
O O11 0.439844 0.527893 0.615780
#
# Coordination Sequence:
#
# PCOD9128121 Si02
#       5
#     4   4   4   4   4
#     4  11  23  47  77 110 152 195 259 318 369 461
#     4  11  22  47  75 107 154 199 251 323 377 454
#     4  11  24  49  73 105 159 193 245 329 368 446
#     4  10  23  46  77 110 153 200 254 312 386 450
#     4  11  25  47  78 110 151 203 255 314 387 453
#
# _framework density 28.724864
#
# number of rings (size 3 to 8) (size 9 to 14) (size 15 to 20)
#    0.000    1.200    4.000    3.000    0.000    3.200 
#   18.000    4.000    0.000    0.000    0.000    0.000 
#    0.000    0.000    0.000    0.000    0.000    0.000 
#
# Total GULP energy -55715.033774 kJ/mol
# GULP energy per Si atom -5571.503377 kJ/mol
# Density = 2.865948 g / cm^3
# Si number density = 28.724864 Si / 1000 Ang^3
#
#
#
# Elastic Constant Matrix: (Units=GPa)
#
#
# Indices 1 2 3 4 5 6 
#
# 1 126.2808 47.5236 41.1231 0.0000 7.1537 0.0000
# 2 47.5236 190.9684 45.7269 0.0000 22.0926 0.0000
# 3 41.1231 45.7269 170.7403 0.0000 4.1694 0.0000
# 4 0.0000 0.0000 0.0000 47.8905 0.0000 -18.1565
# 5 7.1537 22.0926 4.1694 0.0000 64.5422 0.0000
# 6 0.0000 0.0000 0.0000 -18.1565 0.0000 47.1836
#
#
#
# Elastic Compliance Matrix: (Units=1/GPa)
#
#
# Indices 1 2 3 4 5 6 
#
# 1 0.009186 -0.001844 -0.001712 0.000000 -0.000276 0.000000
# 2 -0.001844 0.006188 -0.001168 0.000000 -0.001838 0.000000
# 3 -0.001712 -0.001168 0.006578 0.000000 0.000165 0.000000
# 4 0.000000 0.000000 0.000000 0.024448 0.000000 0.009408
# 5 -0.000276 -0.001838 0.000165 0.000000 0.016143 0.000000
# 6 0.000000 0.000000 0.000000 0.009408 0.000000 0.024814
#
#
# Mechanical properties :
#
#
# Convention : Reuss Voigt Hill
#
# Bulk Modulus (GPa) = 79.97738 84.08186 82.02962
# Shear Modulus (GPa) = 49.51858 55.49764 52.50811
#
# Velocity S-wave (km/s) = 4.15648 4.40027 4.28011
# Velocity P-wave (km/s) = 7.13710 7.42640 7.28319
#
# Compressibility (1/GPa) = 0.01250354
#
# Stress axis : x y z
#
# Youngs Moduli (GPa) = 108.86162 161.60960 152.02270
#
# Poissons Ratio (x) = 0.29803 0.26024
# Poissons Ratio (y) = 0.20075 0.17758
# Poissons Ratio (z) = 0.18635 0.18878
#
# Static dielectric constant tensor:
#      x y z
#    x 2.418620 0.000000 -0.188050 
#    y 0.000000 2.522870 0.000000 
#    z -0.188050 0.000000 2.430020 
# 
# From -- ./inp_files/19115.got.cif
#   From: 2010.05.17/outbox.cif.g08.bks.cpg/sg5_10_cif.got.tgz:19115.got - 2010.06.03 18:56:24.
