data_PCOD9128102
_publ_section_title
;
Structure prediction by ZEFSAII (Michael W. Deem and Ramdas Pophale) SiO2 
 PCOD9128102
Probable space group: C 2
;
_chemical_formula_sum "Si O2"
_cell_formula_units_Z 28
_cell_length_a 12.024661
_cell_length_b 7.513517
_cell_length_c 14.839309
_cell_angle_alpha 90.000000
_cell_angle_beta 57.638473
_cell_angle_gamma 90.000000
_cell_volume 1132.467839
_symmetry_space_group_name_H-M "C 2"
_symmetry_group_IT_number 5
_symmetry_cell_setting 'monoclinic'
loop_
_space_group_symop_operation_xyz
x,y,z
-x,y,-z
1/2+x,1/2+y,z
1/2-x,1/2+y,-z
loop_
_atom_site_type_symbol
_atom_site_label
_atom_site_fract_x
_atom_site_fract_y
_atom_site_fract_z
Si Si1 0.603345 0.761040 0.709446
Si Si2 0.593969 0.137314 0.662644
Si Si3 0.616029 0.711440 0.498064
Si Si4 0.644834 0.135032 0.997601
Si Si5 0.838484 0.538211 0.662598
Si Si6 0.420995 0.723653 0.948023
Si Si7 0.886110 0.816212 0.167055
O O1 0.567686 0.742315 0.620276
O O2 0.750778 0.693644 0.658358
O O3 0.505189 0.674952 0.823319
O O4 0.591700 0.970059 0.730596
O O5 0.738774 0.129914 0.556299
O O6 0.597426 0.297920 0.731277
O O7 0.470828 0.117284 0.649876
O O8 0.500000 0.601124 0.500000
O O9 0.632218 0.885164 0.425373
O O10 0.540108 0.287787 0.072301
O O11 0.592180 0.936643 0.035045
O O12 0.775079 0.153643 0.999482
O O13 0.671257 0.170922 0.880157
O O14 0.736965 0.455447 0.780736
O O15 0.500000 0.653966 0.000000
#
# Coordination Sequence:
#
# PCOD9128102 Si02
#       7
#     4   4   4   4   4   4   4
#     4  12  25  45  73 104 140 190 242 295 357 425
#     4  11  23  48  72 103 144 186 237 298 357 433
#     4  11  25  48  73 103 148 187 235 297 367 429
#     4  11  24  46  71 101 146 191 242 301 360 429
#     4  11  26  47  75 106 144 187 240 296 363 439
#     4  12  27  46  69 105 145 190 248 300 359 429
#     4  10  23  46  72 101 144 191 233 297 366 416
#
# _framework density 24.724762999999999
#
# number of rings (size 3 to 8) (size 9 to 14) (size 15 to 20)
#    0.000    0.857    4.286    1.714    6.000    0.000 
#    7.714    0.000    0.000    0.000    0.000    0.000 
#    0.000    0.000    0.000    0.000    0.000    0.000 
#
# Total GULP energy -78121.174331 kJ/mol
# GULP energy per Si atom -5580.083881 kJ/mol
# Density = 2.466849 g / cm^3
# Si number density = 24.724763 Si / 1000 Ang^3
#
#
#
# Elastic Constant Matrix: (Units=GPa)
#
#
# Indices 1 2 3 4 5 6 
#
# 1 251.3818 35.9709 65.3728 0.0000 -4.5661 0.0000
# 2 35.9709 39.9224 0.6580 0.0000 2.2631 0.0000
# 3 65.3728 0.6580 106.2379 0.0000 12.6765 0.0000
# 4 0.0000 0.0000 0.0000 29.7120 0.0000 -6.5992
# 5 -4.5661 2.2631 12.6765 0.0000 38.9324 0.0000
# 6 0.0000 0.0000 0.0000 -6.5992 0.0000 40.7449
#
#
#
# Elastic Compliance Matrix: (Units=1/GPa)
#
#
# Indices 1 2 3 4 5 6 
#
# 1 0.005748 -0.005242 -0.003768 0.000000 0.002206 0.000000
# 2 -0.005242 0.029912 0.003455 0.000000 -0.003479 0.000000
# 3 -0.003768 0.003455 0.012263 0.000000 -0.004636 0.000000
# 4 0.000000 0.000000 0.000000 0.034912 0.000000 0.005655
# 5 0.002206 -0.003479 -0.004636 0.000000 0.027656 0.000000
# 6 0.000000 0.000000 0.000000 0.005655 0.000000 0.025459
#
#
# Mechanical properties :
#
#
# Convention : Reuss Voigt Hill
#
# Bulk Modulus (GPa) = 27.16324 66.83839 47.00082
# Shear Modulus (GPa) = 31.38147 41.58056 36.48102
#
# Velocity S-wave (km/s) = 3.56649 4.10535 3.84537
# Velocity P-wave (km/s) = 5.28866 7.04014 6.22629
#
# Compressibility (1/GPa) = 0.03681446
#
# Stress axis : x y z
#
# Youngs Moduli (GPa) = 173.97467 33.43146 81.54623
#
# Poissons Ratio (x) = 0.17525 0.30724
# Poissons Ratio (y) = 0.91197 -0.28178
# Poissons Ratio (z) = 0.65548 -0.11552
#
# Static dielectric constant tensor:
#      x y z
#    x 1.936020 0.000000 -0.008400 
#    y 0.000000 2.099450 0.000000 
#    z -0.008400 0.000000 2.035860 
# 
# From -- ./inp_files/52380.got.cif
#   From: 2010.05.17/outbox.cif.g08.bks.cpg/sg5_27_cif.got.tgz:52380.got - 2010.06.03 18:56:24.
