data_PCOD9128258
_publ_section_title
;
Structure prediction by ZEFSAII (Michael W. Deem and Ramdas Pophale) SiO2 
 PCOD9128258
Probable space group: C 2
;
_chemical_formula_sum "Si O2"
_cell_formula_units_Z 22
_cell_length_a 4.956523
_cell_length_b 9.099967
_cell_length_c 21.471511
_cell_angle_alpha 90.000000
_cell_angle_beta 77.067288
_cell_angle_gamma 90.000000
_cell_volume 943.888987
_symmetry_space_group_name_H-M "C 2"
_symmetry_group_IT_number 5
_symmetry_cell_setting 'monoclinic'
loop_
_space_group_symop_operation_xyz
x,y,z
-x,y,-z
1/2+x,1/2+y,z
1/2-x,1/2+y,-z
loop_
_atom_site_type_symbol
_atom_site_label
_atom_site_fract_x
_atom_site_fract_y
_atom_site_fract_z
Si Si1 0.805792 0.801820 0.070509
Si Si2 0.392327 0.446497 0.440474
Si Si3 0.871840 0.097104 0.258229
Si Si4 0.500000 0.165156 0.500000
Si Si5 0.320543 0.927187 0.305929
Si Si6 0.756819 0.130581 0.118011
O O1 0.527727 0.709132 0.075951
O O2 0.988814 0.727825 0.115763
O O3 0.726704 0.968170 0.091389
O O4 0.000000 0.798463 0.000000
O O5 0.500000 0.512274 0.500000
O O6 0.326718 0.281499 0.466602
O O7 0.142545 0.556933 0.442823
O O8 0.619112 0.440723 0.375583
O O9 0.882843 0.258068 0.287761
O O10 0.815647 0.116030 0.188091
O O11 0.610045 0.008908 0.298535
O O12 0.147626 0.005313 0.259401
#
# Coordination Sequence:
#
# PCOD9128258 Si02
#       6
#     4   4   4   2   4   4
#     4  12  24  42  69 103 135 178 223 276 331 394
#     4  10  26  40  66  92 130 168 215 281 342 392
#     4  12  26  47  68 102 131 187 221 278 329 396
#     4  10  24  40  64  90 128 162 216 256 364 388
#     4  12  26  43  71  96 136 171 239 272 335 406
#     4  12  25  45  70  97 145 176 225 274 333 392
#
# _framework density 23.307825000000001
#
# number of rings (size 3 to 8) (size 9 to 14) (size 15 to 20)
#    0.545    0.000    0.000    8.182    6.364    0.000 
#    0.000    0.000    0.000    0.000    0.000    0.000 
#    0.000    0.000    0.000    0.000    0.000    0.000 
#
# Total GULP energy -61572.509181 kJ/mol
# GULP energy per Si atom -5597.500835 kJ/mol
# Density = 2.325478 g / cm^3
# Si number density = 23.307825 Si / 1000 Ang^3
#
#
#
# Elastic Constant Matrix: (Units=GPa)
#
#
# Indices 1 2 3 4 5 6 
#
# 1 77.2885 32.7683 -30.0199 0.0000 -0.4696 0.0000
# 2 32.7683 177.1329 -1.0819 0.0000 -14.0481 0.0000
# 3 -30.0199 -1.0819 69.6149 0.0000 -9.1334 0.0000
# 4 0.0000 0.0000 0.0000 13.6579 0.0000 -16.0078
# 5 -0.4696 -14.0481 -9.1334 0.0000 34.7005 0.0000
# 6 0.0000 0.0000 0.0000 -16.0078 0.0000 -18.5739
#
#
#
# Elastic Compliance Matrix: (Units=1/GPa)
#
#
# Indices 1 2 3 4 5 6 
#
# 1 0.017138 -0.003048 0.007469 0.000000 0.000964 0.000000
# 2 -0.003048 0.006387 -0.000913 0.000000 0.002304 0.000000
# 3 0.007469 -0.000913 0.018164 0.000000 0.004512 0.000000
# 4 0.000000 0.000000 0.000000 0.036424 0.000000 -0.031392
# 5 0.000964 0.002304 0.004512 0.000000 0.030952 0.000000
# 6 0.000000 0.000000 0.000000 -0.031392 0.000000 -0.026784
#
#
# Mechanical properties :
#
#
# Convention : Reuss Voigt Hill
#
# Bulk Modulus (GPa) = 20.53199 36.37439 28.45319
# Shear Modulus (GPa) = 54.64557 27.44822 41.04690
#
# Velocity S-wave (km/s) = 4.84727 3.43540 4.20107
# Velocity P-wave (km/s) = 6.33690 5.60142 5.98048
#
# Compressibility (1/GPa) = 0.04870449
#
# Stress axis : x y z
#
# Youngs Moduli (GPa) = 58.34963 156.57906 55.05514
#
# Poissons Ratio (x) = 0.47731 -0.41123
# Poissons Ratio (y) = 0.17787 0.05027
# Poissons Ratio (z) = -0.43584 0.14296
#
# Static dielectric constant tensor:
#      x y z
#    x 2.246530 0.000000 0.086630 
#    y 0.000000 1.810330 0.000000 
#    z 0.086630 0.000000 1.907000 
# 
# From -- ./inp_files/63858.got.cif
#   From: 2010.05.17/outbox.cif.g08.bks.cpg/sg5_32_cif.got.tgz:63858.got - 2010.06.03 18:56:24.
