data_PCOD9128012
_publ_section_title
;
Structure prediction by ZEFSAII (Michael W. Deem and Ramdas Pophale) SiO2 
 PCOD9128012
Probable space group: C 2
;
_chemical_formula_sum "Si O2"
_cell_formula_units_Z 32
_cell_length_a 11.940356
_cell_length_b 7.774544
_cell_length_c 29.356007
_cell_angle_alpha 90.000000
_cell_angle_beta 28.636849
_cell_angle_gamma 90.000000
_cell_volume 1306.041944
_symmetry_space_group_name_H-M "C 2"
_symmetry_group_IT_number 5
_symmetry_cell_setting 'monoclinic'
loop_
_space_group_symop_operation_xyz
x,y,z
-x,y,-z
1/2+x,1/2+y,z
1/2-x,1/2+y,-z
loop_
_atom_site_type_symbol
_atom_site_label
_atom_site_fract_x
_atom_site_fract_y
_atom_site_fract_z
Si Si1 0.278044 0.462070 0.409872
Si Si2 0.261080 0.384081 0.272376
Si Si3 0.982572 0.425016 0.884054
Si Si4 0.060516 0.095634 0.238063
Si Si5 0.764841 0.920925 0.112787
Si Si6 0.965904 0.065504 0.592713
Si Si7 0.336217 0.084871 0.378615
Si Si8 0.528145 0.529650 0.100741
O O1 0.394477 0.619945 0.341232
O O2 0.381614 0.463839 0.424134
O O3 0.372406 0.285195 0.354312
O O4 0.000000 0.469332 0.500000
O O5 0.400927 0.493364 0.259612
O O6 0.441049 0.379592 0.165571
O O7 0.144806 0.223296 0.339505
O O8 0.055391 0.495165 0.322774
O O9 0.919320 0.498657 0.856819
O O10 0.220526 0.490551 0.820153
O O11 0.969216 0.220067 0.879744
O O12 0.777726 0.477443 0.991730
O O13 0.162138 0.259104 0.175976
O O14 0.853476 0.046633 0.120317
O O15 0.000000 0.874373 0.000000
O O16 0.148315 0.103259 0.486900
O O17 0.757457 0.995687 0.634418
#
# Coordination Sequence:
#
# PCOD9128012 Si02
#       8
#     4   4   4   4   4   4   4   4
#     4  12  24  47  69 101 136 178 228 281 339 402
#     4  12  25  45  69 103 135 182 228 279 338 406
#     4  11  24  46  66 100 136 181 220 284 341 399
#     4  12  24  43  72  95 139 182 223 283 341 399
#     4  10  23  45  66  99 136 176 223 283 338 401
#     4  11  24  44  69  97 135 177 224 279 335 405
#     4  11  23  47  66  94 139 176 222 282 338 393
#     4  11  24  45  70  98 140 177 228 279 342 405
#
# _framework density 24.501508000000001
#
# number of rings (size 3 to 8) (size 9 to 14) (size 15 to 20)
#    0.000    0.750    3.750    4.500    0.000    1.000 
#   15.750    0.000    0.000    0.000    0.000    0.000 
#    0.000    0.000    0.000    0.000    0.000    0.000 
#
# Total GULP energy -89489.055131 kJ/mol
# GULP energy per Si atom -5593.065946 kJ/mol
# Density = 2.444574 g / cm^3
# Si number density = 24.501508 Si / 1000 Ang^3
#
#
#
# Elastic Constant Matrix: (Units=GPa)
#
#
# Indices 1 2 3 4 5 6 
#
# 1 231.6593 35.1075 61.2712 0.0139 -23.5484 0.0008
# 2 35.1075 62.9048 26.5137 0.0287 -15.0521 0.0134
# 3 61.2712 26.5137 102.3504 0.0590 -6.6662 0.0089
# 4 0.0139 0.0287 0.0590 24.2822 -0.0008 -0.2773
# 5 -23.5484 -15.0521 -6.6662 -0.0008 46.9461 0.0034
# 6 0.0008 0.0134 0.0089 -0.2773 0.0034 41.2126
#
#
#
# Elastic Compliance Matrix: (Units=1/GPa)
#
#
# Indices 1 2 3 4 5 6 
#
# 1 0.005459 -0.001425 -0.002776 0.000005 0.001887 0.000001
# 2 -0.001425 0.019522 -0.003879 -0.000013 0.004994 -0.000006
# 3 -0.002776 -0.003879 0.012380 -0.000024 -0.000878 -0.000001
# 4 0.000005 -0.000013 -0.000024 0.041186 -0.000004 0.000277
# 5 0.001887 0.004994 -0.000878 -0.000004 0.023724 -0.000003
# 6 0.000001 -0.000006 -0.000001 0.000277 -0.000003 0.024266
#
#
# Mechanical properties :
#
#
# Convention : Reuss Voigt Hill
#
# Bulk Modulus (GPa) = 47.16699 71.41101 59.28900
# Shear Modulus (GPa) = 33.38620 40.75634 37.07127
#
# Velocity S-wave (km/s) = 3.69537 4.08293 3.89398
# Velocity P-wave (km/s) = 6.12373 7.17189 6.66844
#
# Compressibility (1/GPa) = 0.02120127
#
# Stress axis : x y z
#
# Youngs Moduli (GPa) = 183.19721 51.22385 80.77787
#
# Poissons Ratio (x) = 0.07299 0.22421
# Poissons Ratio (y) = 0.26106 0.31332
# Poissons Ratio (z) = 0.50850 0.19869
#
# Static dielectric constant tensor:
#      x y z
#    x 1.965540 0.000000 0.003750 
#    y 0.000000 1.934340 0.000000 
#    z 0.003750 0.000000 1.995810 
# 
# From -- ./inp_files/71752.got.cif
#   From: 2010.05.17/outbox.cif.g08.bks.cpg/sg5_36_cif.got.tgz:71752.got - 2010.06.03 18:56:24.
