data_PCOD9128199
_publ_section_title
;
Structure prediction by ZEFSAII (Michael W. Deem and Ramdas Pophale) SiO2 
 PCOD9128199
Probable space group: C 2
;
_chemical_formula_sum "Si O2"
_cell_formula_units_Z 30
_cell_length_a 10.213012
_cell_length_b 10.279030
_cell_length_c 12.076617
_cell_angle_alpha 90.000000
_cell_angle_beta 115.082009
_cell_angle_gamma 90.000000
_cell_volume 1148.250316
_symmetry_space_group_name_H-M "C 2"
_symmetry_group_IT_number 5
_symmetry_cell_setting 'monoclinic'
loop_
_space_group_symop_operation_xyz
x,y,z
-x,y,-z
1/2+x,1/2+y,z
1/2-x,1/2+y,-z
loop_
_atom_site_type_symbol
_atom_site_label
_atom_site_fract_x
_atom_site_fract_y
_atom_site_fract_z
Si Si1 0.327540 0.266880 0.957051
Si Si2 0.876827 0.617756 0.544638
Si Si3 0.149254 0.235819 0.697196
Si Si4 0.409167 0.355085 0.675137
Si Si5 0.845369 0.286456 0.882292
Si Si6 0.334376 0.841250 0.641168
Si Si7 0.108774 0.012130 0.133536
Si Si8 0.500000 0.526531 0.500000
O O1 0.239110 0.184207 0.835274
O O2 0.291468 0.411666 0.896319
O O3 0.500000 0.248560 0.000000
O O4 0.266002 0.263090 0.057398
O O5 0.946668 0.705426 0.668150
O O6 0.765963 0.725137 0.448562
O O7 0.828333 0.478002 0.572487
O O8 0.000000 0.592615 0.500000
O O9 0.244754 0.341855 0.663770
O O10 0.112857 0.124130 0.596970
O O11 0.998703 0.292354 0.685632
O O12 0.449062 0.434397 0.580979
O O13 0.473774 0.435364 0.800218
O O14 0.808917 0.374597 0.762620
O O15 0.835768 0.149516 0.809934
O O16 0.000000 0.318486 0.000000
O O17 0.000000 0.054422 0.000000
#
# Coordination Sequence:
#
# PCOD9128199 Si02
#       8
#     4   4   4   4   4   4   4   2
#     4  10  23  50  81 126 169 222 293 376 443 523
#     4  12  32  53  84 131 179 235 298 370 444 536
#     4  11  26  49  84 121 172 230 292 366 441 531
#     4  11  26  49  79 122 168 225 292 352 434 532
#     4  11  23  51  87 123 159 230 297 361 445 535
#     4  12  30  54  84 129 179 231 294 372 445 542
#     4   9  22  44  78 113 166 222 283 354 435 518
#     4  12  26  48  84 124 170 238 284 358 454 542
#
# _framework density 26.126709000000002
#
# number of rings (size 3 to 8) (size 9 to 14) (size 15 to 20)
#    0.000    1.067    2.000    1.600   10.267    4.267 
#    4.800    1.333    0.000    0.000    0.000    0.000 
#    0.000    0.000    0.000    0.000    0.000    0.000 
#
# Total GULP energy -83767.637171 kJ/mol
# GULP energy per Si atom -5584.509145 kJ/mol
# Density = 2.606724 g / cm^3
# Si number density = 26.126709 Si / 1000 Ang^3
#
#
#
# Elastic Constant Matrix: (Units=GPa)
#
#
# Indices 1 2 3 4 5 6 
#
# 1 123.7844 16.2591 87.5314 0.0000 -3.8080 0.0000
# 2 16.2591 100.2259 66.5187 0.0000 2.6308 0.0000
# 3 87.5314 66.5187 170.7497 0.0000 -28.8643 0.0000
# 4 0.0000 0.0000 0.0000 31.2177 0.0000 -10.2146
# 5 -3.8080 2.6308 -28.8643 0.0000 53.1004 0.0000
# 6 0.0000 0.0000 0.0000 -10.2146 0.0000 31.8936
#
#
#
# Elastic Compliance Matrix: (Units=1/GPa)
#
#
# Indices 1 2 3 4 5 6 
#
# 1 0.014258 0.004258 -0.009724 0.000000 -0.004474 0.000000
# 2 0.004258 0.015493 -0.009136 0.000000 -0.005428 0.000000
# 3 -0.009724 -0.009136 0.015812 0.000000 0.008350 0.000000
# 4 0.000000 0.000000 0.000000 0.035783 0.000000 0.011460
# 5 -0.004474 -0.005428 0.008350 0.000000 0.023319 0.000000
# 6 0.000000 0.000000 0.000000 0.011460 0.000000 0.035025
#
#
# Mechanical properties :
#
#
# Convention : Reuss Voigt Hill
#
# Bulk Modulus (GPa) = 61.12930 81.70871 71.41900
# Shear Modulus (GPa) = 28.67850 38.20574 33.44212
#
# Velocity S-wave (km/s) = 3.31670 3.82818 3.58159
# Velocity P-wave (km/s) = 6.17377 7.13316 6.67073
#
# Compressibility (1/GPa) = 0.01635877
#
# Stress axis : x y z
#
# Youngs Moduli (GPa) = 70.13647 64.54688 63.24223
#
# Poissons Ratio (x) = -0.27487 0.61499
# Poissons Ratio (y) = -0.29867 0.57778
# Poissons Ratio (z) = 0.68203 0.58970
#
# Static dielectric constant tensor:
#      x y z
#    x 2.117190 0.000000 0.075680 
#    y 0.000000 2.143990 0.000000 
#    z 0.075680 0.000000 2.239460 
# 
# From -- ./inp_files/50533.got.cif
#   From: 2010.05.17/outbox.cif.g08.bks.cpg/sg5_26_cif.got.tgz:50533.got - 2010.06.03 18:56:24.
