data_PCOD9128535
_publ_section_title
;
Structure prediction by ZEFSAII (Michael W. Deem and Ramdas Pophale) SiO2 
 PCOD9128535
Probable space group: C 2
;
_chemical_formula_sum "Si O2"
_cell_formula_units_Z 32
_cell_length_a 12.215804
_cell_length_b 14.880608
_cell_length_c 17.600857
_cell_angle_alpha 90.000000
_cell_angle_beta 31.003752
_cell_angle_gamma 90.000000
_cell_volume 1648.022781
_symmetry_space_group_name_H-M "C 2"
_symmetry_group_IT_number 5
_symmetry_cell_setting 'monoclinic'
loop_
_space_group_symop_operation_xyz
x,y,z
-x,y,-z
1/2+x,1/2+y,z
1/2-x,1/2+y,-z
loop_
_atom_site_type_symbol
_atom_site_label
_atom_site_fract_x
_atom_site_fract_y
_atom_site_fract_z
Si Si1 0.871675 0.254840 0.150374
Si Si2 0.606175 0.859999 0.575527
Si Si3 0.271752 0.243188 0.165720
Si Si4 0.748068 0.908229 0.659820
Si Si5 0.928298 0.600368 0.194554
Si Si6 0.809108 0.545400 0.556429
Si Si7 0.098829 0.126867 0.131509
Si Si8 0.911422 0.690387 0.369251
O O1 0.832476 0.334775 0.232677
O O2 0.645216 0.216225 0.259171
O O3 0.004728 0.178520 0.114940
O O4 0.000000 0.285339 0.000000
O O5 0.369199 0.820063 0.712331
O O6 0.645004 0.891320 0.638970
O O7 0.763620 0.777922 0.463193
O O8 0.651028 0.944671 0.495653
O O9 0.319943 0.162840 0.195614
O O10 0.144841 0.200080 0.170354
O O11 0.500000 0.276432 0.000000
O O12 0.000000 0.898697 0.500000
O O13 0.690407 0.006725 0.724014
O O14 0.922862 0.653293 0.277278
O O15 0.173092 0.585147 0.024352
O O16 0.581584 0.559467 0.731410
O O17 0.820667 0.613143 0.478358
O O18 0.000000 0.571084 0.500000
#
# Coordination Sequence:
#
# PCOD9128535 Si02
#       8
#     4   4   4   4   4   4   4   4
#     4  12  24  43  75 104 135 180 235 289 348 409
#     4  12  26  44  68 103 141 181 233 283 346 410
#     4  10  24  45  70  94 137 187 222 276 350 410
#     4  12  26  45  69 104 137 177 231 296 341 408
#     4  11  27  45  69  99 140 184 231 279 351 407
#     4  12  26  44  71 103 136 187 231 282 346 410
#     4  11  23  47  70  98 139 181 225 285 342 414
#     4  12  24  44  71 101 136 183 232 283 343 412
#
# _framework density 19.417207000000001
#
# number of rings (size 3 to 8) (size 9 to 14) (size 15 to 20)
#    0.000    0.500    7.500    0.000    5.250    2.500 
#    2.250    0.625    0.000    0.000    0.000    0.000 
#    0.000    0.000    0.000    0.000    0.000    0.000 
#
# Total GULP energy -89522.382009 kJ/mol
# GULP energy per Si atom -5595.148876 kJ/mol
# Density = 1.937301 g / cm^3
# Si number density = 19.417207 Si / 1000 Ang^3
#
#
#
# Elastic Constant Matrix: (Units=GPa)
#
#
# Indices 1 2 3 4 5 6 
#
# 1 48.8211 -11.7146 22.7455 -0.0016 3.1351 0.0001
# 2 -11.7146 61.1005 41.8233 -0.0030 2.0620 0.0004
# 3 22.7455 41.8233 130.5063 -0.0064 5.2484 0.0016
# 4 -0.0016 -0.0030 -0.0064 32.8475 0.0009 5.0334
# 5 3.1351 2.0620 5.2484 0.0009 32.0818 0.0006
# 6 0.0001 0.0004 0.0016 5.0334 0.0006 30.3714
#
#
#
# Elastic Compliance Matrix: (Units=1/GPa)
#
#
# Indices 1 2 3 4 5 6 
#
# 1 0.026948 0.010753 -0.008062 0.000001 -0.002006 0.000000
# 2 0.010753 0.025258 -0.009926 0.000001 -0.001050 0.000000
# 3 -0.008062 -0.009926 0.012272 0.000001 -0.000582 -0.000001
# 4 0.000001 0.000001 0.000001 0.031237 -0.000001 -0.005177
# 5 -0.002006 -0.001050 -0.000582 -0.000001 0.031529 0.000000
# 6 0.000000 0.000000 -0.000001 -0.005177 0.000000 0.033784
#
#
# Mechanical properties :
#
#
# Convention : Reuss Voigt Hill
#
# Bulk Modulus (GPa) = 19.99721 38.45959 29.22840
# Shear Modulus (GPa) = 26.01897 31.56505 28.79201
#
# Velocity S-wave (km/s) = 3.66457 4.03628 3.85490
# Velocity P-wave (km/s) = 5.31286 6.44763 5.90756
#
# Compressibility (1/GPa) = 0.05000697
#
# Stress axis : x y z
#
# Youngs Moduli (GPa) = 37.10869 39.59140 81.48623
#
# Poissons Ratio (x) = -0.42571 0.65694
# Poissons Ratio (y) = -0.39902 0.80885
# Poissons Ratio (z) = 0.29917 0.39299
#
# Static dielectric constant tensor:
#      x y z
#    x 1.661090 0.000000 0.000930 
#    y 0.000000 1.635660 0.000000 
#    z 0.000930 0.000000 1.665950 
# 
# From -- ./inp_files/31052.got.cif
#   From: 2010.05.17/outbox.cif.g08.bks.cpg/sg5_16_cif.got.tgz:31052.got - 2010.06.03 18:56:24.
