data_PCOD9128723
_publ_section_title
;
Structure prediction by ZEFSAII (Michael W. Deem and Ramdas Pophale) SiO2 
 PCOD9128723
Probable space group: C 2
;
_chemical_formula_sum "Si O2"
_cell_formula_units_Z 20
_cell_length_a 9.834494
_cell_length_b 10.893986
_cell_length_c 7.474019
_cell_angle_alpha 90.000000
_cell_angle_beta 115.088310
_cell_angle_gamma 90.000000
_cell_volume 725.196964
_symmetry_space_group_name_H-M "C 2"
_symmetry_group_IT_number 5
_symmetry_cell_setting 'monoclinic'
loop_
_space_group_symop_operation_xyz
x,y,z
-x,y,-z
1/2+x,1/2+y,z
1/2-x,1/2+y,-z
loop_
_atom_site_type_symbol
_atom_site_label
_atom_site_fract_x
_atom_site_fract_y
_atom_site_fract_z
Si Si1 0.762282 0.362370 0.290119
Si Si2 0.194258 0.546110 0.381214
Si Si3 0.025040 0.163820 0.339621
Si Si4 0.233300 0.081872 0.997678
Si Si5 0.474069 0.237507 0.283490
O O1 0.792190 0.421407 0.502667
O O2 0.752811 0.469077 0.140467
O O3 0.598064 0.300820 0.225134
O O4 0.903742 0.273519 0.316605
O O5 0.296130 0.647536 0.551616
O O6 0.028723 0.596348 0.316086
O O7 0.214831 0.546736 0.177624
O O8 0.000000 0.076583 0.500000
O O9 0.943058 0.103886 0.131461
O O10 0.310248 0.210272 0.108892
O O11 0.500000 0.285078 0.500000
#
# Coordination Sequence:
#
# PCOD9128723 Si02
#       5
#     4   4   4   4   4
#     4  12  27  51  85 106 161 208 252 322 400 447
#     4  11  26  51  77 113 159 197 261 323 381 466
#     4  10  24  48  75 113 150 196 260 317 376 461
#     4  11  26  49  79 115 152 199 266 318 378 461
#     4  12  26  49  80 115 159 204 257 321 385 470
#
# _framework density 27.578713
#
# number of rings (size 3 to 8) (size 9 to 14) (size 15 to 20)
#    0.000    0.800    6.000    0.600    2.800    8.000 
#    0.000    4.000    0.000    0.000    0.000    0.000 
#    0.000    0.000    0.000    0.000    0.000    0.000 
#
# Total GULP energy -55721.019349 kJ/mol
# GULP energy per Si atom -5572.101935 kJ/mol
# Density = 2.751594 g / cm^3
# Si number density = 27.578713 Si / 1000 Ang^3
#
#
#
# Elastic Constant Matrix: (Units=GPa)
#
#
# Indices 1 2 3 4 5 6 
#
# 1 102.5388 42.7219 89.9112 0.0000 -25.4458 0.0000
# 2 42.7219 120.7341 45.7660 0.0000 -14.3571 0.0000
# 3 89.9112 45.7660 174.3583 0.0000 -1.9040 0.0000
# 4 0.0000 0.0000 0.0000 38.1063 0.0000 -6.7677
# 5 -25.4458 -14.3571 -1.9040 0.0000 69.5081 0.0000
# 6 0.0000 0.0000 0.0000 -6.7677 0.0000 33.0652
#
#
#
# Elastic Compliance Matrix: (Units=1/GPa)
#
#
# Indices 1 2 3 4 5 6 
#
# 1 0.021907 -0.002945 -0.010446 0.000000 0.007126 0.000000
# 2 -0.002945 0.009834 -0.001052 0.000000 0.000924 0.000000
# 3 -0.010446 -0.001052 0.011358 0.000000 -0.003730 0.000000
# 4 0.000000 0.000000 0.000000 0.027232 0.000000 0.005574
# 5 0.007126 0.000924 -0.003730 0.000000 0.017084 0.000000
# 6 0.000000 0.000000 0.000000 0.005574 0.000000 0.031384
#
#
# Mechanical properties :
#
#
# Convention : Reuss Voigt Hill
#
# Bulk Modulus (GPa) = 70.36533 83.82546 77.09539
# Shear Modulus (GPa) = 32.80343 42.75138 37.77741
#
# Velocity S-wave (km/s) = 3.45258 3.94148 3.70510
# Velocity P-wave (km/s) = 6.43921 7.15364 6.80581
#
# Compressibility (1/GPa) = 0.01421154
#
# Stress axis : x y z
#
# Youngs Moduli (GPa) = 45.64687 101.69250 88.04680
#
# Poissons Ratio (x) = 0.29947 0.91975
# Poissons Ratio (y) = 0.13442 0.09267
# Poissons Ratio (z) = 0.47683 0.10703
#
# Static dielectric constant tensor:
#      x y z
#    x 2.305720 0.000000 0.001550 
#    y 0.000000 2.242060 0.000000 
#    z 0.001550 0.000000 2.277020 
# 
# From -- ./inp_files/19475.got.cif
#   From: 2010.05.17/outbox.cif.g08.bks.cpg/sg5_10_cif.got.tgz:19475.got - 2010.06.03 18:56:24.
