data_PCOD9128143
_publ_section_title
;
Structure prediction by ZEFSAII (Michael W. Deem and Ramdas Pophale) SiO2 
 PCOD9128143
Probable space group: C 2
;
_chemical_formula_sum "Si O2"
_cell_formula_units_Z 24
_cell_length_a 13.924720
_cell_length_b 11.890173
_cell_length_c 19.474057
_cell_angle_alpha 90.000000
_cell_angle_beta 19.231284
_cell_angle_gamma 90.000000
_cell_volume 1062.016476
_symmetry_space_group_name_H-M "C 2"
_symmetry_group_IT_number 5
_symmetry_cell_setting 'monoclinic'
loop_
_space_group_symop_operation_xyz
x,y,z
-x,y,-z
1/2+x,1/2+y,z
1/2-x,1/2+y,-z
loop_
_atom_site_type_symbol
_atom_site_label
_atom_site_fract_x
_atom_site_fract_y
_atom_site_fract_z
Si Si1 0.582032 0.376170 0.517036
Si Si2 0.553917 0.575019 0.641380
Si Si3 0.093045 0.519677 0.357534
Si Si4 0.176320 0.237818 0.100007
Si Si5 0.347901 0.763782 0.675666
Si Si6 0.050356 0.212946 0.889700
O O1 0.500000 0.438405 0.500000
O O2 0.513930 0.458045 0.627317
O O3 0.354766 0.273120 0.665883
O O4 0.908601 0.322994 0.299755
O O5 0.391635 0.614119 0.821335
O O6 0.459655 0.672098 0.653191
O O7 0.886802 0.578188 0.440938
O O8 0.068317 0.389064 0.359500
O O9 0.402663 0.579132 0.142670
O O10 0.000000 0.535760 0.500000
O O11 0.174268 0.239467 0.018586
O O12 0.500000 0.752873 0.000000
O O13 0.498115 0.266255 0.907318
O O14 0.500000 0.741847 0.500000
#
# Coordination Sequence:
#
# PCOD9128143 Si02
#       6
#     4   4   4   4   4   4
#     4  10  23  47  73 104 142 186 240 291 355 426
#     4  12  23  43  74  98 144 184 232 298 350 413
#     4  11  23  46  70  97 141 186 236 291 349 424
#     4  11  24  48  73 105 147 183 242 295 355 421
#     4  11  28  47  70 110 143 189 237 292 360 423
#     4  11  24  43  73 106 139 191 239 289 357 427
#
# _framework density 22.598519
#
# number of rings (size 3 to 8) (size 9 to 14) (size 15 to 20)
#    0.000    1.000    3.333    2.500    2.333    5.333 
#    6.000    1.667    0.000    0.000    0.000    0.000 
#    0.000    0.000    0.000    0.000    0.000    0.000 
#
# Total GULP energy -66969.598428 kJ/mol
# GULP energy per Si atom -5580.799869 kJ/mol
# Density = 2.254708 g / cm^3
# Si number density = 22.598519 Si / 1000 Ang^3
#
#
#
# Elastic Constant Matrix: (Units=GPa)
#
#
# Indices 1 2 3 4 5 6 
#
# 1 158.2160 48.7336 38.3425 -0.0066 -13.7188 -0.0067
# 2 48.7336 80.0555 9.6646 -0.0599 -8.9527 0.0245
# 3 38.3425 9.6646 68.1925 -0.0824 -6.2326 0.0393
# 4 -0.0066 -0.0599 -0.0824 9.2989 -0.0113 -1.8564
# 5 -13.7188 -8.9527 -6.2326 -0.0113 37.9286 0.0206
# 6 -0.0067 0.0245 0.0393 -1.8564 0.0206 28.5894
#
#
#
# Elastic Compliance Matrix: (Units=1/GPa)
#
#
# Indices 1 2 3 4 5 6 
#
# 1 0.008935 -0.004772 -0.004219 -0.000059 0.001412 0.000007
# 2 -0.004772 0.015545 0.000668 0.000103 0.002053 -0.000010
# 3 -0.004219 0.000668 0.017073 0.000151 0.001437 -0.000016
# 4 -0.000059 0.000103 0.000151 0.108954 0.000057 0.007074
# 5 0.001412 0.002053 0.001437 0.000057 0.027597 -0.000020
# 6 0.000007 -0.000010 -0.000016 0.007074 -0.000020 0.035437
#
#
# Mechanical properties :
#
#
# Convention : Reuss Voigt Hill
#
# Bulk Modulus (GPa) = 40.14776 55.54949 47.84863
# Shear Modulus (GPa) = 20.96521 29.14496 25.05508
#
# Velocity S-wave (km/s) = 3.04916 3.59511 3.33333
# Velocity P-wave (km/s) = 5.49552 6.47051 6.00284
#
# Compressibility (1/GPa) = 0.02490799
#
# Stress axis : x y z
#
# Youngs Moduli (GPa) = 111.91720 64.32771 58.57100
#
# Poissons Ratio (x) = 0.30698 0.24709
# Poissons Ratio (y) = 0.53408 -0.03911
# Poissons Ratio (z) = 0.47214 -0.04296
#
# Static dielectric constant tensor:
#      x y z
#    x 1.908340 -0.000020 0.081750 
#    y -0.000020 1.836050 0.000060 
#    z 0.081750 0.000060 1.872560 
# 
# From -- ./inp_files/66068.got.cif
#   From: 2010.05.17/outbox.cif.g08.bks.cpg/sg5_34_cif.got.tgz:66068.got - 2010.06.03 18:56:24.
