data_PCOD9128343
_publ_section_title
;
Structure prediction by ZEFSAII (Michael W. Deem and Ramdas Pophale) SiO2 
 PCOD9128343
Probable space group: C 2
;
_chemical_formula_sum "Si O2"
_cell_formula_units_Z 18
_cell_length_a 16.404788
_cell_length_b 8.477297
_cell_length_c 13.972099
_cell_angle_alpha 90.000000
_cell_angle_beta 18.867475
_cell_angle_gamma 90.000000
_cell_volume 628.352344
_symmetry_space_group_name_H-M "C 2"
_symmetry_group_IT_number 5
_symmetry_cell_setting 'monoclinic'
loop_
_space_group_symop_operation_xyz
x,y,z
-x,y,-z
1/2+x,1/2+y,z
1/2-x,1/2+y,-z
loop_
_atom_site_type_symbol
_atom_site_label
_atom_site_fract_x
_atom_site_fract_y
_atom_site_fract_z
Si Si1 0.260557 0.728250 0.707120
Si Si2 0.216138 0.250910 0.544159
Si Si3 0.858050 0.052160 0.043912
Si Si4 0.203632 0.909948 0.080502
Si Si5 0.500000 0.320429 0.500000
O O1 0.500000 0.679692 0.500000
O O2 0.318189 0.727306 0.531224
O O3 0.197862 0.896412 0.831766
O O4 0.000000 0.632974 0.000000
O O5 0.503115 0.302479 0.241844
O O6 0.976769 0.369068 0.821921
O O7 0.137766 0.104672 0.699535
O O8 0.731464 0.196430 0.240321
O O9 0.740747 0.033161 0.067065
O O10 0.030102 0.915695 0.368217
#
# Coordination Sequence:
#
# PCOD9128343 Si02
#       5
#     4   4   4   4   2
#     4  12  22  41  68  97 127 168 219 262 317 391
#     4  11  24  39  67 101 124 172 217 262 320 385
#     4  11  23  42  73  89 135 175 205 272 328 367
#     4  11  24  42  63 100 133 158 228 264 305 400
#     4  10  24  42  68 100 124 178 214 260 328 382
#
# _framework density 28.646348
#
# number of rings (size 3 to 8) (size 9 to 14) (size 15 to 20)
#    0.000    0.889    5.556    0.000    3.111    6.222 
#    2.000    0.000    4.889    0.000    0.000    0.000 
#    0.000    0.000    0.000    0.000    0.000    0.000 
#
# Total GULP energy -50183.906811 kJ/mol
# GULP energy per Si atom -5575.989646 kJ/mol
# Density = 2.858115 g / cm^3
# Si number density = 28.646348 Si / 1000 Ang^3
#
#
#
# Elastic Constant Matrix: (Units=GPa)
#
#
# Indices 1 2 3 4 5 6 
#
# 1 218.0769 52.5013 42.8868 -0.0056 30.2370 0.0006
# 2 52.5013 93.3575 27.2330 -0.0112 4.1165 0.0006
# 3 42.8868 27.2330 147.7077 -0.0366 3.7544 0.0026
# 4 -0.0056 -0.0112 -0.0366 130.2548 0.0171 35.3737
# 5 30.2370 4.1165 3.7544 0.0171 93.6411 -0.0006
# 6 0.0006 0.0006 0.0026 35.3737 -0.0006 50.0406
#
#
#
# Elastic Compliance Matrix: (Units=1/GPa)
#
#
# Indices 1 2 3 4 5 6 
#
# 1 0.005712 -0.002819 -0.001096 0.000000 -0.001677 0.000000
# 2 -0.002819 0.012727 -0.001539 0.000001 0.000412 0.000000
# 3 -0.001096 -0.001539 0.007369 0.000002 0.000126 -0.000002
# 4 0.000000 0.000001 0.000002 0.009501 -0.000002 -0.006716
# 5 -0.001677 0.000412 0.000126 -0.000002 0.011197 0.000001
# 6 0.000000 0.000000 -0.000002 -0.006716 0.000001 0.024732
#
#
# Mechanical properties :
#
#
# Convention : Reuss Voigt Hill
#
# Bulk Modulus (GPa) = 67.10811 78.26492 72.68652
# Shear Modulus (GPa) = 57.39696 77.22202 67.30949
#
# Velocity S-wave (km/s) = 4.48106 5.19765 4.85260
# Velocity P-wave (km/s) = 7.08876 7.96248 7.53829
#
# Compressibility (1/GPa) = 0.01490133
#
# Stress axis : x y z
#
# Youngs Moduli (GPa) = 175.06488 78.57142 135.70568
#
# Poissons Ratio (x) = 0.22146 0.14876
# Poissons Ratio (y) = 0.49344 0.20880
# Poissons Ratio (z) = 0.19191 0.12089
#
# Static dielectric constant tensor:
#      x y z
#    x 2.171430 0.000000 -0.038090 
#    y 0.000000 2.525730 0.000000 
#    z -0.038090 0.000000 2.259550 
# 
# From -- ./inp_files/55846.got.cif
#   From: 2010.05.17/outbox.cif.g08.bks.cpg/sg5_28_cif.got.tgz:55846.got - 2010.06.03 18:56:24.
