data_PCOD9128869
_publ_section_title
;
Structure prediction by ZEFSAII (Michael W. Deem and Ramdas Pophale) SiO2 
 PCOD9128869
Probable space group: C 2
;
_chemical_formula_sum "Si O2"
_cell_formula_units_Z 20
_cell_length_a 9.737202
_cell_length_b 4.975185
_cell_length_c 17.987660
_cell_angle_alpha 90.000000
_cell_angle_beta 122.808063
_cell_angle_gamma 90.000000
_cell_volume 732.404193
_symmetry_space_group_name_H-M "C 2"
_symmetry_group_IT_number 5
_symmetry_cell_setting 'monoclinic'
loop_
_space_group_symop_operation_xyz
x,y,z
-x,y,-z
1/2+x,1/2+y,z
1/2-x,1/2+y,-z
loop_
_atom_site_type_symbol
_atom_site_label
_atom_site_fract_x
_atom_site_fract_y
_atom_site_fract_z
Si Si1 0.820477 0.693630 0.559701
Si Si2 0.676479 0.554336 0.803139
Si Si3 0.665045 0.896232 0.667548
Si Si4 0.347046 0.308045 0.056182
Si Si5 0.935882 0.221968 0.841021
O O1 0.702988 0.447434 0.501222
O O2 0.761200 0.798723 0.622877
O O3 0.000536 0.564602 0.607028
O O4 0.620810 0.635139 0.704659
O O5 0.641060 0.308647 0.849760
O O6 0.867912 0.502096 0.849641
O O7 0.580740 0.765459 0.824988
O O8 0.788697 0.080037 0.752223
O O9 0.500115 0.503352 0.081754
O O10 0.200469 0.526679 0.994305
#
# Coordination Sequence:
#
# PCOD9128869 Si02
#       5
#     4   4   4   4   4
#     4  12  32  54  84 126 162 214 270 348 438 490
#     4  10  25  45  77 111 151 218 273 324 412 477
#     4  12  27  52  83 106 172 206 282 336 401 532
#     4  10  26  48  70 116 164 210 274 346 402 474
#     4  10  25  45  77 111 151 218 273 324 412 477
#
# _framework density 27.307324999999999
#
# number of rings (size 3 to 8) (size 9 to 14) (size 15 to 20)
#    1.200    0.000    0.000    3.000   14.000    2.400 
#    0.000    0.000    0.000    0.000    0.000    0.000 
#    0.000    0.000    0.000    0.000    0.000    0.000 
#
# Total GULP energy -55793.340840 kJ/mol
# GULP energy per Si atom -5579.334084 kJ/mol
# Density = 2.724517 g / cm^3
# Si number density = 27.307325 Si / 1000 Ang^3
#
#
#
# Elastic Constant Matrix: (Units=GPa)
#
#
# Indices 1 2 3 4 5 6 
#
# 1 153.4254 40.8959 37.3006 0.0000 -8.0531 0.0000
# 2 40.8959 190.0905 49.9234 0.0000 6.9553 0.0000
# 3 37.3006 49.9234 111.2526 0.0000 8.8415 0.0000
# 4 0.0000 0.0000 0.0000 54.2814 0.0000 15.8809
# 5 -8.0531 6.9553 8.8415 0.0000 46.5189 0.0000
# 6 0.0000 0.0000 0.0000 15.8809 0.0000 33.0717
#
#
#
# Elastic Compliance Matrix: (Units=1/GPa)
#
#
# Indices 1 2 3 4 5 6 
#
# 1 0.007431 -0.001104 -0.002144 0.000000 0.001859 0.000000
# 2 -0.001104 0.006134 -0.002330 0.000000 -0.000665 0.000000
# 3 -0.002144 -0.002330 0.010920 0.000000 -0.002098 0.000000
# 4 0.000000 0.000000 0.000000 0.021434 0.000000 -0.010292
# 5 0.001859 -0.000665 -0.002098 0.000000 0.022317 0.000000
# 6 0.000000 0.000000 0.000000 -0.010292 0.000000 0.035180
#
#
# Mechanical properties :
#
#
# Convention : Reuss Voigt Hill
#
# Bulk Modulus (GPa) = 75.01836 79.00093 77.00965
# Shear Modulus (GPa) = 42.01231 48.55098 45.28165
#
# Velocity S-wave (km/s) = 3.92663 4.22115 4.07655
# Velocity P-wave (km/s) = 6.93465 7.26296 7.10070
#
# Compressibility (1/GPa) = 0.01333007
#
# Stress axis : x y z
#
# Youngs Moduli (GPa) = 134.57535 163.01764 91.57874
#
# Poissons Ratio (x) = 0.17991 0.19633
# Poissons Ratio (y) = 0.14852 0.21336
# Poissons Ratio (z) = 0.28851 0.37980
#
# Static dielectric constant tensor:
#      x y z
#    x 2.289330 0.000000 0.070630 
#    y 0.000000 2.154390 0.000000 
#    z 0.070630 0.000000 2.202080 
# 
# From -- ./inp_files/60000.got.cif
#   From: 2010.05.17/outbox.cif.g08.bks.cpg/sg5_30_cif.got.tgz:60000.got - 2010.06.03 18:56:24.
