data_PCOD9128864
_publ_section_title
;
Structure prediction by ZEFSAII (Michael W. Deem and Ramdas Pophale) SiO2 
 PCOD9128864
Probable space group: C 2
;
_chemical_formula_sum "Si O2"
_cell_formula_units_Z 24
_cell_length_a 28.217290
_cell_length_b 4.928114
_cell_length_c 14.647466
_cell_angle_alpha 90.000000
_cell_angle_beta 153.028680
_cell_angle_gamma 90.000000
_cell_volume 923.800926
_symmetry_space_group_name_H-M "C 2"
_symmetry_group_IT_number 5
_symmetry_cell_setting 'monoclinic'
loop_
_space_group_symop_operation_xyz
x,y,z
-x,y,-z
1/2+x,1/2+y,z
1/2-x,1/2+y,-z
loop_
_atom_site_type_symbol
_atom_site_label
_atom_site_fract_x
_atom_site_fract_y
_atom_site_fract_z
Si Si1 0.776612 0.008950 0.606445
Si Si2 0.769851 0.242573 0.099972
Si Si3 0.568966 0.128581 0.048605
Si Si4 0.069666 0.816582 0.864439
Si Si5 0.217762 0.252847 0.197089
Si Si6 0.421205 0.160957 0.443828
O O1 0.779695 0.276348 0.549543
O O2 0.736971 0.060152 0.642552
O O3 0.888601 0.877272 0.819554
O O4 0.874460 0.370089 0.326062
O O5 0.723181 0.490101 0.956917
O O6 0.679490 0.187794 0.018841
O O7 0.669139 0.982840 0.177297
O O8 0.500000 0.961219 0.000000
O O9 0.514862 0.223109 0.863404
O O10 0.992365 0.722826 0.653249
O O11 0.118111 0.112129 0.974748
O O12 0.312279 0.294484 0.289317
O O13 0.500000 0.256371 0.500000
#
# Coordination Sequence:
#
# PCOD9128864 Si02
#       6
#     4   4   4   4   4   4
#     4  11  23  47  77 109 150 203 254 316 389 466
#     4  11  25  50  79 112 165 202 256 333 386 468
#     4  11  26  48  74 110 160 204 256 331 392 460
#     4  10  25  45  72 112 155 203 264 317 391 471
#     4  10  25  47  74 117 161 203 259 337 386 467
#     4  11  24  48  77 118 152 216 261 321 399 479
#
# _framework density 25.979621000000002
#
# number of rings (size 3 to 8) (size 9 to 14) (size 15 to 20)
#    0.000    1.333    3.333    0.000    7.000    2.667 
#    9.000    1.667    0.000    0.000    0.000    0.000 
#    0.000    0.000    0.000    0.000    0.000    0.000 
#
# Total GULP energy -66901.960261 kJ/mol
# GULP energy per Si atom -5575.163355 kJ/mol
# Density = 2.592049 g / cm^3
# Si number density = 25.979621 Si / 1000 Ang^3
#
#
#
# Elastic Constant Matrix: (Units=GPa)
#
#
# Indices 1 2 3 4 5 6 
#
# 1 222.6872 46.4051 65.6066 0.0000 -6.0625 0.0000
# 2 46.4051 93.6706 39.5144 0.0000 6.9260 0.0001
# 3 65.6066 39.5144 167.4015 0.0000 -23.7447 0.0000
# 4 0.0000 0.0000 0.0000 36.0398 0.0000 -9.2322
# 5 -6.0625 6.9260 -23.7447 0.0000 53.4934 0.0000
# 6 0.0000 0.0001 0.0000 -9.2322 0.0000 14.8009
#
#
#
# Elastic Compliance Matrix: (Units=1/GPa)
#
#
# Indices 1 2 3 4 5 6 
#
# 1 0.005388 -0.001997 -0.001619 0.000000 0.000151 0.000000
# 2 -0.001997 0.013054 -0.002743 0.000000 -0.003134 0.000000
# 3 -0.001619 -0.002743 0.007769 0.000000 0.003620 0.000000
# 4 0.000000 0.000000 0.000000 0.033024 0.000000 0.020599
# 5 0.000151 -0.003134 0.003620 0.000000 0.020724 0.000000
# 6 0.000000 0.000000 0.000000 0.020599 0.000000 0.080412
#
#
# Mechanical properties :
#
#
# Convention : Reuss Voigt Hill
#
# Bulk Modulus (GPa) = 74.11509 87.42348 80.76928
# Shear Modulus (GPa) = 28.15520 43.01568 35.58544
#
# Velocity S-wave (km/s) = 3.29559 4.07350 3.70502
# Velocity P-wave (km/s) = 6.56288 7.47318 7.03277
#
# Compressibility (1/GPa) = 0.01349253
#
# Stress axis : x y z
#
# Youngs Moduli (GPa) = 185.60304 76.60378 128.71595
#
# Poissons Ratio (x) = 0.15302 0.20835
# Poissons Ratio (y) = 0.37074 0.35308
# Poissons Ratio (z) = 0.30043 0.21013
#
# Static dielectric constant tensor:
#      x y z
#    x 2.057300 0.000000 -0.063690 
#    y 0.000000 2.241080 0.000000 
#    z -0.063690 0.000000 2.124210 
# 
# From -- ./inp_files/58328.got.cif
#   From: 2010.05.17/outbox.cif.g08.bks.cpg/sg5_30_cif.got.tgz:58328.got - 2010.06.03 18:56:24.
