data_PCOD9128468
_publ_section_title
;
Structure prediction by ZEFSAII (Michael W. Deem and Ramdas Pophale) SiO2 
 PCOD9128468
Probable space group: C 2
;
_chemical_formula_sum "Si O2"
_cell_formula_units_Z 24
_cell_length_a 13.051034
_cell_length_b 10.100396
_cell_length_c 7.984111
_cell_angle_alpha 90.000000
_cell_angle_beta 100.912414
_cell_angle_gamma 90.000000
_cell_volume 1033.439330
_symmetry_space_group_name_H-M "C 2"
_symmetry_group_IT_number 5
_symmetry_cell_setting 'monoclinic'
loop_
_space_group_symop_operation_xyz
x,y,z
-x,y,-z
1/2+x,1/2+y,z
1/2-x,1/2+y,-z
loop_
_atom_site_type_symbol
_atom_site_label
_atom_site_fract_x
_atom_site_fract_y
_atom_site_fract_z
Si Si1 0.443095 0.690300 0.138338
Si Si2 0.783127 0.742669 0.070905
Si Si3 0.217911 0.786447 0.564539
Si Si4 0.060380 0.423131 0.345025
Si Si5 0.933408 0.921835 0.266716
Si Si6 0.100775 0.702636 0.219948
O O1 0.508904 0.816962 0.207487
O O2 0.447977 0.577260 0.278968
O O3 0.500000 0.621399 0.000000
O O4 0.329171 0.734081 0.046045
O O5 0.777262 0.694689 0.264347
O O6 0.831837 0.889560 0.115728
O O7 0.860355 0.681615 0.957156
O O8 0.319367 0.878546 0.596759
O O9 0.112562 0.868226 0.573120
O O10 0.198236 0.722725 0.378534
O O11 0.048482 0.569653 0.270135
O O12 0.000000 0.415098 0.500000
O O13 0.024042 0.828321 0.220397
#
# Coordination Sequence:
#
# PCOD9128468 Si02
#       6
#     4   4   4   4   4   4
#     4  12  23  45  69 101 141 182 236 293 352 419
#     4  10  24  44  71 104 136 187 234 294 347 417
#     4  10  24  47  67 106 138 188 237 289 349 422
#     4  12  27  45  68 108 146 186 233 294 363 421
#     4  10  24  44  71 104 134 189 241 287 355 420
#     4  12  24  48  72 105 142 184 239 292 354 425
#
# _framework density 23.223421999999999
#
# number of rings (size 3 to 8) (size 9 to 14) (size 15 to 20)
#    1.000    0.000    1.667    5.000    0.000    5.333 
#    3.000    0.000    0.000    0.000    0.000    0.000 
#    0.000    0.000    0.000    0.000    0.000    0.000 
#
# Total GULP energy -66979.840283 kJ/mol
# GULP energy per Si atom -5581.653357 kJ/mol
# Density = 2.317056 g / cm^3
# Si number density = 23.223422 Si / 1000 Ang^3
#
#
#
# Elastic Constant Matrix: (Units=GPa)
#
#
# Indices 1 2 3 4 5 6 
#
# 1 121.2054 19.7137 22.7962 0.0000 0.0336 0.0000
# 2 19.7137 80.2373 10.5444 0.0000 24.1644 0.0000
# 3 22.7962 10.5444 110.8690 0.0000 -9.3827 0.0000
# 4 0.0000 0.0000 0.0000 16.7320 0.0000 3.8507
# 5 0.0336 24.1644 -9.3827 0.0000 42.8801 0.0000
# 6 0.0000 0.0000 0.0000 3.8507 0.0000 27.4216
#
#
#
# Elastic Compliance Matrix: (Units=1/GPa)
#
#
# Indices 1 2 3 4 5 6 
#
# 1 0.008908 -0.002268 -0.001537 0.000000 0.000935 0.000000
# 2 -0.002268 0.016126 -0.001871 0.000000 -0.009495 0.000000
# 3 -0.001537 -0.001871 0.009784 0.000000 0.003196 0.000000
# 4 0.000000 0.000000 0.000000 0.061762 0.000000 -0.008673
# 5 0.000935 -0.009495 0.003196 0.000000 0.029370 0.000000
# 6 0.000000 0.000000 0.000000 -0.008673 0.000000 0.037685
#
#
# Mechanical properties :
#
#
# Convention : Reuss Voigt Hill
#
# Bulk Modulus (GPa) = 42.61456 46.49111 44.55284
# Shear Modulus (GPa) = 27.35093 34.69058 31.02076
#
# Velocity S-wave (km/s) = 3.43553 3.86913 3.65876
# Velocity P-wave (km/s) = 5.84182 6.32636 6.08891
#
# Compressibility (1/GPa) = 0.02346616
#
# Stress axis : x y z
#
# Youngs Moduli (GPa) = 112.25652 62.01273 102.20692
#
# Poissons Ratio (x) = 0.14066 0.15707
# Poissons Ratio (y) = 0.25463 0.19121
# Poissons Ratio (z) = 0.17251 0.11601
#
# Static dielectric constant tensor:
#      x y z
#    x 1.883560 0.000000 0.008750 
#    y 0.000000 1.797870 0.000000 
#    z 0.008750 0.000000 1.953830 
# 
# From -- ./inp_files/22860.got.cif
#   From: 2010.05.17/outbox.cif.g08.bks.cpg/sg5_12_cif.got.tgz:22860.got - 2010.06.03 18:56:24.
