data_PCOD9128920
_publ_section_title
;
Structure prediction by ZEFSAII (Michael W. Deem and Ramdas Pophale) SiO2 
 PCOD9128920
Probable space group: C 2
;
_chemical_formula_sum "Si O2"
_cell_formula_units_Z 18
_cell_length_a 7.758605
_cell_length_b 17.905998
_cell_length_c 6.496928
_cell_angle_alpha 90.000000
_cell_angle_beta 59.132783
_cell_angle_gamma 90.000000
_cell_volume 774.745370
_symmetry_space_group_name_H-M "C 2"
_symmetry_group_IT_number 5
_symmetry_cell_setting 'monoclinic'
loop_
_space_group_symop_operation_xyz
x,y,z
-x,y,-z
1/2+x,1/2+y,z
1/2-x,1/2+y,-z
loop_
_atom_site_type_symbol
_atom_site_label
_atom_site_fract_x
_atom_site_fract_y
_atom_site_fract_z
Si Si1 0.799285 0.966340 0.991693
Si Si2 0.916272 0.120191 0.767169
Si Si3 0.739498 0.349486 0.324995
Si Si4 0.500000 0.934851 0.500000
Si Si5 0.209801 0.679375 0.253376
O O1 0.626852 0.983236 0.262195
O O2 0.725235 0.896534 0.903656
O O3 0.000000 0.949812 0.000000
O O4 0.840124 0.035180 0.814013
O O5 0.000000 0.148602 0.500000
O O6 0.124441 0.122263 0.765651
O O7 0.741663 0.167593 0.988270
O O8 0.500000 0.355684 0.500000
O O9 0.852541 0.383998 0.451552
O O10 0.783682 0.262540 0.264200
O O11 0.000000 0.668757 0.500000
#
# Coordination Sequence:
#
# PCOD9128920 Si02
#       5
#     4   4   4   2   4
#     4  12  25  47  72 109 150 195 251 307 365 449
#     4  11  26  46  74 102 150 196 246 303 369 445
#     4  11  25  49  75 112 148 194 254 305 370 451
#     4  12  28  44  82 104 152 200 244 312 386 420
#     4  10  25  48  72 107 149 189 250 307 371 447
#
# _framework density 23.233440000000002
#
# number of rings (size 3 to 8) (size 9 to 14) (size 15 to 20)
#    0.000    0.889    4.444    1.333    9.333    0.889 
#    4.000    0.000    0.000    0.000    0.000    0.000 
#    0.000    0.000    0.000    0.000    0.000    0.000 
#
# Total GULP energy -50296.212126 kJ/mol
# GULP energy per Si atom -5588.468014 kJ/mol
# Density = 2.318056 g / cm^3
# Si number density = 23.233440 Si / 1000 Ang^3
#
#
#
# Elastic Constant Matrix: (Units=GPa)
#
#
# Indices 1 2 3 4 5 6 
#
# 1 91.6878 12.5704 24.5819 0.0000 -8.7857 0.0000
# 2 12.5704 79.9254 17.8352 0.0000 -8.7112 0.0000
# 3 24.5819 17.8352 187.7969 0.0000 -31.6681 0.0000
# 4 0.0000 0.0000 0.0000 27.4896 0.0000 5.2158
# 5 -8.7857 -8.7112 -31.6681 0.0000 43.2691 0.0000
# 6 0.0000 0.0000 0.0000 5.2158 0.0000 0.1253
#
#
#
# Elastic Compliance Matrix: (Units=1/GPa)
#
#
# Indices 1 2 3 4 5 6 
#
# 1 0.011530 -0.001421 -0.001172 0.000000 0.001197 0.000000
# 2 -0.001421 0.013099 -0.000755 0.000000 0.001796 0.000000
# 3 -0.001172 -0.000755 0.006256 0.000000 0.004189 0.000000
# 4 0.000000 0.000000 0.000000 -0.005274 0.000000 0.219524
# 5 0.001197 0.001796 0.004189 0.000000 0.026782 0.000000
# 6 0.000000 0.000000 0.000000 0.219524 0.000000 -1.156987
#
#
# Mechanical properties :
#
#
# Convention : Reuss Voigt Hill
#
# Bulk Modulus (GPa) = 41.34212 52.15391 46.74801
# Shear Modulus (GPa) = -4.58786 34.47165 14.94189
#
# Velocity S-wave (km/s) = -1.40676 3.85607 2.53873
# Velocity P-wave (km/s) = 3.89798 6.50555 5.36267
#
# Compressibility (1/GPa) = 0.02418841
#
# Stress axis : x y z
#
# Youngs Moduli (GPa) = 86.72660 76.33895 159.83471
#
# Poissons Ratio (x) = 0.10851 0.18740
# Poissons Ratio (y) = 0.12327 0.12070
# Poissons Ratio (z) = 0.10168 0.05765
#
# Static dielectric constant tensor:
#      x y z
#    x 1.968070 0.000000 0.174660 
#    y 0.000000 1.839140 0.000000 
#    z 0.174660 0.000000 2.201980 
# 
# From -- ./inp_files/2809.got.cif
#   From: 2010.05.17/outbox.cif.g08.bks.cpg/sg5_2_cif.got.tgz:2809.got - 2010.06.03 18:56:24.
