data_PCOD9128764
_publ_section_title
;
Structure prediction by ZEFSAII (Michael W. Deem and Ramdas Pophale) SiO2 
 PCOD9128764
Probable space group: C 2
;
_chemical_formula_sum "Si O2"
_cell_formula_units_Z 24
_cell_length_a 25.561915
_cell_length_b 5.720120
_cell_length_c 14.202450
_cell_angle_alpha 90.000000
_cell_angle_beta 150.952019
_cell_angle_gamma 90.000000
_cell_volume 1008.297036
_symmetry_space_group_name_H-M "C 2"
_symmetry_group_IT_number 5
_symmetry_cell_setting 'monoclinic'
loop_
_space_group_symop_operation_xyz
x,y,z
-x,y,-z
1/2+x,1/2+y,z
1/2-x,1/2+y,-z
loop_
_atom_site_type_symbol
_atom_site_label
_atom_site_fract_x
_atom_site_fract_y
_atom_site_fract_z
Si Si1 0.706911 0.433920 0.727878
Si Si2 0.174625 0.973115 0.284774
Si Si3 0.086745 0.689273 0.976495
Si Si4 0.000000 0.834578 0.500000
Si Si5 0.361683 0.259037 0.570811
Si Si6 0.706340 0.136817 0.891093
Si Si7 0.500000 0.849199 0.000000
O O1 0.806607 0.599873 0.906350
O O2 0.589282 0.487302 0.585754
O O3 0.694678 0.417576 0.596741
O O4 0.732730 0.187264 0.821227
O O5 0.118831 0.879813 0.103551
O O6 0.160404 0.822129 0.355668
O O7 0.299417 0.016026 0.460481
O O8 0.104792 0.203637 0.195123
O O9 0.037616 0.490424 0.967646
O O10 0.988800 0.763373 0.756949
O O11 0.076513 0.673294 0.685945
O O12 0.754661 0.380842 0.013531
#
# Coordination Sequence:
#
# PCOD9128764 Si02
#       7
#     4   4   4   2   4   4   2
#     4  10  25  44  70 109 132 183 246 287 363 436
#     4  12  24  44  68  96 147 190 229 286 345 428
#     4  12  24  44  65 101 142 187 236 282 349 420
#     4   8  24  50  66 106 136 182 242 306 360 442
#     4  12  23  42  68  99 140 187 230 293 350 413
#     4  10  24  50  77 101 143 190 232 310 374 428
#     4  12  20  46  62  94 144 188 228 280 338 416
#
# _framework density 23.802510999999999
#
# number of rings (size 3 to 8) (size 9 to 14) (size 15 to 20)
#    1.000    0.000    5.000    2.000    2.333    2.000 
#    6.000    0.000    0.000    0.000    0.000    0.000 
#    0.000    0.000    0.000    0.000    0.000    0.000 
#
# Total GULP energy -66934.428548 kJ/mol
# GULP energy per Si atom -5577.869046 kJ/mol
# Density = 2.374834 g / cm^3
# Si number density = 23.802511 Si / 1000 Ang^3
#
#
#
# Elastic Constant Matrix: (Units=GPa)
#
#
# Indices 1 2 3 4 5 6 
#
# 1 83.0704 20.1613 27.3959 0.0000 14.0662 0.0000
# 2 20.1613 66.3093 42.1227 0.0000 4.1521 0.0000
# 3 27.3959 42.1227 174.3889 0.0000 9.2033 0.0000
# 4 0.0000 0.0000 0.0000 21.3805 0.0000 9.0959
# 5 14.0662 4.1521 9.2033 0.0000 22.1258 0.0000
# 6 0.0000 0.0000 0.0000 9.0959 0.0000 8.6403
#
#
#
# Elastic Compliance Matrix: (Units=1/GPa)
#
#
# Indices 1 2 3 4 5 6 
#
# 1 0.014567 -0.003233 -0.001074 0.000000 -0.008207 0.000000
# 2 -0.003233 0.018586 -0.003994 0.000000 0.000228 0.000000
# 3 -0.001074 -0.003994 0.006945 0.000000 -0.001456 0.000000
# 4 0.000000 0.000000 0.000000 0.084711 0.000000 -0.089178
# 5 -0.008207 0.000228 -0.001456 0.000000 0.050976 0.000000
# 6 0.000000 0.000000 0.000000 -0.089178 0.000000 0.209618
#
#
# Mechanical properties :
#
#
# Convention : Reuss Voigt Hill
#
# Bulk Modulus (GPa) = 42.56001 55.90315 49.23158
# Shear Modulus (GPa) = 12.20000 26.03523 19.11761
#
# Velocity S-wave (km/s) = 2.26641 3.31086 2.83711
# Velocity P-wave (km/s) = 4.97676 6.17680 5.60897
#
# Compressibility (1/GPa) = 0.02349623
#
# Stress axis : x y z
#
# Youngs Moduli (GPa) = 68.65052 53.80290 143.99686
#
# Poissons Ratio (x) = 0.17392 0.15472
# Poissons Ratio (y) = 0.22191 0.57508
# Poissons Ratio (z) = 0.07376 0.21487
#
# Static dielectric constant tensor:
#      x y z
#    x 1.951100 0.000000 -0.012260 
#    y 0.000000 1.985120 0.000000 
#    z -0.012260 0.000000 1.979620 
# 
# From -- ./inp_files/58018.got.cif
#   From: 2010.05.17/outbox.cif.g08.bks.cpg/sg5_30_cif.got.tgz:58018.got - 2010.06.03 18:56:24.
