data_PCOD9128890
_publ_section_title
;
Structure prediction by ZEFSAII (Michael W. Deem and Ramdas Pophale) SiO2 
 PCOD9128890
Probable space group: C 2
;
_chemical_formula_sum "Si O2"
_cell_formula_units_Z 32
_cell_length_a 12.453720
_cell_length_b 7.768148
_cell_length_c 20.951302
_cell_angle_alpha 90.000000
_cell_angle_beta 138.051983
_cell_angle_gamma 90.000000
_cell_volume 1354.878942
_symmetry_space_group_name_H-M "C 2"
_symmetry_group_IT_number 5
_symmetry_cell_setting 'monoclinic'
loop_
_space_group_symop_operation_xyz
x,y,z
-x,y,-z
1/2+x,1/2+y,z
1/2-x,1/2+y,-z
loop_
_atom_site_type_symbol
_atom_site_label
_atom_site_fract_x
_atom_site_fract_y
_atom_site_fract_z
Si Si1 0.818224 0.349420 0.938683
Si Si2 0.115887 0.506983 0.623234
Si Si3 0.200240 0.331085 0.539121
Si Si4 0.418280 0.602909 0.094748
Si Si5 0.232327 0.037843 0.172278
Si Si6 0.002344 0.311986 0.753530
Si Si7 0.022030 0.054699 0.374180
Si Si8 0.167076 0.895646 0.610466
O O1 0.698175 0.495760 0.910394
O O2 0.760963 0.229301 0.854470
O O3 0.829615 0.220849 0.004249
O O4 0.000000 0.407029 0.000000
O O5 0.184516 0.351535 0.608985
O O6 0.174657 0.508080 0.720700
O O7 0.163677 0.689304 0.615063
O O8 0.925626 0.479855 0.537372
O O9 0.129441 0.168866 0.470679
O O10 0.375948 0.384642 0.596157
O O11 0.547725 0.498927 0.109048
O O12 0.520330 0.723891 0.187774
O O13 0.330261 0.913228 0.168986
O O14 0.007153 0.167065 0.701130
O O15 0.847844 0.430633 0.667295
O O16 0.859777 0.993562 0.335338
O O17 0.000000 0.934818 0.500000
#
# Coordination Sequence:
#
# PCOD9128890 Si02
#       8
#     4   4   4   4   4   4   4   4
#     4  10  25  46  76 106 136 181 216 281 357 429
#     4  11  21  42  63  88 140 174 232 294 338 407
#     4  11  22  42  61  94 130 188 240 294 348 406
#     4  11  24  47  73 106 141 174 224 283 351 428
#     4  11  24  44  69  99 139 179 225 280 352 410
#     4  12  25  44  66 104 138 180 237 291 340 419
#     4  12  25  40  66  92 133 189 240 290 358 397
#     4  12  25  43  63  93 138 189 236 299 338 399
#
# _framework density 23.618345999999999
#
# number of rings (size 3 to 8) (size 9 to 14) (size 15 to 20)
#    0.000    0.750    5.000    2.250    3.500    2.000 
#    2.250    0.000    0.000    0.000    0.000    0.000 
#    0.000    0.000    0.000    0.000    0.000    0.000 
#
# Total GULP energy -89406.272125 kJ/mol
# GULP energy per Si atom -5587.892008 kJ/mol
# Density = 2.356459 g / cm^3
# Si number density = 23.618346 Si / 1000 Ang^3
#
#
#
# Elastic Constant Matrix: (Units=GPa)
#
#
# Indices 1 2 3 4 5 6 
#
# 1 126.9972 35.1790 14.4507 0.0000 11.0833 0.0000
# 2 35.1790 36.7604 9.8777 0.0000 5.2186 0.0000
# 3 14.4507 9.8777 81.0727 0.0000 -13.9301 0.0000
# 4 0.0000 0.0000 0.0000 19.5273 0.0000 -3.6465
# 5 11.0833 5.2186 -13.9301 0.0000 42.3494 0.0000
# 6 0.0000 0.0000 0.0000 -3.6465 0.0000 50.0749
#
#
#
# Elastic Compliance Matrix: (Units=1/GPa)
#
#
# Indices 1 2 3 4 5 6 
#
# 1 0.010903 -0.009859 -0.001085 0.000000 -0.001995 0.000000
# 2 -0.009859 0.038019 -0.003430 0.000000 -0.003233 0.000000
# 3 -0.001085 -0.003430 0.013850 0.000000 0.005262 0.000000
# 4 0.000000 0.000000 0.000000 0.051916 0.000000 0.003781
# 5 -0.001995 -0.003233 0.005262 0.000000 0.026265 0.000000
# 6 0.000000 0.000000 0.000000 0.003781 0.000000 0.020245
#
#
# Mechanical properties :
#
#
# Convention : Reuss Voigt Hill
#
# Bulk Modulus (GPa) = 29.39179 40.42724 34.90951
# Shear Modulus (GPa) = 24.84005 34.74516 29.79261
#
# Velocity S-wave (km/s) = 3.24655 3.83967 3.55550
# Velocity P-wave (km/s) = 5.15024 6.06724 5.62745
#
# Compressibility (1/GPa) = 0.03402311
#
# Stress axis : x y z
#
# Youngs Moduli (GPa) = 91.71973 26.30282 72.20135
#
# Poissons Ratio (x) = 0.25932 0.07834
# Poissons Ratio (y) = 0.90426 0.24767
# Poissons Ratio (z) = 0.09952 0.09023
#
# Static dielectric constant tensor:
#      x y z
#    x 1.983230 0.000000 -0.002880 
#    y 0.000000 1.879190 0.000000 
#    z -0.002880 0.000000 1.905340 
# 
# From -- ./inp_files/65129.got.cif
#   From: 2010.05.17/outbox.cif.g08.bks.cpg/sg5_33_cif.got.tgz:65129.got - 2010.06.03 18:56:24.
