data_PCOD9128132
_publ_section_title
;
Structure prediction by ZEFSAII (Michael W. Deem and Ramdas Pophale) SiO2 
 PCOD9128132
Probable space group: C 2
;
_chemical_formula_sum "Si O2"
_cell_formula_units_Z 28
_cell_length_a 25.153125
_cell_length_b 7.245614
_cell_length_c 21.103165
_cell_angle_alpha 90.000000
_cell_angle_beta 163.823527
_cell_angle_gamma 90.000000
_cell_volume 1071.496617
_symmetry_space_group_name_H-M "C 2"
_symmetry_group_IT_number 5
_symmetry_cell_setting 'monoclinic'
loop_
_space_group_symop_operation_xyz
x,y,z
-x,y,-z
1/2+x,1/2+y,z
1/2-x,1/2+y,-z
loop_
_atom_site_type_symbol
_atom_site_label
_atom_site_fract_x
_atom_site_fract_y
_atom_site_fract_z
Si Si1 0.096943 0.649700 0.425543
Si Si2 0.961469 0.561073 0.770647
Si Si3 0.504914 0.687494 0.932889
Si Si4 0.978996 0.168693 0.564541
Si Si5 0.601686 0.256054 0.676662
Si Si6 0.084792 0.250243 0.372004
Si Si7 0.322268 0.281886 0.877219
O O1 0.997672 0.692301 0.244672
O O2 0.165381 0.436534 0.497585
O O3 0.954274 0.665689 0.320765
O O4 0.298459 0.745970 0.669702
O O5 0.008709 0.360995 0.793634
O O6 0.735518 0.602601 0.519615
O O7 0.051558 0.635970 0.938290
O O8 0.683408 0.767776 0.100229
O O9 0.560655 0.469876 0.995436
O O10 0.500000 0.746919 0.000000
O O11 0.014667 0.164534 0.680767
O O12 0.772714 0.222629 0.298693
O O13 0.138482 0.295232 0.713642
O O14 0.018349 0.961048 0.587904
O O15 0.500000 0.162693 0.500000
#
# Coordination Sequence:
#
# PCOD9128132 Si02
#       7
#     4   4   4   4   4   4   4
#     4  10  24  47  72 109 147 197 248 315 375 468
#     4  10  24  45  70 109 150 195 253 313 383 456
#     4  12  24  43  82 110 146 202 255 316 388 454
#     4  11  26  47  71 108 152 202 260 317 376 466
#     4  12  25  47  71 110 158 194 255 316 381 453
#     4  10  23  47  70 107 148 198 248 315 378 457
#     4  11  23  47  73 107 145 198 257 311 386 447
#
# _framework density 26.131675000000001
#
# number of rings (size 3 to 8) (size 9 to 14) (size 15 to 20)
#    0.857    0.286    4.286    1.714    4.000    1.143 
#    5.143    2.143    0.000    0.000    0.000    0.000 
#    0.000    0.000    0.000    0.000    0.000    0.000 
#
# Total GULP energy -78149.980324 kJ/mol
# GULP energy per Si atom -5582.141452 kJ/mol
# Density = 2.607220 g / cm^3
# Si number density = 26.131675 Si / 1000 Ang^3
#
#
#
# Elastic Constant Matrix: (Units=GPa)
#
#
# Indices 1 2 3 4 5 6 
#
# 1 192.9489 19.4689 34.9291 0.0002 -3.0243 0.0001
# 2 19.4689 86.0932 14.5133 0.0005 -12.3520 0.0005
# 3 34.9291 14.5133 92.1694 0.0005 -19.5515 0.0006
# 4 0.0002 0.0005 0.0005 24.8665 0.0005 -8.5479
# 5 -3.0243 -12.3520 -19.5515 0.0005 31.3653 0.0003
# 6 0.0001 0.0005 0.0006 -8.5479 0.0003 31.2778
#
#
#
# Elastic Compliance Matrix: (Units=1/GPa)
#
#
# Indices 1 2 3 4 5 6 
#
# 1 0.005681 -0.001089 -0.002254 0.000000 -0.001286 0.000000
# 2 -0.001089 0.012608 -0.000624 0.000000 0.004471 0.000000
# 3 -0.002254 -0.000624 0.013487 -0.000001 0.007944 0.000000
# 4 0.000000 0.000000 -0.000001 0.044384 -0.000001 0.012130
# 5 -0.001286 0.004471 0.007944 -0.000001 0.038471 -0.000001
# 6 0.000000 0.000000 0.000000 0.012130 -0.000001 0.035286
#
#
# Mechanical properties :
#
#
# Convention : Reuss Voigt Hill
#
# Bulk Modulus (GPa) = 41.94393 56.55936 49.25164
# Shear Modulus (GPa) = 30.15685 37.65528 33.90607
#
# Velocity S-wave (km/s) = 3.40079 3.80015 3.60600
# Velocity P-wave (km/s) = 5.61305 6.39889 6.01881
#
# Compressibility (1/GPa) = 0.02384135
#
# Stress axis : x y z
#
# Youngs Moduli (GPa) = 176.04073 79.31269 74.14418
#
# Poissons Ratio (x) = 0.08638 0.16713
# Poissons Ratio (y) = 0.19173 0.04628
# Poissons Ratio (z) = 0.39681 0.04950
#
# Static dielectric constant tensor:
#      x y z
#    x 2.424300 0.000000 -0.020720 
#    y 0.000000 2.133160 0.000000 
#    z -0.020720 0.000000 2.093740 
# 
# From -- ./inp_files/67379.got.cif
#   From: 2010.05.17/outbox.cif.g08.bks.cpg/sg5_34_cif.got.tgz:67379.got - 2010.06.03 18:56:24.
