data_PCOD9128742
_publ_section_title
;
Structure prediction by ZEFSAII (Michael W. Deem and Ramdas Pophale) SiO2 
 PCOD9128742
Probable space group: C 2
;
_chemical_formula_sum "Si O2"
_cell_formula_units_Z 20
_cell_length_a 12.194925
_cell_length_b 7.879710
_cell_length_c 12.133206
_cell_angle_alpha 90.000000
_cell_angle_beta 48.123437
_cell_angle_gamma 90.000000
_cell_volume 868.118528
_symmetry_space_group_name_H-M "C 2"
_symmetry_group_IT_number 5
_symmetry_cell_setting 'monoclinic'
loop_
_space_group_symop_operation_xyz
x,y,z
-x,y,-z
1/2+x,1/2+y,z
1/2-x,1/2+y,-z
loop_
_atom_site_type_symbol
_atom_site_label
_atom_site_fract_x
_atom_site_fract_y
_atom_site_fract_z
Si Si1 0.173228 0.886500 0.785360
Si Si2 0.428659 0.073121 0.734720
Si Si3 0.854336 0.561610 0.042364
Si Si4 0.478316 0.440050 0.735088
Si Si5 0.393658 0.758971 0.467023
O O1 0.162029 0.740027 0.883004
O O2 0.241937 0.800523 0.628740
O O3 0.018798 0.945506 0.838539
O O4 0.287518 0.024650 0.754443
O O5 0.492577 0.257901 0.666269
O O6 0.545733 0.922155 0.639052
O O7 0.383797 0.079884 0.892974
O O8 0.695236 0.477634 0.162691
O O9 0.000000 0.478060 0.000000
O O10 0.580959 0.587793 0.616837
O O11 0.500000 0.739553 0.500000
#
# Coordination Sequence:
#
# PCOD9128742 Si02
#       5
#     4   4   4   4   4
#     4  11  26  51  71 113 155 185 257 313 354 462
#     4  11  25  46  77 107 145 197 247 298 379 439
#     4  12  25  48  73 108 154 188 248 318 356 441
#     4  12  26  46  79 105 150 201 240 309 384 421
#     4  10  24  49  72 110 153 185 254 310 354 457
#
# _framework density 23.038328
#
# number of rings (size 3 to 8) (size 9 to 14) (size 15 to 20)
#    0.000    0.800    6.000    1.200    2.800    4.000 
#    0.000    0.000    0.000    0.000    0.000    0.000 
#    0.000    0.000    0.000    0.000    0.000    0.000 
#
# Total GULP energy -55880.966711 kJ/mol
# GULP energy per Si atom -5588.096671 kJ/mol
# Density = 2.298589 g / cm^3
# Si number density = 23.038328 Si / 1000 Ang^3
#
#
#
# Elastic Constant Matrix: (Units=GPa)
#
#
# Indices 1 2 3 4 5 6 
#
# 1 155.7538 36.8272 19.7344 0.0000 -8.0638 0.0000
# 2 36.8272 145.8319 60.0454 0.0000 20.6404 0.0000
# 3 19.7344 60.0454 104.5274 0.0000 15.6294 0.0000
# 4 0.0000 0.0000 0.0000 38.8336 0.0000 11.1793
# 5 -8.0638 20.6404 15.6294 0.0000 32.5487 0.0000
# 6 0.0000 0.0000 0.0000 11.1793 0.0000 26.7839
#
#
#
# Elastic Compliance Matrix: (Units=1/GPa)
#
#
# Indices 1 2 3 4 5 6 
#
# 1 0.007157 -0.001992 -0.000712 0.000000 0.003378 0.000000
# 2 -0.001992 0.009915 -0.004638 0.000000 -0.004554 0.000000
# 3 -0.000712 -0.004638 0.012877 0.000000 -0.003418 0.000000
# 4 0.000000 0.000000 0.000000 0.029268 0.000000 -0.012216
# 5 0.003378 -0.004554 -0.003418 0.000000 0.036089 0.000000
# 6 0.000000 0.000000 0.000000 -0.012216 0.000000 0.042435
#
#
# Mechanical properties :
#
#
# Convention : Reuss Voigt Hill
#
# Bulk Modulus (GPa) = 65.51768 71.03633 68.27701
# Shear Modulus (GPa) = 31.74356 38.93365 35.33861
#
# Velocity S-wave (km/s) = 3.71598 4.11536 3.92076
# Velocity P-wave (km/s) = 6.84921 7.31317 7.08499
#
# Compressibility (1/GPa) = 0.01526305
#
# Stress axis : x y z
#
# Youngs Moduli (GPa) = 139.73218 100.86059 77.65841
#
# Poissons Ratio (x) = 0.20095 0.05528
# Poissons Ratio (y) = 0.27839 0.36021
# Poissons Ratio (z) = 0.09946 0.46784
#
# Static dielectric constant tensor:
#      x y z
#    x 1.936050 0.000000 -0.098820 
#    y 0.000000 1.920900 0.000000 
#    z -0.098820 0.000000 1.989720 
# 
# From -- ./inp_files/38240.got.cif
#   From: 2010.05.17/outbox.cif.g08.bks.cpg/sg5_20_cif.got.tgz:38240.got - 2010.06.03 18:56:24.
