data_PCOD9128888
_publ_section_title
;
Structure prediction by ZEFSAII (Michael W. Deem and Ramdas Pophale) SiO2 
 PCOD9128888
Probable space group: C 2
;
_chemical_formula_sum "Si O2"
_cell_formula_units_Z 20
_cell_length_a 23.060793
_cell_length_b 5.162217
_cell_length_c 9.079446
_cell_angle_alpha 90.000000
_cell_angle_beta 130.130537
_cell_angle_gamma 90.000000
_cell_volume 826.402529
_symmetry_space_group_name_H-M "C 2"
_symmetry_group_IT_number 5
_symmetry_cell_setting 'monoclinic'
loop_
_space_group_symop_operation_xyz
x,y,z
-x,y,-z
1/2+x,1/2+y,z
1/2-x,1/2+y,-z
loop_
_atom_site_type_symbol
_atom_site_label
_atom_site_fract_x
_atom_site_fract_y
_atom_site_fract_z
Si Si1 0.119165 0.994770 0.362536
Si Si2 0.341432 0.524727 0.906933
Si Si3 0.021764 0.347580 0.882735
Si Si4 0.437863 0.193593 0.296576
Si Si5 0.834578 0.497179 0.375891
O O1 0.149955 0.936812 0.249005
O O2 0.137842 0.743017 0.485419
O O3 0.155952 0.238884 0.510080
O O4 0.031686 0.092918 0.207009
O O5 0.254055 0.536025 0.803462
O O6 0.389023 0.790234 0.973379
O O7 0.387007 0.366352 0.105679
O O8 0.010103 0.512680 0.719944
O O9 0.000000 0.483584 0.000000
O O10 0.500000 0.340993 0.500000
O O11 0.382819 0.015091 0.305048
#
# Coordination Sequence:
#
# PCOD9128888 Si02
#       5
#     4   4   4   4   4
#     4  11  26  52  78 112 152 206 256 316 382 474
#     4  11  28  45  79 110 158 201 259 317 392 460
#     4  10  25  46  75 109 152 209 257 312 378 471
#     4  12  27  46  76 111 162 202 262 317 394 458
#     4  12  28  48  80 115 157 195 259 323 394 451
#
# _framework density 24.201284000000001
#
# number of rings (size 3 to 8) (size 9 to 14) (size 15 to 20)
#    0.000    0.800    2.000    2.400   14.000    1.600 
#    0.000    0.000    0.000    0.000    0.000    0.000 
#    0.000    0.000    0.000    0.000    0.000    0.000 
#
# Total GULP energy -55956.724503 kJ/mol
# GULP energy per Si atom -5595.672450 kJ/mol
# Density = 2.414620 g / cm^3
# Si number density = 24.201284 Si / 1000 Ang^3
#
#
#
# Elastic Constant Matrix: (Units=GPa)
#
#
# Indices 1 2 3 4 5 6 
#
# 1 161.9777 49.5862 116.2436 0.0000 6.4903 0.0000
# 2 49.5862 85.3291 37.8852 0.0000 -13.6803 0.0000
# 3 116.2436 37.8852 126.6515 0.0000 -3.4912 0.0000
# 4 0.0000 0.0000 0.0000 38.4731 0.0000 -8.3442
# 5 6.4903 -13.6803 -3.4912 0.0000 55.4752 0.0000
# 6 0.0000 0.0000 0.0000 -8.3442 0.0000 20.8786
#
#
#
# Elastic Compliance Matrix: (Units=1/GPa)
#
#
# Indices 1 2 3 4 5 6 
#
# 1 0.020197 -0.004836 -0.017218 0.000000 -0.004639 0.000000
# 2 -0.004836 0.015220 0.000005 0.000000 0.004319 0.000000
# 3 -0.017218 0.000005 0.023795 0.000000 0.003513 0.000000
# 4 0.000000 0.000000 0.000000 0.028459 0.000000 0.011374
# 5 -0.004639 0.004319 0.003513 0.000000 0.019855 0.000000
# 6 0.000000 0.000000 0.000000 0.011374 0.000000 0.052442
#
#
# Mechanical properties :
#
#
# Convention : Reuss Voigt Hill
#
# Bulk Modulus (GPa) = 66.17131 86.82092 76.49611
# Shear Modulus (GPa) = 23.91170 34.31494 29.11332
#
# Velocity S-wave (km/s) = 3.14671 3.76958 3.47214
# Velocity P-wave (km/s) = 6.37211 7.40937 6.91023
#
# Compressibility (1/GPa) = 0.01511229
#
# Stress axis : x y z
#
# Youngs Moduli (GPa) = 49.51313 65.70381 42.02647
#
# Poissons Ratio (x) = 0.31772 0.72363
# Poissons Ratio (y) = 0.23943 -0.00019
# Poissons Ratio (z) = 0.85253 -0.00030
#
# Static dielectric constant tensor:
#      x y z
#    x 2.005740 0.000000 -0.071260 
#    y 0.000000 1.927070 0.000000 
#    z -0.071260 0.000000 2.024510 
# 
# From -- ./inp_files/26009.got.cif
#   From: 2010.05.17/outbox.cif.g08.bks.cpg/sg5_14_cif.got.tgz:26009.got - 2010.06.03 18:56:24.
