data_PCOD9128204
_publ_section_title
;
Structure prediction by ZEFSAII (Michael W. Deem and Ramdas Pophale) SiO2 
 PCOD9128204
Probable space group: C 2
;
_chemical_formula_sum "Si O2"
_cell_formula_units_Z 16
_cell_length_a 7.556097
_cell_length_b 10.573409
_cell_length_c 8.548004
_cell_angle_alpha 90.000000
_cell_angle_beta 98.888921
_cell_angle_gamma 90.000000
_cell_volume 674.729530
_symmetry_space_group_name_H-M "C 2"
_symmetry_group_IT_number 5
_symmetry_cell_setting 'monoclinic'
loop_
_space_group_symop_operation_xyz
x,y,z
-x,y,-z
1/2+x,1/2+y,z
1/2-x,1/2+y,-z
loop_
_atom_site_type_symbol
_atom_site_label
_atom_site_fract_x
_atom_site_fract_y
_atom_site_fract_z
Si Si1 0.039840 0.391040 0.828895
Si Si2 0.695800 0.740205 0.402811
Si Si3 0.618902 0.549750 0.166906
Si Si4 0.793113 0.009864 0.357254
O O1 0.000404 0.293343 0.680880
O O2 0.886102 0.496375 0.772455
O O3 0.240108 0.439672 0.844727
O O4 0.000000 0.347465 0.000000
O O5 0.738620 0.667312 0.245668
O O6 0.722092 0.629668 0.531020
O O7 0.793982 0.872603 0.443138
O O8 0.471389 0.519528 0.279107
O O9 0.500000 0.575082 0.000000
#
# Coordination Sequence:
#
# PCOD9128204 Si02
#       4
#     4   4   4   4
#     4  10  23  51  78 110 153 199 253 314 373 451
#     4  10  25  49  72 111 159 190 253 318 373 450
#     4  12  23  45  79 111 151 202 254 311 382 449
#     4  10  25  51  75 112 156 195 253 315 380 445
#
# _framework density 23.713204999999999
#
# number of rings (size 3 to 8) (size 9 to 14) (size 15 to 20)
#    1.500    0.000    2.500    1.500    0.000    5.000 
#   18.000    1.250    0.000    1.500    0.000    1.750 
#    0.000    0.000    0.000    0.000    0.000    0.000 
#
# Total GULP energy -44577.041235 kJ/mol
# GULP energy per Si atom -5572.130154 kJ/mol
# Density = 2.365923 g / cm^3
# Si number density = 23.713205 Si / 1000 Ang^3
#
#
#
# Elastic Constant Matrix: (Units=GPa)
#
#
# Indices 1 2 3 4 5 6 
#
# 1 111.6110 58.2311 44.3259 0.0000 5.3765 0.0000
# 2 58.2311 190.8711 91.3671 0.0000 -7.7699 0.0000
# 3 44.3259 91.3671 143.2140 0.0000 16.8343 0.0000
# 4 0.0000 0.0000 0.0000 30.4407 0.0000 13.1604
# 5 5.3765 -7.7699 16.8343 0.0000 31.5327 0.0000
# 6 0.0000 0.0000 0.0000 13.1604 0.0000 26.4843
#
#
#
# Elastic Compliance Matrix: (Units=1/GPa)
#
#
# Indices 1 2 3 4 5 6 
#
# 1 0.011059 -0.002747 -0.001461 0.000000 -0.001783 0.000000
# 2 -0.002747 0.008948 -0.005519 0.000000 0.005619 0.000000
# 3 -0.001461 -0.005519 0.011828 0.000000 -0.007426 0.000000
# 4 0.000000 0.000000 0.000000 0.041839 0.000000 -0.020790
# 5 -0.001783 0.005619 -0.007426 0.000000 0.037366 0.000000
# 6 0.000000 0.000000 0.000000 -0.020790 0.000000 0.048089
#
#
# Mechanical properties :
#
#
# Convention : Reuss Voigt Hill
#
# Bulk Modulus (GPa) = 80.76323 92.61604 86.68963
# Shear Modulus (GPa) = 27.36579 34.47634 30.92107
#
# Velocity S-wave (km/s) = 3.40079 3.81712 3.61496
# Velocity P-wave (km/s) = 7.03937 7.65302 7.35260
#
# Compressibility (1/GPa) = 0.01238187
#
# Stress axis : x y z
#
# Youngs Moduli (GPa) = 90.42412 111.75981 84.54335
#
# Poissons Ratio (x) = 0.30704 0.12348
# Poissons Ratio (y) = 0.24842 0.46657
# Poissons Ratio (z) = 0.13207 0.61677
#
# Static dielectric constant tensor:
#      x y z
#    x 1.926080 0.000000 0.003550 
#    y 0.000000 1.991440 0.000000 
#    z 0.003550 0.000000 1.947010 
# 
# From -- ./inp_files/14039.got.cif
#   From: 2010.05.17/outbox.cif.g08.bks.cpg/sg5_8_cif.got.tgz:14039.got - 2010.06.03 18:56:24.
