data_PCOD9128302
_publ_section_title
;
Structure prediction by ZEFSAII (Michael W. Deem and Ramdas Pophale) SiO2 
 PCOD9128302
Probable space group: C 2
;
_chemical_formula_sum "Si O2"
_cell_formula_units_Z 22
_cell_length_a 13.235356
_cell_length_b 5.055696
_cell_length_c 14.194520
_cell_angle_alpha 90.000000
_cell_angle_beta 96.718264
_cell_angle_gamma 90.000000
_cell_volume 943.289243
_symmetry_space_group_name_H-M "C 2"
_symmetry_group_IT_number 5
_symmetry_cell_setting 'monoclinic'
loop_
_space_group_symop_operation_xyz
x,y,z
-x,y,-z
1/2+x,1/2+y,z
1/2-x,1/2+y,-z
loop_
_atom_site_type_symbol
_atom_site_label
_atom_site_fract_x
_atom_site_fract_y
_atom_site_fract_z
Si Si1 0.584342 0.036180 0.339743
Si Si2 0.685727 0.158225 0.011389
Si Si3 0.611151 0.054868 0.810104
Si Si4 0.000000 0.889437 0.500000
Si Si5 0.748110 0.555564 0.785691
Si Si6 0.819074 0.177612 0.514429
O O1 0.494296 0.048108 0.255539
O O2 0.688499 0.120421 0.300259
O O3 0.546213 0.206688 0.423872
O O4 0.615550 0.750930 0.385563
O O5 0.673139 0.068671 0.117378
O O6 0.721832 0.462582 0.011620
O O7 0.603031 0.112647 0.921271
O O8 0.689021 0.277510 0.778784
O O9 0.664908 0.775319 0.799646
O O10 0.905734 0.068084 0.454334
O O11 0.763474 0.448555 0.480997
#
# Coordination Sequence:
#
# PCOD9128302 Si02
#       6
#     4   4   4   2   4   4
#     4  12  29  45  74 105 131 183 242 280 351 407
#     4   8  16  39  64  97 137 181 211 266 346 403
#     4  10  24  43  70 102 142 173 224 288 334 411
#     4  12  30  50  70 102 140 184 242 294 354 416
#     4  10  24  41  70 101 141 181 224 275 341 412
#     4  12  29  50  72  97 136 188 233 295 358 414
#
# _framework density 23.322645000000001
#
# number of rings (size 3 to 8) (size 9 to 14) (size 15 to 20)
#    0.000    1.455    1.818    0.545    7.636    2.182 
#    0.000    0.000    0.000   13.091    0.000    0.000 
#    0.000    0.000    0.000    0.000    0.000    0.000 
#
# Total GULP energy -61488.277891 kJ/mol
# GULP energy per Si atom -5589.843445 kJ/mol
# Density = 2.326956 g / cm^3
# Si number density = 23.322645 Si / 1000 Ang^3
#
#
#
# Elastic Constant Matrix: (Units=GPa)
#
#
# Indices 1 2 3 4 5 6 
#
# 1 102.3115 34.4184 42.6140 0.0000 18.3698 0.0000
# 2 34.4184 121.7685 25.1513 0.0000 13.3115 0.0000
# 3 42.6140 25.1513 91.6760 0.0000 16.1087 0.0000
# 4 0.0000 0.0000 0.0000 25.8904 0.0000 4.0975
# 5 18.3698 13.3115 16.1087 0.0000 49.1677 0.0000
# 6 0.0000 0.0000 0.0000 4.0975 0.0000 33.1310
#
#
#
# Elastic Compliance Matrix: (Units=1/GPa)
#
#
# Indices 1 2 3 4 5 6 
#
# 1 0.013126 -0.002394 -0.004984 0.000000 -0.002623 0.000000
# 2 -0.002394 0.009274 -0.001217 0.000000 -0.001217 0.000000
# 3 -0.004984 -0.001217 0.013978 0.000000 -0.002388 0.000000
# 4 0.000000 0.000000 0.000000 0.039395 0.000000 -0.004872
# 5 -0.002623 -0.001217 -0.002388 0.000000 0.022431 0.000000
# 6 0.000000 0.000000 0.000000 -0.004872 0.000000 0.030786
#
#
# Mechanical properties :
#
#
# Convention : Reuss Voigt Hill
#
# Bulk Modulus (GPa) = 52.11737 57.79149 54.95443
# Shear Modulus (GPa) = 32.77052 35.87597 34.32325
#
# Velocity S-wave (km/s) = 3.75253 3.92630 3.84040
# Velocity P-wave (km/s) = 6.41639 6.73702 6.57866
#
# Compressibility (1/GPa) = 0.01918746
#
# Stress axis : x y z
#
# Youngs Moduli (GPa) = 76.18333 107.83380 71.53986
#
# Poissons Ratio (x) = 0.25816 0.35654
# Poissons Ratio (y) = 0.18239 0.08710
# Poissons Ratio (z) = 0.37968 0.13128
#
# Static dielectric constant tensor:
#      x y z
#    x 1.847360 0.000000 0.043380 
#    y 0.000000 1.868090 0.000000 
#    z 0.043380 0.000000 1.977380 
# 
# From -- ./inp_files/51951.got.cif
#   From: 2010.05.17/outbox.cif.g08.bks.cpg/sg5_26_cif.got.tgz:51951.got - 2010.06.03 18:56:24.
