data_PCOD9128632
_publ_section_title
;
Structure prediction by ZEFSAII (Michael W. Deem and Ramdas Pophale) SiO2 
 PCOD9128632
Probable space group: C 2
;
_chemical_formula_sum "Si O2"
_cell_formula_units_Z 18
_cell_length_a 18.109040
_cell_length_b 8.659382
_cell_length_c 13.651559
_cell_angle_alpha 90.000000
_cell_angle_beta 159.597238
_cell_angle_gamma 90.000000
_cell_volume 746.299970
_symmetry_space_group_name_H-M "C 2"
_symmetry_group_IT_number 5
_symmetry_cell_setting 'monoclinic'
loop_
_space_group_symop_operation_xyz
x,y,z
-x,y,-z
1/2+x,1/2+y,z
1/2-x,1/2+y,-z
loop_
_atom_site_type_symbol
_atom_site_label
_atom_site_fract_x
_atom_site_fract_y
_atom_site_fract_z
Si Si1 0.836858 0.671840 0.063647
Si Si2 0.000000 0.838123 0.000000
Si Si3 0.745574 0.231445 0.699697
Si Si4 0.281665 0.580931 0.277171
Si Si5 0.843363 0.004205 0.987350
O O1 0.770530 0.841594 0.943068
O O2 0.067064 0.679188 0.400838
O O3 0.865974 0.568665 0.002829
O O4 0.658267 0.607576 0.916034
O O5 0.194989 0.719700 0.234420
O O6 0.011123 0.937007 0.114389
O O7 0.698651 0.412667 0.654162
O O8 0.000000 0.228864 0.000000
O O9 0.719549 0.118847 0.760413
O O10 0.500000 0.626472 0.500000
#
# Coordination Sequence:
#
# PCOD9128632 Si02
#       5
#     4   2   4   4   4
#     4  11  26  46  78 110 144 205 251 302 392 443
#     4  10  24  46  74 118 148 196 250 314 374 450
#     4  12  25  47  76 108 155 197 251 319 369 450
#     4  11  24  50  79 109 155 199 251 317 380 453
#     4  11  23  48  71 112 150 192 255 310 373 450
#
# _framework density 24.118987000000001
#
# number of rings (size 3 to 8) (size 9 to 14) (size 15 to 20)
#    0.000    0.889    2.222    4.667    0.000    8.889 
#    8.000    2.222    0.000    0.000    0.000    0.000 
#    0.000    0.000    0.000    0.000    0.000    0.000 
#
# Total GULP energy -50106.475486 kJ/mol
# GULP energy per Si atom -5567.386165 kJ/mol
# Density = 2.406409 g / cm^3
# Si number density = 24.118987 Si / 1000 Ang^3
#
#
#
# Elastic Constant Matrix: (Units=GPa)
#
#
# Indices 1 2 3 4 5 6 
#
# 1 127.3729 45.0535 21.9031 0.0001 20.1729 0.0000
# 2 45.0535 107.9867 31.7234 0.0001 17.4564 0.0000
# 3 21.9031 31.7234 77.2534 0.0009 22.5772 0.0002
# 4 0.0001 0.0001 0.0009 -5.0933 0.0004 12.0679
# 5 20.1729 17.4564 22.5772 0.0004 48.6545 0.0000
# 6 0.0000 0.0000 0.0002 12.0679 0.0000 75.2669
#
#
#
# Elastic Compliance Matrix: (Units=1/GPa)
#
#
# Indices 1 2 3 4 5 6 
#
# 1 0.009549 -0.003414 -0.000586 0.000000 -0.002463 0.000000
# 2 -0.003414 0.011931 -0.003579 0.000000 -0.001204 0.000000
# 3 -0.000586 -0.003579 0.016352 0.000002 -0.006060 0.000000
# 4 0.000000 0.000000 0.000002 -0.142284 0.000001 0.022813
# 5 -0.002463 -0.001204 -0.006060 0.000001 0.024818 0.000000
# 6 0.000000 0.000000 0.000000 0.022813 0.000000 0.009628
#
#
# Mechanical properties :
#
#
# Convention : Reuss Voigt Hill
#
# Bulk Modulus (GPa) = 44.10484 56.66367 50.38425
# Shear Modulus (GPa) = -105.73182 38.02783 -33.85199
#
# Velocity S-wave (km/s) = -6.62818 3.97505 -3.75045
# Velocity P-wave (km/s) = 6.34436 6.67925 1.47672
#
# Compressibility (1/GPa) = 0.02267325
#
# Stress axis : x y z
#
# Youngs Moduli (GPa) = 104.72017 83.81578 61.15620
#
# Poissons Ratio (x) = 0.28614 0.03583
# Poissons Ratio (y) = 0.35750 0.21891
# Poissons Ratio (z) = 0.06135 0.30002
#
# Static dielectric constant tensor:
#      x y z
#    x 2.024530 0.000000 -0.011910 
#    y 0.000000 1.914460 0.000000 
#    z -0.011910 0.000000 2.010140 
# 
# From -- ./inp_files/55690.got.cif
#   From: 2010.05.17/outbox.cif.g08.bks.cpg/sg5_28_cif.got.tgz:55690.got - 2010.06.03 18:56:24.
