data_PCOD9128625
_publ_section_title
;
Structure prediction by ZEFSAII (Michael W. Deem and Ramdas Pophale) SiO2 
 PCOD9128625
Probable space group: C 2
;
_chemical_formula_sum "Si O2"
_cell_formula_units_Z 28
_cell_length_a 18.672060
_cell_length_b 10.887411
_cell_length_c 6.214877
_cell_angle_alpha 90.000000
_cell_angle_beta 65.575492
_cell_angle_gamma 90.000000
_cell_volume 1150.356945
_symmetry_space_group_name_H-M "C 2"
_symmetry_group_IT_number 5
_symmetry_cell_setting 'monoclinic'
loop_
_space_group_symop_operation_xyz
x,y,z
-x,y,-z
1/2+x,1/2+y,z
1/2-x,1/2+y,-z
loop_
_atom_site_type_symbol
_atom_site_label
_atom_site_fract_x
_atom_site_fract_y
_atom_site_fract_z
Si Si1 0.697111 0.799010 0.653619
Si Si2 0.588460 0.887530 0.397028
Si Si3 0.069050 0.179428 0.069788
Si Si4 0.500000 0.263031 0.500000
Si Si5 0.500000 0.156089 0.000000
Si Si6 0.778524 0.510039 0.029934
Si Si7 0.660980 0.205171 0.787884
Si Si8 0.891720 0.921374 0.877442
O O1 0.635234 0.841552 0.547777
O O2 0.650272 0.696013 0.842650
O O3 0.713674 0.918005 0.777268
O O4 0.778792 0.741034 0.470828
O O5 0.500000 0.942097 0.500000
O O6 0.576817 0.767278 0.263383
O O7 0.649432 0.981566 0.215735
O O8 0.000000 0.224480 0.000000
O O9 0.054311 0.038841 0.148645
O O10 0.496812 0.202740 0.263390
O O11 0.423240 0.348620 0.631095
O O12 0.410357 0.105780 0.125111
O O13 0.782796 0.651212 0.096504
O O14 0.695525 0.472367 0.037482
O O15 0.613292 0.326383 0.917936
#
# Coordination Sequence:
#
# PCOD9128625 Si02
#       8
#     4   4   4   2   2   4   4   4
#     4  11  24  45  73 102 139 187 240 303 368 444
#     4  11  23  46  70 104 141 178 239 300 365 436
#     4  11  25  42  75 106 139 183 241 307 374 433
#     4  10  24  46  74 102 152 184 248 302 372 438
#     4  10  24  50  70 106 146 200 236 306 362 454
#     4  11  26  45  70 102 140 191 243 296 365 447
#     4  11  25  46  70 103 146 184 249 299 374 441
#     4  11  25  44  71 107 144 187 245 305 376 445
#
# _framework density 24.340271000000001
#
# number of rings (size 3 to 8) (size 9 to 14) (size 15 to 20)
#    0.000    1.143    2.857    1.714    9.000    2.286 
#   10.286    0.000    0.000    0.000    0.000    0.000 
#    0.000    0.000    0.000    0.000    0.000    0.000 
#
# Total GULP energy -78078.582874 kJ/mol
# GULP energy per Si atom -5577.041634 kJ/mol
# Density = 2.428487 g / cm^3
# Si number density = 24.340271 Si / 1000 Ang^3
#
#
#
# Elastic Constant Matrix: (Units=GPa)
#
#
# Indices 1 2 3 4 5 6 
#
# 1 108.2804 -12.6776 44.0846 0.0000 -9.9648 0.0000
# 2 -12.6776 56.8314 22.3628 0.0000 9.1325 0.0000
# 3 44.0846 22.3628 128.1285 0.0000 -21.6477 0.0000
# 4 0.0000 0.0000 0.0000 -6.0978 0.0000 8.7645
# 5 -9.9648 9.1325 -21.6477 0.0000 68.1488 0.0000
# 6 0.0000 0.0000 0.0000 8.7645 0.0000 21.8858
#
#
#
# Elastic Compliance Matrix: (Units=1/GPa)
#
#
# Indices 1 2 3 4 5 6 
#
# 1 0.011741 0.004633 -0.004928 0.000000 -0.000469 0.000000
# 2 0.004633 0.021692 -0.006083 0.000000 -0.004162 0.000000
# 3 -0.004928 -0.006083 0.011178 0.000000 0.003645 0.000000
# 4 0.000000 0.000000 0.000000 -0.104083 0.000000 0.041682
# 5 -0.000469 -0.004162 0.003645 0.000000 0.016321 0.000000
# 6 0.000000 0.000000 0.000000 0.041682 0.000000 0.029000
#
#
# Mechanical properties :
#
#
# Convention : Reuss Voigt Hill
#
# Bulk Modulus (GPa) = 31.39169 44.53109 37.96139
# Shear Modulus (GPa) = 542.18868 32.75205 287.47036
#
# Velocity S-wave (km/s) = 14.94113 3.67221 10.87939
# Velocity P-wave (km/s) = 17.62313 6.02620 13.16985
#
# Compressibility (1/GPa) = 0.03185557
#
# Stress axis : x y z
#
# Youngs Moduli (GPa) = 85.17329 46.09982 89.46353
#
# Poissons Ratio (x) = -0.21360 0.44084
# Poissons Ratio (y) = -0.39465 0.54424
# Poissons Ratio (z) = 0.41970 0.28044
#
# Static dielectric constant tensor:
#      x y z
#    x 1.997110 0.000000 0.006250 
#    y 0.000000 1.992370 0.000000 
#    z 0.006250 0.000000 1.938290 
# 
# From -- ./inp_files/9561.got.cif
#   From: 2010.05.17/outbox.cif.g08.bks.cpg/sg5_5_cif.got.tgz:9561.got - 2010.06.03 18:56:24.
