data_PCOD9128630
_publ_section_title
;
Structure prediction by ZEFSAII (Michael W. Deem and Ramdas Pophale) SiO2 
 PCOD9128630
Probable space group: C 2
;
_chemical_formula_sum "Si O2"
_cell_formula_units_Z 24
_cell_length_a 13.668998
_cell_length_b 4.865360
_cell_length_c 24.177911
_cell_angle_alpha 90.000000
_cell_angle_beta 147.193790
_cell_angle_gamma 90.000000
_cell_volume 871.181981
_symmetry_space_group_name_H-M "C 2"
_symmetry_group_IT_number 5
_symmetry_cell_setting 'monoclinic'
loop_
_space_group_symop_operation_xyz
x,y,z
-x,y,-z
1/2+x,1/2+y,z
1/2-x,1/2+y,-z
loop_
_atom_site_type_symbol
_atom_site_label
_atom_site_fract_x
_atom_site_fract_y
_atom_site_fract_z
Si Si1 0.000000 0.552670 0.000000
Si Si2 0.141646 0.529401 0.465958
Si Si3 0.362630 0.083735 0.725014
Si Si4 0.338015 0.344793 0.206024
Si Si5 0.785916 0.380268 0.246016
Si Si6 0.500000 0.671016 0.500000
Si Si7 0.378486 0.937070 0.060945
O O1 0.212814 0.480798 0.099973
O O2 0.997057 0.577184 0.067665
O O3 0.239394 0.819558 0.514243
O O4 0.095394 0.370238 0.500393
O O5 0.953142 0.566750 0.345603
O O6 0.484366 0.211599 0.735105
O O7 0.322244 0.318111 0.750815
O O8 0.164310 0.004723 0.607492
O O9 0.489389 0.891321 0.823212
O O10 0.369173 0.598357 0.262169
O O11 0.210921 0.086919 0.164653
O O12 0.221826 0.154855 0.001681
#
# Coordination Sequence:
#
# PCOD9128630 Si02
#       7
#     2   4   4   4   4   2   4
#     4  12  28  48  78 110 146 192 246 302 378 434
#     4  11  23  45  70 100 143 191 247 298 352 426
#     4  11  25  46  76 108 154 192 247 302 363 440
#     4  12  27  45  73 106 146 191 243 303 367 433
#     4  11  26  44  69 104 145 191 240 298 361 426
#     4  10  24  46  74 112 146 202 244 296 366 436
#     4  12  29  49  76 111 148 194 246 307 370 436
#
# _framework density 27.548781999999999
#
# number of rings (size 3 to 8) (size 9 to 14) (size 15 to 20)
#    0.000    0.667    3.333    3.000    4.667    3.333 
#    0.000    3.333    0.000    0.000    0.000    0.000 
#    0.000    0.000    0.000    0.000    0.000    0.000 
#
# Total GULP energy -67007.271594 kJ/mol
# GULP energy per Si atom -5583.939300 kJ/mol
# Density = 2.748608 g / cm^3
# Si number density = 27.548782 Si / 1000 Ang^3
#
#
#
# Elastic Constant Matrix: (Units=GPa)
#
#
# Indices 1 2 3 4 5 6 
#
# 1 150.5643 11.2899 14.2646 -0.0003 -14.2148 0.0022
# 2 11.2899 125.1537 19.4478 -0.0016 -3.1245 -0.0012
# 3 14.2646 19.4478 129.9302 0.0001 9.6595 0.0017
# 4 -0.0003 -0.0016 0.0001 11.9195 0.0000 4.0701
# 5 -14.2148 -3.1245 9.6595 0.0000 41.0531 0.0014
# 6 0.0022 -0.0012 0.0017 4.0701 0.0014 189.0493
#
#
#
# Elastic Compliance Matrix: (Units=1/GPa)
#
#
# Indices 1 2 3 4 5 6 
#
# 1 0.007005 -0.000427 -0.000899 0.000000 0.002604 0.000000
# 2 -0.000427 0.008241 -0.001244 0.000001 0.000772 0.000000
# 3 -0.000899 -0.001244 0.008154 0.000000 -0.002324 0.000000
# 4 0.000000 0.000001 0.000000 0.084518 0.000000 -0.001820
# 5 0.002604 0.000772 -0.002324 0.000000 0.025866 0.000000
# 6 0.000000 0.000000 0.000000 -0.001820 0.000000 0.005329
#
#
# Mechanical properties :
#
#
# Convention : Reuss Voigt Hill
#
# Bulk Modulus (GPa) = 54.76377 55.07253 54.91815
# Shear Modulus (GPa) = 33.25810 72.44744 52.85277
#
# Velocity S-wave (km/s) = 3.47831 5.13371 4.38484
# Velocity P-wave (km/s) = 6.00446 7.42794 6.75381
#
# Compressibility (1/GPa) = 0.01826025
#
# Stress axis : x y z
#
# Youngs Moduli (GPa) = 142.76053 121.34003 122.63735
#
# Poissons Ratio (x) = 0.05184 0.11021
# Poissons Ratio (y) = 0.06099 0.15257
# Poissons Ratio (z) = 0.12830 0.15095
#
# Static dielectric constant tensor:
#      x y z
#    x -0.537250 0.000010 -0.487200 
#    y 0.000010 2.124410 0.000000 
#    z -0.487200 0.000000 2.151310 
# 
# From -- ./inp_files/58030.got.cif
#   From: 2010.05.17/outbox.cif.g08.bks.cpg/sg5_30_cif.got.tgz:58030.got - 2010.06.03 18:56:24.
