data_PCOD9128721
_publ_section_title
;
Structure prediction by ZEFSAII (Michael W. Deem and Ramdas Pophale) SiO2 
 PCOD9128721
Probable space group: C 2
;
_chemical_formula_sum "Si O2"
_cell_formula_units_Z 30
_cell_length_a 13.328302
_cell_length_b 7.720106
_cell_length_c 19.972220
_cell_angle_alpha 90.000000
_cell_angle_beta 147.359053
_cell_angle_gamma 90.000000
_cell_volume 1108.443094
_symmetry_space_group_name_H-M "C 2"
_symmetry_group_IT_number 5
_symmetry_cell_setting 'monoclinic'
loop_
_space_group_symop_operation_xyz
x,y,z
-x,y,-z
1/2+x,1/2+y,z
1/2-x,1/2+y,-z
loop_
_atom_site_type_symbol
_atom_site_label
_atom_site_fract_x
_atom_site_fract_y
_atom_site_fract_z
Si Si1 0.000000 0.319551 0.500000
Si Si2 0.860607 0.787916 0.089039
Si Si3 0.701323 0.283408 0.687823
Si Si4 0.988927 0.476816 0.072364
Si Si5 0.765243 0.788746 0.446376
Si Si6 0.890971 0.976782 0.871503
Si Si7 0.376990 0.372813 0.645942
Si Si8 0.426101 0.716726 0.310765
O O1 0.183435 0.420344 0.576277
O O2 0.062336 0.218336 0.601633
O O3 0.750140 0.617750 0.238795
O O4 0.958358 0.939349 0.101252
O O5 0.980577 0.784014 0.224153
O O6 0.648395 0.818358 0.988343
O O7 0.485095 0.326280 0.560443
O O8 0.780355 0.260550 0.657969
O O9 0.808993 0.438494 0.784889
O O10 0.893045 0.628003 0.059277
O O11 0.000000 0.499101 0.000000
O O12 0.810274 0.739383 0.551458
O O13 0.564895 0.863193 0.357016
O O14 0.774978 0.797665 0.819089
O O15 0.000000 0.025474 0.000000
O O16 0.473579 0.548595 0.669603
#
# Coordination Sequence:
#
# PCOD9128721 Si02
#       8
#     2   4   4   4   4   4   4   4
#     4  10  24  48  74 118 160 212 274 348 420 500
#     4  12  28  49  83 116 163 216 282 343 423 482
#     4  11  26  51  79 118 168 216 278 344 421 497
#     4  12  29  54  83 119 165 218 279 351 411 505
#     4  10  26  44  80 116 161 215 268 341 423 494
#     4  12  28  48  81 121 164 225 283 342 411 497
#     4  11  25  47  78 120 161 219 273 349 422 499
#     4  11  26  45  79 116 170 213 278 341 422 500
#
# _framework density 27.064988
#
# number of rings (size 3 to 8) (size 9 to 14) (size 15 to 20)
#    0.000    0.800    1.333    3.200   11.200    4.267 
#    0.000    0.667    0.000    0.000    0.000    0.000 
#    0.000    0.000    0.000    0.000    0.000    0.000 
#
# Total GULP energy -83652.097583 kJ/mol
# GULP energy per Si atom -5576.806506 kJ/mol
# Density = 2.700339 g / cm^3
# Si number density = 27.064988 Si / 1000 Ang^3
#
#
#
# Elastic Constant Matrix: (Units=GPa)
#
#
# Indices 1 2 3 4 5 6 
#
# 1 198.5092 43.2272 80.5149 0.0001 -17.0067 0.0000
# 2 43.2272 121.3168 30.8746 0.0001 -17.6704 0.0000
# 3 80.5149 30.8746 155.4520 0.0005 -24.8620 0.0002
# 4 0.0001 0.0001 0.0005 -44.7036 0.0001 -9.9825
# 5 -17.0067 -17.6704 -24.8620 0.0001 65.2611 0.0000
# 6 0.0000 0.0000 0.0002 -9.9825 0.0000 36.4633
#
#
#
# Elastic Compliance Matrix: (Units=1/GPa)
#
#
# Indices 1 2 3 4 5 6 
#
# 1 0.006651 -0.001559 -0.003115 0.000000 0.000124 0.000000
# 2 -0.001559 0.009251 -0.000739 0.000000 0.001817 0.000000
# 3 -0.003115 -0.000739 0.008553 0.000000 0.002246 0.000000
# 4 0.000000 0.000000 0.000000 -0.021081 0.000000 -0.005771
# 5 0.000124 0.001817 0.002246 0.000000 0.016703 0.000000
# 6 0.000000 0.000000 0.000000 -0.005771 0.000000 0.025845
#
#
# Mechanical properties :
#
#
# Convention : Reuss Voigt Hill
#
# Bulk Modulus (GPa) = 73.38124 87.16792 80.27458
# Shear Modulus (GPa) = 81.57632 32.78158 57.17895
#
# Velocity S-wave (km/s) = 5.49603 3.48403 4.60135
# Velocity P-wave (km/s) = 8.21261 6.96142 7.61277
#
# Compressibility (1/GPa) = 0.01362746
#
# Stress axis : x y z
#
# Youngs Moduli (GPa) = 150.34630 108.09428 116.92415
#
# Poissons Ratio (x) = 0.16852 0.36427
# Poissons Ratio (y) = 0.23439 0.08645
# Poissons Ratio (z) = 0.46840 0.07992
#
# Static dielectric constant tensor:
#      x y z
#    x 2.169110 0.000000 0.111590 
#    y 0.000000 2.590300 0.000000 
#    z 0.111590 0.000000 2.195740 
# 
# From -- ./inp_files/60501.got.cif
#   From: 2010.05.17/outbox.cif.g08.bks.cpg/sg5_31_cif.got.tgz:60501.got - 2010.06.03 18:56:24.
