data_PCOD9128910
_publ_section_title
;
Structure prediction by ZEFSAII (Michael W. Deem and Ramdas Pophale) SiO2 
 PCOD9128910
Probable space group: C 2
;
_chemical_formula_sum "Si O2"
_cell_formula_units_Z 20
_cell_length_a 31.289184
_cell_length_b 5.192171
_cell_length_c 4.971394
_cell_angle_alpha 90.000000
_cell_angle_beta 86.111570
_cell_angle_gamma 90.000000
_cell_volume 805.787464
_symmetry_space_group_name_H-M "C 2"
_symmetry_group_IT_number 5
_symmetry_cell_setting 'monoclinic'
loop_
_space_group_symop_operation_xyz
x,y,z
-x,y,-z
1/2+x,1/2+y,z
1/2-x,1/2+y,-z
loop_
_atom_site_type_symbol
_atom_site_label
_atom_site_fract_x
_atom_site_fract_y
_atom_site_fract_z
Si Si1 0.578480 0.351960 0.029140
Si Si2 0.277221 0.175785 0.479190
Si Si3 0.593024 0.850858 0.342082
Si Si4 0.029537 0.478888 0.745104
Si Si5 0.333786 0.129250 0.947299
O O1 0.628473 0.304514 0.936094
O O2 0.544690 0.268529 0.818701
O O3 0.575014 0.609632 0.193885
O O4 0.573575 0.119015 0.245109
O O5 0.251166 0.432693 0.413498
O O6 0.302995 0.071838 0.208271
O O7 0.307839 0.256106 0.714277
O O8 0.575431 0.840935 0.654678
O O9 0.641798 0.895842 0.222657
O O10 0.000000 0.451133 0.500000
O O11 0.000000 0.381545 0.000000
#
# Coordination Sequence:
#
# PCOD9128910 Si02
#       5
#     4   4   4   4   4
#     4  10  25  47  75 104 143 197 251 294 376 435
#     4  12  27  42  72 107 146 184 236 297 374 426
#     4  10  25  47  75 104 143 197 251 294 376 435
#     4  12  24  52  72 116 150 198 252 324 376 448
#     4  10  25  48  72 103 146 188 244 295 356 454
#
# _framework density 24.820443000000001
#
# number of rings (size 3 to 8) (size 9 to 14) (size 15 to 20)
#    1.200    0.000    2.000    2.400    5.600    1.600 
#    7.200    0.000    0.000    0.000    0.000    0.000 
#    0.000    0.000    0.000    0.000    0.000    0.000 
#
# Total GULP energy -55756.259843 kJ/mol
# GULP energy per Si atom -5575.625984 kJ/mol
# Density = 2.476395 g / cm^3
# Si number density = 24.820443 Si / 1000 Ang^3
#
#
#
# Elastic Constant Matrix: (Units=GPa)
#
#
# Indices 1 2 3 4 5 6 
#
# 1 95.0937 15.0228 35.7012 0.0000 -15.2248 0.0000
# 2 15.0228 114.6713 12.7341 0.0000 -9.7755 0.0000
# 3 35.7012 12.7341 139.3167 0.0000 -21.4402 0.0000
# 4 0.0000 0.0000 0.0000 28.5474 0.0000 6.7898
# 5 -15.2248 -9.7755 -21.4402 0.0000 54.0524 0.0000
# 6 0.0000 0.0000 0.0000 6.7898 0.0000 20.5159
#
#
#
# Elastic Compliance Matrix: (Units=1/GPa)
#
#
# Indices 1 2 3 4 5 6 
#
# 1 0.012028 -0.001099 -0.002653 0.000000 0.002137 0.000000
# 2 -0.001099 0.009005 -0.000360 0.000000 0.001176 0.000000
# 3 -0.002653 -0.000360 0.008271 0.000000 0.002468 0.000000
# 4 0.000000 0.000000 0.000000 0.038022 0.000000 -0.012584
# 5 0.002137 0.001176 0.002468 0.000000 0.020294 0.000000
# 6 0.000000 0.000000 0.000000 -0.012584 0.000000 0.052907
#
#
# Mechanical properties :
#
#
# Convention : Reuss Voigt Hill
#
# Bulk Modulus (GPa) = 47.44216 52.88865 50.16541
# Shear Modulus (GPa) = 32.09703 39.66469 35.88086
#
# Velocity S-wave (km/s) = 3.59997 4.00192 3.80625
# Velocity P-wave (km/s) = 6.03617 6.53518 6.29062
#
# Compressibility (1/GPa) = 0.02107830
#
# Stress axis : x y z
#
# Youngs Moduli (GPa) = 83.14179 111.05148 120.91164
#
# Poissons Ratio (x) = 0.12204 0.32077
# Poissons Ratio (y) = 0.09137 0.04359
# Poissons Ratio (z) = 0.22057 0.04003
#
# Static dielectric constant tensor:
#      x y z
#    x 2.113610 0.000000 -0.019020 
#    y 0.000000 1.943690 0.000000 
#    z -0.019020 0.000000 2.062250 
# 
# From -- ./inp_files/11011.got.cif
#   From: 2010.05.17/outbox.cif.g08.bks.cpg/sg5_6_cif.got.tgz:11011.got - 2010.06.03 18:56:24.
