data_PCOD9128849
_publ_section_title
;
Structure prediction by ZEFSAII (Michael W. Deem and Ramdas Pophale) SiO2 
 PCOD9128849
Probable space group: C 2
;
_chemical_formula_sum "Si O2"
_cell_formula_units_Z 30
_cell_length_a 14.187695
_cell_length_b 5.236764
_cell_length_c 16.612198
_cell_angle_alpha 90.000000
_cell_angle_beta 108.324596
_cell_angle_gamma 90.000000
_cell_volume 1171.658709
_symmetry_space_group_name_H-M "C 2"
_symmetry_group_IT_number 5
_symmetry_cell_setting 'monoclinic'
loop_
_space_group_symop_operation_xyz
x,y,z
-x,y,-z
1/2+x,1/2+y,z
1/2-x,1/2+y,-z
loop_
_atom_site_type_symbol
_atom_site_label
_atom_site_fract_x
_atom_site_fract_y
_atom_site_fract_z
Si Si1 0.000000 0.161300 0.000000
Si Si2 0.859001 0.763932 0.028962
Si Si3 0.769595 0.568866 0.258669
Si Si4 0.847715 0.653341 0.452798
Si Si5 0.881001 0.147234 0.546907
Si Si6 0.944467 0.946913 0.734422
Si Si7 0.193819 0.436299 0.111935
Si Si8 0.936726 0.439196 0.185129
O O1 0.086783 0.309062 0.070119
O O2 0.942496 0.973990 0.045181
O O3 0.769808 0.842220 0.062942
O O4 0.905029 0.519311 0.086621
O O5 0.826304 0.718233 0.927960
O O6 0.836600 0.600384 0.355755
O O7 0.666889 0.438439 0.258899
O O8 0.738331 0.838066 0.207554
O O9 0.837519 0.425298 0.212364
O O10 0.888525 0.934228 0.480219
O O11 0.734066 0.657354 0.455030
O O12 0.901515 0.429124 0.517826
O O13 0.937106 0.034149 0.639188
O O14 0.004248 0.180626 0.788843
O O15 0.998796 0.678832 0.764110
#
# Coordination Sequence:
#
# PCOD9128849 Si02
#       8
#     2   4   4   4   4   4   4   4
#     4  12  24  42  70  94 128 176 224 276 338 398
#     4  11  25  43  67  97 133 177 227 281 336 400
#     4  10  25  45  68 100 138 182 229 278 345 401
#     4   9  18  37  63  96 130 176 216 273 331 400
#     4   9  18  36  66  95 133 170 221 269 333 400
#     4  11  24  46  71 103 136 183 223 280 343 404
#     4  11  24  46  66  96 133 177 226 283 334 403
#     4  11  27  44  68 101 142 175 229 287 332 405
#
# _framework density 25.604724000000001
#
# number of rings (size 3 to 8) (size 9 to 14) (size 15 to 20)
#    0.000    1.600    1.333    2.000    5.600    5.333 
#    2.400    4.000    0.000    0.000    0.000    0.000 
#    0.000    0.000    0.000    0.000    0.000    0.000 
#
# Total GULP energy -84040.971915 kJ/mol
# GULP energy per Si atom -5602.731461 kJ/mol
# Density = 2.554645 g / cm^3
# Si number density = 25.604724 Si / 1000 Ang^3
#
#
#
# Elastic Constant Matrix: (Units=GPa)
#
#
# Indices 1 2 3 4 5 6 
#
# 1 142.1010 15.8596 14.0987 0.0000 -1.7690 0.0000
# 2 15.8596 81.7607 3.0310 0.0000 5.6336 0.0000
# 3 14.0987 3.0310 115.4736 0.0000 -1.6036 0.0000
# 4 0.0000 0.0000 0.0000 40.8952 0.0000 9.6106
# 5 -1.7690 5.6336 -1.6036 0.0000 26.4597 0.0000
# 6 0.0000 0.0000 0.0000 9.6106 0.0000 17.4877
#
#
#
# Elastic Compliance Matrix: (Units=1/GPa)
#
#
# Indices 1 2 3 4 5 6 
#
# 1 0.007290 -0.001434 -0.000842 0.000000 0.000742 0.000000
# 2 -0.001434 0.012710 -0.000198 0.000000 -0.002814 0.000000
# 3 -0.000842 -0.000198 0.008775 0.000000 0.000518 0.000000
# 4 0.000000 0.000000 0.000000 0.028079 0.000000 -0.015431
# 5 0.000742 -0.002814 0.000518 0.000000 0.038473 0.000000
# 6 0.000000 0.000000 0.000000 -0.015431 0.000000 0.065663
#
#
# Mechanical properties :
#
#
# Convention : Reuss Voigt Hill
#
# Bulk Modulus (GPa) = 41.96750 45.03489 43.50119
# Shear Modulus (GPa) = 28.75519 37.39159 33.07339
#
# Velocity S-wave (km/s) = 3.35482 3.82558 3.59791
# Velocity P-wave (km/s) = 5.60647 6.09427 5.85545
#
# Compressibility (1/GPa) = 0.02382796
#
# Stress axis : x y z
#
# Youngs Moduli (GPa) = 137.17278 78.67703 113.95770
#
# Poissons Ratio (x) = 0.11282 0.09597
# Poissons Ratio (y) = 0.19670 0.02252
# Poissons Ratio (z) = 0.11552 0.01555
#
# Static dielectric constant tensor:
#      x y z
#    x 2.015170 0.000000 0.015780 
#    y 0.000000 2.047700 0.000000 
#    z 0.015780 0.000000 2.040890 
# 
# From -- ./inp_files/61235.got.cif
#   From: 2010.05.17/outbox.cif.g08.bks.cpg/sg5_31_cif.got.tgz:61235.got - 2010.06.03 18:56:24.
