data_PCOD9128267
_publ_section_title
;
Structure prediction by ZEFSAII (Michael W. Deem and Ramdas Pophale) SiO2 
 PCOD9128267
Probable space group: C 2
;
_chemical_formula_sum "Si O2"
_cell_formula_units_Z 22
_cell_length_a 5.094776
_cell_length_b 21.955188
_cell_length_c 9.263805
_cell_angle_alpha 90.000000
_cell_angle_beta 103.219913
_cell_angle_gamma 90.000000
_cell_volume 1008.758910
_symmetry_space_group_name_H-M "C 2"
_symmetry_group_IT_number 5
_symmetry_cell_setting 'monoclinic'
loop_
_space_group_symop_operation_xyz
x,y,z
-x,y,-z
1/2+x,1/2+y,z
1/2-x,1/2+y,-z
loop_
_atom_site_type_symbol
_atom_site_label
_atom_site_fract_x
_atom_site_fract_y
_atom_site_fract_z
Si Si1 0.000000 0.522950 0.500000
Si Si2 0.754891 0.422138 0.637089
Si Si3 0.819486 0.603682 0.717998
Si Si4 0.378643 0.676660 0.822022
Si Si5 0.798854 0.282058 0.601773
Si Si6 0.284590 0.487474 0.096088
O O1 0.988644 0.471567 0.626610
O O2 0.808978 0.571986 0.558634
O O3 0.500000 0.433045 0.500000
O O4 0.853044 0.353512 0.636694
O O5 0.636848 0.437325 0.777797
O O6 0.596802 0.651978 0.734779
O O7 0.764493 0.550246 0.825993
O O8 0.114336 0.633527 0.778415
O O9 0.312340 0.743119 0.749840
O O10 0.500000 0.676790 0.000000
O O11 0.500000 0.276475 0.500000
O O12 0.000000 0.261601 0.500000
O O13 0.500000 0.496572 0.000000
O O14 0.000000 0.467103 0.000000
#
# Coordination Sequence:
#
# PCOD9128267 Si02
#       6
#     2   4   4   4   4   4
#     4  10  24  40  68 104 132 170 226 274 344 392
#     4  10  24  44  68  99 136 174 225 286 330 397
#     4  11  25  41  69  96 141 172 223 275 335 403
#     4  12  26  45  66 100 136 180 223 278 331 397
#     4  11  25  46  71  96 134 179 230 279 334 388
#     4  11  24  41  67  98 135 178 220 272 341 402
#
# _framework density 21.808976999999999
#
# number of rings (size 3 to 8) (size 9 to 14) (size 15 to 20)
#    0.000    1.091    0.909    4.364   14.000    0.727 
#    0.000    1.818    0.000    0.000    0.000    0.000 
#    0.000    0.000    0.000    0.000    0.000    0.000 
#
# Total GULP energy -61362.770721 kJ/mol
# GULP energy per Si atom -5578.433702 kJ/mol
# Density = 2.175934 g / cm^3
# Si number density = 21.808977 Si / 1000 Ang^3
#
#
#
# Elastic Constant Matrix: (Units=GPa)
#
#
# Indices 1 2 3 4 5 6 
#
# 1 129.6127 35.5199 48.3563 0.0000 -28.3150 0.0000
# 2 35.5199 104.2537 60.8071 0.0000 -12.3538 0.0000
# 3 48.3563 60.8071 92.6665 0.0000 -31.8270 0.0000
# 4 0.0000 0.0000 0.0000 22.0294 0.0000 -15.7026
# 5 -28.3150 -12.3538 -31.8270 0.0000 39.9383 0.0000
# 6 0.0000 0.0000 0.0000 -15.7026 0.0000 37.2001
#
#
#
# Elastic Compliance Matrix: (Units=1/GPa)
#
#
# Indices 1 2 3 4 5 6 
#
# 1 0.010121 -0.001183 -0.002982 0.000000 0.004433 0.000000
# 2 -0.001183 0.016308 -0.011895 0.000000 -0.005274 0.000000
# 3 -0.002982 -0.011895 0.025008 0.000000 0.014135 0.000000
# 4 0.000000 0.000000 0.000000 0.064930 0.000000 0.027408
# 5 0.004433 -0.005274 0.014135 0.000000 0.037814 0.000000
# 6 0.000000 0.000000 0.000000 0.027408 0.000000 0.038451
#
#
# Mechanical properties :
#
#
# Convention : Reuss Voigt Hill
#
# Bulk Modulus (GPa) = 51.77302 68.43327 60.10314
# Shear Modulus (GPa) = 21.62705 31.95687 26.79196
#
# Velocity S-wave (km/s) = 3.15248 3.83209 3.50877
# Velocity P-wave (km/s) = 6.08619 7.14328 6.63582
#
# Compressibility (1/GPa) = 0.01931508
#
# Stress axis : x y z
#
# Youngs Moduli (GPa) = 98.80865 61.31891 39.98733
#
# Poissons Ratio (x) = 0.07257 0.11925
# Poissons Ratio (y) = 0.11694 0.47565
# Poissons Ratio (z) = 0.29467 0.72939
#
# Static dielectric constant tensor:
#      x y z
#    x 1.791950 0.000000 0.023750 
#    y 0.000000 1.806420 0.000000 
#    z 0.023750 0.000000 1.807950 
# 
# From -- ./inp_files/12547.got.cif
#   From: 2010.05.17/outbox.cif.g08.bks.cpg/sg5_7_cif.got.tgz:12547.got - 2010.06.03 18:56:24.
