data_PCOD9128981
_publ_section_title
;
Structure prediction by ZEFSAII (Michael W. Deem and Ramdas Pophale) SiO2 
 PCOD9128981
Probable space group: C 2
;
_chemical_formula_sum "Si O2"
_cell_formula_units_Z 28
_cell_length_a 32.090503
_cell_length_b 4.917178
_cell_length_c 8.624281
_cell_angle_alpha 90.000000
_cell_angle_beta 125.316846
_cell_angle_gamma 90.000000
_cell_volume 1110.422610
_symmetry_space_group_name_H-M "C 2"
_symmetry_group_IT_number 5
_symmetry_cell_setting 'monoclinic'
loop_
_space_group_symop_operation_xyz
x,y,z
-x,y,-z
1/2+x,1/2+y,z
1/2-x,1/2+y,-z
loop_
_atom_site_type_symbol
_atom_site_label
_atom_site_fract_x
_atom_site_fract_y
_atom_site_fract_z
Si Si1 0.907604 0.339920 0.316985
Si Si2 0.854438 0.719114 0.956390
Si Si3 0.000000 0.535149 0.500000
Si Si4 0.000000 0.333169 0.000000
Si Si5 0.388434 0.997140 0.707417
Si Si6 0.749504 0.236354 0.108265
Si Si7 0.353800 0.499302 0.447811
Si Si8 0.456818 0.510919 0.190167
O O1 0.871687 0.516053 0.131996
O O2 0.946362 0.500421 0.505707
O O3 0.880462 0.094102 0.344420
O O4 0.957785 0.249401 0.321473
O O5 0.896330 0.959981 0.032625
O O6 0.859196 0.565922 0.803826
O O7 0.797939 0.806059 0.882918
O O8 0.973956 0.749248 0.316543
O O9 0.948915 0.514266 0.872243
O O10 0.012559 0.129955 0.885349
O O11 0.364157 0.195596 0.525224
O O12 0.378340 0.691397 0.630854
O O13 0.795521 0.092717 0.299252
O O14 0.765586 0.511635 0.054380
#
# Coordination Sequence:
#
# PCOD9128981 Si02
#       8
#     4   4   2   2   4   4   4   4
#     4  11  24  46  69 110 150 202 258 324 391 465
#     4  11  26  49  77 106 161 208 263 320 410 483
#     4  10  26  40  70 110 148 204 256 334 390 460
#     4  12  28  52  74 110 164 226 262 316 416 496
#     4  12  30  50  76 114 160 209 262 330 395 480
#     4  12  26  50  85 117 152 207 264 334 410 475
#     4  12  29  48  79 118 152 200 276 336 384 479
#     4  11  25  47  73 108 152 211 263 320 400 475
#
# _framework density 25.215623999999998
#
# number of rings (size 3 to 8) (size 9 to 14) (size 15 to 20)
#    0.000    0.571    2.857    3.000    8.000    4.571 
#    0.000    0.000    0.000    0.000    0.000    0.000 
#    0.000    0.000    0.000    0.000    0.000    0.000 
#
# Total GULP energy -78295.650233 kJ/mol
# GULP energy per Si atom -5592.546445 kJ/mol
# Density = 2.515823 g / cm^3
# Si number density = 25.215624 Si / 1000 Ang^3
#
#
#
# Elastic Constant Matrix: (Units=GPa)
#
#
# Indices 1 2 3 4 5 6 
#
# 1 182.9737 11.9485 40.8065 0.0000 -6.4807 0.0000
# 2 11.9485 90.2348 -1.6705 0.0000 -8.3115 0.0000
# 3 40.8065 -1.6705 77.5452 0.0000 1.7170 0.0000
# 4 0.0000 0.0000 0.0000 39.4844 0.0000 0.7458
# 5 -6.4807 -8.3115 1.7170 0.0000 44.3604 0.0000
# 6 0.0000 0.0000 0.0000 0.7458 0.0000 25.6517
#
#
#
# Elastic Compliance Matrix: (Units=1/GPa)
#
#
# Indices 1 2 3 4 5 6 
#
# 1 0.006298 -0.000813 -0.003351 0.000000 0.000897 0.000000
# 2 -0.000813 0.011385 0.000629 0.000000 0.001990 0.000000
# 3 -0.003351 0.000629 0.014694 0.000000 -0.000940 0.000000
# 4 0.000000 0.000000 0.000000 0.025340 0.000000 -0.000737
# 5 0.000897 0.001990 -0.000940 0.000000 0.023083 0.000000
# 6 0.000000 0.000000 0.000000 -0.000737 0.000000 0.039005
#
#
# Mechanical properties :
#
#
# Convention : Reuss Voigt Hill
#
# Bulk Modulus (GPa) = 39.51767 50.32474 44.92121
# Shear Modulus (GPa) = 36.95205 41.87726 39.41465
#
# Velocity S-wave (km/s) = 3.83226 4.07967 3.95790
# Velocity P-wave (km/s) = 5.94033 6.49559 6.22416
#
# Compressibility (1/GPa) = 0.02530513
#
# Stress axis : x y z
#
# Youngs Moduli (GPa) = 158.79141 87.83616 68.05659
#
# Poissons Ratio (x) = 0.07144 0.22808
# Poissons Ratio (y) = 0.12914 -0.04282
# Poissons Ratio (z) = 0.53217 -0.05526
#
# Static dielectric constant tensor:
#      x y z
#    x 2.120850 0.000000 -0.034490 
#    y 0.000000 2.022170 0.000000 
#    z -0.034490 0.000000 2.215400 
# 
# From -- ./inp_files/32345.got.cif
#   From: 2010.05.17/outbox.cif.g08.bks.cpg/sg5_17_cif.got.tgz:32345.got - 2010.06.03 18:56:24.
