data_PCOD9128170
_publ_section_title
;
Structure prediction by ZEFSAII (Michael W. Deem and Ramdas Pophale) SiO2 
 PCOD9128170
Probable space group: C 2
;
_chemical_formula_sum "Si O2"
_cell_formula_units_Z 26
_cell_length_a 22.646728
_cell_length_b 5.105012
_cell_length_c 8.866855
_cell_angle_alpha 90.000000
_cell_angle_beta 73.380286
_cell_angle_gamma 90.000000
_cell_volume 982.288323
_symmetry_space_group_name_H-M "C 2"
_symmetry_group_IT_number 5
_symmetry_cell_setting 'monoclinic'
loop_
_space_group_symop_operation_xyz
x,y,z
-x,y,-z
1/2+x,1/2+y,z
1/2-x,1/2+y,-z
loop_
_atom_site_type_symbol
_atom_site_label
_atom_site_fract_x
_atom_site_fract_y
_atom_site_fract_z
Si Si1 0.000000 0.609150 0.500000
Si Si2 0.689227 0.010490 0.737154
Si Si3 0.856081 0.397010 0.891816
Si Si4 0.600952 0.738293 0.578219
Si Si5 0.410373 0.393876 0.146074
Si Si6 0.029401 0.708904 0.170614
Si Si7 0.327552 0.410352 0.708790
O O1 0.945382 0.423539 0.478333
O O2 0.978319 0.789059 0.652137
O O3 0.659155 0.301466 0.775092
O O4 0.760807 0.950965 0.682967
O O5 0.658355 0.898341 0.607642
O O6 0.667384 0.901247 0.917939
O O7 0.928884 0.451935 0.850676
O O8 0.833879 0.136822 0.828866
O O9 0.834222 0.636890 0.795503
O O10 0.572981 0.620159 0.752051
O O11 0.624648 0.499329 0.456635
O O12 0.460848 0.174113 0.157266
O O13 0.430510 0.408431 0.958961
#
# Coordination Sequence:
#
# PCOD9128170 Si02
#       7
#     2   4   4   4   4   4   4
#     4  12  24  50  74 114 150 194 262 334 388 466
#     4  11  27  50  76 107 158 203 265 314 397 468
#     4  11  27  50  79 115 152 210 261 325 386 472
#     4  12  29  46  79 111 155 204 264 330 396 464
#     4  10  25  47  72 108 145 207 253 318 390 473
#     4  10  23  48  75 104 153 193 260 311 397 454
#     4  12  29  48  80 115 158 203 264 325 392 457
#
# _framework density 26.468809
#
# number of rings (size 3 to 8) (size 9 to 14) (size 15 to 20)
#    0.000    0.923    3.077    0.923   15.077    0.000 
#    8.308    0.000    0.000    0.000    0.000    0.000 
#    0.000    0.000    0.000    0.000    0.000    0.000 
#
# Total GULP energy -72747.802138 kJ/mol
# GULP energy per Si atom -5595.984780 kJ/mol
# Density = 2.640856 g / cm^3
# Si number density = 26.468809 Si / 1000 Ang^3
#
#
#
# Elastic Constant Matrix: (Units=GPa)
#
#
# Indices 1 2 3 4 5 6 
#
# 1 167.8908 33.0473 20.3402 0.0000 41.8321 0.0000
# 2 33.0473 108.2632 35.2790 0.0000 21.6698 0.0000
# 3 20.3402 35.2790 165.3484 0.0000 15.1620 0.0000
# 4 0.0000 0.0000 0.0000 49.4651 0.0000 15.6158
# 5 41.8321 21.6698 15.1620 0.0000 49.2504 0.0000
# 6 0.0000 0.0000 0.0000 15.6158 0.0000 14.9471
#
#
#
# Elastic Compliance Matrix: (Units=1/GPa)
#
#
# Indices 1 2 3 4 5 6 
#
# 1 0.007685 -0.001093 -0.000162 0.000000 -0.005997 0.000000
# 2 -0.001093 0.010835 -0.001878 0.000000 -0.003261 0.000000
# 3 -0.000162 -0.001878 0.006565 0.000000 -0.001057 0.000000
# 4 0.000000 0.000000 0.000000 0.030165 0.000000 -0.031515
# 5 -0.005997 -0.003261 -0.001057 0.000000 0.027158 0.000000
# 6 0.000000 0.000000 0.000000 -0.031515 0.000000 0.099827
#
#
# Mechanical properties :
#
#
# Convention : Reuss Voigt Hill
#
# Bulk Modulus (GPa) = 53.13778 68.75949 60.94863
# Shear Modulus (GPa) = 25.67049 46.25492 35.96271
#
# Velocity S-wave (km/s) = 3.11760 4.18488 3.69003
# Velocity P-wave (km/s) = 5.75139 7.02744 6.42119
#
# Compressibility (1/GPa) = 0.01881900
#
# Stress axis : x y z
#
# Youngs Moduli (GPa) = 130.12029 92.29276 152.31165
#
# Poissons Ratio (x) = 0.10085 0.02473
# Poissons Ratio (y) = 0.14218 0.28609
# Poissons Ratio (z) = 0.02113 0.17336
#
# Static dielectric constant tensor:
#      x y z
#    x 2.125170 0.000000 -0.029130 
#    y 0.000000 2.090200 0.000000 
#    z -0.029130 0.000000 2.160430 
# 
# From -- ./inp_files/30313.got.cif
#   From: 2010.05.17/outbox.cif.g08.bks.cpg/sg5_16_cif.got.tgz:30313.got - 2010.06.03 18:56:24.
