data_PCOD9128654
_publ_section_title
;
Structure prediction by ZEFSAII (Michael W. Deem and Ramdas Pophale) SiO2 
 PCOD9128654
Probable space group: C 2
;
_chemical_formula_sum "Si O2"
_cell_formula_units_Z 24
_cell_length_a 12.292232
_cell_length_b 7.700113
_cell_length_c 24.186288
_cell_angle_alpha 90.000000
_cell_angle_beta 26.764172
_cell_angle_gamma 90.000000
_cell_volume 1030.902591
_symmetry_space_group_name_H-M "C 2"
_symmetry_group_IT_number 5
_symmetry_cell_setting 'monoclinic'
loop_
_space_group_symop_operation_xyz
x,y,z
-x,y,-z
1/2+x,1/2+y,z
1/2-x,1/2+y,-z
loop_
_atom_site_type_symbol
_atom_site_label
_atom_site_fract_x
_atom_site_fract_y
_atom_site_fract_z
Si Si1 0.246939 0.554820 0.738260
Si Si2 0.051773 0.351927 0.210562
Si Si3 0.633774 0.570776 0.851223
Si Si4 0.114093 0.427326 0.363766
Si Si5 0.627167 0.521463 0.647744
Si Si6 0.288612 0.249530 0.992674
O O1 0.391050 0.728601 0.654411
O O2 0.409953 0.454994 0.708544
O O3 0.166390 0.444513 0.722263
O O4 0.999213 0.619089 0.878772
O O5 0.226972 0.495167 0.159020
O O6 0.946463 0.218255 0.302820
O O7 0.199126 0.245350 0.096938
O O8 0.818885 0.556323 0.716441
O O9 0.432792 0.429046 0.923843
O O10 0.453417 0.733484 0.934613
O O11 0.320743 0.432036 0.317239
O O12 0.870061 0.493901 0.502683
#
# Coordination Sequence:
#
# PCOD9128654 Si02
#       6
#     4   4   4   4   4   4
#     4  11  26  45  68 106 138 184 229 291 352 413
#     4  12  24  44  73 106 139 184 231 288 354 408
#     4  11  23  44  70 102 141 179 228 286 346 425
#     4  10  24  47  65  99 138 182 235 283 343 406
#     4  11  24  46  71  94 138 187 235 289 336 412
#     4  11  22  40  72 104 137 176 224 281 353 414
#
# _framework density 23.280571999999999
#
# number of rings (size 3 to 8) (size 9 to 14) (size 15 to 20)
#    0.000    1.000    6.667    0.500    0.000    4.000 
#    6.000    1.667    0.000    0.000    0.000    0.000 
#    0.000    0.000    0.000    0.000    0.000    0.000 
#
# Total GULP energy -67050.603375 kJ/mol
# GULP energy per Si atom -5587.550281 kJ/mol
# Density = 2.322758 g / cm^3
# Si number density = 23.280572 Si / 1000 Ang^3
#
#
#
# Elastic Constant Matrix: (Units=GPa)
#
#
# Indices 1 2 3 4 5 6 
#
# 1 159.4555 19.3308 29.3107 -0.0013 -14.2253 -0.0002
# 2 19.3308 54.7047 16.0045 -0.0008 0.6904 -0.0004
# 3 29.3107 16.0045 103.0403 -0.0078 9.4250 0.0001
# 4 -0.0013 -0.0008 -0.0078 28.0822 0.0008 -4.4456
# 5 -14.2253 0.6904 9.4250 0.0008 34.3376 0.0003
# 6 -0.0002 -0.0004 0.0001 -4.4456 0.0003 42.4896
#
#
#
# Elastic Compliance Matrix: (Units=1/GPa)
#
#
# Indices 1 2 3 4 5 6 
#
# 1 0.007214 -0.001988 -0.002072 0.000000 0.003598 0.000000
# 2 -0.001988 0.019705 -0.002445 0.000000 -0.000549 0.000000
# 3 -0.002072 -0.002445 0.011025 0.000003 -0.003836 0.000000
# 4 0.000000 0.000000 0.000003 0.036210 -0.000002 0.003789
# 5 0.003598 -0.000549 -0.003836 -0.000002 0.031677 0.000000
# 6 0.000000 0.000000 0.000000 0.003789 0.000000 0.023932
#
#
# Mechanical properties :
#
#
# Convention : Reuss Voigt Hill
#
# Bulk Modulus (GPa) = 40.10755 49.61028 44.85892
# Shear Modulus (GPa) = 33.09417 37.81883 35.45650
#
# Velocity S-wave (km/s) = 3.77442 4.03486 3.90681
# Velocity P-wave (km/s) = 6.02165 6.56222 6.29774
#
# Compressibility (1/GPa) = 0.02493296
#
# Stress axis : x y z
#
# Youngs Moduli (GPa) = 138.61410 50.74917 90.70291
#
# Poissons Ratio (x) = 0.10091 0.18797
# Poissons Ratio (y) = 0.27562 0.22175
# Poissons Ratio (z) = 0.28726 0.12407
#
# Static dielectric constant tensor:
#      x y z
#    x 1.881560 0.000000 -0.010750 
#    y 0.000000 2.139860 0.000000 
#    z -0.010750 0.000000 1.849530 
# 
# From -- ./inp_files/47252.got.cif
#   From: 2010.05.17/outbox.cif.g08.bks.cpg/sg5_24_cif.got.tgz:47252.got - 2010.06.03 18:56:24.
