data_PCOD9128439
_publ_section_title
;
Structure prediction by ZEFSAII (Michael W. Deem and Ramdas Pophale) SiO2 
 PCOD9128439
Probable space group: C 2
;
_chemical_formula_sum "Si O2"
_cell_formula_units_Z 16
_cell_length_a 4.679045
_cell_length_b 8.719511
_cell_length_c 11.414176
_cell_angle_alpha 90.000000
_cell_angle_beta 83.708230
_cell_angle_gamma 90.000000
_cell_volume 462.881820
_symmetry_space_group_name_H-M "C 2"
_symmetry_group_IT_number 5
_symmetry_cell_setting 'monoclinic'
loop_
_space_group_symop_operation_xyz
x,y,z
-x,y,-z
1/2+x,1/2+y,z
1/2-x,1/2+y,-z
loop_
_atom_site_type_symbol
_atom_site_label
_atom_site_fract_x
_atom_site_fract_y
_atom_site_fract_z
Si Si1 0.500000 0.938490 0.000000
Si Si2 0.750001 0.908781 0.750000
Si Si3 0.000000 0.879071 0.500000
Si Si4 0.772635 0.144509 0.179586
Si Si5 0.727365 0.673054 0.320413
O O1 0.619789 0.827124 0.890833
O O2 0.297891 0.053533 0.938858
O O3 0.880209 0.990438 0.609166
O O4 0.593584 0.754284 0.697035
O O5 0.906417 0.063279 0.802965
O O6 0.797893 0.764029 0.438857
O O7 0.528738 0.035766 0.268773
O O8 0.971261 0.781797 0.231226
#
# Coordination Sequence:
#
# PCOD9128439 Si02
#       5
#     2   4   2   4   4
#     4  10  24  44  72 108 144 186 242 296 360 438
#     4  10  24  44  72 102 146 192 234 298 366 420
#     4  10  24  44  72 108 144 186 242 296 360 438
#     4  10  24  44  68 103 143 188 241 291 353 434
#     4  10  24  44  68 103 143 188 241 291 353 434
#
# _framework density 34.566059000000003
#
# number of rings (size 3 to 8) (size 9 to 14) (size 15 to 20)
#    0.000    2.000    0.000    0.000    0.000   28.000 
#    0.000    0.000    0.000    0.000    0.000    0.000 
#    0.000    0.000    0.000    0.000    0.000    0.000 
#
# Total GULP energy -44692.448525 kJ/mol
# GULP energy per Si atom -5586.556066 kJ/mol
# Density = 3.448738 g / cm^3
# Si number density = 34.566059 Si / 1000 Ang^3
#
#
#
# Elastic Constant Matrix: (Units=GPa)
#
#
# Indices 1 2 3 4 5 6 
#
# 1 383.7888 163.3082 153.7541 0.0000 63.1393 0.0000
# 2 163.3082 501.4153 127.2014 0.0000 31.7728 0.0000
# 3 153.7541 127.2014 402.4593 0.0000 -4.3342 0.0000
# 4 0.0000 0.0000 0.0000 101.8962 0.0000 21.6894
# 5 63.1393 31.7728 -4.3342 0.0000 105.7868 0.0000
# 6 0.0000 0.0000 0.0000 21.6894 0.0000 97.1280
#
#
#
# Elastic Compliance Matrix: (Units=1/GPa)
#
#
# Indices 1 2 3 4 5 6 
#
# 1 0.003765 -0.000788 -0.001211 0.000000 -0.002060 0.000000
# 2 -0.000788 0.002383 -0.000455 0.000000 -0.000264 0.000000
# 3 -0.001211 -0.000455 0.003102 0.000000 0.000987 0.000000
# 4 0.000000 0.000000 0.000000 0.010304 0.000000 -0.002301
# 5 -0.002060 -0.000264 0.000987 0.000000 0.010802 0.000000
# 6 0.000000 0.000000 0.000000 -0.002301 0.000000 0.010809
#
#
# Mechanical properties :
#
#
# Convention : Reuss Voigt Hill
#
# Bulk Modulus (GPa) = 230.36580 241.79899 236.08239
# Shear Modulus (GPa) = 105.21270 117.18884 111.20077
#
# Velocity S-wave (km/s) = 5.52306 5.82893 5.67806
# Velocity P-wave (km/s) = 10.36639 10.74274 10.55624
#
# Compressibility (1/GPa) = 0.00434092
#
# Stress axis : x y z
#
# Youngs Moduli (GPa) = 265.57581 419.59127 322.37751
#
# Poissons Ratio (x) = 0.33084 0.39056
# Poissons Ratio (y) = 0.20940 0.14664
# Poissons Ratio (z) = 0.32175 0.19086
#
# Static dielectric constant tensor:
#      x y z
#    x 2.959120 0.000000 -0.395270 
#    y 0.000000 2.730850 0.000000 
#    z -0.395270 0.000000 2.788950 
# 
# From -- ./inp_files/34569.got.cif
#   From: 2010.05.17/outbox.cif.g08.bks.cpg/sg5_18_cif.got.tgz:34569.got - 2010.06.03 18:56:24.
