data_PCOD9128240
_publ_section_title
;
Structure prediction by ZEFSAII (Michael W. Deem and Ramdas Pophale) SiO2 
 PCOD9128240
Probable space group: C 2
;
_chemical_formula_sum "Si O2"
_cell_formula_units_Z 28
_cell_length_a 9.084738
_cell_length_b 5.191544
_cell_length_c 29.816406
_cell_angle_alpha 90.000000
_cell_angle_beta 119.196440
_cell_angle_gamma 90.000000
_cell_volume 1227.594113
_symmetry_space_group_name_H-M "C 2"
_symmetry_group_IT_number 5
_symmetry_cell_setting 'monoclinic'
loop_
_space_group_symop_operation_xyz
x,y,z
-x,y,-z
1/2+x,1/2+y,z
1/2-x,1/2+y,-z
loop_
_atom_site_type_symbol
_atom_site_label
_atom_site_fract_x
_atom_site_fract_y
_atom_site_fract_z
Si Si1 0.170942 0.604900 0.177542
Si Si2 0.801486 0.503585 0.980480
Si Si3 0.645502 0.920976 0.271406
Si Si4 0.915438 0.572243 0.302767
Si Si5 0.561193 0.602845 0.861043
Si Si6 0.951044 0.065131 0.360778
Si Si7 0.635892 0.440288 0.480508
O O1 0.044943 0.364842 0.148734
O O2 0.204338 0.561878 0.235405
O O3 0.334553 0.597112 0.170147
O O4 0.068033 0.866328 0.155294
O O5 0.698862 0.572686 0.920474
O O6 0.738105 0.230925 0.990207
O O7 0.000000 0.491051 0.000000
O O8 0.460178 0.990913 0.259024
O O9 0.750301 0.018238 0.330500
O O10 0.714589 0.632455 0.276342
O O11 0.970949 0.348994 0.344670
O O12 0.994610 0.843742 0.330942
O O13 0.041605 0.012420 0.420448
O O14 0.500000 0.420570 0.500000
O O15 0.733574 0.170868 0.490192
#
# Coordination Sequence:
#
# PCOD9128240 Si02
#       7
#     4   4   4   4   4   4   4
#     4  12  27  44  71  98 149 176 230 275 356 401
#     4  12  25  45  74 101 136 181 237 282 338 404
#     4  10  26  41  69  96 131 181 222 275 329 409
#     4  10  24  39  68  94 130 165 233 266 331 384
#     4  12  26  46  68 105 139 183 223 290 340 405
#     4  10  26  42  71  93 135 169 232 270 336 401
#     4  12  28  47  71 102 138 179 224 285 351 405
#
# _framework density 22.808841000000001
#
# number of rings (size 3 to 8) (size 9 to 14) (size 15 to 20)
#    0.857    0.000    0.000    6.000   10.000    0.000 
#    0.000    0.000    0.000    0.000    0.000    0.000 
#    0.000    0.000    0.000    0.000    0.000    0.000 
#
# Total GULP energy -78272.146949 kJ/mol
# GULP energy per Si atom -5590.867639 kJ/mol
# Density = 2.275693 g / cm^3
# Si number density = 22.808841 Si / 1000 Ang^3
#
#
#
# Elastic Constant Matrix: (Units=GPa)
#
#
# Indices 1 2 3 4 5 6 
#
# 1 114.6662 35.0133 -7.8124 0.0000 -16.0501 0.0000
# 2 35.0133 100.5327 -8.0400 0.0000 -1.7790 0.0000
# 3 -7.8124 -8.0400 84.2775 0.0000 4.9644 0.0000
# 4 0.0000 0.0000 0.0000 38.7599 0.0000 3.7834
# 5 -16.0501 -1.7790 4.9644 0.0000 25.9518 0.0000
# 6 0.0000 0.0000 0.0000 3.7834 0.0000 20.7679
#
#
#
# Elastic Compliance Matrix: (Units=1/GPa)
#
#
# Indices 1 2 3 4 5 6 
#
# 1 0.010726 -0.003601 0.000278 0.000000 0.006334 0.000000
# 2 -0.003601 0.011239 0.000834 0.000000 -0.001616 0.000000
# 3 0.000278 0.000834 0.012094 0.000000 -0.002085 0.000000
# 4 0.000000 0.000000 0.000000 0.026267 0.000000 -0.004785
# 5 0.006334 -0.001616 -0.002085 0.000000 0.042738 0.000000
# 6 0.000000 0.000000 0.000000 -0.004785 0.000000 0.049023
#
#
# Mechanical properties :
#
#
# Convention : Reuss Voigt Hill
#
# Bulk Modulus (GPa) = 34.38934 37.53312 35.96123
# Shear Modulus (GPa) = 29.98319 35.78363 32.88341
#
# Velocity S-wave (km/s) = 3.62960 3.96517 3.80109
# Velocity P-wave (km/s) = 5.71622 6.12002 5.92156
#
# Compressibility (1/GPa) = 0.02907878
#
# Stress axis : x y z
#
# Youngs Moduli (GPa) = 93.23049 88.97301 82.68821
#
# Poissons Ratio (x) = 0.32043 -0.02296
# Poissons Ratio (y) = 0.33576 -0.06893
# Poissons Ratio (z) = -0.02588 -0.07417
#
# Static dielectric constant tensor:
#      x y z
#    x 1.913660 0.000000 0.025080 
#    y 0.000000 1.834690 0.000000 
#    z 0.025080 0.000000 1.863830 
# 
# From -- ./inp_files/71522.got.cif
#   From: 2010.05.17/outbox.cif.g08.bks.cpg/sg5_36_cif.got.tgz:71522.got - 2010.06.03 18:56:24.
