data_PCOD9128999
_publ_section_title
;
Structure prediction by ZEFSAII (Michael W. Deem and Ramdas Pophale) SiO2 
 PCOD9128999
Probable space group: C 2
;
_chemical_formula_sum "Si O2"
_cell_formula_units_Z 28
_cell_length_a 19.037611
_cell_length_b 5.287055
_cell_length_c 13.363696
_cell_angle_alpha 90.000000
_cell_angle_beta 60.330768
_cell_angle_gamma 90.000000
_cell_volume 1168.749366
_symmetry_space_group_name_H-M "C 2"
_symmetry_group_IT_number 5
_symmetry_cell_setting 'monoclinic'
loop_
_space_group_symop_operation_xyz
x,y,z
-x,y,-z
1/2+x,1/2+y,z
1/2-x,1/2+y,-z
loop_
_atom_site_type_symbol
_atom_site_label
_atom_site_fract_x
_atom_site_fract_y
_atom_site_fract_z
Si Si1 0.000000 0.501310 0.500000
Si Si2 0.230861 0.895183 0.572667
Si Si3 0.840172 0.203837 0.675536
Si Si4 0.442769 0.005236 0.885849
Si Si5 0.205255 0.247801 0.065180
Si Si6 0.500000 0.344313 0.000000
Si Si7 0.950126 0.840669 0.694824
Si Si8 0.561193 0.631628 0.760515
O O1 0.922010 0.341445 0.582667
O O2 0.012290 0.680477 0.586163
O O3 0.223057 0.643972 0.506788
O O4 0.276547 0.770312 0.635263
O O5 0.147152 0.027803 0.665690
O O6 0.806703 0.281623 0.807665
O O7 0.876362 0.925764 0.676053
O O8 0.382156 0.771123 0.926564
O O9 0.535712 0.920582 0.801619
O O10 0.418959 0.176619 0.809030
O O11 0.435950 0.160880 0.991483
O O12 0.255979 0.479949 0.986075
O O13 0.462298 0.499395 0.117894
O O14 0.000412 0.063162 0.711830
#
# Coordination Sequence:
#
# PCOD9128999 Si02
#       8
#     2   4   4   4   4   2   4   4
#     4  12  24  42  78 110 148 204 270 328 394 476
#     4  12  33  53  78 117 171 219 267 341 421 492
#     4  12  28  49  78 121 156 216 271 340 412 480
#     4  11  24  47  76 111 155 208 275 328 411 483
#     4  12  28  47  78 115 162 202 263 341 408 483
#     4  10  26  42  76 110 148 208 268 332 404 492
#     4  11  23  44  78 111 148 204 274 336 387 484
#     4  11  25  49  76 111 157 209 275 332 401 495
#
# _framework density 23.957232999999999
#
# number of rings (size 3 to 8) (size 9 to 14) (size 15 to 20)
#    0.000    0.571    2.857    2.571   16.000    1.143 
#    0.000    0.000    0.000    0.000    0.000    0.000 
#    0.000    0.000    0.000    0.000    0.000    0.000 
#
# Total GULP energy -78243.396944 kJ/mol
# GULP energy per Si atom -5588.814067 kJ/mol
# Density = 2.390271 g / cm^3
# Si number density = 23.957233 Si / 1000 Ang^3
#
#
#
# Elastic Constant Matrix: (Units=GPa)
#
#
# Indices 1 2 3 4 5 6 
#
# 1 93.8570 32.8362 40.7193 0.0007 -7.0395 0.0036
# 2 32.8362 104.7983 33.0303 0.0011 -3.1816 0.0080
# 3 40.7193 33.0303 93.7390 -0.0009 -7.5915 -0.0003
# 4 0.0007 0.0011 -0.0009 32.5020 -0.0016 -1.8832
# 5 -7.0395 -3.1816 -7.5915 -0.0016 27.8655 0.0009
# 6 0.0036 0.0080 -0.0003 -1.8832 0.0009 33.7752
#
#
#
# Elastic Compliance Matrix: (Units=1/GPa)
#
#
# Indices 1 2 3 4 5 6 
#
# 1 0.013886 -0.002746 -0.004914 0.000000 0.001856 -0.000001
# 2 -0.002746 0.011278 -0.002795 -0.000001 -0.000167 -0.000002
# 3 -0.004914 -0.002795 0.013969 0.000001 0.002245 0.000001
# 4 0.000000 -0.000001 0.000001 0.030867 0.000002 0.001721
# 5 0.001856 -0.000167 0.002245 0.000002 0.036948 -0.000001
# 6 -0.000001 -0.000002 0.000001 0.001721 -0.000001 0.029703
#
#
# Mechanical properties :
#
#
# Convention : Reuss Voigt Hill
#
# Bulk Modulus (GPa) = 54.87263 56.17398 55.52331
# Shear Modulus (GPa) = 30.55546 31.21580 30.88563
#
# Velocity S-wave (km/s) = 3.57517 3.61360 3.59444
# Velocity P-wave (km/s) = 6.32429 6.39604 6.36026
#
# Compressibility (1/GPa) = 0.01822402
#
# Stress axis : x y z
#
# Youngs Moduli (GPa) = 72.01320 88.66608 71.58559
#
# Poissons Ratio (x) = 0.24345 0.35179
# Poissons Ratio (y) = 0.19773 0.20007
# Poissons Ratio (z) = 0.35390 0.24781
#
# Static dielectric constant tensor:
#      x y z
#    x 1.933540 0.000000 -0.035390 
#    y 0.000000 2.030250 0.000000 
#    z -0.035390 0.000000 1.918110 
# 
# From -- ./inp_files/55265.got.cif
#   From: 2010.05.17/outbox.cif.g08.bks.cpg/sg5_28_cif.got.tgz:55265.got - 2010.06.03 18:56:24.
