data_PCOD9128714
_publ_section_title
;
Structure prediction by ZEFSAII (Michael W. Deem and Ramdas Pophale) SiO2 
 PCOD9128714
Probable space group: C 2
;
_chemical_formula_sum "Si O2"
_cell_formula_units_Z 16
_cell_length_a 23.833870
_cell_length_b 4.859285
_cell_length_c 9.982537
_cell_angle_alpha 90.000000
_cell_angle_beta 35.463644
_cell_angle_gamma 90.000000
_cell_volume 670.772583
_symmetry_space_group_name_H-M "C 2"
_symmetry_group_IT_number 5
_symmetry_cell_setting 'monoclinic'
loop_
_space_group_symop_operation_xyz
x,y,z
-x,y,-z
1/2+x,1/2+y,z
1/2-x,1/2+y,-z
loop_
_atom_site_type_symbol
_atom_site_label
_atom_site_fract_x
_atom_site_fract_y
_atom_site_fract_z
Si Si1 0.688296 0.713930 0.658199
Si Si2 0.690150 0.009414 0.082568
Si Si3 0.000000 0.531865 0.000000
Si Si4 0.000000 0.785813 0.500000
Si Si5 0.094999 0.861169 0.055556
O O1 0.732550 0.454260 0.494185
O O2 0.591510 0.843691 0.784158
O O3 0.655839 0.593164 0.863749
O O4 0.592540 0.092895 0.350670
O O5 0.665066 0.133385 0.985906
O O6 0.777808 0.196941 0.967522
O O7 0.967506 0.716920 0.938436
O O8 0.971031 0.949972 0.690041
#
# Coordination Sequence:
#
# PCOD9128714 Si02
#       5
#     4   4   2   2   4
#     4  12  27  50  75 115 159 208 258 319 388 468
#     4  10  24  48  74 108 151 197 250 309 381 458
#     4  12  26  52  76 122 160 204 260 328 390 474
#     4   8  24  50  76 112 156 190 262 312 388 460
#     4  10  25  52  78 119 153 205 260 319 403 452
#
# _framework density 23.853093999999999
#
# number of rings (size 3 to 8) (size 9 to 14) (size 15 to 20)
#    1.500    0.000    2.500    0.750    3.500    3.000 
#   13.500    0.000    0.000    0.000    0.000    0.000 
#    0.000    0.000    0.000    0.000    0.000    0.000 
#
# Total GULP energy -44720.585044 kJ/mol
# GULP energy per Si atom -5590.073130 kJ/mol
# Density = 2.379880 g / cm^3
# Si number density = 23.853094 Si / 1000 Ang^3
#
#
#
# Elastic Constant Matrix: (Units=GPa)
#
#
# Indices 1 2 3 4 5 6 
#
# 1 130.3413 35.7013 47.5750 0.0000 13.8690 0.0008
# 2 35.7013 124.2247 68.8861 -0.0043 12.4483 -0.0121
# 3 47.5750 68.8861 189.2848 -0.0003 3.8175 0.0028
# 4 0.0000 -0.0043 -0.0003 33.1183 -0.0002 15.6008
# 5 13.8690 12.4483 3.8175 -0.0002 38.5226 -0.0015
# 6 0.0008 -0.0121 0.0028 15.6008 -0.0015 152.1772
#
#
#
# Elastic Compliance Matrix: (Units=1/GPa)
#
#
# Indices 1 2 3 4 5 6 
#
# 1 0.008944 -0.001368 -0.001698 0.000000 -0.002610 0.000000
# 2 -0.001368 0.010629 -0.003472 0.000001 -0.002598 0.000001
# 3 -0.001698 -0.003472 0.006952 0.000000 0.001044 0.000000
# 4 0.000000 0.000001 0.000000 0.031727 0.000000 -0.003253
# 5 -0.002610 -0.002598 0.001044 0.000000 0.027635 0.000000
# 6 0.000000 0.000001 0.000000 -0.003253 0.000000 0.006905
#
#
# Mechanical properties :
#
#
# Convention : Reuss Voigt Hill
#
# Bulk Modulus (GPa) = 74.34603 83.13063 78.73833
# Shear Modulus (GPa) = 45.31079 64.20950 54.76015
#
# Velocity S-wave (km/s) = 4.36314 5.19396 4.79657
# Velocity P-wave (km/s) = 7.52454 8.41999 7.98483
#
# Compressibility (1/GPa) = 0.01345062
#
# Stress axis : x y z
#
# Youngs Moduli (GPa) = 111.80530 94.08595 143.83891
#
# Poissons Ratio (x) = 0.12866 0.24420
# Poissons Ratio (y) = 0.15290 0.49940
# Poissons Ratio (z) = 0.18981 0.32666
#
# Static dielectric constant tensor:
#      x y z
#    x 1.819510 -0.000010 -0.021620 
#    y -0.000010 1.897740 0.000000 
#    z -0.021620 0.000000 1.918490 
# 
# From -- ./inp_files/30163.got.cif
#   From: 2010.05.17/outbox.cif.g08.bks.cpg/sg5_16_cif.got.tgz:30163.got - 2010.06.03 18:56:24.
