data_PCOD9128878
_publ_section_title
;
Structure prediction by ZEFSAII (Michael W. Deem and Ramdas Pophale) SiO2 
 PCOD9128878
Probable space group: C 2
;
_chemical_formula_sum "Si O2"
_cell_formula_units_Z 18
_cell_length_a 11.958280
_cell_length_b 10.608656
_cell_length_c 6.343124
_cell_angle_alpha 90.000000
_cell_angle_beta 96.688740
_cell_angle_gamma 90.000000
_cell_volume 799.219701
_symmetry_space_group_name_H-M "C 2"
_symmetry_group_IT_number 5
_symmetry_cell_setting 'monoclinic'
loop_
_space_group_symop_operation_xyz
x,y,z
-x,y,-z
1/2+x,1/2+y,z
1/2-x,1/2+y,-z
loop_
_atom_site_type_symbol
_atom_site_label
_atom_site_fract_x
_atom_site_fract_y
_atom_site_fract_z
Si Si1 0.889345 0.902800 0.867797
Si Si2 0.387895 0.651715 0.610249
Si Si3 0.187416 0.313881 0.037410
Si Si4 0.691796 0.152133 0.255742
Si Si5 0.000000 0.485179 0.000000
O O1 0.850937 0.794113 0.696534
O O2 0.913435 0.035329 0.769720
O O3 0.794327 0.904123 0.028892
O O4 0.000000 0.850892 0.000000
O O5 0.500000 0.675651 0.500000
O O6 0.351681 0.771860 0.741918
O O7 0.278585 0.609343 0.451633
O O8 0.086088 0.389158 0.904049
O O9 0.230867 0.189087 0.928950
O O10 0.585183 0.067511 0.163338
#
# Coordination Sequence:
#
# PCOD9128878 Si02
#       5
#     4   4   4   4   2
#     4  10  25  46  72 102 153 199 239 309 378 438
#     4  12  27  44  76 109 147 194 250 309 372 445
#     4  10  25  47  71 107 147 198 238 309 371 443
#     4  10  25  47  67 110 144 192 252 297 371 444
#     4  12  22  44  80  98 148 198 242 304 370 442
#
# _framework density 22.521968999999999
#
# number of rings (size 3 to 8) (size 9 to 14) (size 15 to 20)
#    1.333    0.000    1.111    2.667   10.889    0.000 
#    0.000    8.889    0.000    0.000    0.000    0.000 
#    0.000    0.000    0.000    0.000    0.000    0.000 
#
# Total GULP energy -50132.270037 kJ/mol
# GULP energy per Si atom -5570.252226 kJ/mol
# Density = 2.247071 g / cm^3
# Si number density = 22.521969 Si / 1000 Ang^3
#
#
#
# Elastic Constant Matrix: (Units=GPa)
#
#
# Indices 1 2 3 4 5 6 
#
# 1 148.1771 38.3755 35.4777 0.0000 3.2183 0.0000
# 2 38.3755 90.9078 26.1312 0.0000 -9.0620 0.0000
# 3 35.4777 26.1312 59.8186 0.0000 -1.6126 0.0000
# 4 0.0000 0.0000 0.0000 29.2932 0.0000 7.1608
# 5 3.2183 -9.0620 -1.6126 0.0000 43.8384 0.0000
# 6 0.0000 0.0000 0.0000 7.1608 0.0000 49.6902
#
#
#
# Elastic Compliance Matrix: (Units=1/GPa)
#
#
# Indices 1 2 3 4 5 6 
#
# 1 0.008365 -0.002542 -0.003885 0.000000 -0.001283 0.000000
# 2 -0.002542 0.013610 -0.004361 0.000000 0.002840 0.000000
# 3 -0.003885 -0.004361 0.020931 0.000000 0.000154 0.000000
# 4 0.000000 0.000000 0.000000 0.035384 0.000000 -0.005099
# 5 -0.001283 0.002840 0.000154 0.000000 0.023498 0.000000
# 6 0.000000 0.000000 0.000000 -0.005099 0.000000 0.020860
#
#
# Mechanical properties :
#
#
# Convention : Reuss Voigt Hill
#
# Bulk Modulus (GPa) = 46.88525 55.43024 51.15775
# Shear Modulus (GPa) = 33.03946 37.82563 35.43254
#
# Velocity S-wave (km/s) = 3.83428 4.10262 3.97072
# Velocity P-wave (km/s) = 6.36121 6.86345 6.61710
#
# Compressibility (1/GPa) = 0.02132867
#
# Stress axis : x y z
#
# Youngs Moduli (GPa) = 119.54295 73.47547 47.77661
#
# Poissons Ratio (x) = 0.18680 0.18563
# Poissons Ratio (y) = 0.30391 0.20836
# Poissons Ratio (z) = 0.46446 0.32043
#
# Static dielectric constant tensor:
#      x y z
#    x 1.906090 0.000000 -0.031570 
#    y 0.000000 1.877040 0.000000 
#    z -0.031570 0.000000 1.826940 
# 
# From -- ./inp_files/4453.got.cif
#   From: 2010.05.17/outbox.cif.g08.bks.cpg/sg5_3_cif.got.tgz:4453.got - 2010.06.03 18:56:24.
