data_PCOD9128795
_publ_section_title
;
Structure prediction by ZEFSAII (Michael W. Deem and Ramdas Pophale) SiO2 
 PCOD9128795
Probable space group: C 2
;
_chemical_formula_sum "Si O2"
_cell_formula_units_Z 32
_cell_length_a 25.073624
_cell_length_b 14.006087
_cell_length_c 10.054315
_cell_angle_alpha 90.000000
_cell_angle_beta 27.848059
_cell_angle_gamma 90.000000
_cell_volume 1649.387642
_symmetry_space_group_name_H-M "C 2"
_symmetry_group_IT_number 5
_symmetry_cell_setting 'monoclinic'
loop_
_space_group_symop_operation_xyz
x,y,z
-x,y,-z
1/2+x,1/2+y,z
1/2-x,1/2+y,-z
loop_
_atom_site_type_symbol
_atom_site_label
_atom_site_fract_x
_atom_site_fract_y
_atom_site_fract_z
Si Si1 0.498917 0.514930 0.657180
Si Si2 0.514380 0.682530 0.814360
Si Si3 0.769016 0.516343 0.692830
Si Si4 0.232345 0.307570 0.377273
Si Si5 0.867335 0.733099 0.833979
Si Si6 0.252659 0.725044 0.367043
Si Si7 0.191648 0.862607 0.269419
Si Si8 0.134047 0.514303 0.220486
O O1 0.500000 0.541473 0.500000
O O2 0.547877 0.596568 0.644312
O O3 0.573683 0.420529 0.513289
O O4 0.366650 0.507545 0.985086
O O5 0.613896 0.759661 0.592636
O O6 0.500000 0.649944 0.000000
O O7 0.390464 0.721350 0.044466
O O8 0.793596 0.420344 0.556070
O O9 0.790532 0.618258 0.574591
O O10 0.829209 0.512514 0.704770
O O11 0.266797 0.258459 0.439571
O O12 0.328169 0.282380 0.056495
O O13 0.798470 0.785863 0.870132
O O14 0.843278 0.620602 0.884727
O O15 0.000000 0.743718 0.500000
O O16 0.200347 0.803620 0.384977
O O17 0.290874 0.939233 0.026389
O O18 0.000000 0.494351 0.500000
#
# Coordination Sequence:
#
# PCOD9128795 Si02
#       8
#     4   4   4   4   4   4   4   4
#     4  11  21  38  65  95 120 161 215 266 315 364
#     4   9  22  41  62  92 127 165 209 260 317 376
#     4  11  22  43  63  93 131 164 211 268 317 373
#     4  11  22  41  69  92 126 173 212 258 326 378
#     4  11  23  41  64  89 129 164 212 262 315 375
#     4  10  25  41  64  95 132 167 212 264 313 383
#     4  12  22  39  64  95 124 166 216 259 312 381
#     4  11  24  39  62  96 130 167 208 265 317 375
#
# _framework density 19.401140000000002
#
# number of rings (size 3 to 8) (size 9 to 14) (size 15 to 20)
#    0.000    1.250    3.750    1.875    1.750    4.000 
#    0.000    1.875    0.000    0.000    0.000    0.000 
#    0.000    0.000    0.000    0.000    0.000    0.000 
#
# Total GULP energy -89371.336293 kJ/mol
# GULP energy per Si atom -5585.708518 kJ/mol
# Density = 1.935698 g / cm^3
# Si number density = 19.401140 Si / 1000 Ang^3
#
#
#
# Elastic Constant Matrix: (Units=GPa)
#
#
# Indices 1 2 3 4 5 6 
#
# 1 76.1737 45.5537 31.1160 0.0000 -3.4754 0.0000
# 2 45.5537 103.9855 16.0794 0.0000 -8.6756 0.0000
# 3 31.1160 16.0794 39.1212 0.0000 -5.1026 0.0000
# 4 0.0000 0.0000 0.0000 24.3138 0.0000 -1.2485
# 5 -3.4754 -8.6756 -5.1026 0.0000 21.6857 0.0000
# 6 0.0000 0.0000 0.0000 -1.2485 0.0000 32.6959
#
#
#
# Elastic Compliance Matrix: (Units=1/GPa)
#
#
# Indices 1 2 3 4 5 6 
#
# 1 0.024987 -0.008637 -0.016767 0.000000 -0.003396 0.000000
# 2 -0.008637 0.013477 0.001912 0.000000 0.004457 0.000000
# 3 -0.016767 0.001912 0.039060 0.000000 0.007268 0.000000
# 4 0.000000 0.000000 0.000000 0.041210 0.000000 0.001574
# 5 -0.003396 0.004457 0.007268 0.000000 0.049062 0.000000
# 6 0.000000 0.000000 0.000000 0.001574 0.000000 0.030645
#
#
# Mechanical properties :
#
#
# Convention : Reuss Voigt Hill
#
# Bulk Modulus (GPa) = 32.74478 44.97540 38.86009
# Shear Modulus (GPa) = 19.56140 24.17450 21.86795
#
# Velocity S-wave (km/s) = 3.17876 3.53375 3.36094
# Velocity P-wave (km/s) = 5.51245 6.31522 5.92744
#
# Compressibility (1/GPa) = 0.03053922
#
# Stress axis : x y z
#
# Youngs Moduli (GPa) = 40.02039 74.20270 25.60160
#
# Poissons Ratio (x) = 0.64088 0.42927
# Poissons Ratio (y) = 0.34565 -0.04895
# Poissons Ratio (z) = 0.67103 -0.14186
#
# Static dielectric constant tensor:
#      x y z
#    x 1.663280 0.000000 -0.014250 
#    y 0.000000 1.688940 0.000000 
#    z -0.014250 0.000000 1.667280 
# 
# From -- ./inp_files/31045.got.cif
#   From: 2010.05.17/outbox.cif.g08.bks.cpg/sg5_16_cif.got.tgz:31045.got - 2010.06.03 18:56:24.
