data_PCOD9128424
_publ_section_title
;
Structure prediction by ZEFSAII (Michael W. Deem and Ramdas Pophale) SiO2 
 PCOD9128424
Probable space group: C 2
;
_chemical_formula_sum "Si O2"
_cell_formula_units_Z 24
_cell_length_a 8.451499
_cell_length_b 21.404466
_cell_length_c 8.711716
_cell_angle_alpha 90.000000
_cell_angle_beta 126.794957
_cell_angle_gamma 90.000000
_cell_volume 1261.993994
_symmetry_space_group_name_H-M "C 2"
_symmetry_group_IT_number 5
_symmetry_cell_setting 'monoclinic'
loop_
_space_group_symop_operation_xyz
x,y,z
-x,y,-z
1/2+x,1/2+y,z
1/2-x,1/2+y,-z
loop_
_atom_site_type_symbol
_atom_site_label
_atom_site_fract_x
_atom_site_fract_y
_atom_site_fract_z
Si Si1 0.788164 0.786200 0.799463
Si Si2 0.110042 0.508288 0.408623
Si Si3 0.500000 0.887421 0.500000
Si Si4 0.348188 0.205606 0.532311
Si Si5 0.500000 0.570238 0.500000
Si Si6 0.424560 0.107301 0.128679
Si Si7 0.075982 0.166293 0.807173
O O1 0.649021 0.845213 0.685674
O O2 0.804675 0.754072 0.641838
O O3 0.684814 0.732136 0.840657
O O4 0.000000 0.800179 0.000000
O O5 0.328782 0.531532 0.488045
O O6 0.000000 0.533573 0.500000
O O7 0.109466 0.434796 0.445798
O O8 0.968366 0.535406 0.193063
O O9 0.500000 0.233280 0.500000
O O10 0.449930 0.147255 0.677025
O O11 0.153883 0.182903 0.330250
O O12 0.595130 0.617439 0.677503
O O13 0.500000 0.122022 0.000000
O O14 0.199117 0.130446 0.008507
#
# Coordination Sequence:
#
# PCOD9128424 Si02
#       7
#     4   4   2   4   2   4   4
#     4  12  21  45  70  90 124 180 231 259 341 406
#     4  10  24  44  61  96 133 182 229 270 324 396
#     4  10  25  48  66  84 139 186 228 276 314 396
#     4  12  23  37  62 103 135 164 212 283 347 401
#     4  12  19  40  68  94 137 178 212 274 360 382
#     4  12  20  38  65  99 132 168 219 270 340 407
#     4  12  20  36  70  95 125 173 203 276 352 390
#
# _framework density 19.017524000000002
#
# number of rings (size 3 to 8) (size 9 to 14) (size 15 to 20)
#    0.500    0.000   10.000    0.500    0.000    0.667 
#    4.500    0.000    0.000    0.000    0.000    0.000 
#    0.000    0.000    0.000    0.000    0.000    0.000 
#
# Total GULP energy -66857.690810 kJ/mol
# GULP energy per Si atom -5571.474234 kJ/mol
# Density = 1.897424 g / cm^3
# Si number density = 19.017524 Si / 1000 Ang^3
#
#
#
# Elastic Constant Matrix: (Units=GPa)
#
#
# Indices 1 2 3 4 5 6 
#
# 1 86.8195 22.3682 34.2401 0.0000 21.5823 0.0000
# 2 22.3682 110.1495 39.5456 0.0000 18.4006 0.0000
# 3 34.2401 39.5456 111.6279 0.0000 43.3854 0.0000
# 4 0.0000 0.0000 0.0000 27.6922 0.0000 1.3134
# 5 21.5823 18.4006 43.3854 0.0000 38.3012 0.0000
# 6 0.0000 0.0000 0.0000 1.3134 0.0000 24.0613
#
#
#
# Elastic Compliance Matrix: (Units=1/GPa)
#
#
# Indices 1 2 3 4 5 6 
#
# 1 0.013838 -0.001311 -0.001776 0.000000 -0.005156 0.000000
# 2 -0.001311 0.010572 -0.002959 0.000000 -0.000989 0.000000
# 3 -0.001776 -0.002959 0.017168 0.000000 -0.017025 0.000000
# 4 0.000000 0.000000 0.000000 0.036205 0.000000 -0.001976
# 5 -0.005156 -0.000989 -0.017025 0.000000 0.048774 0.000000
# 6 0.000000 0.000000 0.000000 -0.001976 0.000000 0.041668
#
#
# Mechanical properties :
#
#
# Convention : Reuss Voigt Hill
#
# Bulk Modulus (GPa) = 33.91469 55.65608 44.78539
# Shear Modulus (GPa) = 26.29542 32.17382 29.23462
#
# Velocity S-wave (km/s) = 3.72249 4.11761 3.92503
# Velocity P-wave (km/s) = 6.02893 7.20663 6.64393
#
# Compressibility (1/GPa) = 0.02948575
#
# Stress axis : x y z
#
# Youngs Moduli (GPa) = 72.26408 94.58695 58.24678
#
# Poissons Ratio (x) = 0.12402 0.10347
# Poissons Ratio (y) = 0.09475 0.17235
# Poissons Ratio (z) = 0.12837 0.27988
#
# Static dielectric constant tensor:
#      x y z
#    x 1.754090 0.000000 -0.003130 
#    y 0.000000 1.671400 0.000000 
#    z -0.003130 0.000000 1.716440 
# 
# From -- ./inp_files/16883.got.cif
#   From: 2010.05.17/outbox.cif.g08.bks.cpg/sg5_9_cif.got.tgz:16883.got - 2010.06.03 18:56:24.
