data_PCOD9128412
_publ_section_title
;
Structure prediction by ZEFSAII (Michael W. Deem and Ramdas Pophale) SiO2 
 PCOD9128412
Probable space group: C 2
;
_chemical_formula_sum "Si O2"
_cell_formula_units_Z 28
_cell_length_a 21.873125
_cell_length_b 10.470059
_cell_length_c 11.755779
_cell_angle_alpha 90.000000
_cell_angle_beta 151.705280
_cell_angle_gamma 90.000000
_cell_volume 1276.133750
_symmetry_space_group_name_H-M "C 2"
_symmetry_group_IT_number 5
_symmetry_cell_setting 'monoclinic'
loop_
_space_group_symop_operation_xyz
x,y,z
-x,y,-z
1/2+x,1/2+y,z
1/2-x,1/2+y,-z
loop_
_atom_site_type_symbol
_atom_site_label
_atom_site_fract_x
_atom_site_fract_y
_atom_site_fract_z
Si Si1 0.662800 0.306600 0.036516
Si Si2 0.506862 0.082804 0.146061
Si Si3 0.626003 0.593780 0.985035
Si Si4 0.652465 0.244110 0.763130
Si Si5 0.218721 0.191852 0.359447
Si Si6 0.864208 0.199624 0.517039
Si Si7 0.234439 0.434784 0.223877
O O1 0.604709 0.446234 0.926895
O O2 0.792508 0.304983 0.324000
O O3 0.562419 0.215897 0.936573
O O4 0.686398 0.249154 0.951020
O O5 0.653318 0.104223 0.422466
O O6 0.500000 0.062434 0.000000
O O7 0.414908 0.972296 0.045713
O O8 0.763873 0.636351 0.162424
O O9 0.625537 0.619404 0.119191
O O10 0.515916 0.681527 0.750340
O O11 0.500000 0.225460 0.500000
O O12 0.695444 0.374162 0.769885
O O13 0.167671 0.216242 0.402123
O O14 0.243065 0.327197 0.336218
O O15 0.800507 0.064887 0.373605
#
# Coordination Sequence:
#
# PCOD9128412 Si02
#       7
#     4   4   4   4   4   4   4
#     4  11  25  43  73 101 136 189 236 296 356 426
#     4  11  22  44  71 104 137 185 238 284 362 429
#     4  11  26  43  67 103 141 187 237 296 355 431
#     4  11  25  49  68  96 141 189 245 297 362 428
#     4  11  23  43  67 104 145 180 235 293 359 430
#     4  11  24  44  67 107 140 183 237 292 365 423
#     4  10  24  43  72  98 141 192 228 299 356 423
#
# _framework density 21.941275000000001
#
# number of rings (size 3 to 8) (size 9 to 14) (size 15 to 20)
#    0.000    1.143    2.857    3.857    6.000    6.286 
#    2.571    0.000    0.000    0.000    0.000    0.000 
#    0.000    0.000    0.000    0.000    0.000    0.000 
#
# Total GULP energy -78299.674293 kJ/mol
# GULP energy per Si atom -5592.833878 kJ/mol
# Density = 2.189134 g / cm^3
# Si number density = 21.941275 Si / 1000 Ang^3
#
#
#
# Elastic Constant Matrix: (Units=GPa)
#
#
# Indices 1 2 3 4 5 6 
#
# 1 71.2890 -15.7670 39.6216 0.0000 12.4602 0.0000
# 2 -15.7670 30.5014 1.0507 0.0000 11.5688 0.0000
# 3 39.6216 1.0507 93.8753 0.0000 9.7501 0.0000
# 4 0.0000 0.0000 0.0000 20.1059 0.0000 4.6701
# 5 12.4602 11.5688 9.7501 0.0000 34.6814 0.0000
# 6 0.0000 0.0000 0.0000 4.6701 0.0000 30.5670
#
#
#
# Elastic Compliance Matrix: (Units=1/GPa)
#
#
# Indices 1 2 3 4 5 6 
#
# 1 0.025741 0.018443 -0.009756 0.000000 -0.012658 0.000000
# 2 0.018443 0.050824 -0.006082 0.000000 -0.021870 0.000000
# 3 -0.009756 -0.006082 0.014693 0.000000 0.001403 0.000000
# 4 0.000000 0.000000 0.000000 0.051567 0.000000 -0.007879
# 5 -0.012658 -0.021870 0.001403 0.000000 0.040282 0.000000
# 6 0.000000 0.000000 0.000000 -0.007879 0.000000 0.033919
#
#
# Mechanical properties :
#
#
# Convention : Reuss Voigt Hill
#
# Bulk Modulus (GPa) = 10.36607 27.27513 18.82060
# Shear Modulus (GPa) = 20.49425 28.45490 24.47458
#
# Velocity S-wave (km/s) = 3.05954 3.60511 3.34347
# Velocity P-wave (km/s) = 4.14919 5.45775 4.84782
#
# Compressibility (1/GPa) = 0.09646855
#
# Stress axis : x y z
#
# Youngs Moduli (GPa) = 38.84794 19.67578 68.06157
#
# Poissons Ratio (x) = -0.36289 0.66403
# Poissons Ratio (y) = -0.71649 0.41393
# Poissons Ratio (z) = 0.37901 0.11966
#
# Static dielectric constant tensor:
#      x y z
#    x 1.785860 0.000000 0.019740 
#    y 0.000000 1.791140 0.000000 
#    z 0.019740 0.000000 1.835600 
# 
# From -- ./inp_files/46440.got.cif
#   From: 2010.05.17/outbox.cif.g08.bks.cpg/sg5_24_cif.got.tgz:46440.got - 2010.06.03 18:56:24.
