data_PCOD9128753
_publ_section_title
;
Structure prediction by ZEFSAII (Michael W. Deem and Ramdas Pophale) SiO2 
 PCOD9128753
Probable space group: C 2
;
_chemical_formula_sum "Si O2"
_cell_formula_units_Z 26
_cell_length_a 5.867841
_cell_length_b 21.964805
_cell_length_c 12.264515
_cell_angle_alpha 90.000000
_cell_angle_beta 48.249507
_cell_angle_gamma 90.000000
_cell_volume 1179.301798
_symmetry_space_group_name_H-M "C 2"
_symmetry_group_IT_number 5
_symmetry_cell_setting 'monoclinic'
loop_
_space_group_symop_operation_xyz
x,y,z
-x,y,-z
1/2+x,1/2+y,z
1/2-x,1/2+y,-z
loop_
_atom_site_type_symbol
_atom_site_label
_atom_site_fract_x
_atom_site_fract_y
_atom_site_fract_z
Si Si1 0.400115 0.522260 0.254369
Si Si2 0.058712 0.125878 0.353555
Si Si3 0.782837 0.631216 0.838445
Si Si4 0.000000 0.448980 0.000000
Si Si5 0.579139 0.857801 0.797642
Si Si6 0.258804 0.231655 0.667685
Si Si7 0.773994 0.389923 0.662806
O O1 0.386839 0.567461 0.360620
O O2 0.313057 0.567452 0.184803
O O3 0.197913 0.462881 0.335335
O O4 0.729914 0.492403 0.126173
O O5 0.403488 0.118408 0.201430
O O6 0.000000 0.124977 0.500000
O O7 0.957764 0.190040 0.337056
O O8 0.873687 0.681428 0.718290
O O9 0.500000 0.653383 0.000000
O O10 0.104879 0.401486 0.060835
O O11 0.603831 0.784753 0.787055
O O12 0.412732 0.868328 0.734135
O O13 0.931217 0.875536 0.724360
O O14 0.500000 0.256072 0.500000
O O15 0.000000 0.364481 0.500000
#
# Coordination Sequence:
#
# PCOD9128753 Si02
#       7
#     4   4   4   2   4   4   4
#     4  10  25  39  69  97 142 178 243 297 371 431
#     4  11  24  43  73 106 142 192 244 303 376 446
#     4  11  25  42  70 101 140 188 236 297 375 435
#     4  10  24  50  68 108 140 204 242 310 368 456
#     4  11  27  45  74 101 147 193 250 300 371 435
#     4  11  24  45  69 105 141 189 245 307 363 442
#     4  11  25  43  68 106 138 190 243 301 365 439
#
# _framework density 22.046942000000001
#
# number of rings (size 3 to 8) (size 9 to 14) (size 15 to 20)
#    0.000    1.231    1.538    2.308   11.846    4.308 
#    0.000    3.077    0.000    0.000    0.000    0.000 
#    0.000    0.000    0.000    0.000    0.000    0.000 
#
# Total GULP energy -72413.228276 kJ/mol
# GULP energy per Si atom -5570.248329 kJ/mol
# Density = 2.199676 g / cm^3
# Si number density = 22.046942 Si / 1000 Ang^3
#
#
#
# Elastic Constant Matrix: (Units=GPa)
#
#
# Indices 1 2 3 4 5 6 
#
# 1 86.1899 24.8783 18.3389 0.0000 9.3196 0.0000
# 2 24.8783 141.5392 3.2709 0.0000 7.7438 0.0000
# 3 18.3389 3.2709 54.5954 0.0000 4.8364 0.0000
# 4 0.0000 0.0000 0.0000 5.5549 0.0000 -5.4783
# 5 9.3196 7.7438 4.8364 0.0000 28.6749 0.0000
# 6 0.0000 0.0000 0.0000 -5.4783 0.0000 5.0809
#
#
#
# Elastic Compliance Matrix: (Units=1/GPa)
#
#
# Indices 1 2 3 4 5 6 
#
# 1 0.013416 -0.002093 -0.004106 0.000000 -0.003102 0.000000
# 2 -0.002093 0.007502 0.000379 0.000000 -0.001409 0.000000
# 3 -0.004106 0.000379 0.019861 0.000000 -0.002118 0.000000
# 4 0.000000 0.000000 0.000000 -2.841397 0.000000 -3.063648
# 5 -0.003102 -0.001409 -0.002118 0.000000 0.036620 0.000000
# 6 0.000000 0.000000 0.000000 -3.063648 0.000000 -3.106468
#
#
# Mechanical properties :
#
#
# Convention : Reuss Voigt Hill
#
# Bulk Modulus (GPa) = 34.32186 41.70009 38.01098
# Shear Modulus (GPa) = -0.85483 23.58456 11.36486
#
# Velocity S-wave (km/s) = -0.62336 3.27424 2.27289
# Velocity P-wave (km/s) = 3.88373 5.76624 4.91593
#
# Compressibility (1/GPa) = 0.02913595
#
# Stress axis : x y z
#
# Youngs Moduli (GPa) = 74.53962 133.30663 50.35053
#
# Poissons Ratio (x) = 0.27907 0.20675
# Poissons Ratio (y) = 0.15604 -0.01906
# Poissons Ratio (z) = 0.30607 -0.05047
#
# Static dielectric constant tensor:
#      x y z
#    x 1.897640 0.000000 -0.035540 
#    y 0.000000 1.758500 0.000000 
#    z -0.035540 0.000000 1.882210 
# 
# From -- ./inp_files/33714.got.cif
#   From: 2010.05.17/outbox.cif.g08.bks.cpg/sg5_17_cif.got.tgz:33714.got - 2010.06.03 18:56:24.
