data_PCOD9128801
_publ_section_title
;
Structure prediction by ZEFSAII (Michael W. Deem and Ramdas Pophale) SiO2 
 PCOD9128801
Probable space group: C 2
;
_chemical_formula_sum "Si O2"
_cell_formula_units_Z 30
_cell_length_a 8.809224
_cell_length_b 17.752673
_cell_length_c 11.276784
_cell_angle_alpha 90.000000
_cell_angle_beta 67.323703
_cell_angle_gamma 90.000000
_cell_volume 1627.219301
_symmetry_space_group_name_H-M "C 2"
_symmetry_group_IT_number 5
_symmetry_cell_setting 'monoclinic'
loop_
_space_group_symop_operation_xyz
x,y,z
-x,y,-z
1/2+x,1/2+y,z
1/2-x,1/2+y,-z
loop_
_atom_site_type_symbol
_atom_site_label
_atom_site_fract_x
_atom_site_fract_y
_atom_site_fract_z
Si Si1 0.534327 0.984680 0.625115
Si Si2 0.963412 0.336701 0.211904
Si Si3 0.943745 0.673500 0.885733
Si Si4 0.500000 0.451436 0.000000
Si Si5 0.259088 0.126269 0.374986
Si Si6 0.279667 0.572967 0.190002
Si Si7 0.926903 0.176647 0.345970
Si Si8 0.271752 0.333412 0.941466
O O1 0.500000 0.961044 0.500000
O O2 0.536215 0.912315 0.709768
O O3 0.689488 0.040495 0.604735
O O4 0.378799 0.037192 0.700682
O O5 0.948560 0.262804 0.298661
O O6 0.817780 0.341874 0.158263
O O7 0.129450 0.328044 0.084228
O O8 0.790057 0.621750 0.897111
O O9 0.881735 0.758764 0.904541
O O10 0.090022 0.659913 0.747073
O O11 0.000000 0.652687 0.000000
O O12 0.389206 0.505161 0.112862
O O13 0.612401 0.400959 0.051555
O O14 0.214009 0.168456 0.511111
O O15 0.093924 0.139658 0.347749
O O16 0.372747 0.628593 0.249420
#
# Coordination Sequence:
#
# PCOD9128801 Si02
#       8
#     4   4   4   2   4   4   4   4
#     4  11  23  46  66  92 132 173 211 266 328 384
#     4  11  25  43  68  95 129 175 213 268 323 384
#     4  11  23  42  66  95 128 172 211 267 320 380
#     4  12  26  40  66  98 134 170 214 264 330 380
#     4  10  25  41  70  93 134 164 219 266 321 382
#     4  11  25  41  69  96 126 173 218 265 318 386
#     4  11  23  45  67 100 126 168 220 268 318 383
#     4  11  24  44  63  95 137 164 214 270 322 377
#
# _framework density 18.436357999999998
#
# number of rings (size 3 to 8) (size 9 to 14) (size 15 to 20)
#    0.000    1.067    4.667    0.800    7.467    1.067 
#    0.000    0.000    0.000    0.000    0.000    0.000 
#    0.000    0.000    0.000    0.000    0.000    0.000 
#
# Total GULP energy -83755.158336 kJ/mol
# GULP energy per Si atom -5583.677222 kJ/mol
# Density = 1.839440 g / cm^3
# Si number density = 18.436358 Si / 1000 Ang^3
#
#
#
# Elastic Constant Matrix: (Units=GPa)
#
#
# Indices 1 2 3 4 5 6 
#
# 1 106.2030 47.3815 45.9506 0.0000 16.9848 0.0000
# 2 47.3815 109.6472 43.2173 0.0000 8.9200 0.0000
# 3 45.9506 43.2173 89.3529 0.0000 10.7850 0.0000
# 4 0.0000 0.0000 0.0000 33.4550 0.0000 -5.5621
# 5 16.9848 8.9200 10.7850 0.0000 33.6785 0.0000
# 6 0.0000 0.0000 0.0000 -5.5621 0.0000 36.2207
#
#
#
# Elastic Compliance Matrix: (Units=1/GPa)
#
#
# Indices 1 2 3 4 5 6 
#
# 1 0.013871 -0.003745 -0.004782 0.000000 -0.004472 0.000000
# 2 -0.003745 0.012334 -0.004029 0.000000 -0.000088 0.000000
# 3 -0.004782 -0.004029 0.015790 0.000000 -0.001578 0.000000
# 4 0.000000 0.000000 0.000000 0.030674 0.000000 0.004710
# 5 -0.004472 -0.000088 -0.001578 0.000000 0.032476 0.000000
# 6 0.000000 0.000000 0.000000 0.004710 0.000000 0.028332
#
#
# Mechanical properties :
#
#
# Convention : Reuss Voigt Hill
#
# Bulk Modulus (GPa) = 59.23383 64.25576 61.74480
# Shear Modulus (GPa) = 30.44754 31.91441 31.18098
#
# Velocity S-wave (km/s) = 4.06827 4.16511 4.11697
# Velocity P-wave (km/s) = 7.36657 7.61966 7.49418
#
# Compressibility (1/GPa) = 0.01688224
#
# Stress axis : x y z
#
# Youngs Moduli (GPa) = 72.09188 81.07854 63.33203
#
# Poissons Ratio (x) = 0.30368 0.30286
# Poissons Ratio (y) = 0.27002 0.25515
# Poissons Ratio (z) = 0.34475 0.32664
#
# Static dielectric constant tensor:
#      x y z
#    x 1.649710 0.000000 -0.004260 
#    y 0.000000 1.604850 0.000000 
#    z -0.004260 0.000000 1.635920 
# 
# From -- ./inp_files/36985.got.cif
#   From: 2010.05.17/outbox.cif.g08.bks.cpg/sg5_19_cif.got.tgz:36985.got - 2010.06.03 18:56:24.
