data_PCOD9128800
_publ_section_title
;
Structure prediction by ZEFSAII (Michael W. Deem and Ramdas Pophale) SiO2 
 PCOD9128800
Probable space group: C 2
;
_chemical_formula_sum "Si O2"
_cell_formula_units_Z 28
_cell_length_a 18.670016
_cell_length_b 5.177107
_cell_length_c 12.558161
_cell_angle_alpha 90.000000
_cell_angle_beta 64.020010
_cell_angle_gamma 90.000000
_cell_volume 1091.168971
_symmetry_space_group_name_H-M "C 2"
_symmetry_group_IT_number 5
_symmetry_cell_setting 'monoclinic'
loop_
_space_group_symop_operation_xyz
x,y,z
-x,y,-z
1/2+x,1/2+y,z
1/2-x,1/2+y,-z
loop_
_atom_site_type_symbol
_atom_site_label
_atom_site_fract_x
_atom_site_fract_y
_atom_site_fract_z
Si Si1 0.430483 0.327590 0.486004
Si Si2 0.177873 0.270089 0.196845
Si Si3 0.810642 0.121984 0.044822
Si Si4 0.292929 0.975160 0.617768
Si Si5 0.487650 0.971387 0.733291
Si Si6 0.082118 0.633250 0.011040
Si Si7 0.645590 0.715419 0.630652
O O1 0.500000 0.484031 0.500000
O O2 0.363604 0.176842 0.595798
O O3 0.481360 0.112628 0.390736
O O4 0.387810 0.492062 0.423613
O O5 0.201806 0.112786 0.076124
O O6 0.200367 0.233460 0.306025
O O7 0.082858 0.278647 0.250989
O O8 0.224395 0.544978 0.147828
O O9 0.859389 0.384460 0.037076
O O10 0.867569 0.888133 0.045158
O O11 0.207100 0.105686 0.674809
O O12 0.308747 0.898243 0.483882
O O13 0.447272 0.150224 0.847539
O O14 0.567453 0.846383 0.729877
O O15 0.000000 0.608588 0.000000
#
# Coordination Sequence:
#
# PCOD9128800 Si02
#       7
#     4   4   4   4   4   4   4
#     4  11  23  42  69  99 140 185 239 298 370 450
#     4  11  24  48  74 103 148 195 251 314 375 443
#     4  11  26  48  74 113 150 194 265 312 369 464
#     4  11  24  46  67 103 145 190 242 303 379 438
#     4  10  25  41  70 101 145 186 249 304 371 444
#     4  11  26  49  75 109 157 200 250 314 383 449
#     4  11  25  43  66 107 144 189 247 309 365 465
#
# _framework density 25.660554000000001
#
# number of rings (size 3 to 8) (size 9 to 14) (size 15 to 20)
#    0.000    1.143    2.857    2.143    8.000    1.143 
#    5.143    0.000    0.000    0.000    0.000    0.000 
#    0.000    0.000    0.000    0.000    0.000    0.000 
#
# Total GULP energy -78320.818036 kJ/mol
# GULP energy per Si atom -5594.344145 kJ/mol
# Density = 2.560215 g / cm^3
# Si number density = 25.660554 Si / 1000 Ang^3
#
#
#
# Elastic Constant Matrix: (Units=GPa)
#
#
# Indices 1 2 3 4 5 6 
#
# 1 175.4400 31.9779 16.4540 -0.0003 -24.2570 -0.0016
# 2 31.9779 98.6822 15.7398 -0.0004 -17.4885 -0.0013
# 3 16.4540 15.7398 106.0998 -0.0001 -21.8863 -0.0005
# 4 -0.0003 -0.0004 -0.0001 33.4810 0.0000 -4.9683
# 5 -24.2570 -17.4885 -21.8863 0.0000 41.4873 0.0003
# 6 -0.0016 -0.0013 -0.0005 -4.9683 0.0003 6.8622
#
#
#
# Elastic Compliance Matrix: (Units=1/GPa)
#
#
# Indices 1 2 3 4 5 6 
#
# 1 0.006409 -0.001517 -0.000143 0.000000 0.003032 0.000001
# 2 -0.001517 0.011365 -0.000724 0.000000 0.003522 0.000002
# 3 -0.000143 -0.000724 0.010631 0.000000 0.005219 0.000000
# 4 0.000000 0.000000 0.000000 0.033463 0.000000 0.024227
# 5 0.003032 0.003522 0.005219 0.000000 0.030115 0.000001
# 6 0.000001 0.000002 0.000000 0.024227 0.000001 0.163267
#
#
# Mechanical properties :
#
#
# Convention : Reuss Voigt Hill
#
# Bulk Modulus (GPa) = 42.30725 56.50727 49.40726
# Shear Modulus (GPa) = 18.66388 37.43612 28.05000
#
# Velocity S-wave (km/s) = 2.69985 3.82370 3.30982
# Velocity P-wave (km/s) = 5.12269 6.44694 5.82259
#
# Compressibility (1/GPa) = 0.02363661
#
# Stress axis : x y z
#
# Youngs Moduli (GPa) = 156.02806 87.99221 94.06075
#
# Poissons Ratio (x) = 0.13345 0.01349
# Poissons Ratio (y) = 0.23663 0.06812
# Poissons Ratio (z) = 0.02238 0.06373
#
# Static dielectric constant tensor:
#      x y z
#    x 2.017950 0.000000 0.035960 
#    y 0.000000 2.081800 0.000000 
#    z 0.035960 0.000000 2.053820 
# 
# From -- ./inp_files/55414.got.cif
#   From: 2010.05.17/outbox.cif.g08.bks.cpg/sg5_28_cif.got.tgz:55414.got - 2010.06.03 18:56:24.
