data_PCOD9128546
_publ_section_title
;
Structure prediction by ZEFSAII (Michael W. Deem and Ramdas Pophale) SiO2 
 PCOD9128546
Probable space group: C 2
;
_chemical_formula_sum "Si O2"
_cell_formula_units_Z 20
_cell_length_a 7.907132
_cell_length_b 4.805396
_cell_length_c 20.397654
_cell_angle_alpha 90.000000
_cell_angle_beta 61.636913
_cell_angle_gamma 90.000000
_cell_volume 682.006891
_symmetry_space_group_name_H-M "C 2"
_symmetry_group_IT_number 5
_symmetry_cell_setting 'monoclinic'
loop_
_space_group_symop_operation_xyz
x,y,z
-x,y,-z
1/2+x,1/2+y,z
1/2-x,1/2+y,-z
loop_
_atom_site_type_symbol
_atom_site_label
_atom_site_fract_x
_atom_site_fract_y
_atom_site_fract_z
Si Si1 0.018928 0.055490 0.207247
Si Si2 0.000000 0.880252 0.000000
Si Si3 0.284453 0.467141 0.697239
Si Si4 0.910574 0.393573 0.396406
Si Si5 0.500000 0.233183 0.500000
Si Si6 0.595379 0.055995 0.104764
O O1 0.052200 0.248681 0.137849
O O2 0.807345 0.158257 0.270709
O O3 0.173427 0.087972 0.237351
O O4 0.055603 0.746648 0.175091
O O5 0.979101 0.682624 0.066555
O O6 0.811798 0.067955 0.037970
O O7 0.130316 0.538401 0.667060
O O8 0.483367 0.595912 0.630794
O O9 0.031753 0.556550 0.428088
O O10 0.699562 0.391660 0.467262
#
# Coordination Sequence:
#
# PCOD9128546 Si02
#       6
#     4   2   4   4   2   4
#     4  11  25  46  74 110 151 199 250 314 378 451
#     4  12  28  48  78 110 152 200 256 316 380 456
#     4  10  24  45  72 107 148 196 252 308 376 446
#     4  11  24  42  70 104 146 197 252 314 376 449
#     4  12  24  44  70 104 148 196 252 308 376 444
#     4  12  27  48  76 110 151 198 252 312 380 450
#
# _framework density 29.325216999999999
#
# number of rings (size 3 to 8) (size 9 to 14) (size 15 to 20)
#    0.000    0.800    0.000    6.000    0.000   12.000 
#    0.000    0.000    0.000    0.000    0.000    0.000 
#    0.000    0.000    0.000    0.000    0.000    0.000 
#
# Total GULP energy -55956.863234 kJ/mol
# GULP energy per Si atom -5595.686323 kJ/mol
# Density = 2.925847 g / cm^3
# Si number density = 29.325217 Si / 1000 Ang^3
#
#
#
# Elastic Constant Matrix: (Units=GPa)
#
#
# Indices 1 2 3 4 5 6 
#
# 1 142.8999 31.8088 47.8987 0.0002 2.8271 0.0004
# 2 31.8088 81.7095 20.2588 0.0004 6.4904 0.0013
# 3 47.8987 20.2588 178.3628 0.0000 17.8578 0.0002
# 4 0.0002 0.0004 0.0000 47.6562 -0.0001 -1.9924
# 5 2.8271 6.4904 17.8578 -0.0001 77.9199 0.0001
# 6 0.0004 0.0013 0.0002 -1.9924 0.0001 47.0869
#
#
#
# Elastic Compliance Matrix: (Units=1/GPa)
#
#
# Indices 1 2 3 4 5 6 
#
# 1 0.008256 -0.002763 -0.001941 0.000000 0.000375 0.000000
# 2 -0.002763 0.013559 -0.000711 0.000000 -0.000866 0.000000
# 3 -0.001941 -0.000711 0.006341 0.000000 -0.001324 0.000000
# 4 0.000000 0.000000 0.000000 0.021021 0.000000 0.000889
# 5 0.000375 -0.000866 -0.001324 0.000000 0.013196 0.000000
# 6 0.000000 0.000000 0.000000 0.000889 0.000000 0.021275
#
#
# Mechanical properties :
#
#
# Convention : Reuss Voigt Hill
#
# Bulk Modulus (GPa) = 57.71581 66.98943 62.35262
# Shear Modulus (GPa) = 49.87386 54.73301 52.30344
#
# Velocity S-wave (km/s) = 4.12845 4.32489 4.22781
# Velocity P-wave (km/s) = 6.51532 6.91612 6.71871
#
# Compressibility (1/GPa) = 0.01732628
#
# Stress axis : x y z
#
# Youngs Moduli (GPa) = 121.12409 73.75104 157.70118
#
# Poissons Ratio (x) = 0.20374 0.30609
# Poissons Ratio (y) = 0.33462 0.11220
# Poissons Ratio (z) = 0.23509 0.05247
#
# Static dielectric constant tensor:
#      x y z
#    x 2.194910 0.000000 -0.100050 
#    y 0.000000 2.278830 0.000000 
#    z -0.100050 0.000000 2.295640 
# 
# From -- ./inp_files/64153.got.cif
#   From: 2010.05.17/outbox.cif.g08.bks.cpg/sg5_33_cif.got.tgz:64153.got - 2010.06.03 18:56:24.
