data_PCOD9128814
_publ_section_title
;
Structure prediction by ZEFSAII (Michael W. Deem and Ramdas Pophale) SiO2 
 PCOD9128814
Probable space group: C 2
;
_chemical_formula_sum "Si O2"
_cell_formula_units_Z 16
_cell_length_a 7.323730
_cell_length_b 6.878398
_cell_length_c 13.707157
_cell_angle_alpha 90.000000
_cell_angle_beta 65.037363
_cell_angle_gamma 90.000000
_cell_volume 626.000491
_symmetry_space_group_name_H-M "C 2"
_symmetry_group_IT_number 5
_symmetry_cell_setting 'monoclinic'
loop_
_space_group_symop_operation_xyz
x,y,z
-x,y,-z
1/2+x,1/2+y,z
1/2-x,1/2+y,-z
loop_
_atom_site_type_symbol
_atom_site_label
_atom_site_fract_x
_atom_site_fract_y
_atom_site_fract_z
Si Si1 0.383303 0.314810 0.807120
Si Si2 0.000000 0.197107 0.500000
Si Si3 0.190644 0.704048 0.896914
Si Si4 0.500000 0.819337 0.000000
Si Si5 0.557795 0.070823 0.591815
O O1 0.313737 0.537989 0.813714
O O2 0.557316 0.312917 0.848889
O O3 0.176450 0.223926 0.893288
O O4 0.458673 0.196567 0.698022
O O5 0.797084 0.078372 0.545383
O O6 0.008020 0.346778 0.406038
O O7 0.326456 0.820235 0.940554
O O8 0.000000 0.581618 0.000000
O O9 0.500000 0.157507 0.500000
#
# Coordination Sequence:
#
# PCOD9128814 Si02
#       5
#     4   2   4   2   4
#     4   9  17  37  59  88 120 162 198 253 309 365
#     4  10  26  40  66  90 130 166 216 256 318 364
#     4   7  17  33  56  85 119 153 201 241 303 363
#     4   6  18  32  56  86 116 152 198 240 306 362
#     4  10  25  43  65  96 127 168 212 265 310 380
#
# _framework density 25.559087000000002
#
# number of rings (size 3 to 8) (size 9 to 14) (size 15 to 20)
#    3.000    0.000    0.000    0.000    5.250    0.000 
#    9.000    5.000    0.000    0.000    0.000    0.000 
#    0.000    0.000    0.000    0.000    0.000    0.000 
#
# Total GULP energy -44621.925576 kJ/mol
# GULP energy per Si atom -5577.740697 kJ/mol
# Density = 2.550091 g / cm^3
# Si number density = 25.559087 Si / 1000 Ang^3
#
#
#
# Elastic Constant Matrix: (Units=GPa)
#
#
# Indices 1 2 3 4 5 6 
#
# 1 227.9156 50.7540 59.9923 0.0000 2.0373 0.0000
# 2 50.7540 86.5633 -0.1407 0.0000 4.9228 0.0000
# 3 59.9923 -0.1407 106.2557 0.0000 -1.3243 0.0000
# 4 0.0000 0.0000 0.0000 55.7450 0.0000 68.8547
# 5 2.0373 4.9228 -1.3243 0.0000 27.7084 0.0000
# 6 0.0000 0.0000 0.0000 68.8547 0.0000 132.5570
#
#
#
# Elastic Compliance Matrix: (Units=1/GPa)
#
#
# Indices 1 2 3 4 5 6 
#
# 1 0.006090 -0.003578 -0.003443 0.000000 0.000023 0.000000
# 2 -0.003578 0.013772 0.002012 0.000000 -0.002088 0.000000
# 3 -0.003443 0.002012 0.011363 0.000000 0.000439 0.000000
# 4 0.000000 0.000000 0.000000 0.050051 0.000000 -0.025998
# 5 0.000023 -0.002088 0.000439 0.000000 0.036480 0.000000
# 6 0.000000 0.000000 0.000000 -0.025998 0.000000 0.021048
#
#
# Mechanical properties :
#
#
# Convention : Reuss Voigt Hill
#
# Bulk Modulus (GPa) = 47.15107 71.32731 59.23919
# Shear Modulus (GPa) = 32.07331 63.87736 47.97533
#
# Velocity S-wave (km/s) = 3.54626 5.00463 4.33718
# Velocity P-wave (km/s) = 5.93766 7.83342 6.95048
#
# Compressibility (1/GPa) = 0.02120843
#
# Stress axis : x y z
#
# Youngs Moduli (GPa) = 164.19188 72.61105 88.00189
#
# Poissons Ratio (x) = 0.25979 0.30300
# Poissons Ratio (y) = 0.58746 -0.17709
# Poissons Ratio (z) = 0.56533 -0.14611
#
# Static dielectric constant tensor:
#      x y z
#    x 1.968160 0.000000 -0.001850 
#    y 0.000000 2.089050 0.000000 
#    z -0.001850 0.000000 2.048810 
# 
# From -- ./inp_files/32958.got.cif
#   From: 2010.05.17/outbox.cif.g08.bks.cpg/sg5_17_cif.got.tgz:32958.got - 2010.06.03 18:56:24.
