data_PCOD9128201
_publ_section_title
;
Structure prediction by ZEFSAII (Michael W. Deem and Ramdas Pophale) SiO2 
 PCOD9128201
Probable space group: C 2
;
_chemical_formula_sum "Si O2"
_cell_formula_units_Z 20
_cell_length_a 8.255100
_cell_length_b 10.244009
_cell_length_c 9.301522
_cell_angle_alpha 90.000000
_cell_angle_beta 108.495017
_cell_angle_gamma 90.000000
_cell_volume 745.959978
_symmetry_space_group_name_H-M "C 2"
_symmetry_group_IT_number 5
_symmetry_cell_setting 'monoclinic'
loop_
_space_group_symop_operation_xyz
x,y,z
-x,y,-z
1/2+x,1/2+y,z
1/2-x,1/2+y,-z
loop_
_atom_site_type_symbol
_atom_site_label
_atom_site_fract_x
_atom_site_fract_y
_atom_site_fract_z
Si Si1 0.711231 0.982670 0.125516
Si Si2 0.156230 0.196031 0.378507
Si Si3 0.579614 0.483001 0.177190
Si Si4 0.800840 0.266361 0.123652
Si Si5 0.149439 0.480517 0.420094
O O1 0.467130 0.734850 0.267444
O O2 0.599025 0.990172 0.237811
O O3 0.911148 0.963148 0.225732
O O4 0.674844 0.862136 0.007596
O O5 0.228098 0.334753 0.445856
O O6 0.713626 0.128391 0.060834
O O7 0.201133 0.101616 0.256962
O O8 0.210644 0.092995 0.514737
O O9 0.678277 0.350190 0.189608
O O10 0.500000 0.514750 0.000000
O O11 0.000000 0.489252 0.500000
#
# Coordination Sequence:
#
# PCOD9128201 Si02
#       5
#     4   4   4   4   4
#     4  10  25  47  84 123 167 214 278 348 429 502
#     4  11  27  49  77 112 167 224 275 341 415 503
#     4   9  21  44  81 117 160 206 268 342 419 498
#     4  10  23  50  83 124 164 214 278 357 424 502
#     4  12  30  51  77 118 171 230 283 335 422 510
#
# _framework density 26.811091000000001
#
# number of rings (size 3 to 8) (size 9 to 14) (size 15 to 20)
#    0.000    1.600    0.000    1.200   16.800    1.600 
#   14.400    0.000    0.000    2.400    0.000    0.000 
#    0.000    0.000    0.000    0.000    0.000    0.000 
#
# Total GULP energy -55775.582653 kJ/mol
# GULP energy per Si atom -5577.558265 kJ/mol
# Density = 2.675007 g / cm^3
# Si number density = 26.811091 Si / 1000 Ang^3
#
#
#
# Elastic Constant Matrix: (Units=GPa)
#
#
# Indices 1 2 3 4 5 6 
#
# 1 108.6740 67.0403 50.8025 0.0000 -25.0420 0.0000
# 2 67.0403 276.7457 85.8837 0.0000 3.0109 0.0000
# 3 50.8025 85.8837 144.6819 0.0000 -8.0087 0.0000
# 4 0.0000 0.0000 0.0000 67.7079 0.0000 0.5609
# 5 -25.0420 3.0109 -8.0087 0.0000 41.1436 0.0000
# 6 0.0000 0.0000 0.0000 0.5609 0.0000 36.4958
#
#
#
# Elastic Compliance Matrix: (Units=1/GPa)
#
#
# Indices 1 2 3 4 5 6 
#
# 1 0.014054 -0.002577 -0.002953 0.000000 0.008168 0.000000
# 2 -0.002577 0.004931 -0.002152 0.000000 -0.002348 0.000000
# 3 -0.002953 -0.002152 0.009235 0.000000 0.000158 0.000000
# 4 0.000000 0.000000 0.000000 0.014771 0.000000 -0.000227
# 5 0.008168 -0.002348 0.000158 0.000000 0.029479 0.000000
# 6 0.000000 0.000000 0.000000 -0.000227 0.000000 0.027404
#
#
# Mechanical properties :
#
#
# Convention : Reuss Voigt Hill
#
# Bulk Modulus (GPa) = 77.78670 104.17276 90.97973
# Shear Modulus (GPa) = 41.83251 50.82780 46.33016
#
# Velocity S-wave (km/s) = 3.95431 4.35877 4.16146
# Velocity P-wave (km/s) = 7.06574 8.01689 7.55630
#
# Compressibility (1/GPa) = 0.01285567
#
# Stress axis : x y z
#
# Youngs Moduli (GPa) = 71.15322 202.79183 108.28419
#
# Poissons Ratio (x) = 0.52259 0.31977
# Poissons Ratio (y) = 0.18336 0.23306
# Poissons Ratio (z) = 0.21012 0.43647
#
# Static dielectric constant tensor:
#      x y z
#    x 2.217160 0.000000 -0.009100 
#    y 0.000000 2.099290 0.000000 
#    z -0.009100 0.000000 2.191180 
# 
# From -- ./inp_files/35021.got.cif
#   From: 2010.05.17/outbox.cif.g08.bks.cpg/sg5_18_cif.got.tgz:35021.got - 2010.06.03 18:56:24.
