data_PCOD9128178
_publ_section_title
;
Structure prediction by ZEFSAII (Michael W. Deem and Ramdas Pophale) SiO2 
 PCOD9128178
Probable space group: C 2
;
_chemical_formula_sum "Si O2"
_cell_formula_units_Z 20
_cell_length_a 17.382183
_cell_length_b 6.955036
_cell_length_c 15.692235
_cell_angle_alpha 90.000000
_cell_angle_beta 155.949384
_cell_angle_gamma 90.000000
_cell_volume 773.147758
_symmetry_space_group_name_H-M "C 2"
_symmetry_group_IT_number 5
_symmetry_cell_setting 'monoclinic'
loop_
_space_group_symop_operation_xyz
x,y,z
-x,y,-z
1/2+x,1/2+y,z
1/2-x,1/2+y,-z
loop_
_atom_site_type_symbol
_atom_site_label
_atom_site_fract_x
_atom_site_fract_y
_atom_site_fract_z
Si Si1 0.679064 0.637520 0.339407
Si Si2 0.539023 0.802274 0.373033
Si Si3 0.010999 0.490074 0.920085
Si Si4 0.441512 0.407671 0.349417
Si Si5 0.404289 0.326715 0.116003
O O1 0.660164 0.723917 0.415693
O O2 0.494267 0.500814 0.154012
O O3 0.849512 0.494245 0.487554
O O4 0.028263 0.835989 0.717670
O O5 0.519854 0.628589 0.421260
O O6 0.322934 0.834616 0.123075
O O7 0.855220 0.324480 0.753129
O O8 0.783813 0.398542 0.874687
O O9 0.018427 0.636120 0.850152
O O10 0.000000 0.593161 0.000000
O O11 0.500000 0.324610 0.500000
#
# Coordination Sequence:
#
# PCOD9128178 Si02
#       5
#     4   4   4   4   4
#     4  11  25  44  77 113 152 212 269 325 395 483
#     4  10  24  45  76 115 153 213 265 323 400 475
#     4  11  26  48  76 120 160 205 270 340 393 474
#     4  10  23  48  81 118 161 213 265 334 403 482
#     4  10  24  51  81 107 164 217 261 331 409 473
#
# _framework density 25.868276999999999
#
# number of rings (size 3 to 8) (size 9 to 14) (size 15 to 20)
#    0.000    1.600    2.000    0.000    5.600    2.400 
#    7.200    0.000    0.000    0.000    0.000    0.000 
#    0.000    0.000    0.000    0.000    0.000    0.000 
#
# Total GULP energy -55953.204730 kJ/mol
# GULP energy per Si atom -5595.320473 kJ/mol
# Density = 2.580940 g / cm^3
# Si number density = 25.868277 Si / 1000 Ang^3
#
#
#
# Elastic Constant Matrix: (Units=GPa)
#
#
# Indices 1 2 3 4 5 6 
#
# 1 167.9350 68.8208 55.9632 0.0003 -12.9353 0.0000
# 2 68.8208 135.5965 76.8261 0.0005 -2.9763 0.0002
# 3 55.9632 76.8261 153.8683 0.0010 5.0826 0.0006
# 4 0.0003 0.0005 0.0010 48.1238 0.0003 18.8993
# 5 -12.9353 -2.9763 5.0826 0.0003 32.0859 0.0001
# 6 0.0000 0.0002 0.0006 18.8993 0.0001 23.3382
#
#
#
# Elastic Compliance Matrix: (Units=1/GPa)
#
#
# Indices 1 2 3 4 5 6 
#
# 1 0.007969 -0.003172 -0.001419 0.000000 0.003143 0.000000
# 2 -0.003172 0.011648 -0.004680 0.000000 0.000543 0.000000
# 3 -0.001419 -0.004680 0.009434 0.000000 -0.002501 0.000000
# 4 0.000000 0.000000 0.000000 0.030470 0.000000 -0.024675
# 5 0.003143 0.000543 -0.002501 0.000000 0.032880 0.000000
# 6 0.000000 0.000000 0.000000 -0.024675 0.000000 0.062830
#
#
# Mechanical properties :
#
#
# Convention : Reuss Voigt Hill
#
# Bulk Modulus (GPa) = 95.14299 95.62447 95.38373
# Shear Modulus (GPa) = 28.20436 37.76222 32.98329
#
# Velocity S-wave (km/s) = 3.30556 3.82486 3.57466
# Velocity P-wave (km/s) = 7.17138 7.52012 7.34782
#
# Compressibility (1/GPa) = 0.01051050
#
# Stress axis : x y z
#
# Youngs Moduli (GPa) = 125.47860 85.84826 105.99445
#
# Poissons Ratio (x) = 0.27232 0.15036
# Poissons Ratio (y) = 0.39803 0.49608
# Poissons Ratio (z) = 0.17800 0.40179
#
# Static dielectric constant tensor:
#      x y z
#    x 1.960330 0.000000 0.010520 
#    y 0.000000 2.099120 0.000000 
#    z 0.010520 0.000000 2.088560 
# 
# From -- ./inp_files/66966.got.cif
#   From: 2010.05.17/outbox.cif.g08.bks.cpg/sg5_34_cif.got.tgz:66966.got - 2010.06.03 18:56:24.
