data_PCOD9128006
_publ_section_title
;
Structure prediction by ZEFSAII (Michael W. Deem and Ramdas Pophale) SiO2 
 PCOD9128006
Probable space group: C 2
;
_chemical_formula_sum "Si O2"
_cell_formula_units_Z 20
_cell_length_a 11.630377
_cell_length_b 8.676243
_cell_length_c 17.836149
_cell_angle_alpha 90.000000
_cell_angle_beta 27.771552
_cell_angle_gamma 90.000000
_cell_volume 838.616618
_symmetry_space_group_name_H-M "C 2"
_symmetry_group_IT_number 5
_symmetry_cell_setting 'monoclinic'
loop_
_space_group_symop_operation_xyz
x,y,z
-x,y,-z
1/2+x,1/2+y,z
1/2-x,1/2+y,-z
loop_
_atom_site_type_symbol
_atom_site_label
_atom_site_fract_x
_atom_site_fract_y
_atom_site_fract_z
Si Si1 0.269550 0.005280 0.360056
Si Si2 0.405295 0.041476 0.449107
Si Si3 0.040205 0.192907 0.210705
Si Si4 0.450235 0.577317 0.113808
Si Si5 0.242461 0.257095 0.248533
O O1 0.283138 0.058943 0.438117
O O2 0.000000 0.936223 0.500000
O O3 0.471146 0.871737 0.240624
O O4 0.497600 0.864288 0.405469
O O5 0.209143 0.098435 0.622359
O O6 0.667195 0.129445 0.293907
O O7 0.706655 0.140866 0.713913
O O8 0.119364 0.135154 0.083573
O O9 0.206344 0.177341 0.188722
O O10 0.442804 0.391938 0.123428
O O11 0.500000 0.623488 0.000000
#
# Coordination Sequence:
#
# PCOD9128006 Si02
#       5
#     4   4   4   4   4
#     4  11  20  36  63  93 123 149 200 261 300 350
#     4   9  21  37  64  91 121 154 201 250 301 355
#     4  11  21  40  65  90 121 155 208 253 301 354
#     4  10  23  45  60  84 131 167 197 246 300 363
#     4   9  23  39  60  93 121 159 203 244 304 361
#
# _framework density 23.848801000000002
#
# number of rings (size 3 to 8) (size 9 to 14) (size 15 to 20)
#    1.200    0.800    2.000    1.800    2.800    0.000 
#    7.200    1.000    0.000    0.000    0.000    0.000 
#    0.000    0.000    0.000    0.000    0.000    0.000 
#
# Total GULP energy -55869.273206 kJ/mol
# GULP energy per Si atom -5586.927321 kJ/mol
# Density = 2.379452 g / cm^3
# Si number density = 23.848801 Si / 1000 Ang^3
#
#
#
# Elastic Constant Matrix: (Units=GPa)
#
#
# Indices 1 2 3 4 5 6 
#
# 1 197.4051 42.8545 45.7211 -0.0006 56.1824 0.0001
# 2 42.8545 67.5926 30.0688 -0.0016 23.6207 0.0000
# 3 45.7211 30.0688 80.8387 -0.0099 11.4127 0.0018
# 4 -0.0006 -0.0016 -0.0099 17.6095 0.0019 11.3667
# 5 56.1824 23.6207 11.4127 0.0019 49.7469 0.0003
# 6 0.0001 0.0000 0.0018 11.3667 0.0003 51.1188
#
#
#
# Elastic Compliance Matrix: (Units=1/GPa)
#
#
# Indices 1 2 3 4 5 6 
#
# 1 0.008370 -0.001004 -0.003197 -0.000001 -0.008243 0.000000
# 2 -0.001004 0.020693 -0.006099 -0.000001 -0.007292 0.000001
# 3 -0.003197 -0.006099 0.016048 0.000010 0.002825 -0.000003
# 4 -0.000001 -0.000001 0.000010 0.066304 -0.000003 -0.014743
# 5 -0.008243 -0.007292 0.002825 -0.000003 0.032225 0.000000
# 6 0.000000 0.000001 -0.000003 -0.014743 0.000000 0.022841
#
#
# Mechanical properties :
#
#
# Convention : Reuss Voigt Hill
#
# Bulk Modulus (GPa) = 40.79919 64.79168 52.79543
# Shear Modulus (GPa) = 25.60797 38.84118 32.22458
#
# Velocity S-wave (km/s) = 3.28039 4.04002 3.67986
# Velocity P-wave (km/s) = 5.61182 6.99922 6.34356
#
# Compressibility (1/GPa) = 0.02451029
#
# Stress axis : x y z
#
# Youngs Moduli (GPa) = 119.47417 48.32611 62.31180
#
# Poissons Ratio (x) = 0.04853 0.19920
# Poissons Ratio (y) = 0.11997 0.38007
# Poissons Ratio (z) = 0.38193 0.29476
#
# Static dielectric constant tensor:
#      x y z
#    x 1.901890 0.000000 -0.043790 
#    y 0.000000 1.893820 0.000000 
#    z -0.043790 0.000000 2.023370 
# 
# From -- ./inp_files/60360.got.cif
#   From: 2010.05.17/outbox.cif.g08.bks.cpg/sg5_31_cif.got.tgz:60360.got - 2010.06.03 18:56:24.
