data_PCOD9128650
_publ_section_title
;
Structure prediction by ZEFSAII (Michael W. Deem and Ramdas Pophale) SiO2 
 PCOD9128650
Probable space group: C 2
;
_chemical_formula_sum "Si O2"
_cell_formula_units_Z 30
_cell_length_a 14.233055
_cell_length_b 5.486906
_cell_length_c 16.845320
_cell_angle_alpha 90.000000
_cell_angle_beta 113.307989
_cell_angle_gamma 90.000000
_cell_volume 1208.182765
_symmetry_space_group_name_H-M "C 2"
_symmetry_group_IT_number 5
_symmetry_cell_setting 'monoclinic'
loop_
_space_group_symop_operation_xyz
x,y,z
-x,y,-z
1/2+x,1/2+y,z
1/2-x,1/2+y,-z
loop_
_atom_site_type_symbol
_atom_site_label
_atom_site_fract_x
_atom_site_fract_y
_atom_site_fract_z
Si Si1 0.185764 0.244060 0.471676
Si Si2 0.634823 0.456148 0.309909
Si Si3 0.297432 0.464764 0.219275
Si Si4 0.223584 0.713168 0.038565
Si Si5 0.431635 0.797026 0.822525
Si Si6 0.131419 0.281897 0.621809
Si Si7 0.000000 0.552725 0.000000
Si Si8 0.463850 0.092302 0.279597
O O1 0.241425 0.505898 0.490187
O O2 0.139052 0.186676 0.370495
O O3 0.111857 0.237839 0.522977
O O4 0.584022 0.518548 0.208502
O O5 0.750262 0.373064 0.337357
O O6 0.561411 0.263438 0.324993
O O7 0.280784 0.653449 0.141558
O O8 0.185022 0.395794 0.213016
O O9 0.363240 0.556987 0.316276
O O10 0.364111 0.235571 0.214206
O O11 0.102192 0.706375 0.017022
O O12 0.252952 0.971115 0.007914
O O13 0.501310 0.911118 0.777650
O O14 0.479748 0.872878 0.920236
O O15 0.064716 0.475830 0.646029
#
# Coordination Sequence:
#
# PCOD9128650 Si02
#       8
#     4   4   4   4   4   4   2   4
#     4  10  24  46  81 110 151 197 243 304 368 438
#     4  11  24  45  78 106 147 194 246 302 372 437
#     4  11  24  44  72 102 144 194 242 307 370 436
#     4  11  27  47  72 105 147 193 250 307 372 439
#     4  11  23  47  69 103 145 195 247 308 368 437
#     4  11  24  46  77 104 149 194 245 301 371 436
#     4  10  26  46  70 106 150 196 254 308 370 438
#     4  12  25  43  76 105 142 195 245 300 371 439
#
# _framework density 24.830681999999999
#
# number of rings (size 3 to 8) (size 9 to 14) (size 15 to 20)
#    0.000    1.067    2.667    2.400    9.333    0.533 
#    0.000    4.000    0.000    0.000    0.000    0.000 
#    0.000    0.000    0.000    0.000    0.000    0.000 
#
# Total GULP energy -83986.985345 kJ/mol
# GULP energy per Si atom -5599.132356 kJ/mol
# Density = 2.477417 g / cm^3
# Si number density = 24.830682 Si / 1000 Ang^3
#
#
#
# Elastic Constant Matrix: (Units=GPa)
#
#
# Indices 1 2 3 4 5 6 
#
# 1 158.9303 49.7832 20.5022 0.0000 -17.1346 0.0000
# 2 49.7832 80.4069 11.9782 0.0000 -5.7204 -0.0001
# 3 20.5022 11.9782 62.7454 0.0000 -15.5238 0.0000
# 4 0.0000 0.0000 0.0000 18.6585 0.0000 -8.1932
# 5 -17.1346 -5.7204 -15.5238 0.0000 33.8771 0.0000
# 6 0.0000 -0.0001 0.0000 -8.1932 0.0000 36.4915
#
#
#
# Elastic Compliance Matrix: (Units=1/GPa)
#
#
# Indices 1 2 3 4 5 6 
#
# 1 0.008220 -0.004725 -0.001074 0.000000 0.002867 0.000000
# 2 -0.004725 0.015559 -0.001542 0.000000 -0.000470 0.000000
# 3 -0.001074 -0.001542 0.018479 0.000000 0.007664 0.000000
# 4 0.000000 0.000000 0.000000 0.059457 0.000000 0.013350
# 5 0.002867 -0.000470 0.007664 0.000000 0.034401 0.000000
# 6 0.000000 0.000000 0.000000 0.013350 0.000000 0.030401
#
#
# Mechanical properties :
#
#
# Convention : Reuss Voigt Hill
#
# Bulk Modulus (GPa) = 36.26655 51.84552 44.05603
# Shear Modulus (GPa) = 26.26159 32.46001 29.36080
#
# Velocity S-wave (km/s) = 3.25564 3.61952 3.44239
# Velocity P-wave (km/s) = 5.36372 6.19620 5.79493
#
# Compressibility (1/GPa) = 0.02757362
#
# Stress axis : x y z
#
# Youngs Moduli (GPa) = 121.65552 64.27278 54.11531
#
# Poissons Ratio (x) = 0.30370 0.05814
# Poissons Ratio (y) = 0.57485 0.08346
# Poissons Ratio (z) = 0.13071 0.09913
#
# Static dielectric constant tensor:
#      x y z
#    x 1.938040 0.000000 -0.002550 
#    y 0.000000 2.000180 0.000000 
#    z -0.002550 0.000000 1.981210 
# 
# From -- ./inp_files/61236.got.cif
#   From: 2010.05.17/outbox.cif.g08.bks.cpg/sg5_31_cif.got.tgz:61236.got - 2010.06.03 18:56:24.
