data_PCOD9128655
_publ_section_title
;
Structure prediction by ZEFSAII (Michael W. Deem and Ramdas Pophale) SiO2 
 PCOD9128655
Probable space group: C 2
;
_chemical_formula_sum "Si O2"
_cell_formula_units_Z 16
_cell_length_a 13.436260
_cell_length_b 7.175819
_cell_length_c 16.860269
_cell_angle_alpha 90.000000
_cell_angle_beta 157.824863
_cell_angle_gamma 90.000000
_cell_volume 613.565768
_symmetry_space_group_name_H-M "C 2"
_symmetry_group_IT_number 5
_symmetry_cell_setting 'monoclinic'
loop_
_space_group_symop_operation_xyz
x,y,z
-x,y,-z
1/2+x,1/2+y,z
1/2-x,1/2+y,-z
loop_
_atom_site_type_symbol
_atom_site_label
_atom_site_fract_x
_atom_site_fract_y
_atom_site_fract_z
Si Si1 0.664186 0.603130 0.325091
Si Si2 0.871121 0.726118 0.061533
Si Si3 0.202063 0.644897 0.808261
Si Si4 0.259851 0.447403 0.277982
O O1 0.539982 0.412174 0.200504
O O2 0.722574 0.754644 0.299772
O O3 0.936350 0.563113 0.572191
O O4 0.426789 0.717277 0.193145
O O5 0.838052 0.647479 0.127083
O O6 0.026696 0.586495 0.120663
O O7 0.190578 0.862152 0.771205
O O8 0.500000 0.578458 0.000000
O O9 0.500000 0.543625 0.500000
#
# Coordination Sequence:
#
# PCOD9128655 Si02
#       4
#     4   4   4   4
#     4  11  24  41  75 103 143 187 239 298 358 429
#     4  12  24  46  75 104 142 194 235 300 366 423
#     4  11  24  45  74 102 145 188 237 300 358 426
#     4  10  24  47  67 103 147 178 237 305 347 424
#
# _framework density 26.077076000000002
#
# number of rings (size 3 to 8) (size 9 to 14) (size 15 to 20)
#    0.000    1.000    5.000    0.000    7.000    3.000 
#    0.000    2.500    5.500    0.000    0.000    0.000 
#    0.000    0.000    0.000    0.000    0.000    0.000 
#
# Total GULP energy -44646.533250 kJ/mol
# GULP energy per Si atom -5580.816656 kJ/mol
# Density = 2.601772 g / cm^3
# Si number density = 26.077076 Si / 1000 Ang^3
#
#
#
# Elastic Constant Matrix: (Units=GPa)
#
#
# Indices 1 2 3 4 5 6 
#
# 1 43.5209 25.7254 7.0331 0.0023 -9.8041 0.0009
# 2 25.7254 112.2798 62.8217 0.0035 -4.7531 0.0019
# 3 7.0331 62.8217 215.0298 0.0110 2.5095 0.0043
# 4 0.0023 0.0035 0.0110 38.4040 0.0020 4.3201
# 5 -9.8041 -4.7531 2.5095 0.0020 35.2845 0.0003
# 6 0.0009 0.0019 0.0043 4.3201 0.0003 29.0530
#
#
#
# Elastic Compliance Matrix: (Units=1/GPa)
#
#
# Indices 1 2 3 4 5 6 
#
# 1 0.028364 -0.006745 0.000962 -0.000002 0.006904 0.000000
# 2 -0.006745 0.012348 -0.003387 0.000000 0.000030 0.000000
# 3 0.000962 -0.003387 0.005616 -0.000001 -0.000588 0.000000
# 4 -0.000002 0.000000 -0.000001 0.026482 -0.000002 -0.003938
# 5 0.006904 0.000030 -0.000588 -0.000002 0.030305 0.000000
# 6 0.000000 0.000000 0.000000 -0.003938 0.000000 0.035005
#
#
# Mechanical properties :
#
#
# Convention : Reuss Voigt Hill
#
# Bulk Modulus (GPa) = 35.72954 62.44345 49.08650
# Shear Modulus (GPa) = 30.15866 38.89832 34.52849
#
# Velocity S-wave (km/s) = 3.40445 3.86640 3.64276
# Velocity P-wave (km/s) = 5.40231 6.62795 6.04627
#
# Compressibility (1/GPa) = 0.02798804
#
# Stress axis : x y z
#
# Youngs Moduli (GPa) = 35.25570 80.98340 178.07762
#
# Poissons Ratio (x) = 0.54622 -0.17135
# Poissons Ratio (y) = 0.23779 0.60321
# Poissons Ratio (z) = -0.03392 0.27432
#
# Static dielectric constant tensor:
#      x y z
#    x 2.199500 0.000000 -0.065730 
#    y 0.000000 2.065750 0.000000 
#    z -0.065730 0.000000 2.229590 
# 
# From -- ./inp_files/65811.got.cif
#   From: 2010.05.17/outbox.cif.g08.bks.cpg/sg5_33_cif.got.tgz:65811.got - 2010.06.03 18:56:24.
