data_PCOD9128991
_publ_section_title
;
Structure prediction by ZEFSAII (Michael W. Deem and Ramdas Pophale) SiO2 
 PCOD9128991
Probable space group: C 2
;
_chemical_formula_sum "Si O2"
_cell_formula_units_Z 32
_cell_length_a 5.892761
_cell_length_b 20.117570
_cell_length_c 13.562361
_cell_angle_alpha 90.000000
_cell_angle_beta 64.246996
_cell_angle_gamma 90.000000
_cell_volume 1448.098083
_symmetry_space_group_name_H-M "C 2"
_symmetry_group_IT_number 5
_symmetry_cell_setting 'monoclinic'
loop_
_space_group_symop_operation_xyz
x,y,z
-x,y,-z
1/2+x,1/2+y,z
1/2-x,1/2+y,-z
loop_
_atom_site_type_symbol
_atom_site_label
_atom_site_fract_x
_atom_site_fract_y
_atom_site_fract_z
Si Si1 0.046516 0.858570 0.386990
Si Si2 0.021567 0.073106 0.611076
Si Si3 0.256284 0.733274 0.611076
Si Si4 0.179500 0.447809 0.386989
Si Si5 0.527373 0.784765 0.226438
Si Si6 0.192711 0.403190 0.057289
Si Si7 0.731253 0.153190 0.268747
Si Si8 0.980252 0.521614 0.773561
O O1 0.322465 0.833679 0.314518
O O2 0.000000 0.894156 0.500000
O O3 0.883000 0.792314 0.419299
O O4 0.925875 0.903190 0.324122
O O5 0.133963 0.132046 0.655379
O O6 0.000000 0.085606 0.500000
O O7 0.764862 0.048770 0.712608
O O8 0.221599 0.014066 0.580705
O O9 0.500000 0.720772 0.500000
O O10 0.309927 0.757612 0.712606
O O11 0.055278 0.674335 0.655382
O O12 0.048487 0.472700 0.314520
O O13 0.000000 0.412224 0.500000
O O14 0.659823 0.834136 0.125145
O O15 0.381359 0.720196 0.207701
O O16 0.089886 0.472244 0.125146
O O17 0.500000 0.411894 0.000000
O O18 0.000000 0.394487 0.000000
O O19 0.703238 0.086182 0.207704
#
# Coordination Sequence:
#
# PCOD9128991 Si02
#       8
#     4   4   4   4   4   4   4   4
#     4  11  22  35  61 103 149 194 239 290 359 446
#     4  11  22  41  64 107 157 205 240 283 360 459
#     4  11  22  41  64 107 157 205 240 283 360 459
#     4  11  22  35  61 103 149 194 239 290 359 446
#     4  11  25  47  73 104 148 198 242 315 376 462
#     4  12  32  56  86 110 140 192 266 342 406 456
#     4  10  26  41  73 106 160 196 251 296 375 454
#     4  11  25  47  73 104 148 198 242 315 376 462
#
# _framework density 22.097950999999998
#
# number of rings (size 3 to 8) (size 9 to 14) (size 15 to 20)
#    0.000    1.000    2.500    3.000   10.500    3.000 
#    0.000    0.625    0.000    0.000    0.000    0.000 
#    0.000    0.000    0.000    0.000    0.000    0.000 
#
# Total GULP energy -89348.344136 kJ/mol
# GULP energy per Si atom -5584.271508 kJ/mol
# Density = 2.204766 g / cm^3
# Si number density = 22.097951 Si / 1000 Ang^3
#
#
#
# Elastic Constant Matrix: (Units=GPa)
#
#
# Indices 1 2 3 4 5 6 
#
# 1 144.1882 46.6497 60.4510 0.0000 0.7407 0.0000
# 2 46.6497 133.3648 44.3254 0.0000 0.0766 0.0000
# 3 60.4510 44.3254 77.3091 0.0000 1.4539 0.0000
# 4 0.0000 0.0000 0.0000 28.0792 0.0000 1.3578
# 5 0.7407 0.0766 1.4539 0.0000 30.5582 0.0000
# 6 0.0000 0.0000 0.0000 1.3578 0.0000 69.4638
#
#
#
# Elastic Compliance Matrix: (Units=1/GPa)
#
#
# Indices 1 2 3 4 5 6 
#
# 1 0.010462 -0.001161 -0.007517 0.000000 0.000107 0.000000
# 2 -0.001161 0.009394 -0.004482 0.000000 0.000218 0.000000
# 3 -0.007517 -0.004482 0.021398 0.000000 -0.000825 0.000000
# 4 0.000000 0.000000 0.000000 0.035647 0.000000 -0.000697
# 5 0.000107 0.000218 -0.000825 0.000000 0.032761 0.000000
# 6 0.000000 0.000000 0.000000 -0.000697 0.000000 0.014410
#
#
# Mechanical properties :
#
#
# Convention : Reuss Voigt Hill
#
# Bulk Modulus (GPa) = 66.96277 73.07935 70.02106
# Shear Modulus (GPa) = 32.18127 39.18264 35.68196
#
# Velocity S-wave (km/s) = 3.82029 4.21543 4.02271
# Velocity P-wave (km/s) = 7.05889 7.53894 7.30286
#
# Compressibility (1/GPa) = 0.01493367
#
# Stress axis : x y z
#
# Youngs Moduli (GPa) = 95.58436 106.45101 46.73302
#
# Poissons Ratio (x) = 0.12362 0.35128
# Poissons Ratio (y) = 0.11100 0.20946
# Poissons Ratio (z) = 0.71849 0.47713
#
# Static dielectric constant tensor:
#      x y z
#    x 1.939530 0.000000 0.004640 
#    y 0.000000 1.877430 0.000000 
#    z 0.004640 0.000000 1.798410 
# 
# From -- ./inp_files/49527.got.cif
#   From: 2010.05.17/outbox.cif.g08.bks.cpg/sg5_25_cif.got.tgz:49527.got - 2010.06.03 18:56:24.
