data_PCOD9128236
_publ_section_title
;
Structure prediction by ZEFSAII (Michael W. Deem and Ramdas Pophale) SiO2 
 PCOD9128236
Probable space group: C 2
;
_chemical_formula_sum "Si O2"
_cell_formula_units_Z 32
_cell_length_a 24.692834
_cell_length_b 8.769590
_cell_length_c 23.901653
_cell_angle_alpha 90.000000
_cell_angle_beta 161.805974
_cell_angle_gamma 90.000000
_cell_volume 1616.072921
_symmetry_space_group_name_H-M "C 2"
_symmetry_group_IT_number 5
_symmetry_cell_setting 'monoclinic'
loop_
_space_group_symop_operation_xyz
x,y,z
-x,y,-z
1/2+x,1/2+y,z
1/2-x,1/2+y,-z
loop_
_atom_site_type_symbol
_atom_site_label
_atom_site_fract_x
_atom_site_fract_y
_atom_site_fract_z
Si Si1 0.116818 0.532150 0.457713
Si Si2 0.247738 0.813875 0.631664
Si Si3 0.332555 0.462371 0.561903
Si Si4 0.751796 0.174742 0.921208
Si Si5 0.443567 0.711941 0.285492
Si Si6 0.421562 0.486459 0.364352
Si Si7 0.175451 0.870700 0.942235
Si Si8 0.422453 0.787025 0.981092
O O1 0.239820 0.629375 0.619354
O O2 0.201319 0.519098 0.479674
O O3 0.945856 0.635912 0.286567
O O4 0.053697 0.362264 0.410025
O O5 0.255759 0.874517 0.576032
O O6 0.072668 0.877623 0.487618
O O7 0.413142 0.868861 0.828747
O O8 0.440074 0.600981 0.639199
O O9 0.471485 0.354178 0.730240
O O10 0.760825 0.331053 0.965736
O O11 0.854610 0.179494 0.964454
O O12 0.806855 0.040439 0.016783
O O13 0.395013 0.618172 0.292821
O O14 0.275889 0.767994 0.086006
O O15 0.500000 0.541936 0.500000
O O16 0.242161 0.393766 0.194410
O O17 0.500000 0.718474 0.000000
#
# Coordination Sequence:
#
# PCOD9128236 Si02
#       8
#     4   4   4   4   4   4   4   4
#     4  11  22  39  61  99 135 177 209 277 343 413
#     4  11  23  40  69  96 130 173 229 276 333 408
#     4  11  21  38  59  98 138 175 220 262 340 422
#     4  11  23  38  64  96 137 173 219 272 352 394
#     4  10  24  39  64  97 137 181 216 282 344 406
#     4  11  23  49  68  96 126 173 234 288 341 392
#     4  11  21  39  62 100 136 176 209 279 339 421
#     4  12  25  44  71 101 126 180 240 288 325 408
#
# _framework density 19.801086000000002
#
# number of rings (size 3 to 8) (size 9 to 14) (size 15 to 20)
#    0.000    1.000    5.000    2.250    3.500    0.000 
#    2.250    3.125    0.000    3.000    0.000    0.000 
#    0.000    0.000    0.000    0.000    0.000    0.000 
#
# Total GULP energy -89281.244441 kJ/mol
# GULP energy per Si atom -5580.077778 kJ/mol
# Density = 1.975602 g / cm^3
# Si number density = 19.801086 Si / 1000 Ang^3
#
#
#
# Elastic Constant Matrix: (Units=GPa)
#
#
# Indices 1 2 3 4 5 6 
#
# 1 134.3900 39.8565 31.1569 -0.0006 14.0047 -0.0004
# 2 39.8565 75.7424 13.8990 -0.0004 2.3063 -0.0005
# 3 31.1569 13.8990 107.6842 -0.0002 -1.8654 0.0000
# 4 -0.0006 -0.0004 -0.0002 24.6875 0.0001 -4.9848
# 5 14.0047 2.3063 -1.8654 0.0001 30.6043 0.0000
# 6 -0.0004 -0.0005 0.0000 -4.9848 0.0000 15.2580
#
#
#
# Elastic Compliance Matrix: (Units=1/GPa)
#
#
# Indices 1 2 3 4 5 6 
#
# 1 0.009785 -0.004595 -0.002312 0.000000 -0.004272 0.000000
# 2 -0.004595 0.015719 -0.000684 0.000000 0.000876 0.000000
# 3 -0.002312 -0.000684 0.010074 0.000000 0.001724 0.000000
# 4 0.000000 0.000000 0.000000 0.043367 0.000000 0.014168
# 5 -0.004272 0.000876 0.001724 0.000000 0.034669 0.000000
# 6 0.000000 0.000000 0.000000 0.014168 0.000000 0.070168
#
#
# Mechanical properties :
#
#
# Convention : Reuss Voigt Hill
#
# Bulk Modulus (GPa) = 49.03000 54.18239 51.60619
# Shear Modulus (GPa) = 24.29986 29.63691 26.96839
#
# Velocity S-wave (km/s) = 3.50694 3.87296 3.69448
# Velocity P-wave (km/s) = 6.41975 6.88640 6.65716
#
# Compressibility (1/GPa) = 0.02039568
#
# Stress axis : x y z
#
# Youngs Moduli (GPa) = 102.19826 63.61629 99.26956
#
# Poissons Ratio (x) = 0.29229 0.22952
# Poissons Ratio (y) = 0.46956 0.06794
# Poissons Ratio (z) = 0.23629 0.04354
#
# Static dielectric constant tensor:
#      x y z
#    x 1.695900 0.000000 -0.014850 
#    y 0.000000 1.743650 0.000000 
#    z -0.014850 0.000000 1.760200 
# 
# From -- ./inp_files/69668.got.cif
#   From: 2010.05.17/outbox.cif.g08.bks.cpg/sg5_35_cif.got.tgz:69668.got - 2010.06.03 18:56:24.
