data_PCOD9128131
_publ_section_title
;
Structure prediction by ZEFSAII (Michael W. Deem and Ramdas Pophale) SiO2 
 PCOD9128131
Probable space group: C 2
;
_chemical_formula_sum "Si O2"
_cell_formula_units_Z 24
_cell_length_a 12.615337
_cell_length_b 5.179513
_cell_length_c 19.086030
_cell_angle_alpha 90.000000
_cell_angle_beta 46.939321
_cell_angle_gamma 90.000000
_cell_volume 911.174368
_symmetry_space_group_name_H-M "C 2"
_symmetry_group_IT_number 5
_symmetry_cell_setting 'monoclinic'
loop_
_space_group_symop_operation_xyz
x,y,z
-x,y,-z
1/2+x,1/2+y,z
1/2-x,1/2+y,-z
loop_
_atom_site_type_symbol
_atom_site_label
_atom_site_fract_x
_atom_site_fract_y
_atom_site_fract_z
Si Si1 0.976239 0.096160 0.262370
Si Si2 0.500000 0.270211 0.000000
Si Si3 0.987471 0.693737 0.856265
Si Si4 0.250166 0.885886 0.542772
Si Si5 0.500000 0.229087 0.500000
Si Si6 0.800073 0.482747 0.813273
Si Si7 0.231790 0.902647 0.295128
O O1 0.893088 0.876468 0.343936
O O2 0.843455 0.274734 0.300738
O O3 0.099641 0.235156 0.252054
O O4 0.033154 0.984774 0.162740
O O5 0.552781 0.125832 0.046122
O O6 0.363399 0.429021 0.089382
O O7 0.161027 0.637547 0.773664
O O8 0.887894 0.553204 0.844547
O O9 0.216231 0.099201 0.498164
O O10 0.385112 0.029951 0.517712
O O11 0.584097 0.405291 0.405467
O O12 0.793308 0.705684 0.758280
#
# Coordination Sequence:
#
# PCOD9128131 Si02
#       7
#     4   2   4   4   2   4   4
#     4  10  24  47  69 103 150 184 246 308 373 442
#     4  12  28  46  70 104 134 190 246 300 378 452
#     4  11  27  45  72 102 145 189 242 312 372 450
#     4  11  26  44  72 109 150 197 252 303 376 451
#     4  10  24  44  74 108 144 198 246 298 372 448
#     4  11  26  45  73 103 144 188 245 306 377 445
#     4  10  23  47  70 107 147 188 245 304 367 449
#
# _framework density 26.339637
#
# number of rings (size 3 to 8) (size 9 to 14) (size 15 to 20)
#    0.000    1.333    1.667    1.000   14.000    1.333 
#    3.000    0.000    0.000    0.000    0.000    0.000 
#    0.000    0.000    0.000    0.000    0.000    0.000 
#
# Total GULP energy -67092.730498 kJ/mol
# GULP energy per Si atom -5591.060875 kJ/mol
# Density = 2.627969 g / cm^3
# Si number density = 26.339637 Si / 1000 Ang^3
#
#
#
# Elastic Constant Matrix: (Units=GPa)
#
#
# Indices 1 2 3 4 5 6 
#
# 1 164.8334 22.1761 54.5396 -0.0011 -13.3993 0.0048
# 2 22.1761 85.5381 34.0044 -0.0019 1.2616 0.0108
# 3 54.5396 34.0044 146.1428 0.0004 7.5376 -0.0001
# 4 -0.0011 -0.0019 0.0004 24.7541 -0.0007 -1.1720
# 5 -13.3993 1.2616 7.5376 -0.0007 47.1084 -0.0003
# 6 0.0048 0.0108 -0.0001 -1.1720 -0.0003 46.6751
#
#
#
# Elastic Compliance Matrix: (Units=1/GPa)
#
#
# Indices 1 2 3 4 5 6 
#
# 1 0.007260 -0.000871 -0.002636 0.000000 0.002510 -0.000001
# 2 -0.000871 0.012988 -0.002688 0.000001 -0.000165 -0.000003
# 3 -0.002636 -0.002688 0.008558 0.000000 -0.002047 0.000001
# 4 0.000000 0.000001 0.000000 0.040445 0.000001 0.001016
# 5 0.002510 -0.000165 -0.002047 0.000001 0.022274 0.000000
# 6 -0.000001 -0.000003 0.000001 0.001016 0.000000 0.021450
#
#
# Mechanical properties :
#
#
# Convention : Reuss Voigt Hill
#
# Bulk Modulus (GPa) = 60.92383 68.66161 64.79272
# Shear Modulus (GPa) = 38.21527 42.76045 40.48786
#
# Velocity S-wave (km/s) = 3.81316 4.03355 3.92490
# Velocity P-wave (km/s) = 6.52435 6.91499 6.72251
#
# Compressibility (1/GPa) = 0.01641394
#
# Stress axis : x y z
#
# Youngs Moduli (GPa) = 137.73575 76.99588 116.85603
#
# Poissons Ratio (x) = 0.06709 0.30806
# Poissons Ratio (y) = 0.12001 0.31414
# Poissons Ratio (z) = 0.36310 0.20699
#
# Static dielectric constant tensor:
#      x y z
#    x 2.116830 0.000000 0.079850 
#    y 0.000000 2.210320 0.000000 
#    z 0.079850 0.000000 2.073950 
# 
# From -- ./inp_files/65637.got.cif
#   From: 2010.05.17/outbox.cif.g08.bks.cpg/sg5_33_cif.got.tgz:65637.got - 2010.06.03 18:56:24.
