data_PCOD9128525
_publ_section_title
;
Structure prediction by ZEFSAII (Michael W. Deem and Ramdas Pophale) SiO2 
 PCOD9128525
Probable space group: C 2
;
_chemical_formula_sum "Si O2"
_cell_formula_units_Z 22
_cell_length_a 17.623125
_cell_length_b 6.693288
_cell_length_c 15.098174
_cell_angle_alpha 90.000000
_cell_angle_beta 149.664549
_cell_angle_gamma 90.000000
_cell_volume 899.479629
_symmetry_space_group_name_H-M "C 2"
_symmetry_group_IT_number 5
_symmetry_cell_setting 'monoclinic'
loop_
_space_group_symop_operation_xyz
x,y,z
-x,y,-z
1/2+x,1/2+y,z
1/2-x,1/2+y,-z
loop_
_atom_site_type_symbol
_atom_site_label
_atom_site_fract_x
_atom_site_fract_y
_atom_site_fract_z
Si Si1 0.230330 0.419750 0.767934
Si Si2 0.289930 0.755382 0.941720
Si Si3 0.500000 0.141113 0.000000
Si Si4 0.566116 0.815595 0.422220
Si Si5 0.989329 0.939741 0.252954
Si Si6 0.452067 0.050048 0.773163
O O1 0.273084 0.649185 0.830245
O O2 0.106153 0.354079 0.716693
O O3 0.161217 0.386608 0.601676
O O4 0.377501 0.284292 0.921893
O O5 0.123712 0.796287 0.808335
O O6 0.387562 0.593737 0.094508
O O7 0.378276 0.960870 0.044921
O O8 0.590361 0.021135 0.166642
O O9 0.580567 0.581943 0.411068
O O10 0.602894 0.932808 0.368745
O O11 0.072447 0.782518 0.274200
#
# Coordination Sequence:
#
# PCOD9128525 Si02
#       6
#     4   4   2   4   4   4
#     4  11  23  46  67 103 144 179 232 290 345 423
#     4  11  19  37  73  98 134 176 242 281 333 407
#     4  12  26  46  68 102 140 178 236 288 356 412
#     4  10  24  45  69 100 142 181 235 280 348 426
#     4  11  18  37  69  98 129 181 232 286 327 408
#     4  11  23  42  66 100 134 188 227 288 347 415
#
# _framework density 24.458584999999999
#
# number of rings (size 3 to 8) (size 9 to 14) (size 15 to 20)
#    0.000    1.091    5.455    2.182    0.000    0.727 
#   13.091    0.000    0.000    0.000    0.000    0.000 
#    0.000    0.000    0.000    0.000    0.000    0.000 
#
# Total GULP energy -61421.615934 kJ/mol
# GULP energy per Si atom -5583.783267 kJ/mol
# Density = 2.440292 g / cm^3
# Si number density = 24.458585 Si / 1000 Ang^3
#
#
#
# Elastic Constant Matrix: (Units=GPa)
#
#
# Indices 1 2 3 4 5 6 
#
# 1 78.0546 40.5092 41.9142 0.0000 -21.0068 0.0000
# 2 40.5092 124.3135 64.1968 0.0000 -28.1507 0.0000
# 3 41.9142 64.1968 148.2921 0.0000 -31.2539 0.0000
# 4 0.0000 0.0000 0.0000 40.6257 0.0000 -17.8246
# 5 -21.0068 -28.1507 -31.2539 0.0000 43.4715 0.0000
# 6 0.0000 0.0000 0.0000 -17.8246 0.0000 40.9435
#
#
#
# Elastic Compliance Matrix: (Units=1/GPa)
#
#
# Indices 1 2 3 4 5 6 
#
# 1 0.017007 -0.003288 -0.002475 0.000000 0.004310 0.000000
# 2 -0.003288 0.011658 -0.003372 0.000000 0.003536 0.000000
# 3 -0.002475 -0.003372 0.009653 0.000000 0.003560 0.000000
# 4 0.000000 0.000000 0.000000 0.030427 0.000000 0.013246
# 5 0.004310 0.003536 0.003560 0.000000 0.029936 0.000000
# 6 0.000000 0.000000 0.000000 0.013246 0.000000 0.030191
#
#
# Mechanical properties :
#
#
# Convention : Reuss Voigt Hill
#
# Bulk Modulus (GPa) = 49.88198 71.54452 60.71325
# Shear Modulus (GPa) = 32.50472 38.61081 35.55777
#
# Velocity S-wave (km/s) = 3.64946 3.97750 3.81700
# Velocity P-wave (km/s) = 6.18036 7.09991 6.65603
#
# Compressibility (1/GPa) = 0.02004732
#
# Stress axis : x y z
#
# Youngs Moduli (GPa) = 58.79965 85.78031 103.59110
#
# Poissons Ratio (x) = 0.28202 0.25643
# Poissons Ratio (y) = 0.19332 0.34933
# Poissons Ratio (z) = 0.14555 0.28927
#
# Static dielectric constant tensor:
#      x y z
#    x 2.022470 0.000000 0.017200 
#    y 0.000000 1.956260 0.000000 
#    z 0.017200 0.000000 1.988120 
# 
# From -- ./inp_files/56603.got.cif
#   From: 2010.05.17/outbox.cif.g08.bks.cpg/sg5_29_cif.got.tgz:56603.got - 2010.06.03 18:56:24.
