data_PCOD9128151
_publ_section_title
;
Structure prediction by ZEFSAII (Michael W. Deem and Ramdas Pophale) SiO2 
 PCOD9128151
Probable space group: C 2
;
_chemical_formula_sum "Si O2"
_cell_formula_units_Z 22
_cell_length_a 13.886286
_cell_length_b 4.847323
_cell_length_c 24.137345
_cell_angle_alpha 90.000000
_cell_angle_beta 150.438347
_cell_angle_gamma 90.000000
_cell_volume 801.569788
_symmetry_space_group_name_H-M "C 2"
_symmetry_group_IT_number 5
_symmetry_cell_setting 'monoclinic'
loop_
_space_group_symop_operation_xyz
x,y,z
-x,y,-z
1/2+x,1/2+y,z
1/2-x,1/2+y,-z
loop_
_atom_site_type_symbol
_atom_site_label
_atom_site_fract_x
_atom_site_fract_y
_atom_site_fract_z
Si Si1 0.500000 0.588480 0.500000
Si Si2 0.272932 0.594342 0.136185
Si Si3 0.263215 0.837644 0.541322
Si Si4 0.354472 0.364321 0.743050
Si Si5 0.183801 0.586864 0.770770
Si Si6 0.875049 0.474667 0.051775
O O1 0.597648 0.397548 0.502491
O O2 0.672381 0.764078 0.614924
O O3 0.486458 0.527354 0.214683
O O4 0.235554 0.900685 0.138847
O O5 0.281894 0.397203 0.193926
O O6 0.119637 0.530634 0.010875
O O7 0.212466 0.019976 0.461607
O O8 0.463431 0.976547 0.660004
O O9 0.269316 0.528514 0.753137
O O10 0.465353 0.102577 0.827296
O O11 0.816905 0.156593 0.027720
#
# Coordination Sequence:
#
# PCOD9128151 Si02
#       6
#     2   4   4   4   4   4
#     4  12  26  46  80 106 150 202 234 300 376 418
#     4  11  25  48  75 105 148 194 237 307 366 421
#     4  12  27  48  70 107 149 193 247 299 356 435
#     4  11  26  47  76 111 146 194 246 297 365 435
#     4  12  26  45  77 109 145 190 248 301 359 440
#     4  10  23  47  76 106 147 190 244 301 359 435
#
# _framework density 27.446144
#
# number of rings (size 3 to 8) (size 9 to 14) (size 15 to 20)
#    0.000    0.727    3.636    3.273    0.000    7.273 
#    0.000    5.455    0.000    0.000    0.000    0.000 
#    0.000    0.000    0.000    0.000    0.000    0.000 
#
# Total GULP energy -61748.799691 kJ/mol
# GULP energy per Si atom -5613.527245 kJ/mol
# Density = 2.738368 g / cm^3
# Si number density = 27.446144 Si / 1000 Ang^3
#
#
#
# Elastic Constant Matrix: (Units=GPa)
#
#
# Indices 1 2 3 4 5 6 
#
# 1 186.1058 24.2769 22.9384 -0.0019 -5.8094 0.0078
# 2 24.2769 74.3946 7.2681 -0.0057 -4.9365 0.0154
# 3 22.9384 7.2681 176.1641 0.0009 2.7822 0.0005
# 4 -0.0019 -0.0057 0.0009 41.5710 -0.0004 -5.0269
# 5 -5.8094 -4.9365 2.7822 -0.0004 47.3953 -0.0025
# 6 0.0078 0.0154 0.0005 -5.0269 -0.0025 38.9812
#
#
#
# Elastic Compliance Matrix: (Units=1/GPa)
#
#
# Indices 1 2 3 4 5 6 
#
# 1 0.005704 -0.001758 -0.000679 0.000000 0.000556 0.000000
# 2 -0.001758 0.014137 -0.000375 0.000001 0.001279 -0.000005
# 3 -0.000679 -0.000375 0.005788 0.000000 -0.000462 0.000000
# 4 0.000000 0.000001 0.000000 0.024436 0.000000 0.003151
# 5 0.000556 0.001279 -0.000462 0.000000 0.021328 0.000001
# 6 0.000000 -0.000005 0.000000 0.003151 0.000001 0.026060
#
#
# Mechanical properties :
#
#
# Convention : Reuss Voigt Hill
#
# Bulk Modulus (GPa) = 49.98670 60.62569 55.30620
# Shear Modulus (GPa) = 45.56083 51.06825 48.31454
#
# Velocity S-wave (km/s) = 4.07874 4.31823 4.20019
# Velocity P-wave (km/s) = 6.35875 6.85563 6.61186
#
# Compressibility (1/GPa) = 0.02000532
#
# Stress axis : x y z
#
# Youngs Moduli (GPa) = 175.32639 70.73640 172.78094
#
# Poissons Ratio (x) = 0.12436 0.11730
# Poissons Ratio (y) = 0.30823 0.06471
# Poissons Ratio (z) = 0.11903 0.02649
#
# Static dielectric constant tensor:
#      x y z
#    x 2.152170 0.000000 0.042580 
#    y 0.000000 2.073190 0.000000 
#    z 0.042580 0.000000 2.204850 
# 
# From -- ./inp_files/53899.got.cif
#   From: 2010.05.17/outbox.cif.g08.bks.cpg/sg5_27_cif.got.tgz:53899.got - 2010.06.03 18:56:24.
