data_PCOD9128475
_publ_section_title
;
Structure prediction by ZEFSAII (Michael W. Deem and Ramdas Pophale) SiO2 
 PCOD9128475
Probable space group: C 2
;
_chemical_formula_sum "Si O2"
_cell_formula_units_Z 14
_cell_length_a 5.291852
_cell_length_b 13.454145
_cell_length_c 8.188537
_cell_angle_alpha 90.000000
_cell_angle_beta 78.274983
_cell_angle_gamma 90.000000
_cell_volume 570.837267
_symmetry_space_group_name_H-M "C 2"
_symmetry_group_IT_number 5
_symmetry_cell_setting 'monoclinic'
loop_
_space_group_symop_operation_xyz
x,y,z
-x,y,-z
1/2+x,1/2+y,z
1/2-x,1/2+y,-z
loop_
_atom_site_type_symbol
_atom_site_label
_atom_site_fract_x
_atom_site_fract_y
_atom_site_fract_z
Si Si1 0.500000 0.066280 0.000000
Si Si2 0.205179 0.273127 0.604315
Si Si3 0.084123 0.908264 0.152012
Si Si4 0.806263 0.566789 0.676809
O O1 0.446775 0.106586 0.824469
O O2 0.747390 0.997745 0.939721
O O3 0.500000 0.267974 0.500000
O O4 0.235306 0.344557 0.754564
O O5 0.125150 0.160527 0.658743
O O6 0.000000 0.309395 0.500000
O O7 0.851229 0.965009 0.273929
O O8 0.000000 0.849160 0.000000
O O9 0.000000 0.552451 0.500000
#
# Coordination Sequence:
#
# PCOD9128475 Si02
#       4
#     2   4   4   4
#     4  10  24  44  72 108 138 200 244 300 384 430
#     4  11  28  46  74 114 144 195 254 306 375 448
#     4  10  25  47  72 107 148 196 245 309 373 442
#     4  10  25  47  75 107 148 196 248 308 376 443
#
# _framework density 24.525382
#
# number of rings (size 3 to 8) (size 9 to 14) (size 15 to 20)
#    0.000    1.714    0.000    0.000   22.000    0.000 
#    7.714    0.000    0.000    0.000    0.000    0.000 
#    0.000    0.000    0.000    0.000    0.000    0.000 
#
# Total GULP energy -39103.053719 kJ/mol
# GULP energy per Si atom -5586.150531 kJ/mol
# Density = 2.446956 g / cm^3
# Si number density = 24.525382 Si / 1000 Ang^3
#
#
#
# Elastic Constant Matrix: (Units=GPa)
#
#
# Indices 1 2 3 4 5 6 
#
# 1 100.4707 23.8310 62.4978 0.0000 16.4373 0.0000
# 2 23.8310 79.5299 60.0961 0.0000 13.4016 0.0000
# 3 62.4978 60.0961 204.8618 0.0000 39.2164 0.0000
# 4 0.0000 0.0000 0.0000 17.9986 0.0000 32.6332
# 5 16.4373 13.4016 39.2164 0.0000 64.3858 0.0000
# 6 0.0000 0.0000 0.0000 32.6332 0.0000 -0.5140
#
#
#
# Elastic Compliance Matrix: (Units=1/GPa)
#
#
# Indices 1 2 3 4 5 6 
#
# 1 0.012409 -0.001073 -0.003291 0.000000 -0.000940 0.000000
# 2 -0.001073 0.016264 -0.004356 0.000000 -0.000458 0.000000
# 3 -0.003291 -0.004356 0.007730 0.000000 -0.002961 0.000000
# 4 0.000000 0.000000 0.000000 0.000478 0.000000 0.030380
# 5 -0.000940 -0.000458 -0.002961 0.000000 0.017671 0.000000
# 6 0.000000 0.000000 0.000000 0.030380 0.000000 -0.016756
#
#
# Mechanical properties :
#
#
# Convention : Reuss Voigt Hill
#
# Bulk Modulus (GPa) = 52.73439 75.30135 64.01787
# Shear Modulus (GPa) = 81.22590 32.26992 56.74791
#
# Velocity S-wave (km/s) = 5.76116 3.63130 4.81546
# Velocity P-wave (km/s) = 8.11193 6.95355 7.55497
#
# Compressibility (1/GPa) = 0.01896296
#
# Stress axis : x y z
#
# Youngs Moduli (GPa) = 80.58992 61.48454 129.36633
#
# Poissons Ratio (x) = 0.06598 0.42571
# Poissons Ratio (y) = 0.08649 0.56352
# Poissons Ratio (z) = 0.26520 0.26783
#
# Static dielectric constant tensor:
#      x y z
#    x 1.974170 0.000000 0.022980 
#    y 0.000000 1.958070 0.000000 
#    z 0.022980 0.000000 2.156790 
# 
# From -- ./inp_files/11569.got.cif
#   From: 2010.05.17/outbox.cif.g08.bks.cpg/sg5_6_cif.got.tgz:11569.got - 2010.06.03 18:56:24.
