data_PCOD9128886
_publ_section_title
;
Structure prediction by ZEFSAII (Michael W. Deem and Ramdas Pophale) SiO2 
 PCOD9128886
Probable space group: C 2
;
_chemical_formula_sum "Si O2"
_cell_formula_units_Z 12
_cell_length_a 4.899933
_cell_length_b 23.023015
_cell_length_c 5.301227
_cell_angle_alpha 90.000000
_cell_angle_beta 54.057456
_cell_angle_gamma 90.000000
_cell_volume 484.175117
_symmetry_space_group_name_H-M "C 2"
_symmetry_group_IT_number 5
_symmetry_cell_setting 'monoclinic'
loop_
_space_group_symop_operation_xyz
x,y,z
-x,y,-z
1/2+x,1/2+y,z
1/2-x,1/2+y,-z
loop_
_atom_site_type_symbol
_atom_site_label
_atom_site_fract_x
_atom_site_fract_y
_atom_site_fract_z
Si Si1 0.000000 0.794570 0.500000
Si Si2 0.500000 0.709649 0.000000
Si Si3 0.500000 0.120951 0.500000
Si Si4 0.000000 0.966433 0.000000
Si Si5 0.500000 0.543648 0.500000
Si Si6 0.000000 0.380889 0.500000
O O1 0.256995 0.837235 0.490694
O O2 0.813171 0.754991 0.813822
O O3 0.676001 0.662367 0.721321
O O4 0.343025 0.080550 0.366691
O O5 0.966985 0.005144 0.768628
O O6 0.313306 0.923551 0.793043
#
# Coordination Sequence:
#
# PCOD9128886 Si02
#       6
#     2   2   2   2   2   2
#     4  11  25  46  73 108 147 192 247 309 372 444
#     4  10  25  46  74 108 146 194 247 308 374 444
#     4  11  27  46  75 110 151 196 251 307 376 446
#     4  12  29  50  78 114 154 202 253 310 376 450
#     4  12  29  51  77 114 155 201 253 312 374 450
#     4  12  27  47  75 110 151 197 251 308 376 446
#
# _framework density 24.784423
#
# number of rings (size 3 to 8) (size 9 to 14) (size 15 to 20)
#    0.000    0.667    0.000    5.000    0.000   25.333 
#    0.000    0.000    0.000    0.000    0.000    0.000 
#    0.000    0.000    0.000    0.000    0.000    0.000 
#
# Total GULP energy -33479.024732 kJ/mol
# GULP energy per Si atom -5579.837455 kJ/mol
# Density = 2.472801 g / cm^3
# Si number density = 24.784423 Si / 1000 Ang^3
#
#
#
# Elastic Constant Matrix: (Units=GPa)
#
#
# Indices 1 2 3 4 5 6 
#
# 1 177.0203 89.9084 50.8317 0.0000 18.3094 0.0000
# 2 89.9084 184.6130 89.5514 0.0000 11.1291 0.0000
# 3 50.8317 89.5514 160.1625 0.0000 -6.0472 0.0000
# 4 0.0000 0.0000 0.0000 38.9969 0.0000 -19.8436
# 5 18.3094 11.1291 -6.0472 0.0000 39.3696 0.0000
# 6 0.0000 0.0000 0.0000 -19.8436 0.0000 9.9389
#
#
#
# Elastic Compliance Matrix: (Units=1/GPa)
#
#
# Indices 1 2 3 4 5 6 
#
# 1 0.007821 -0.003269 -0.000761 0.000000 -0.002830 0.000000
# 2 -0.003269 0.009108 -0.004119 0.000000 -0.001687 0.000000
# 3 -0.000761 -0.004119 0.008897 0.000000 0.002885 0.000000
# 4 0.000000 0.000000 0.000000 -1.607139 0.000000 -3.208759
# 5 -0.002830 -0.001687 0.002885 0.000000 0.027637 0.000000
# 6 0.000000 0.000000 0.000000 -3.208759 0.000000 -6.305884
#
#
# Mechanical properties :
#
#
# Convention : Reuss Voigt Hill
#
# Bulk Modulus (GPa) = 104.95288 109.15320 107.05304
# Shear Modulus (GPa) = -0.63775 37.09470 18.22848
#
# Velocity S-wave (km/s) = -0.50782 3.87291 2.71492
# Velocity P-wave (km/s) = 6.48802 8.00849 7.28801
#
# Compressibility (1/GPa) = 0.00952809
#
# Stress axis : x y z
#
# Youngs Moduli (GPa) = 127.86725 109.78775 112.39422
#
# Poissons Ratio (x) = 0.35888 0.08555
# Poissons Ratio (y) = 0.41798 0.46296
# Poissons Ratio (z) = 0.09733 0.45222
#
# Static dielectric constant tensor:
#      x y z
#    x 1.892010 0.000000 0.001660 
#    y 0.000000 1.952570 0.000000 
#    z 0.001660 0.000000 1.943590 
# 
# From -- ./inp_files/483.got.cif
#   From: 2010.05.17/outbox.cif.g08.bks.cpg/sg5_1_cif.got.tgz:483.got - 2010.06.03 18:56:24.
