data_PCOD9128740
_publ_section_title
;
Structure prediction by ZEFSAII (Michael W. Deem and Ramdas Pophale) SiO2 
 PCOD9128740
Probable space group: C 2
;
_chemical_formula_sum "Si O2"
_cell_formula_units_Z 32
_cell_length_a 12.857907
_cell_length_b 16.574141
_cell_length_c 9.163228
_cell_angle_alpha 90.000000
_cell_angle_beta 47.572300
_cell_angle_gamma 90.000000
_cell_volume 1441.392384
_symmetry_space_group_name_H-M "C 2"
_symmetry_group_IT_number 5
_symmetry_cell_setting 'monoclinic'
loop_
_space_group_symop_operation_xyz
x,y,z
-x,y,-z
1/2+x,1/2+y,z
1/2-x,1/2+y,-z
loop_
_atom_site_type_symbol
_atom_site_label
_atom_site_fract_x
_atom_site_fract_y
_atom_site_fract_z
Si Si1 0.394197 0.599250 0.969185
Si Si2 0.405420 0.041478 0.734104
Si Si3 0.978635 0.234638 0.355457
Si Si4 0.741047 0.354836 0.559524
Si Si5 0.896617 0.492389 0.220512
Si Si6 0.136014 0.003768 0.287794
Si Si7 0.216040 0.364231 0.141809
Si Si8 0.558382 0.327995 0.300478
O O1 0.458145 0.676581 0.826662
O O2 0.394703 0.530761 0.846016
O O3 0.500000 0.579620 0.000000
O O4 0.226758 0.601872 0.165186
O O5 0.500000 0.034144 0.500000
O O6 0.513407 0.054394 0.765914
O O7 0.335679 0.955017 0.843438
O O8 0.073947 0.313936 0.269968
O O9 0.000000 0.201671 0.500000
O O10 0.824185 0.269523 0.466153
O O11 0.825012 0.426092 0.394732
O O12 0.733740 0.370807 0.739067
O O13 0.584294 0.349808 0.647754
O O14 0.773975 0.533558 0.240367
O O15 0.000000 0.454596 0.000000
O O16 0.000000 0.031583 0.500000
O O17 0.134329 0.906982 0.297088
O O18 0.326290 0.314280 0.936384
O O19 0.500000 0.279951 0.500000
#
# Coordination Sequence:
#
# PCOD9128740 Si02
#       8
#     4   4   4   4   4   4   4   4
#     4  12  28  45  67 100 139 192 237 294 360 429
#     4  12  24  42  69 108 140 180 237 301 358 421
#     4  10  24  49  71  94 135 190 238 282 357 437
#     4  11  22  38  69 101 134 181 226 293 355 412
#     4  12  21  38  65 106 139 177 229 294 356 410
#     4  11  23  39  63 101 141 183 219 282 359 418
#     4  11  21  41  70 101 139 177 231 293 353 419
#     4  11  22  35  61 106 140 172 221 289 348 406
#
# _framework density 22.200754
#
# number of rings (size 3 to 8) (size 9 to 14) (size 15 to 20)
#    0.000    0.750    7.500    1.125    3.500    1.500 
#    0.000    1.875    8.250    0.000    0.000    0.000 
#    0.000    0.000    0.000    0.000    0.000    0.000 
#
# Total GULP energy -89180.229477 kJ/mol
# GULP energy per Si atom -5573.764342 kJ/mol
# Density = 2.215022 g / cm^3
# Si number density = 22.200754 Si / 1000 Ang^3
#
#
#
# Elastic Constant Matrix: (Units=GPa)
#
#
# Indices 1 2 3 4 5 6 
#
# 1 185.8756 7.0250 43.3715 0.0000 2.6207 0.0000
# 2 7.0250 24.0114 2.6417 0.0000 3.0083 0.0000
# 3 43.3715 2.6417 137.0981 0.0000 1.0452 0.0000
# 4 0.0000 0.0000 0.0000 35.8507 0.0000 1.7876
# 5 2.6207 3.0083 1.0452 0.0000 41.2088 0.0000
# 6 0.0000 0.0000 0.0000 1.7876 0.0000 7.1701
#
#
#
# Elastic Compliance Matrix: (Units=1/GPa)
#
#
# Indices 1 2 3 4 5 6 
#
# 1 0.005865 -0.001488 -0.001825 0.000000 -0.000218 0.000000
# 2 -0.001488 0.042494 -0.000325 0.000000 -0.002999 0.000000
# 3 -0.001825 -0.000325 0.007878 0.000000 -0.000060 0.000000
# 4 0.000000 0.000000 0.000000 0.028245 0.000000 -0.007042
# 5 -0.000218 -0.002999 -0.000060 0.000000 0.024501 0.000000
# 6 0.000000 0.000000 0.000000 -0.007042 0.000000 0.141224
#
#
# Mechanical properties :
#
#
# Convention : Reuss Voigt Hill
#
# Bulk Modulus (GPa) = 20.42455 50.34017 35.38236
# Shear Modulus (GPa) = 18.26132 36.44240 27.35186
#
# Velocity S-wave (km/s) = 2.87113 4.05593 3.51383
# Velocity P-wave (km/s) = 4.49568 6.68269 5.69515
#
# Compressibility (1/GPa) = 0.04896068
#
# Stress axis : x y z
#
# Youngs Moduli (GPa) = 170.49963 23.53284 126.93328
#
# Poissons Ratio (x) = 0.03501 0.23167
# Poissons Ratio (y) = 0.25368 0.04128
# Poissons Ratio (z) = 0.31118 0.00765
#
# Static dielectric constant tensor:
#      x y z
#    x 1.828670 0.000000 0.010330 
#    y 0.000000 1.835200 0.000000 
#    z 0.010330 0.000000 1.864590 
# 
# From -- ./inp_files/21965.got.cif
#   From: 2010.05.17/outbox.cif.g08.bks.cpg/sg5_11_cif.got.tgz:21965.got - 2010.06.03 18:56:24.
