data_PCOD9128605
_publ_section_title
;
Structure prediction by ZEFSAII (Michael W. Deem and Ramdas Pophale) SiO2 
 PCOD9128605
Probable space group: C 2
;
_chemical_formula_sum "Si O2"
_cell_formula_units_Z 24
_cell_length_a 23.942778
_cell_length_b 8.904213
_cell_length_c 5.347380
_cell_angle_alpha 90.000000
_cell_angle_beta 110.840150
_cell_angle_gamma 90.000000
_cell_volume 1065.432725
_symmetry_space_group_name_H-M "C 2"
_symmetry_group_IT_number 5
_symmetry_cell_setting 'monoclinic'
loop_
_space_group_symop_operation_xyz
x,y,z
-x,y,-z
1/2+x,1/2+y,z
1/2-x,1/2+y,-z
loop_
_atom_site_type_symbol
_atom_site_label
_atom_site_fract_x
_atom_site_fract_y
_atom_site_fract_z
Si Si1 0.240605 0.502160 0.192410
Si Si2 0.682501 0.700415 0.037507
Si Si3 0.931319 0.542261 0.478445
Si Si4 0.645935 0.485246 0.344224
Si Si5 0.068187 0.187216 0.532523
Si Si6 0.628318 0.172449 0.122812
O O1 0.199534 0.369591 0.028495
O O2 0.299645 0.423520 0.401695
O O3 0.194012 0.601823 0.275348
O O4 0.268248 0.603920 0.022980
O O5 0.678212 0.639853 0.309041
O O6 0.616494 0.669090 0.828971
O O7 0.923664 0.363431 0.528546
O O8 0.912633 0.627146 0.703884
O O9 0.000000 0.561291 0.500000
O O10 0.894912 0.605665 0.178969
O O11 0.587244 0.553278 0.377167
O O12 0.632454 0.353717 0.127884
O O13 0.000000 0.169945 0.500000
#
# Coordination Sequence:
#
# PCOD9128605 Si02
#       6
#     4   4   4   4   4   4
#     4  11  24  40  70  99 144 183 239 292 365 431
#     4  11  23  43  66 101 135 186 235 296 356 430
#     4  11  26  49  73 103 139 193 243 295 357 430
#     4  11  26  41  68 103 143 186 234 300 365 427
#     4  10  24  46  71  99 138 189 243 294 355 431
#     4  12  26  45  74 105 145 186 238 300 361 429
#
# _framework density 22.526056000000001
#
# number of rings (size 3 to 8) (size 9 to 14) (size 15 to 20)
#    0.000    1.000    1.667    3.500    9.333    4.000 
#    3.000    0.000    0.000    0.000    0.000    0.000 
#    0.000    0.000    0.000    0.000    0.000    0.000 
#
# Total GULP energy -66942.117148 kJ/mol
# GULP energy per Si atom -5578.509762 kJ/mol
# Density = 2.247479 g / cm^3
# Si number density = 22.526056 Si / 1000 Ang^3
#
#
#
# Elastic Constant Matrix: (Units=GPa)
#
#
# Indices 1 2 3 4 5 6 
#
# 1 119.7143 53.5585 18.8824 0.0000 13.0166 0.0000
# 2 53.5585 124.0390 29.9091 0.0000 20.2559 0.0000
# 3 18.8824 29.9091 38.6472 0.0000 -4.4443 0.0000
# 4 0.0000 0.0000 0.0000 30.1849 0.0000 -3.8914
# 5 13.0166 20.2559 -4.4443 0.0000 15.0610 0.0000
# 6 0.0000 0.0000 0.0000 -3.8914 0.0000 27.4495
#
#
#
# Elastic Compliance Matrix: (Units=1/GPa)
#
#
# Indices 1 2 3 4 5 6 
#
# 1 0.010942 -0.002496 -0.004261 0.000000 -0.007357 0.000000
# 2 -0.002496 0.016620 -0.014456 0.000000 -0.024461 0.000000
# 3 -0.004261 -0.014456 0.043272 0.000000 0.035893 0.000000
# 4 0.000000 0.000000 0.000000 0.033746 0.000000 0.004784
# 5 -0.007357 -0.024461 0.035893 0.000000 0.116245 0.000000
# 6 0.000000 0.000000 0.000000 0.004784 0.000000 0.037109
#
#
# Mechanical properties :
#
#
# Convention : Reuss Voigt Hill
#
# Bulk Modulus (GPa) = 35.19988 54.12229 44.66109
# Shear Modulus (GPa) = 16.13806 26.54244 21.34025
#
# Velocity S-wave (km/s) = 2.67950 3.43636 3.08126
# Velocity P-wave (km/s) = 5.02326 6.31058 5.70336
#
# Compressibility (1/GPa) = 0.02840918
#
# Stress axis : x y z
#
# Youngs Moduli (GPa) = 91.39315 60.16898 23.10985
#
# Poissons Ratio (x) = 0.15017 0.09846
# Poissons Ratio (y) = 0.22809 0.33407
# Poissons Ratio (z) = 0.38939 0.86979
#
# Static dielectric constant tensor:
#      x y z
#    x 1.865080 0.000000 0.049340 
#    y 0.000000 1.875660 0.000000 
#    z 0.049340 0.000000 1.976960 
# 
# From -- ./inp_files/10131.got.cif
#   From: 2010.05.17/outbox.cif.g08.bks.cpg/sg5_6_cif.got.tgz:10131.got - 2010.06.03 18:56:24.
