data_PCOD9128353
_publ_section_title
;
Structure prediction by ZEFSAII (Michael W. Deem and Ramdas Pophale) SiO2 
 PCOD9128353
Probable space group: C 2
;
_chemical_formula_sum "Si O2"
_cell_formula_units_Z 28
_cell_length_a 21.281526
_cell_length_b 10.127588
_cell_length_c 12.212252
_cell_angle_alpha 90.000000
_cell_angle_beta 152.119404
_cell_angle_gamma 90.000000
_cell_volume 1230.856340
_symmetry_space_group_name_H-M "C 2"
_symmetry_group_IT_number 5
_symmetry_cell_setting 'monoclinic'
loop_
_space_group_symop_operation_xyz
x,y,z
-x,y,-z
1/2+x,1/2+y,z
1/2-x,1/2+y,-z
loop_
_atom_site_type_symbol
_atom_site_label
_atom_site_fract_x
_atom_site_fract_y
_atom_site_fract_z
Si Si1 0.585653 0.513260 0.887610
Si Si2 0.379259 0.013316 0.232249
Si Si3 0.216915 0.886276 0.278583
Si Si4 0.379042 0.124617 0.985368
Si Si5 0.134522 0.353888 0.137121
Si Si6 0.990132 0.288981 0.279063
Si Si7 0.388349 0.293846 0.652810
O O1 0.728503 0.515628 0.045868
O O2 0.642286 0.504716 0.100533
O O3 0.495842 0.631933 0.699934
O O4 0.488994 0.385249 0.736847
O O5 0.500000 0.062039 0.500000
O O6 0.416993 0.860373 0.266078
O O7 0.373333 0.086341 0.104876
O O8 0.377539 0.878216 0.538166
O O9 0.148346 0.863405 0.289501
O O10 0.193974 0.757832 0.165293
O O11 0.535453 0.158734 0.204529
O O12 0.331770 0.006814 0.834702
O O13 0.252378 0.278764 0.378523
O O14 0.106570 0.301282 0.973892
O O15 0.000000 0.344288 0.000000
#
# Coordination Sequence:
#
# PCOD9128353 Si02
#       7
#     4   4   4   4   4   4   4
#     4  11  25  42  70 102 131 189 239 288 352 419
#     4  11  25  46  68  97 142 189 239 294 352 421
#     4  11  22  47  68 105 144 179 235 290 358 428
#     4  10  24  42  68  98 136 187 232 288 349 410
#     4  11  22  41  64 101 138 180 228 280 353 422
#     4  11  25  42  67 101 141 183 234 288 358 419
#     4  11  24  44  70 105 145 181 233 294 356 425
#
# _framework density 22.748389
#
# number of rings (size 3 to 8) (size 9 to 14) (size 15 to 20)
#    0.000    1.143    2.857    3.429    6.000    1.143 
#    2.571    5.714    0.000    0.857    0.000    0.000 
#    0.000    0.000    0.000    0.000    0.000    0.000 
#
# Total GULP energy -78118.882230 kJ/mol
# GULP energy per Si atom -5579.920159 kJ/mol
# Density = 2.269661 g / cm^3
# Si number density = 22.748389 Si / 1000 Ang^3
#
#
#
# Elastic Constant Matrix: (Units=GPa)
#
#
# Indices 1 2 3 4 5 6 
#
# 1 75.7069 -25.7386 18.0511 0.0000 10.9368 0.0000
# 2 -25.7386 43.2858 -8.8964 0.0000 4.1584 0.0000
# 3 18.0511 -8.8964 105.8516 0.0000 2.6236 0.0000
# 4 0.0000 0.0000 0.0000 22.5012 0.0000 -3.5553
# 5 10.9368 4.1584 2.6236 0.0000 37.4740 0.0000
# 6 0.0000 0.0000 0.0000 -3.5553 0.0000 4.5362
#
#
#
# Elastic Compliance Matrix: (Units=1/GPa)
#
#
# Indices 1 2 3 4 5 6 
#
# 1 0.018424 0.011157 -0.002044 0.000000 -0.006472 0.000000
# 2 0.011157 0.030551 0.000831 0.000000 -0.006705 0.000000
# 3 -0.002044 0.000831 0.009870 0.000000 -0.000187 0.000000
# 4 0.000000 0.000000 0.000000 0.050724 0.000000 0.039755
# 5 -0.006472 -0.006705 -0.000187 0.000000 0.029331 0.000000
# 6 0.000000 0.000000 0.000000 0.039755 0.000000 0.251608
#
#
# Mechanical properties :
#
#
# Convention : Reuss Voigt Hill
#
# Bulk Modulus (GPa) = 12.70080 21.29740 16.99910
# Shear Modulus (GPa) = 12.59876 28.99750 20.79813
#
# Velocity S-wave (km/s) = 2.35591 3.57417 3.02697
# Velocity P-wave (km/s) = 3.60496 5.13960 4.43910
#
# Compressibility (1/GPa) = 0.07873518
#
# Stress axis : x y z
#
# Youngs Moduli (GPa) = 54.27609 32.73166 101.31492
#
# Poissons Ratio (x) = -0.36519 0.20707
# Poissons Ratio (y) = -0.60557 -0.08422
# Poissons Ratio (z) = 0.11093 -0.02721
#
# Static dielectric constant tensor:
#      x y z
#    x 1.830260 0.000000 0.002160 
#    y 0.000000 1.988370 0.000000 
#    z 0.002160 0.000000 1.895320 
# 
# From -- ./inp_files/46442.got.cif
#   From: 2010.05.17/outbox.cif.g08.bks.cpg/sg5_24_cif.got.tgz:46442.got - 2010.06.03 18:56:24.
