data_PCOD9128661
_publ_section_title
;
Structure prediction by ZEFSAII (Michael W. Deem and Ramdas Pophale) SiO2 
 PCOD9128661
Probable space group: C 2
;
_chemical_formula_sum "Si O2"
_cell_formula_units_Z 20
_cell_length_a 14.020611
_cell_length_b 4.818544
_cell_length_c 13.107635
_cell_angle_alpha 90.000000
_cell_angle_beta 111.990557
_cell_angle_gamma 90.000000
_cell_volume 821.111020
_symmetry_space_group_name_H-M "C 2"
_symmetry_group_IT_number 5
_symmetry_cell_setting 'monoclinic'
loop_
_space_group_symop_operation_xyz
x,y,z
-x,y,-z
1/2+x,1/2+y,z
1/2-x,1/2+y,-z
loop_
_atom_site_type_symbol
_atom_site_label
_atom_site_fract_x
_atom_site_fract_y
_atom_site_fract_z
Si Si1 0.500000 0.559310 0.000000
Si Si2 0.556183 0.274391 0.828282
Si Si3 0.350400 0.552031 0.778547
Si Si4 0.813181 0.086770 0.551595
Si Si5 0.134670 0.285136 0.743875
Si Si6 0.000000 0.185108 0.500000
O O1 0.568148 0.371810 0.949964
O O2 0.415538 0.703102 0.893769
O O3 0.435546 0.338900 0.767249
O O4 0.620290 0.468696 0.775442
O O5 0.585103 0.963821 0.815106
O O6 0.324971 0.724081 0.667664
O O7 0.250170 0.392563 0.776640
O O8 0.752719 0.312870 0.462483
O O9 0.916908 0.019270 0.532807
O O10 0.066351 0.338121 0.614636
#
# Coordination Sequence:
#
# PCOD9128661 Si02
#       6
#     2   4   4   4   4   2
#     4   8  22  52  68 104 140 184 228 302 334 416
#     4  10  26  46  66 106 135 179 235 287 337 418
#     4  10  24  47  71 104 139 186 232 287 351 407
#     4  12  28  44  71 103 144 187 232 287 350 414
#     4  12  26  42  73 100 142 184 231 282 353 409
#     4  12  26  44  70 106 142 190 230 286 346 422
#
# _framework density 24.357240000000001
#
# number of rings (size 3 to 8) (size 9 to 14) (size 15 to 20)
#    1.200    0.000    4.000    0.000    5.600    5.600 
#    0.000    0.000    0.000    0.000    0.000    0.000 
#    0.000    0.000    0.000    0.000    0.000    0.000 
#
# Total GULP energy -55810.904068 kJ/mol
# GULP energy per Si atom -5581.090407 kJ/mol
# Density = 2.430180 g / cm^3
# Si number density = 24.357240 Si / 1000 Ang^3
#
#
#
# Elastic Constant Matrix: (Units=GPa)
#
#
# Indices 1 2 3 4 5 6 
#
# 1 136.1312 -0.0718 30.5358 0.0000 -4.5046 0.0000
# 2 -0.0718 54.8498 4.8365 0.0000 4.4788 0.0000
# 3 30.5358 4.8365 144.9720 0.0000 -0.8757 0.0000
# 4 0.0000 0.0000 0.0000 21.3332 0.0000 -9.6728
# 5 -4.5046 4.4788 -0.8757 0.0000 34.2803 0.0000
# 6 0.0000 0.0000 0.0000 -9.6728 0.0000 14.9097
#
#
#
# Elastic Compliance Matrix: (Units=1/GPa)
#
#
# Indices 1 2 3 4 5 6 
#
# 1 0.007743 0.000075 -0.001628 0.000000 0.000966 0.000000
# 2 0.000075 0.018487 -0.000647 0.000000 -0.002422 0.000000
# 3 -0.001628 -0.000647 0.007263 0.000000 0.000056 0.000000
# 4 0.000000 0.000000 0.000000 0.066410 0.000000 0.043084
# 5 0.000966 -0.002422 0.000056 0.000000 0.029616 0.000000
# 6 0.000000 0.000000 0.000000 0.043084 0.000000 0.095021
#
#
# Mechanical properties :
#
#
# Convention : Reuss Voigt Hill
#
# Bulk Modulus (GPa) = 34.37340 45.17267 39.77304
# Shear Modulus (GPa) = 20.95233 34.14814 27.55024
#
# Velocity S-wave (km/s) = 2.93611 3.74835 3.36682
# Velocity P-wave (km/s) = 5.06332 6.10898 5.61056
#
# Compressibility (1/GPa) = 0.02909226
#
# Stress axis : x y z
#
# Youngs Moduli (GPa) = 129.14987 54.09337 137.69118
#
# Poissons Ratio (x) = -0.00404 0.22410
# Poissons Ratio (y) = -0.00966 0.08910
# Poissons Ratio (z) = 0.21020 0.03501
#
# Static dielectric constant tensor:
#      x y z
#    x 1.889180 0.000000 0.026810 
#    y 0.000000 1.829080 0.000000 
#    z 0.026810 0.000000 2.078530 
# 
# From -- ./inp_files/41016.got.cif
#   From: 2010.05.17/outbox.cif.g08.bks.cpg/sg5_21_cif.got.tgz:41016.got - 2010.06.03 18:56:24.
