data_PCOD9128815
_publ_section_title
;
Structure prediction by ZEFSAII (Michael W. Deem and Ramdas Pophale) SiO2 
 PCOD9128815
Probable space group: C 2
;
_chemical_formula_sum "Si O2"
_cell_formula_units_Z 22
_cell_length_a 12.436112
_cell_length_b 13.184462
_cell_length_c 6.991365
_cell_angle_alpha 90.000000
_cell_angle_beta 125.716223
_cell_angle_gamma 90.000000
_cell_volume 930.724886
_symmetry_space_group_name_H-M "C 2"
_symmetry_group_IT_number 5
_symmetry_cell_setting 'monoclinic'
loop_
_space_group_symop_operation_xyz
x,y,z
-x,y,-z
1/2+x,1/2+y,z
1/2-x,1/2+y,-z
loop_
_atom_site_type_symbol
_atom_site_label
_atom_site_fract_x
_atom_site_fract_y
_atom_site_fract_z
Si Si1 0.651327 0.540160 0.862131
Si Si2 0.000000 0.666291 0.000000
Si Si3 0.343411 0.938277 0.325548
Si Si4 0.358298 0.728175 0.870029
Si Si5 0.348165 0.322393 0.082465
Si Si6 0.757593 0.077361 0.449936
O O1 0.582363 0.432446 0.837432
O O2 0.651569 0.555769 0.637634
O O3 0.797999 0.510744 0.100700
O O4 0.614241 0.638748 0.944359
O O5 0.055187 0.736903 0.887338
O O6 0.882027 0.603968 0.788379
O O7 0.500000 0.930959 0.500000
O O8 0.272944 0.986077 0.436521
O O9 0.269098 0.834340 0.197098
O O10 0.235375 0.794855 0.816013
O O11 0.313975 0.669392 0.634478
O O12 0.500000 0.783842 0.000000
#
# Coordination Sequence:
#
# PCOD9128815 Si02
#       6
#     4   2   4   4   4   4
#     4   9  22  45  64 103 134 181 228 280 356 406
#     4  12  24  44  74 108 140 174 246 290 340 428
#     4   9  21  40  69  98 139 181 236 277 339 417
#     4  11  25  47  66 101 142 177 238 286 345 415
#     4  10  25  43  67 102 140 175 236 288 341 407
#     4  11  23  42  76  96 139 191 223 288 355 401
#
# _framework density 23.637488999999999
#
# number of rings (size 3 to 8) (size 9 to 14) (size 15 to 20)
#    1.091    0.727    1.818    1.091    3.818    5.091 
#    0.000    1.818    0.000    0.000    0.000    0.000 
#    0.000    0.000    0.000    0.000    0.000    0.000 
#
# Total GULP energy -61453.500308 kJ/mol
# GULP energy per Si atom -5586.681846 kJ/mol
# Density = 2.358369 g / cm^3
# Si number density = 23.637489 Si / 1000 Ang^3
#
#
#
# Elastic Constant Matrix: (Units=GPa)
#
#
# Indices 1 2 3 4 5 6 
#
# 1 81.0575 -4.8295 22.5953 0.0000 3.9997 0.0000
# 2 -4.8295 40.2703 10.1412 0.0000 -9.6099 0.0000
# 3 22.5953 10.1412 101.1376 0.0000 -23.2869 0.0000
# 4 0.0000 0.0000 0.0000 34.5257 0.0000 -8.0110
# 5 3.9997 -9.6099 -23.2869 0.0000 39.3001 0.0000
# 6 0.0000 0.0000 0.0000 -8.0110 0.0000 -2.0958
#
#
#
# Elastic Compliance Matrix: (Units=1/GPa)
#
#
# Indices 1 2 3 4 5 6 
#
# 1 0.013733 0.001866 -0.004020 0.000000 -0.003324 0.000000
# 2 0.001866 0.026783 -0.001897 0.000000 0.005235 0.000000
# 3 -0.004020 -0.001897 0.012695 0.000000 0.007468 0.000000
# 4 0.000000 0.000000 0.000000 0.015350 0.000000 -0.058673
# 5 -0.003324 0.005235 0.007468 0.000000 0.031489 0.000000
# 6 0.000000 0.000000 0.000000 -0.058673 0.000000 -0.252870
#
#
# Mechanical properties :
#
#
# Convention : Reuss Voigt Hill
#
# Bulk Modulus (GPa) = 22.16868 30.91994 26.54431
# Shear Modulus (GPa) = -38.55614 27.31656 -5.61979
#
# Velocity S-wave (km/s) = -4.04312 3.40317 -1.54358
# Velocity P-wave (km/s) = 3.52091 5.34335 2.84205
#
# Compressibility (1/GPa) = 0.04510868
#
# Stress axis : x y z
#
# Youngs Moduli (GPa) = 72.81816 37.33705 78.76849
#
# Poissons Ratio (x) = -0.06968 0.31669
# Poissons Ratio (y) = -0.13590 0.14944
# Poissons Ratio (z) = 0.29276 0.07083
#
# Static dielectric constant tensor:
#      x y z
#    x 1.921530 0.000000 -0.014070 
#    y 0.000000 1.902680 0.000000 
#    z -0.014070 0.000000 1.895530 
# 
# From -- ./inp_files/5220.got.cif
#   From: 2010.05.17/outbox.cif.g08.bks.cpg/sg5_3_cif.got.tgz:5220.got - 2010.06.03 18:56:24.
