data_PCOD9128769
_publ_section_title
;
Structure prediction by ZEFSAII (Michael W. Deem and Ramdas Pophale) SiO2 
 PCOD9128769
Probable space group: C 2
;
_chemical_formula_sum "Si O2"
_cell_formula_units_Z 18
_cell_length_a 18.689789
_cell_length_b 6.676769
_cell_length_c 14.740725
_cell_angle_alpha 90.000000
_cell_angle_beta 20.290783
_cell_angle_gamma 90.000000
_cell_volume 637.895608
_symmetry_space_group_name_H-M "C 2"
_symmetry_group_IT_number 5
_symmetry_cell_setting 'monoclinic'
loop_
_space_group_symop_operation_xyz
x,y,z
-x,y,-z
1/2+x,1/2+y,z
1/2-x,1/2+y,-z
loop_
_atom_site_type_symbol
_atom_site_label
_atom_site_fract_x
_atom_site_fract_y
_atom_site_fract_z
Si Si1 0.000000 0.281831 0.000000
Si Si2 0.557478 0.011998 0.701659
Si Si3 0.552158 0.326184 0.542752
Si Si4 0.470396 0.574285 0.843607
Si Si5 0.815051 0.214343 0.792634
O O1 0.212040 0.396378 0.736871
O O2 0.966268 0.140725 0.953795
O O3 0.541861 0.152814 0.630788
O O4 0.797620 0.988035 0.442591
O O5 0.414094 0.113192 0.949186
O O6 0.222351 0.925703 0.935670
O O7 0.500000 0.268434 0.500000
O O8 0.416260 0.522391 0.724319
O O9 0.471464 0.788247 0.791772
O O10 0.000000 0.252551 0.500000
#
# Coordination Sequence:
#
# PCOD9128769 Si02
#       5
#     2   4   4   4   4
#     4  10  24  50  90 120 180 240 294 376 452 546
#     4  11  24  51  89 130 178 243 301 371 452 553
#     4  10  24  53  88 131 184 232 305 379 462 539
#     4  11  23  49  88 131 177 237 304 367 456 546
#     4  11  25  51  82 131 183 227 296 377 450 533
#
# _framework density 28.217783000000001
#
# number of rings (size 3 to 8) (size 9 to 14) (size 15 to 20)
#    0.000    1.333    2.222    2.667    0.000    3.556 
#   16.000   18.889    0.000    0.000    0.000    0.000 
#    0.000    0.000    0.000    0.000    0.000    0.000 
#
# Total GULP energy -50306.127584 kJ/mol
# GULP energy per Si atom -5589.569732 kJ/mol
# Density = 2.815356 g / cm^3
# Si number density = 28.217783 Si / 1000 Ang^3
#
#
#
# Elastic Constant Matrix: (Units=GPa)
#
#
# Indices 1 2 3 4 5 6 
#
# 1 159.4874 103.1039 81.1570 0.0000 15.9073 0.0001
# 2 103.1039 220.6723 122.6088 -0.0017 4.0598 0.0003
# 3 81.1570 122.6088 309.6920 -0.0012 -17.1233 0.0006
# 4 0.0000 -0.0017 -0.0012 86.3470 0.0005 9.1846
# 5 15.9073 4.0598 -17.1233 0.0005 64.6025 0.0003
# 6 0.0001 0.0003 0.0006 9.1846 0.0003 47.1351
#
#
#
# Elastic Compliance Matrix: (Units=1/GPa)
#
#
# Indices 1 2 3 4 5 6 
#
# 1 0.009530 -0.003778 -0.001135 0.000000 -0.002410 0.000000
# 2 -0.003778 0.007370 -0.001930 0.000000 -0.000045 0.000000
# 3 -0.001135 -0.001930 0.004377 0.000000 0.001561 0.000000
# 4 0.000000 0.000000 0.000000 0.011826 0.000000 -0.002304
# 5 -0.002410 -0.000045 0.001561 0.000000 0.016489 0.000000
# 6 0.000000 0.000000 0.000000 -0.002304 0.000000 0.021665
#
#
# Mechanical properties :
#
#
# Convention : Reuss Voigt Hill
#
# Bulk Modulus (GPa) = 131.73579 144.84342 138.28961
# Shear Modulus (GPa) = 57.15968 65.14904 61.15436
#
# Velocity S-wave (km/s) = 4.50562 4.81020 4.66040
# Velocity P-wave (km/s) = 8.59385 9.07153 8.83592
#
# Compressibility (1/GPa) = 0.00759095
#
# Stress axis : x y z
#
# Youngs Moduli (GPa) = 104.92827 135.68500 228.46716
#
# Poissons Ratio (x) = 0.51259 0.25933
# Poissons Ratio (y) = 0.39640 0.44101
# Poissons Ratio (z) = 0.11910 0.26191
#
# Static dielectric constant tensor:
#      x y z
#    x 2.343190 0.000000 0.059400 
#    y 0.000000 2.218570 0.000000 
#    z 0.059400 0.000000 2.143350 
# 
# From -- ./inp_files/4614.got.cif
#   From: 2010.05.17/outbox.cif.g08.bks.cpg/sg5_3_cif.got.tgz:4614.got - 2010.06.03 18:56:24.
