data_PCOD9128772
_publ_section_title
;
Structure prediction by ZEFSAII (Michael W. Deem and Ramdas Pophale) SiO2 
 PCOD9128772
Probable space group: C 2
;
_chemical_formula_sum "Si O2"
_cell_formula_units_Z 16
_cell_length_a 19.069502
_cell_length_b 4.867999
_cell_length_c 13.508216
_cell_angle_alpha 90.000000
_cell_angle_beta 152.065717
_cell_angle_gamma 90.000000
_cell_volume 587.433869
_symmetry_space_group_name_H-M "C 2"
_symmetry_group_IT_number 5
_symmetry_cell_setting 'monoclinic'
loop_
_space_group_symop_operation_xyz
x,y,z
-x,y,-z
1/2+x,1/2+y,z
1/2-x,1/2+y,-z
loop_
_atom_site_type_symbol
_atom_site_label
_atom_site_fract_x
_atom_site_fract_y
_atom_site_fract_z
Si Si1 0.579364 0.421390 0.843598
Si Si2 0.301634 0.762393 0.501795
Si Si3 0.382245 0.058756 0.280138
Si Si4 0.638370 0.550589 0.118489
O O1 0.477233 0.693636 0.708658
O O2 0.531534 0.249038 0.689064
O O3 0.760288 0.389925 0.066415
O O4 0.560264 0.356976 0.936803
O O5 0.229559 0.480004 0.450384
O O6 0.229669 0.878268 0.312454
O O7 0.500000 0.917363 0.500000
O O8 0.260890 0.207980 0.203271
O O9 0.500000 0.696419 0.000000
#
# Coordination Sequence:
#
# PCOD9128772 Si02
#       4
#     4   4   4   4
#     4  10  26  46  76 120 163 209 266 333 398 483
#     4  12  27  51  85 119 163 213 270 337 401 473
#     4  10  25  45  75 113 161 212 259 323 405 474
#     4  10  24  51  77 122 153 217 269 333 398 479
#
# _framework density 27.237107000000002
#
# number of rings (size 3 to 8) (size 9 to 14) (size 15 to 20)
#    1.500    0.000    2.500    0.000    7.000    2.000 
#    9.000    0.000    0.000    0.000    0.000    0.000 
#    0.000    0.000    0.000    0.000    0.000    0.000 
#
# Total GULP energy -44585.600752 kJ/mol
# GULP energy per Si atom -5573.200094 kJ/mol
# Density = 2.717511 g / cm^3
# Si number density = 27.237107 Si / 1000 Ang^3
#
#
#
# Elastic Constant Matrix: (Units=GPa)
#
#
# Indices 1 2 3 4 5 6 
#
# 1 151.5793 26.6121 40.4281 -0.0002 -5.8692 -0.0003
# 2 26.6121 54.5911 34.7231 0.0029 6.1011 0.0018
# 3 40.4281 34.7231 196.5493 0.0001 -22.9748 0.0002
# 4 -0.0002 0.0029 0.0001 31.7981 0.0000 5.5869
# 5 -5.8692 6.1011 -22.9748 0.0000 50.3612 -0.0001
# 6 -0.0003 0.0018 0.0002 5.5869 -0.0001 41.2929
#
#
#
# Elastic Compliance Matrix: (Units=1/GPa)
#
#
# Indices 1 2 3 4 5 6 
#
# 1 0.007416 -0.003158 -0.000868 0.000000 0.000851 0.000000
# 2 -0.003158 0.022947 -0.003985 -0.000002 -0.004966 -0.000001
# 3 -0.000868 -0.003985 0.006354 0.000000 0.003280 0.000000
# 4 0.000000 -0.000002 0.000000 0.032214 0.000000 -0.004359
# 5 0.000851 -0.004966 0.003280 0.000000 0.022054 0.000000
# 6 0.000000 -0.000001 0.000000 -0.004359 0.000000 0.024807
#
#
# Mechanical properties :
#
#
# Convention : Reuss Voigt Hill
#
# Bulk Modulus (GPa) = 48.32097 67.36069 57.84083
# Shear Modulus (GPa) = 36.04586 44.75419 40.40003
#
# Velocity S-wave (km/s) = 3.64182 4.05796 3.85550
# Velocity P-wave (km/s) = 5.95509 6.83673 6.41109
#
# Compressibility (1/GPa) = 0.02069495
#
# Stress axis : x y z
#
# Youngs Moduli (GPa) = 134.84099 43.57844 157.38842
#
# Poissons Ratio (x) = 0.13763 0.13662
# Poissons Ratio (y) = 0.42586 0.62716
# Poissons Ratio (z) = 0.11704 0.17365
#
# Static dielectric constant tensor:
#      x y z
#    x 2.138220 0.000000 0.077890 
#    y 0.000000 2.163820 0.000000 
#    z 0.077890 0.000000 2.151780 
# 
# From -- ./inp_files/22376.got.cif
#   From: 2010.05.17/outbox.cif.g08.bks.cpg/sg5_12_cif.got.tgz:22376.got - 2010.06.03 18:56:24.
