data_PCOD9128296
_publ_section_title
;
Structure prediction by ZEFSAII (Michael W. Deem and Ramdas Pophale) SiO2 
 PCOD9128296
Probable space group: C 2
;
_chemical_formula_sum "Si O2"
_cell_formula_units_Z 24
_cell_length_a 10.755949
_cell_length_b 8.821136
_cell_length_c 12.381928
_cell_angle_alpha 90.000000
_cell_angle_beta 112.044241
_cell_angle_gamma 90.000000
_cell_volume 1088.909407
_symmetry_space_group_name_H-M "C 2"
_symmetry_group_IT_number 5
_symmetry_cell_setting 'monoclinic'
loop_
_space_group_symop_operation_xyz
x,y,z
-x,y,-z
1/2+x,1/2+y,z
1/2-x,1/2+y,-z
loop_
_atom_site_type_symbol
_atom_site_label
_atom_site_fract_x
_atom_site_fract_y
_atom_site_fract_z
Si Si1 0.203718 0.505790 0.854333
Si Si2 0.963802 0.580427 0.610789
Si Si3 0.243534 0.654647 0.081447
Si Si4 0.189906 0.444760 0.259612
Si Si5 0.949578 0.128260 0.803641
Si Si6 0.000288 0.927351 0.378554
O O1 0.232006 0.332240 0.894879
O O2 0.342994 0.559704 0.849449
O O3 0.089003 0.533698 0.727826
O O4 0.168922 0.603856 0.949007
O O5 0.838756 0.502612 0.628991
O O6 0.000000 0.537775 0.500000
O O7 0.936035 0.760667 0.603521
O O8 0.178239 0.575998 0.165332
O O9 0.396814 0.596955 0.116648
O O10 0.088778 0.305579 0.209301
O O11 0.344052 0.395293 0.299618
O O12 0.936282 0.046951 0.682949
O O13 0.000000 0.987896 0.500000
#
# Coordination Sequence:
#
# PCOD9128296 Si02
#       6
#     4   4   4   4   4   4
#     4  12  24  45  70  98 136 178 222 286 334 404
#     4  11  25  45  68 100 137 178 224 275 340 400
#     4  11  26  44  68  99 134 177 227 277 345 395
#     4  11  23  45  67  98 138 175 224 283 333 403
#     4  11  23  44  66  99 134 173 225 278 339 398
#     4  10  24  41  67 100 133 181 226 274 334 401
#
# _framework density 22.040402
#
# number of rings (size 3 to 8) (size 9 to 14) (size 15 to 20)
#    0.000    1.000    3.333    2.500    4.667    1.333 
#    3.000    0.000    0.000    0.000    0.000    0.000 
#    0.000    0.000    0.000    0.000    0.000    0.000 
#
# Total GULP energy -67077.210785 kJ/mol
# GULP energy per Si atom -5589.767565 kJ/mol
# Density = 2.199024 g / cm^3
# Si number density = 22.040402 Si / 1000 Ang^3
#
#
#
# Elastic Constant Matrix: (Units=GPa)
#
#
# Indices 1 2 3 4 5 6 
#
# 1 56.0346 12.2726 -13.4560 0.0000 -19.4546 0.0000
# 2 12.2726 85.9213 35.6760 0.0000 -17.2503 0.0000
# 3 -13.4560 35.6760 113.2131 0.0000 -22.3859 0.0000
# 4 0.0000 0.0000 0.0000 29.3357 0.0000 -11.3719
# 5 -19.4546 -17.2503 -22.3859 0.0000 29.6469 0.0000
# 6 0.0000 0.0000 0.0000 -11.3719 0.0000 33.9194
#
#
#
# Elastic Compliance Matrix: (Units=1/GPa)
#
#
# Indices 1 2 3 4 5 6 
#
# 1 0.029214 -0.003135 0.009275 0.000000 0.024349 0.000000
# 2 -0.003135 0.014509 -0.004329 0.000000 0.003117 0.000000
# 3 0.009275 -0.004329 0.014112 0.000000 0.014223 0.000000
# 4 0.000000 0.000000 0.000000 0.039180 0.000000 0.013136
# 5 0.024349 0.003117 0.014223 0.000000 0.062262 0.000000
# 6 0.000000 0.000000 0.000000 0.013136 0.000000 0.033886
#
#
# Mechanical properties :
#
#
# Convention : Reuss Voigt Hill
#
# Bulk Modulus (GPa) = 16.27153 36.01712 26.14433
# Shear Modulus (GPa) = 23.80658 33.29218 28.54938
#
# Velocity S-wave (km/s) = 3.29010 3.89074 3.60296
# Velocity P-wave (km/s) = 4.67244 6.04654 5.40335
#
# Compressibility (1/GPa) = 0.06145702
#
# Stress axis : x y z
#
# Youngs Moduli (GPa) = 34.23030 68.92080 70.86323
#
# Poissons Ratio (x) = 0.21608 -0.65725
# Poissons Ratio (y) = 0.10732 0.30674
# Poissons Ratio (z) = -0.31748 0.29833
#
# Static dielectric constant tensor:
#      x y z
#    x 1.797040 0.000000 0.039240 
#    y 0.000000 1.804070 0.000000 
#    z 0.039240 0.000000 1.832150 
# 
# From -- ./inp_files/38409.got.cif
#   From: 2010.05.17/outbox.cif.g08.bks.cpg/sg5_20_cif.got.tgz:38409.got - 2010.06.03 18:56:24.
