data_PCOD9128863
_publ_section_title
;
Structure prediction by ZEFSAII (Michael W. Deem and Ramdas Pophale) SiO2 
 PCOD9128863
Probable space group: C 2
;
_chemical_formula_sum "Si O2"
_cell_formula_units_Z 18
_cell_length_a 5.216867
_cell_length_b 25.925838
_cell_length_c 5.240956
_cell_angle_alpha 90.000000
_cell_angle_beta 92.438530
_cell_angle_gamma 90.000000
_cell_volume 708.206038
_symmetry_space_group_name_H-M "C 2"
_symmetry_group_IT_number 5
_symmetry_cell_setting 'monoclinic'
loop_
_space_group_symop_operation_xyz
x,y,z
-x,y,-z
1/2+x,1/2+y,z
1/2-x,1/2+y,-z
loop_
_atom_site_type_symbol
_atom_site_label
_atom_site_fract_x
_atom_site_fract_y
_atom_site_fract_z
Si Si1 0.320972 0.063600 0.745696
Si Si2 0.826103 0.674933 0.739296
Si Si3 0.238398 0.287958 0.826415
Si Si4 0.241419 0.399272 0.819037
Si Si5 0.500000 0.479595 0.500000
O O1 0.500000 0.061274 0.500000
O O2 0.183317 0.120065 0.749248
O O3 0.500000 0.058926 0.000000
O O4 0.121946 0.017518 0.713298
O O5 0.702804 0.731324 0.707349
O O6 0.000000 0.670491 0.500000
O O7 0.000000 0.676440 0.000000
O O8 0.241191 0.342655 0.682767
O O9 0.500000 0.286050 0.000000
O O10 0.000000 0.293821 0.000000
O O11 0.283850 0.443500 0.614484
O O12 0.500000 0.400325 0.000000
O O13 0.000000 0.405892 0.000000
#
# Coordination Sequence:
#
# PCOD9128863 Si02
#       5
#     4   4   4   4   2
#     4  10  25  47  71 107 149 196 253 309 376 448
#     4   9  19  42  71 101 143 187 238 304 370 442
#     4   9  19  42  69 103 141 185 239 305 371 444
#     4  10  25  45  72 107 147 196 254 310 378 449
#     4  12  28  42  76 108 150 204 254 310 376 458
#
# _framework density 25.416329000000001
#
# number of rings (size 3 to 8) (size 9 to 14) (size 15 to 20)
#    0.000    2.222    0.000    0.000    7.778    0.000 
#   20.000    0.000    0.000    0.000    0.000    0.000 
#    0.000    0.000    0.000    0.000    0.000    0.000 
#
# Total GULP energy -50350.562832 kJ/mol
# GULP energy per Si atom -5594.506981 kJ/mol
# Density = 2.535848 g / cm^3
# Si number density = 25.416329 Si / 1000 Ang^3
#
#
#
# Elastic Constant Matrix: (Units=GPa)
#
#
# Indices 1 2 3 4 5 6 
#
# 1 132.8000 48.3158 43.7281 0.0000 3.4612 0.0000
# 2 48.3158 309.7561 49.1101 0.0000 -6.0244 0.0000
# 3 43.7281 49.1101 130.2582 0.0000 6.6098 0.0000
# 4 0.0000 0.0000 0.0000 20.2204 0.0000 -152.1322
# 5 3.4612 -6.0244 6.6098 0.0000 55.5237 0.0000
# 6 0.0000 0.0000 0.0000 -152.1322 0.0000-3152.8305
#
#
#
# Elastic Compliance Matrix: (Units=1/GPa)
#
#
# Indices 1 2 3 4 5 6 
#
# 1 0.008729 -0.000964 -0.002549 0.000000 -0.000345 0.000000
# 2 -0.000964 0.003556 -0.001046 0.000000 0.000570 0.000000
# 3 -0.002549 -0.001046 0.008979 0.000000 -0.001023 0.000000
# 4 0.000000 0.000000 0.000000 0.036283 0.000000 -0.001751
# 5 -0.000345 0.000570 -0.001023 0.000000 0.018216 0.000000
# 6 0.000000 0.000000 0.000000 -0.001751 0.000000 -0.000233
#
#
# Mechanical properties :
#
#
# Convention : Reuss Voigt Hill
#
# Bulk Modulus (GPa) = 82.33621 95.01361 88.67491
# Shear Modulus (GPa) = 56.37156 -586.63993 -265.13419
#
# Velocity S-wave (km/s) = 4.71460 -15.20899 -10.22462
# Velocity P-wave (km/s) = 7.88047 16.46067 10.21890
#
# Compressibility (1/GPa) = 0.01214532
#
# Stress axis : x y z
#
# Youngs Moduli (GPa) = 114.55577 281.24367 111.36902
#
# Poissons Ratio (x) = 0.27115 0.28393
# Poissons Ratio (y) = 0.11045 0.11647
# Poissons Ratio (z) = 0.29206 0.29413
#
# Static dielectric constant tensor:
#      x y z
#    x 2.881840 0.000000 0.176450 
#    y 0.000000 2.149840 0.000000 
#    z 0.176450 0.000000 2.021640 
# 
# From -- ./inp_files/833.got.cif
#   From: 2010.05.17/outbox.cif.g08.bks.cpg/sg5_1_cif.got.tgz:833.got - 2010.06.03 18:56:24.
