data_PCOD9128026
_publ_section_title
;
Structure prediction by ZEFSAII (Michael W. Deem and Ramdas Pophale) SiO2 
 PCOD9128026
Probable space group: C 2
;
_chemical_formula_sum "Si O2"
_cell_formula_units_Z 18
_cell_length_a 7.959268
_cell_length_b 18.992680
_cell_length_c 5.603494
_cell_angle_alpha 90.000000
_cell_angle_beta 119.694328
_cell_angle_gamma 90.000000
_cell_volume 735.831528
_symmetry_space_group_name_H-M "C 2"
_symmetry_group_IT_number 5
_symmetry_cell_setting 'monoclinic'
loop_
_space_group_symop_operation_xyz
x,y,z
-x,y,-z
1/2+x,1/2+y,z
1/2-x,1/2+y,-z
loop_
_atom_site_type_symbol
_atom_site_label
_atom_site_fract_x
_atom_site_fract_y
_atom_site_fract_z
Si Si1 0.209611 0.147600 0.771571
Si Si2 0.500000 0.562633 0.000000
Si Si3 0.764668 0.874483 0.319893
Si Si4 0.278618 0.311260 0.832955
Si Si5 0.824994 0.519185 0.559707
O O1 0.279617 0.226726 0.836324
O O2 0.334447 0.093938 0.700771
O O3 0.000000 0.150804 0.500000
O O4 0.161266 0.111370 0.988877
O O5 0.620526 0.518123 0.273750
O O6 0.698296 0.838127 0.522443
O O7 0.000000 0.871008 0.500000
O O8 0.694098 0.954718 0.273772
O O9 0.697019 0.838530 0.026902
O O10 0.500000 0.336465 0.000000
O O11 0.000000 0.509783 0.500000
#
# Coordination Sequence:
#
# PCOD9128026 Si02
#       5
#     4   2   4   4   4
#     4  10  24  44  68 102 140 188 236 296 360 426
#     4  10  24  44  72  96 146 182 236 308 350 424
#     4  10  23  45  69 103 143 190 233 294 361 425
#     4  10  24  42  73  99 143 188 233 293 358 427
#     4  11  26  44  73 107 139 188 244 298 361 433
#
# _framework density 24.462119999999999
#
# number of rings (size 3 to 8) (size 9 to 14) (size 15 to 20)
#    0.000    1.778    0.000    2.000   17.111    1.778 
#    0.000    0.000    0.000    0.000    0.000    0.000 
#    0.000    0.000    0.000    0.000    0.000    0.000 
#
# Total GULP energy -50409.093436 kJ/mol
# GULP energy per Si atom -5601.010382 kJ/mol
# Density = 2.440644 g / cm^3
# Si number density = 24.462120 Si / 1000 Ang^3
#
#
#
# Elastic Constant Matrix: (Units=GPa)
#
#
# Indices 1 2 3 4 5 6 
#
# 1 125.6961 33.5439 40.9421 0.0000 -24.7639 0.0000
# 2 33.5439 159.3068 63.9301 0.0000 -31.3271 0.0000
# 3 40.9421 63.9301 156.2747 0.0000 -19.4233 0.0000
# 4 0.0000 0.0000 0.0000 38.9226 0.0000 -4.1374
# 5 -24.7639 -31.3271 -19.4233 0.0000 44.3426 0.0000
# 6 0.0000 0.0000 0.0000 -4.1374 0.0000 11.7744
#
#
#
# Elastic Compliance Matrix: (Units=1/GPa)
#
#
# Indices 1 2 3 4 5 6 
#
# 1 0.009483 -0.000460 -0.001775 0.000000 0.004193 0.000000
# 2 -0.000460 0.008348 -0.002743 0.000000 0.004439 0.000000
# 3 -0.001775 -0.002743 0.008061 0.000000 0.000602 0.000000
# 4 0.000000 0.000000 0.000000 0.026689 0.000000 0.009378
# 5 0.004193 0.004439 0.000602 0.000000 0.028294 0.000000
# 6 0.000000 0.000000 0.000000 0.009378 0.000000 0.088225
#
#
# Mechanical properties :
#
#
# Convention : Reuss Voigt Hill
#
# Bulk Modulus (GPa) = 62.75033 79.78996 71.27015
# Shear Modulus (GPa) = 27.11994 39.19869 33.15931
#
# Velocity S-wave (km/s) = 3.33325 4.00737 3.68576
# Velocity P-wave (km/s) = 6.36568 7.35531 6.87831
#
# Compressibility (1/GPa) = 0.01593617
#
# Stress axis : x y z
#
# Youngs Moduli (GPa) = 105.45475 119.79463 124.05625
#
# Poissons Ratio (x) = 0.05507 0.22021
# Poissons Ratio (y) = 0.04848 0.34025
# Poissons Ratio (z) = 0.18719 0.32856
#
# Static dielectric constant tensor:
#      x y z
#    x 1.972190 0.000000 0.001980 
#    y 0.000000 1.871150 0.000000 
#    z 0.001980 0.000000 1.994780 
# 
# From -- ./inp_files/2112.got.cif
#   From: 2010.05.17/outbox.cif.g08.bks.cpg/sg5_2_cif.got.tgz:2112.got - 2010.06.03 18:56:24.
