data_PCOD9128043
_publ_section_title
;
Structure prediction by ZEFSAII (Michael W. Deem and Ramdas Pophale) SiO2 
 PCOD9128043
Probable space group: C 2
;
_chemical_formula_sum "Si O2"
_cell_formula_units_Z 30
_cell_length_a 16.917719
_cell_length_b 14.011026
_cell_length_c 5.557268
_cell_angle_alpha 90.000000
_cell_angle_beta 72.829446
_cell_angle_gamma 90.000000
_cell_volume 1258.554585
_symmetry_space_group_name_H-M "C 2"
_symmetry_group_IT_number 5
_symmetry_cell_setting 'monoclinic'
loop_
_space_group_symop_operation_xyz
x,y,z
-x,y,-z
1/2+x,1/2+y,z
1/2-x,1/2+y,-z
loop_
_atom_site_type_symbol
_atom_site_label
_atom_site_fract_x
_atom_site_fract_y
_atom_site_fract_z
Si Si1 0.500000 0.209540 0.000000
Si Si2 0.272705 0.886597 0.906107
Si Si3 0.161145 0.145376 0.598016
Si Si4 0.355791 0.177308 0.449758
Si Si5 0.392339 0.332128 0.791212
Si Si6 0.409752 0.981351 0.482599
Si Si7 0.407017 0.829139 0.141415
Si Si8 0.644168 0.536759 0.126494
O O1 0.415808 0.163075 0.166692
O O2 0.529597 0.274810 0.190972
O O3 0.187702 0.826866 0.954499
O O4 0.336637 0.825971 0.003538
O O5 0.233460 0.982031 0.062521
O O6 0.328125 0.925913 0.644381
O O7 0.260409 0.153635 0.498775
O O8 0.123013 0.250611 0.643202
O O9 0.133195 0.099618 0.372122
O O10 0.138958 0.088153 0.869033
O O11 0.362146 0.279672 0.576193
O O12 0.394166 0.090191 0.571570
O O13 0.413543 0.443704 0.784715
O O14 0.500000 0.951637 0.500000
O O15 0.411717 0.940492 0.211226
O O16 0.500000 0.800332 0.000000
#
# Coordination Sequence:
#
# PCOD9128043 Si02
#       8
#     2   4   4   4   4   4   4   4
#     4  12  28  42  72 108 154 194 252 312 392 436
#     4  10  23  45  72 102 139 197 244 298 385 438
#     4  12  26  48  79 109 150 197 259 298 377 449
#     4  12  26  43  73 110 149 198 242 314 381 458
#     4  10  25  47  73 105 149 190 257 307 387 447
#     4  12  25  42  71 105 149 184 248 308 383 445
#     4  12  27  44  72 108 146 197 248 310 371 447
#     4  10  26  47  81 106 143 200 254 308 363 452
#
# _framework density 23.836870000000001
#
# number of rings (size 3 to 8) (size 9 to 14) (size 15 to 20)
#    0.800    0.000    4.000    2.000    8.400    2.133 
#    1.200    0.000    0.000    0.000    0.000    0.000 
#    0.000    0.000    0.000    0.000    0.000    0.000 
#
# Total GULP energy -83566.384227 kJ/mol
# GULP energy per Si atom -5571.092282 kJ/mol
# Density = 2.378262 g / cm^3
# Si number density = 23.836870 Si / 1000 Ang^3
#
#
#
# Elastic Constant Matrix: (Units=GPa)
#
#
# Indices 1 2 3 4 5 6 
#
# 1 54.4585 -4.1298 -3.0783 0.0000 -19.4498 0.0000
# 2 -4.1298 106.3573 41.6624 0.0000 -8.2916 0.0000
# 3 -3.0783 41.6624 93.4160 0.0000 -9.7450 0.0000
# 4 0.0000 0.0000 0.0000 160.4188 0.0000 -44.1398
# 5 -19.4498 -8.2916 -9.7450 0.0000 33.6879 0.0000
# 6 0.0000 0.0000 0.0000 -44.1398 0.0000 9.7748
#
#
#
# Elastic Compliance Matrix: (Units=1/GPa)
#
#
# Indices 1 2 3 4 5 6 
#
# 1 0.023759 0.001400 0.001676 0.000000 0.014547 0.000000
# 2 0.001400 0.011537 -0.004866 0.000000 0.002241 0.000000
# 3 0.001676 -0.004866 0.013308 0.000000 0.003620 0.000000
# 4 0.000000 0.000000 0.000000 -0.025706 0.000000 -0.116080
# 5 0.014547 0.002241 0.003620 0.000000 0.039681 0.000000
# 6 0.000000 0.000000 0.000000 -0.116080 0.000000 -0.421875
#
#
# Mechanical properties :
#
#
# Convention : Reuss Voigt Hill
#
# Bulk Modulus (GPa) = 22.21003 35.90447 29.05725
# Shear Modulus (GPa) = -14.67529 55.42814 20.37642
#
# Velocity S-wave (km/s) = -2.48393 4.82738 2.92692
# Velocity P-wave (km/s) = 1.05413 6.79461 4.86199
#
# Compressibility (1/GPa) = 0.04502470
#
# Stress axis : x y z
#
# Youngs Moduli (GPa) = 42.08951 86.67562 75.14496
#
# Poissons Ratio (x) = -0.12136 -0.12594
# Poissons Ratio (y) = -0.05893 0.36563
# Poissons Ratio (z) = -0.07054 0.42173
#
# Static dielectric constant tensor:
#      x y z
#    x 1.869360 0.000000 -0.034200 
#    y 0.000000 1.997050 0.000000 
#    z -0.034200 0.000000 1.994310 
# 
# From -- ./inp_files/8641.got.cif
#   From: 2010.05.17/outbox.cif.g08.bks.cpg/sg5_5_cif.got.tgz:8641.got - 2010.06.03 18:56:24.
