data_PCOD9128256
_publ_section_title
;
Structure prediction by ZEFSAII (Michael W. Deem and Ramdas Pophale) SiO2 
 PCOD9128256
Probable space group: C 2
;
_chemical_formula_sum "Si O2"
_cell_formula_units_Z 22
_cell_length_a 10.464814
_cell_length_b 21.169101
_cell_length_c 10.048730
_cell_angle_alpha 90.000000
_cell_angle_beta 27.601389
_cell_angle_gamma 90.000000
_cell_volume 1031.392165
_symmetry_space_group_name_H-M "C 2"
_symmetry_group_IT_number 5
_symmetry_cell_setting 'monoclinic'
loop_
_space_group_symop_operation_xyz
x,y,z
-x,y,-z
1/2+x,1/2+y,z
1/2-x,1/2+y,-z
loop_
_atom_site_type_symbol
_atom_site_label
_atom_site_fract_x
_atom_site_fract_y
_atom_site_fract_z
Si Si1 0.167332 0.722110 0.472535
Si Si2 0.780308 0.051257 0.815125
Si Si3 0.000000 0.281263 0.500000
Si Si4 0.292013 0.685739 0.916533
Si Si5 0.381751 0.352755 0.352860
Si Si6 0.573794 0.920423 0.088304
O O1 0.487333 0.706353 0.176402
O O2 0.140670 0.796943 0.518216
O O3 0.000000 0.700445 0.500000
O O4 0.014631 0.692524 0.742850
O O5 0.867212 0.114533 0.808853
O O6 0.000000 0.032509 0.500000
O O7 0.700277 0.990527 0.975453
O O8 0.500000 0.070384 0.000000
O O9 0.151133 0.234890 0.255334
O O10 0.227327 0.324006 0.366578
O O11 0.699697 0.373120 0.058202
O O12 0.202942 0.410973 0.572791
O O13 0.500000 0.908451 0.000000
#
# Coordination Sequence:
#
# PCOD9128256 Si02
#       6
#     4   4   2   4   4   4
#     4  11  23  39  62  92 127 166 205 261 323 377
#     4  11  22  39  65  93 125 161 218 273 308 369
#     4  10  24  40  64 100 126 172 206 264 332 376
#     4  11  23  39  65  93 128 164 214 266 319 381
#     4  11  23  38  62  89 130 158 207 257 310 392
#     4  11  22  39  63  90 121 167 212 258 315 364
#
# _framework density 21.330393000000001
#
# number of rings (size 3 to 8) (size 9 to 14) (size 15 to 20)
#    0.000    1.091    0.909    7.636    2.545    3.636 
#    0.000    0.000   12.000    0.000    0.000    0.000 
#    0.000    0.000    0.000    0.000    0.000    0.000 
#
# Total GULP energy -61502.899442 kJ/mol
# GULP energy per Si atom -5591.172677 kJ/mol
# Density = 2.128184 g / cm^3
# Si number density = 21.330393 Si / 1000 Ang^3
#
#
#
# Elastic Constant Matrix: (Units=GPa)
#
#
# Indices 1 2 3 4 5 6 
#
# 1 98.9692 15.3881 1.8252 0.0001 -11.4659 0.0000
# 2 15.3881 94.3020 -2.0066 0.0003 6.6431 -0.0001
# 3 1.8252 -2.0066 81.3831 0.0008 -1.5551 0.0000
# 4 0.0001 0.0003 0.0008 39.5338 -0.0001 -4.2739
# 5 -11.4659 6.6431 -1.5551 -0.0001 32.6101 0.0002
# 6 0.0000 -0.0001 0.0000 -4.2739 0.0002 9.6568
#
#
#
# Elastic Compliance Matrix: (Units=1/GPa)
#
#
# Indices 1 2 3 4 5 6 
#
# 1 0.010926 -0.002087 -0.000215 0.000000 0.004257 0.000000
# 2 -0.002087 0.011161 0.000265 0.000000 -0.002995 0.000000
# 3 -0.000215 0.000265 0.012308 0.000000 0.000457 0.000000
# 4 0.000000 0.000000 0.000000 0.026566 0.000000 0.011758
# 5 0.004257 -0.002995 0.000457 0.000000 0.032794 -0.000001
# 6 0.000000 0.000000 0.000000 0.011758 -0.000001 0.108758
#
#
# Mechanical properties :
#
#
# Convention : Reuss Voigt Hill
#
# Bulk Modulus (GPa) = 32.98202 33.89642 33.43922
# Shear Modulus (GPa) = 23.07398 33.65664 28.36531
#
# Velocity S-wave (km/s) = 3.29255 3.97655 3.65061
# Velocity P-wave (km/s) = 5.47271 6.08355 5.78620
#
# Compressibility (1/GPa) = 0.03031955
#
# Stress axis : x y z
#
# Youngs Moduli (GPa) = 91.52651 89.59412 81.25027
#
# Poissons Ratio (x) = 0.18701 0.01748
# Poissons Ratio (y) = 0.19104 -0.02151
# Poissons Ratio (z) = 0.01969 -0.02372
#
# Static dielectric constant tensor:
#      x y z
#    x 1.794900 0.000000 0.006290 
#    y 0.000000 1.774680 0.000000 
#    z 0.006290 0.000000 1.732480 
# 
# From -- ./inp_files/40803.got.cif
#   From: 2010.05.17/outbox.cif.g08.bks.cpg/sg5_21_cif.got.tgz:40803.got - 2010.06.03 18:56:24.
