data_PCOD9128242
_publ_section_title
;
Structure prediction by ZEFSAII (Michael W. Deem and Ramdas Pophale) SiO2 
 PCOD9128242
Probable space group: C 2
;
_chemical_formula_sum "Si O2"
_cell_formula_units_Z 16
_cell_length_a 9.783551
_cell_length_b 9.741579
_cell_length_c 13.155839
_cell_angle_alpha 90.000000
_cell_angle_beta 32.376913
_cell_angle_gamma 90.000000
_cell_volume 671.417991
_symmetry_space_group_name_H-M "C 2"
_symmetry_group_IT_number 5
_symmetry_cell_setting 'monoclinic'
loop_
_space_group_symop_operation_xyz
x,y,z
-x,y,-z
1/2+x,1/2+y,z
1/2-x,1/2+y,-z
loop_
_atom_site_type_symbol
_atom_site_label
_atom_site_fract_x
_atom_site_fract_y
_atom_site_fract_z
Si Si1 0.266499 0.636060 0.067416
Si Si2 0.237179 0.901767 0.207722
Si Si3 0.681556 0.980231 0.561224
Si Si4 0.359864 0.708796 0.325090
O O1 0.180147 0.788052 0.156095
O O2 0.025547 0.538536 0.230301
O O3 0.500000 0.597992 0.000000
O O4 0.386559 0.641687 0.880702
O O5 0.278279 0.807057 0.282183
O O6 0.500000 0.964931 0.000000
O O7 0.986306 0.988129 0.388946
O O8 0.670352 0.087617 0.475886
O O9 0.619103 0.818297 0.596267
#
# Coordination Sequence:
#
# PCOD9128242 Si02
#       4
#     4   4   4   4
#     4   9  22  40  65  98 130 175 219 271 329 396
#     4   9  21  43  66  95 134 178 215 271 332 398
#     4  12  21  39  72  98 129 185 212 276 343 381
#     4  10  24  39  68  98 130 174 229 261 331 406
#
# _framework density 23.830162000000001
#
# number of rings (size 3 to 8) (size 9 to 14) (size 15 to 20)
#    0.000    2.500    2.500    0.750   10.500    0.000 
#    0.000    1.250   22.000    0.000    0.000    0.000 
#    0.000    0.000    0.000    0.000    0.000    0.000 
#
# Total GULP energy -44563.182950 kJ/mol
# GULP energy per Si atom -5570.397869 kJ/mol
# Density = 2.377592 g / cm^3
# Si number density = 23.830162 Si / 1000 Ang^3
#
#
#
# Elastic Constant Matrix: (Units=GPa)
#
#
# Indices 1 2 3 4 5 6 
#
# 1 50.0348 43.4541 47.0190 -0.0035 -4.8379 0.0012
# 2 43.4541 105.5583 76.2088 -0.0051 -0.0182 0.0022
# 3 47.0190 76.2088 240.4978 -0.0119 -13.8334 0.0072
# 4 -0.0035 -0.0051 -0.0119 67.3336 0.0063 -8.1883
# 5 -4.8379 -0.0182 -13.8334 0.0063 42.5521 -0.0027
# 6 0.0012 0.0022 0.0072 -8.1883 -0.0027 22.2123
#
#
#
# Elastic Compliance Matrix: (Units=1/GPa)
#
#
# Indices 1 2 3 4 5 6 
#
# 1 0.032784 -0.011654 -0.002550 0.000000 0.002893 0.000001
# 2 -0.011654 0.016496 -0.003082 0.000000 -0.002320 0.000000
# 3 -0.002550 -0.003082 0.005724 0.000000 0.001569 -0.000001
# 4 0.000000 0.000000 0.000000 0.015548 -0.000002 0.005732
# 5 0.002893 -0.002320 0.001569 -0.000002 0.024339 0.000002
# 6 0.000001 0.000000 -0.000001 0.005732 0.000002 0.047133
#
#
# Mechanical properties :
#
#
# Convention : Reuss Voigt Hill
#
# Bulk Modulus (GPa) = 48.94712 81.05050 64.99881
# Shear Modulus (GPa) = 27.26192 41.71352 34.48772
#
# Velocity S-wave (km/s) = 3.38599 4.18838 3.80837
# Velocity P-wave (km/s) = 5.98925 7.58126 6.83179
#
# Compressibility (1/GPa) = 0.02043021
#
# Stress axis : x y z
#
# Youngs Moduli (GPa) = 30.50306 60.62158 174.71732
#
# Poissons Ratio (x) = 0.70649 0.44553
# Poissons Ratio (y) = 0.35549 0.53850
# Poissons Ratio (z) = 0.07778 0.18684
#
# Static dielectric constant tensor:
#      x y z
#    x 1.979390 0.000000 0.007850 
#    y 0.000000 1.966450 0.000000 
#    z 0.007850 0.000000 1.949120 
# 
# From -- ./inp_files/4445.got.cif
#   From: 2010.05.17/outbox.cif.g08.bks.cpg/sg5_3_cif.got.tgz:4445.got - 2010.06.03 18:56:24.
