data_PCOD9128900
_publ_section_title
;
Structure prediction by ZEFSAII (Michael W. Deem and Ramdas Pophale) SiO2 
 PCOD9128900
Probable space group: C 2
;
_chemical_formula_sum "Si O2"
_cell_formula_units_Z 28
_cell_length_a 11.584589
_cell_length_b 19.291274
_cell_length_c 8.290754
_cell_angle_alpha 90.000000
_cell_angle_beta 45.507228
_cell_angle_gamma 90.000000
_cell_volume 1321.695634
_symmetry_space_group_name_H-M "C 2"
_symmetry_group_IT_number 5
_symmetry_cell_setting 'monoclinic'
loop_
_space_group_symop_operation_xyz
x,y,z
-x,y,-z
1/2+x,1/2+y,z
1/2-x,1/2+y,-z
loop_
_atom_site_type_symbol
_atom_site_label
_atom_site_fract_x
_atom_site_fract_y
_atom_site_fract_z
Si Si1 0.513339 0.039130 0.661411
Si Si2 0.179323 0.444483 0.744337
Si Si3 0.500000 0.267671 0.000000
Si Si4 0.729365 0.161177 0.409568
Si Si5 0.500000 0.569096 0.000000
Si Si6 0.170816 0.181276 0.330033
Si Si7 0.618629 0.315296 0.533344
Si Si8 0.838378 0.035874 0.844363
O O1 0.500000 0.005325 0.500000
O O2 0.565032 0.118460 0.590378
O O3 0.644134 0.002017 0.643806
O O4 0.340505 0.034906 0.908021
O O5 0.246902 0.374817 0.600571
O O6 0.314727 0.477019 0.731675
O O7 0.000000 0.433185 0.000000
O O8 0.663271 0.222030 0.872970
O O9 0.539886 0.306841 0.790532
O O10 0.807890 0.157932 0.507772
O O11 0.696578 0.241054 0.409975
O O12 0.845437 0.119106 0.176795
O O13 0.462796 0.527310 0.871463
O O14 0.146020 0.112236 0.248459
O O15 0.000000 0.222536 0.500000
O O16 0.500000 0.330596 0.500000
#
# Coordination Sequence:
#
# PCOD9128900 Si02
#       8
#     4   4   2   4   2   4   4   4
#     4  11  21  41  69  98 133 178 233 299 360 421
#     4  10  25  47  70  98 139 198 236 294 369 439
#     4  10  26  48  69 109 144 192 246 298 366 440
#     4  11  23  39  66 104 136 175 237 298 355 429
#     4  12  24  34  65 113 134 178 232 316 342 438
#     4  11  21  39  69 106 142 183 228 300 365 427
#     4  11  26  48  70  98 145 197 236 300 368 437
#     4  11  22  40  67 104 140 179 237 293 365 427
#
# _framework density 21.184906999999999
#
# number of rings (size 3 to 8) (size 9 to 14) (size 15 to 20)
#    0.000    1.143    4.286    2.143    4.000    1.714 
#    7.714    1.429    0.000    0.000    0.000    0.000 
#    0.000    0.000    0.000    0.000    0.000    0.000 
#
# Total GULP energy -78117.355577 kJ/mol
# GULP energy per Si atom -5579.811113 kJ/mol
# Density = 2.113669 g / cm^3
# Si number density = 21.184907 Si / 1000 Ang^3
#
#
#
# Elastic Constant Matrix: (Units=GPa)
#
#
# Indices 1 2 3 4 5 6 
#
# 1 127.7418 38.8425 34.2336 0.0000 8.3544 0.0000
# 2 38.8425 106.7317 38.3787 0.0000 -3.6620 0.0000
# 3 34.2336 38.3787 102.9608 0.0000 -6.0943 0.0000
# 4 0.0000 0.0000 0.0000 36.6346 0.0000 0.3948
# 5 8.3544 -3.6620 -6.0943 0.0000 37.3475 0.0000
# 6 0.0000 0.0000 0.0000 0.3948 0.0000 8.3189
#
#
#
# Elastic Compliance Matrix: (Units=1/GPa)
#
#
# Indices 1 2 3 4 5 6 
#
# 1 0.009446 -0.002707 -0.002295 0.000000 -0.002753 0.000000
# 2 -0.002707 0.011601 -0.003354 0.000000 0.001196 0.000000
# 3 -0.002295 -0.003354 0.011851 0.000000 0.002118 0.000000
# 4 0.000000 0.000000 0.000000 0.027311 0.000000 -0.001296
# 5 -0.002753 0.001196 0.002118 0.000000 0.027854 0.000000
# 6 0.000000 0.000000 0.000000 -0.001296 0.000000 0.120269
#
#
# Mechanical properties :
#
#
# Convention : Reuss Voigt Hill
#
# Bulk Modulus (GPa) = 61.77467 62.26044 62.01755
# Shear Modulus (GPa) = 21.69768 31.52551 26.61159
#
# Velocity S-wave (km/s) = 3.20379 3.86179 3.54808
# Velocity P-wave (km/s) = 6.55048 7.02406 6.79140
#
# Compressibility (1/GPa) = 0.01618786
#
# Stress axis : x y z
#
# Youngs Moduli (GPa) = 105.85969 86.19661 84.38226
#
# Poissons Ratio (x) = 0.23335 0.19364
# Poissons Ratio (y) = 0.28658 0.28298
# Poissons Ratio (z) = 0.24292 0.28906
#
# Static dielectric constant tensor:
#      x y z
#    x 1.851470 0.000000 0.018110 
#    y 0.000000 1.738030 0.000000 
#    z 0.018110 0.000000 1.791450 
# 
# From -- ./inp_files/21767.got.cif
#   From: 2010.05.17/outbox.cif.g08.bks.cpg/sg5_11_cif.got.tgz:21767.got - 2010.06.03 18:56:24.
