data_PCOD9128617
_publ_section_title
;
Structure prediction by ZEFSAII (Michael W. Deem and Ramdas Pophale) SiO2 
 PCOD9128617
Probable space group: C 2
;
_chemical_formula_sum "Si O2"
_cell_formula_units_Z 14
_cell_length_a 7.577876
_cell_length_b 17.254243
_cell_length_c 4.991130
_cell_angle_alpha 90.000000
_cell_angle_beta 111.976578
_cell_angle_gamma 90.000000
_cell_volume 605.173404
_symmetry_space_group_name_H-M "C 2"
_symmetry_group_IT_number 5
_symmetry_cell_setting 'monoclinic'
loop_
_space_group_symop_operation_xyz
x,y,z
-x,y,-z
1/2+x,1/2+y,z
1/2-x,1/2+y,-z
loop_
_atom_site_type_symbol
_atom_site_label
_atom_site_fract_x
_atom_site_fract_y
_atom_site_fract_z
Si Si1 0.500000 0.833490 0.500000
Si Si2 0.879834 0.179985 0.190040
Si Si3 0.118652 0.557095 0.831634
Si Si4 0.871584 0.930356 0.692927
O O1 0.389160 0.771950 0.246454
O O2 0.676694 0.885011 0.500106
O O3 0.691960 0.133096 0.027152
O O4 0.000000 0.144309 0.500000
O O5 0.000000 0.166456 0.000000
O O6 0.287080 0.504379 0.806676
O O7 0.000000 0.577806 0.500000
O O8 0.000000 0.514194 0.000000
O O9 0.000000 0.943675 0.500000
O O10 0.000000 0.890367 0.000000
#
# Coordination Sequence:
#
# PCOD9128617 Si02
#       4
#     2   4   4   4
#     4  10  28  52  74 110 164 194 250 328 376 466
#     4  10  24  46  73 102 159 194 246 313 387 440
#     4  12  25  46  78 115 153 200 258 320 381 454
#     4  12  28  48  82 111 152 205 260 310 390 454
#
# _framework density 23.133863999999999
#
# number of rings (size 3 to 8) (size 9 to 14) (size 15 to 20)
#    0.857    0.000    1.429    4.286    4.000    3.429 
#    0.000    0.000    0.000    0.000    0.000    0.000 
#    0.000    0.000    0.000    0.000    0.000    0.000 
#
# Total GULP energy -39007.072939 kJ/mol
# GULP energy per Si atom -5572.438991 kJ/mol
# Density = 2.308121 g / cm^3
# Si number density = 23.133864 Si / 1000 Ang^3
#
#
#
# Elastic Constant Matrix: (Units=GPa)
#
#
# Indices 1 2 3 4 5 6 
#
# 1 204.5907 74.9715 77.0205 0.0000 -19.8912 0.0000
# 2 74.9715 106.5866 44.5183 0.0000 7.6046 0.0000
# 3 77.0205 44.5183 180.7345 0.0000 -10.7416 0.0000
# 4 0.0000 0.0000 0.0000 19.4765 0.0000 -0.2517
# 5 -19.8912 7.6046 -10.7416 0.0000 57.4594 0.0000
# 6 0.0000 0.0000 0.0000 -0.2517 0.0000 23.3133
#
#
#
# Elastic Compliance Matrix: (Units=1/GPa)
#
#
# Indices 1 2 3 4 5 6 
#
# 1 0.007644 -0.004790 -0.001904 0.000000 0.002924 0.000000
# 2 -0.004790 0.013666 -0.001548 0.000000 -0.003756 0.000000
# 3 -0.001904 -0.001548 0.006774 0.000000 0.000812 0.000000
# 4 0.000000 0.000000 0.000000 0.051351 0.000000 0.000554
# 5 0.002924 -0.003756 0.000812 0.000000 0.019065 0.000000
# 6 0.000000 0.000000 0.000000 0.000554 0.000000 0.042900
#
#
# Mechanical properties :
#
#
# Convention : Reuss Voigt Hill
#
# Bulk Modulus (GPa) = 86.20880 98.32581 92.26731
# Shear Modulus (GPa) = 30.91168 39.74327 35.32748
#
# Velocity S-wave (km/s) = 3.65939 4.14934 3.91204
# Velocity P-wave (km/s) = 7.42973 8.09637 7.77020
#
# Compressibility (1/GPa) = 0.01159974
#
# Stress axis : x y z
#
# Youngs Moduli (GPa) = 130.81727 73.17400 147.62533
#
# Poissons Ratio (x) = 0.35053 0.28106
# Poissons Ratio (y) = 0.62665 0.22853
# Poissons Ratio (z) = 0.24906 0.11328
#
# Static dielectric constant tensor:
#      x y z
#    x 1.900470 0.000000 0.059170 
#    y 0.000000 1.983700 0.000000 
#    z 0.059170 0.000000 1.918160 
# 
# From -- ./inp_files/443.got.cif
#   From: 2010.05.17/outbox.cif.g08.bks.cpg/sg5_1_cif.got.tgz:443.got - 2010.06.03 18:56:24.
