data_PCOD9128466
_publ_section_title
;
Structure prediction by ZEFSAII (Michael W. Deem and Ramdas Pophale) SiO2 
 PCOD9128466
Probable space group: C 2
;
_chemical_formula_sum "Si O2"
_cell_formula_units_Z 24
_cell_length_a 20.653131
_cell_length_b 5.770192
_cell_length_c 20.674179
_cell_angle_alpha 90.000000
_cell_angle_beta 23.346581
_cell_angle_gamma 90.000000
_cell_volume 976.382099
_symmetry_space_group_name_H-M "C 2"
_symmetry_group_IT_number 5
_symmetry_cell_setting 'monoclinic'
loop_
_space_group_symop_operation_xyz
x,y,z
-x,y,-z
1/2+x,1/2+y,z
1/2-x,1/2+y,-z
loop_
_atom_site_type_symbol
_atom_site_label
_atom_site_fract_x
_atom_site_fract_y
_atom_site_fract_z
Si Si1 0.166037 0.600590 0.242543
Si Si2 0.319433 0.104442 0.262124
Si Si3 0.135037 0.777683 0.008093
Si Si4 0.500000 0.413877 0.500000
Si Si5 0.802232 0.095682 0.481242
Si Si6 0.000000 0.271781 0.000000
Si Si7 0.352822 0.424621 0.856535
O O1 0.219406 0.339317 0.175213
O O2 0.338749 0.661486 0.117590
O O3 0.122400 0.702962 0.211835
O O4 0.038966 0.732587 0.405860
O O5 0.268020 0.061399 0.382672
O O6 0.427005 0.919354 0.125723
O O7 0.149396 0.086113 0.379737
O O8 0.454348 0.309739 0.143808
O O9 0.179133 0.520369 0.991705
O O10 0.144039 0.903005 0.069256
O O11 0.753797 0.853938 0.489334
O O12 0.997455 0.092446 0.297669
#
# Coordination Sequence:
#
# PCOD9128466 Si02
#       7
#     4   4   4   2   4   2   4
#     4  11  24  47  71 107 146 199 255 318 383 469
#     4  11  24  47  74 111 151 201 258 322 392 468
#     4  12  26  44  77 112 150 195 257 325 398 465
#     4  10  24  50  78 100 158 204 258 316 390 480
#     4  12  29  47  77 113 157 204 261 333 407 468
#     4  10  24  44  70  98 156 196 254 310 380 474
#     4  12  25  44  74 110 150 194 252 328 395 467
#
# _framework density 24.580542999999999
#
# number of rings (size 3 to 8) (size 9 to 14) (size 15 to 20)
#    0.000    0.667    6.667    0.000    7.000    0.667 
#    0.000    5.833    0.000    0.000    0.000    0.000 
#    0.000    0.000    0.000    0.000    0.000    0.000 
#
# Total GULP energy -66813.546367 kJ/mol
# GULP energy per Si atom -5567.795531 kJ/mol
# Density = 2.452460 g / cm^3
# Si number density = 24.580543 Si / 1000 Ang^3
#
#
#
# Elastic Constant Matrix: (Units=GPa)
#
#
# Indices 1 2 3 4 5 6 
#
# 1 83.8732 50.5224 42.5232 -0.0009 -8.5955 0.0008
# 2 50.5224 52.0739 28.2847 -0.0021 4.9542 -0.0016
# 3 42.5232 28.2847 82.9541 -0.0003 -13.3688 0.0005
# 4 -0.0009 -0.0021 -0.0003 34.6581 0.0048 -8.4375
# 5 -8.5955 4.9542 -13.3688 0.0048 52.4541 -0.0012
# 6 0.0008 -0.0016 0.0005 -8.4375 -0.0012 27.3236
#
#
#
# Elastic Compliance Matrix: (Units=1/GPa)
#
#
# Indices 1 2 3 4 5 6 
#
# 1 0.033910 -0.030340 -0.005924 -0.000003 0.006913 -0.000003
# 2 -0.030340 0.051758 -0.003842 0.000005 -0.010839 0.000005
# 3 -0.005924 -0.003842 0.017002 -0.000001 0.003725 0.000000
# 4 -0.000003 0.000005 -0.000001 0.031199 -0.000004 0.009634
# 5 0.006913 -0.010839 0.003725 -0.000004 0.022170 -0.000001
# 6 -0.000003 0.000005 0.000000 0.009634 -0.000001 0.039573
#
#
# Mechanical properties :
#
#
# Convention : Reuss Voigt Hill
#
# Bulk Modulus (GPa) = 44.52712 51.28466 47.90589
# Shear Modulus (GPa) = 17.64851 29.39188 23.52020
#
# Velocity S-wave (km/s) = 2.68243 3.46170 3.09667
# Velocity P-wave (km/s) = 5.26764 6.07347 5.68485
#
# Compressibility (1/GPa) = 0.02245822
#
# Stress axis : x y z
#
# Youngs Moduli (GPa) = 29.48943 19.32081 58.81724
#
# Poissons Ratio (x) = 0.58620 0.34842
# Poissons Ratio (y) = 0.89471 0.22597
# Poissons Ratio (z) = 0.17469 0.07423
#
# Static dielectric constant tensor:
#      x y z
#    x 1.926340 0.000020 0.048270 
#    y 0.000020 2.154150 -0.000010 
#    z 0.048270 -0.000010 1.930980 
# 
# From -- ./inp_files/30274.got.cif
#   From: 2010.05.17/outbox.cif.g08.bks.cpg/sg5_16_cif.got.tgz:30274.got - 2010.06.03 18:56:24.
