data_PCOD9128263
_publ_section_title
;
Structure prediction by ZEFSAII (Michael W. Deem and Ramdas Pophale) SiO2 
 PCOD9128263
Probable space group: C 2
;
_chemical_formula_sum "Si O2"
_cell_formula_units_Z 28
_cell_length_a 14.291667
_cell_length_b 5.461936
_cell_length_c 21.113565
_cell_angle_alpha 90.000000
_cell_angle_beta 133.055126
_cell_angle_gamma 90.000000
_cell_volume 1204.282855
_symmetry_space_group_name_H-M "C 2"
_symmetry_group_IT_number 5
_symmetry_cell_setting 'monoclinic'
loop_
_space_group_symop_operation_xyz
x,y,z
-x,y,-z
1/2+x,1/2+y,z
1/2-x,1/2+y,-z
loop_
_atom_site_type_symbol
_atom_site_label
_atom_site_fract_x
_atom_site_fract_y
_atom_site_fract_z
Si Si1 0.112452 0.252190 0.886922
Si Si2 0.267894 0.477235 0.844372
Si Si3 0.661738 0.825414 0.287185
Si Si4 0.806471 0.323587 0.320036
Si Si5 0.739048 0.285823 0.535363
Si Si6 0.500000 0.234485 0.000000
Si Si7 0.779881 0.372274 0.931020
Si Si8 0.000000 0.564028 0.500000
O O1 0.197828 0.414404 0.878219
O O2 0.970142 0.343036 0.811691
O O3 0.138508 0.978711 0.874013
O O4 0.172919 0.236698 0.984281
O O5 0.186148 0.360850 0.751630
O O6 0.282772 0.764983 0.861406
O O7 0.414668 0.388628 0.911900
O O8 0.715849 0.555262 0.296269
O O9 0.655356 0.828002 0.360750
O O10 0.750570 0.057346 0.310176
O O11 0.932941 0.388866 0.417473
O O12 0.732303 0.536822 0.491385
O O13 0.607034 0.226003 0.513001
O O14 0.608251 0.075418 0.017494
#
# Coordination Sequence:
#
# PCOD9128263 Si02
#       8
#     4   4   4   4   4   2   4   2
#     4  11  25  41  66  96 143 179 243 303 362 434
#     4  11  25  41  66 101 133 193 240 297 369 440
#     4  11  27  47  72 108 143 187 240 307 365 443
#     4  11  27  47  74 105 142 193 241 299 379 432
#     4  11  25  47  79 113 147 200 249 308 392 449
#     4  10  24  40  66  92 136 182 244 296 360 444
#     4  11  23  42  63  98 134 190 236 305 367 419
#     4  10  26  52  76 110 162 190 254 324 368 466
#
# _framework density 23.250350999999998
#
# number of rings (size 3 to 8) (size 9 to 14) (size 15 to 20)
#    0.000    1.143    1.429    3.000   12.000    6.286 
#    0.000    0.000    0.000    0.000    0.000    0.000 
#    0.000    0.000    0.000    0.000    0.000    0.000 
#
# Total GULP energy -78088.694417 kJ/mol
# GULP energy per Si atom -5577.763887 kJ/mol
# Density = 2.319743 g / cm^3
# Si number density = 23.250351 Si / 1000 Ang^3
#
#
#
# Elastic Constant Matrix: (Units=GPa)
#
#
# Indices 1 2 3 4 5 6 
#
# 1 56.7413 22.1689 27.2694 0.0000 -3.9501 0.0000
# 2 22.1689 93.2654 32.5675 0.0000 -14.2113 0.0000
# 3 27.2694 32.5675 151.4282 0.0000 -11.5057 0.0000
# 4 0.0000 0.0000 0.0000 22.4359 0.0000 5.7245
# 5 -3.9501 -14.2113 -11.5057 0.0000 36.1847 0.0000
# 6 0.0000 0.0000 0.0000 5.7245 0.0000 23.1356
#
#
#
# Elastic Compliance Matrix: (Units=1/GPa)
#
#
# Indices 1 2 3 4 5 6 
#
# 1 0.020515 -0.003906 -0.002870 0.000000 -0.000207 0.000000
# 2 -0.003906 0.012885 -0.001758 0.000000 0.004075 0.000000
# 3 -0.002870 -0.001758 0.007606 0.000000 0.001415 0.000000
# 4 0.000000 0.000000 0.000000 0.047575 0.000000 -0.011771
# 5 -0.000207 0.004075 0.001415 0.000000 0.029664 0.000000
# 6 0.000000 0.000000 0.000000 -0.011771 0.000000 0.046136
#
#
# Mechanical properties :
#
#
# Convention : Reuss Voigt Hill
#
# Bulk Modulus (GPa) = 41.77384 51.71629 46.74506
# Shear Modulus (GPa) = 26.39520 30.97985 28.68753
#
# Velocity S-wave (km/s) = 3.37302 3.65423 3.51644
# Velocity P-wave (km/s) = 5.75983 6.33214 6.05275
#
# Compressibility (1/GPa) = 0.02393843
#
# Stress axis : x y z
#
# Youngs Moduli (GPa) = 48.74552 77.60735 131.47028
#
# Poissons Ratio (x) = 0.30311 0.37733
# Poissons Ratio (y) = 0.19038 0.23116
# Poissons Ratio (z) = 0.13990 0.13646
#
# Static dielectric constant tensor:
#      x y z
#    x 1.920850 0.000000 -0.077260 
#    y 0.000000 2.273680 0.000000 
#    z -0.077260 0.000000 1.929950 
# 
# From -- ./inp_files/65714.got.cif
#   From: 2010.05.17/outbox.cif.g08.bks.cpg/sg5_33_cif.got.tgz:65714.got - 2010.06.03 18:56:24.
