data_PCOD9128038
_publ_section_title
;
Structure prediction by ZEFSAII (Michael W. Deem and Ramdas Pophale) SiO2 
 PCOD9128038
Probable space group: C 2
;
_chemical_formula_sum "Si O2"
_cell_formula_units_Z 24
_cell_length_a 16.680880
_cell_length_b 5.151100
_cell_length_c 18.909638
_cell_angle_alpha 90.000000
_cell_angle_beta 145.370873
_cell_angle_gamma 90.000000
_cell_volume 923.317068
_symmetry_space_group_name_H-M "C 2"
_symmetry_group_IT_number 5
_symmetry_cell_setting 'monoclinic'
loop_
_space_group_symop_operation_xyz
x,y,z
-x,y,-z
1/2+x,1/2+y,z
1/2-x,1/2+y,-z
loop_
_atom_site_type_symbol
_atom_site_label
_atom_site_fract_x
_atom_site_fract_y
_atom_site_fract_z
Si Si1 0.307507 0.330010 0.461201
Si Si2 0.733710 0.282699 0.039035
Si Si3 0.462519 0.524345 0.867468
Si Si4 0.000000 0.452978 0.000000
Si Si5 0.717674 0.780529 0.770613
Si Si6 0.138610 0.843059 0.349928
Si Si7 0.000000 0.096959 0.500000
O O1 0.177552 0.540730 0.367853
O O2 0.403064 0.384944 0.599587
O O3 0.383381 0.409288 0.446663
O O4 0.276508 0.025811 0.443296
O O5 0.577552 0.298823 0.962412
O O6 0.746435 0.029225 0.999031
O O7 0.824368 0.314481 0.177169
O O8 0.448756 0.485971 0.773771
O O9 0.313315 0.491643 0.797897
O O10 0.531865 0.766505 0.955288
O O11 0.156680 0.563654 0.136162
O O12 0.581882 0.742584 0.622350
#
# Coordination Sequence:
#
# PCOD9128038 Si02
#       7
#     4   4   4   2   4   4   2
#     4  10  23  46  67 102 153 189 252 300 384 454
#     4  12  28  49  75 116 156 195 263 337 384 456
#     4  12  24  46  77 107 145 208 259 317 387 472
#     4  12  22  48  82 102 152 204 276 304 378 486
#     4  12  26  50  76 113 153 213 256 318 394 471
#     4  10  23  45  71 102 139 206 244 306 378 463
#     4  12  26  48  72 118 156 198 254 332 372 468
#
# _framework density 25.993238000000002
#
# number of rings (size 3 to 8) (size 9 to 14) (size 15 to 20)
#    0.000    0.667    5.000    2.000    2.333    0.667 
#    9.000    0.000    0.000    0.000    0.000    0.000 
#    0.000    0.000    0.000    0.000    0.000    0.000 
#
# Total GULP energy -66846.541032 kJ/mol
# GULP energy per Si atom -5570.545086 kJ/mol
# Density = 2.593408 g / cm^3
# Si number density = 25.993238 Si / 1000 Ang^3
#
#
#
# Elastic Constant Matrix: (Units=GPa)
#
#
# Indices 1 2 3 4 5 6 
#
# 1 37.5483 1.9727 17.7728 -0.0001 -3.1483 0.0002
# 2 1.9727 114.8814 31.8681 -0.0002 6.8464 0.0014
# 3 17.7728 31.8681 170.3879 -0.0002 -39.6053 0.0000
# 4 -0.0001 -0.0002 -0.0002 12.0672 0.0001 -3.2561
# 5 -3.1483 6.8464 -39.6053 0.0001 40.7305 0.0001
# 6 0.0002 0.0014 0.0000 -3.2561 0.0001 20.1309
#
#
#
# Elastic Compliance Matrix: (Units=1/GPa)
#
#
# Indices 1 2 3 4 5 6 
#
# 1 0.028064 0.000492 -0.003274 0.000000 -0.001097 0.000000
# 2 0.000492 0.009767 -0.002908 0.000000 -0.004431 -0.000001
# 3 -0.003274 -0.002908 0.008798 0.000000 0.008790 0.000000
# 4 0.000000 0.000000 0.000000 0.086651 0.000000 0.014016
# 5 -0.001097 -0.004431 0.008790 0.000000 0.033759 0.000000
# 6 0.000000 -0.000001 0.000000 0.014016 0.000000 0.051942
#
#
# Mechanical properties :
#
#
# Convention : Reuss Voigt Hill
#
# Bulk Modulus (GPa) = 28.37070 47.33831 37.85450
# Shear Modulus (GPa) = 20.65159 32.66598 26.65879
#
# Velocity S-wave (km/s) = 2.82174 3.54886 3.20598
# Velocity P-wave (km/s) = 4.64270 5.91978 5.31970
#
# Compressibility (1/GPa) = 0.03524763
#
# Stress axis : x y z
#
# Youngs Moduli (GPa) = 35.63236 102.38566 113.66653
#
# Poissons Ratio (x) = -0.05035 0.37219
# Poissons Ratio (y) = -0.01752 0.33055
# Poissons Ratio (z) = 0.11667 0.29775
#
# Static dielectric constant tensor:
#      x y z
#    x 2.082290 0.000000 -0.011280 
#    y 0.000000 2.121390 0.000000 
#    z -0.011280 0.000000 2.285920 
# 
# From -- ./inp_files/66944.got.cif
#   From: 2010.05.17/outbox.cif.g08.bks.cpg/sg5_34_cif.got.tgz:66944.got - 2010.06.03 18:56:24.
