data_PCOD9128090
_publ_section_title
;
Structure prediction by ZEFSAII (Michael W. Deem and Ramdas Pophale) SiO2 
 PCOD9128090
Probable space group: C 2
;
_chemical_formula_sum "Si O2"
_cell_formula_units_Z 26
_cell_length_a 8.989623
_cell_length_b 26.418410
_cell_length_c 5.266851
_cell_angle_alpha 90.000000
_cell_angle_beta 66.497996
_cell_angle_gamma 90.000000
_cell_volume 1147.071180
_symmetry_space_group_name_H-M "C 2"
_symmetry_group_IT_number 5
_symmetry_cell_setting 'monoclinic'
loop_
_space_group_symop_operation_xyz
x,y,z
-x,y,-z
1/2+x,1/2+y,z
1/2-x,1/2+y,-z
loop_
_atom_site_type_symbol
_atom_site_label
_atom_site_fract_x
_atom_site_fract_y
_atom_site_fract_z
Si Si1 0.306336 0.413140 0.554452
Si Si2 0.303182 0.009952 0.646667
Si Si3 0.806671 0.568732 0.141806
Si Si4 0.500000 0.869420 0.000000
Si Si5 0.900637 0.162266 0.832497
Si Si6 0.905832 0.812691 0.306444
Si Si7 0.140061 0.272101 0.200565
O O1 0.500000 0.414730 0.500000
O O2 0.274884 0.456689 0.374372
O O3 0.283551 0.356823 0.460935
O O4 0.148587 0.409890 0.845370
O O5 0.500000 0.005148 0.500000
O O6 0.254557 0.048271 0.452406
O O7 0.251369 0.030925 0.954917
O O8 0.745556 0.624677 0.124765
O O9 0.000000 0.568110 0.000000
O O10 0.395356 0.825604 0.914049
O O11 0.857145 0.219484 0.951569
O O12 0.000000 0.164394 0.500000
O O13 0.000000 0.139712 0.000000
O O14 0.805573 0.768913 0.247014
O O15 0.000000 0.799815 0.500000
O O16 0.000000 0.834580 0.000000
O O17 0.000000 0.269557 0.500000
#
# Coordination Sequence:
#
# PCOD9128090 Si02
#       7
#     4   4   4   2   4   4   4
#     4  11  26  44  71 108 144 194 246 295 358 441
#     4  10  24  43  70  97 136 183 231 291 364 425
#     4  10  23  46  69  97 134 178 231 296 358 424
#     4  12  24  46  76 102 158 200 236 306 370 432
#     4  11  24  42  69 102 136 178 239 295 354 433
#     4  11  25  44  64  97 142 182 238 301 348 429
#     4  11  23  42  67  99 141 190 241 287 368 434
#
# _framework density 22.666422000000001
#
# number of rings (size 3 to 8) (size 9 to 14) (size 15 to 20)
#    0.000    1.231    2.308    2.769    5.385    4.923 
#    0.000    2.308    0.000    0.000    0.000    0.000 
#    0.000    0.000    0.000    0.000    0.000    0.000 
#
# Total GULP energy -72387.498683 kJ/mol
# GULP energy per Si atom -5568.269129 kJ/mol
# Density = 2.261483 g / cm^3
# Si number density = 22.666422 Si / 1000 Ang^3
#
#
#
# Elastic Constant Matrix: (Units=GPa)
#
#
# Indices 1 2 3 4 5 6 
#
# 1 88.6488 57.2672 34.0463 0.0000 31.6709 0.0000
# 2 57.2672 82.4555 10.1711 0.0000 17.2000 0.0000
# 3 34.0463 10.1711 69.1174 0.0000 22.1294 0.0000
# 4 0.0000 0.0000 0.0000 47.6329 0.0000 -2.3825
# 5 31.6709 17.2000 22.1294 0.0000 42.6604 0.0000
# 6 0.0000 0.0000 0.0000 -2.3825 0.0000 70.8549
#
#
#
# Elastic Compliance Matrix: (Units=1/GPa)
#
#
# Indices 1 2 3 4 5 6 
#
# 1 0.029437 -0.017202 -0.008625 0.000000 -0.010444 0.000000
# 2 -0.017202 0.023298 0.004753 0.000000 0.000911 0.000000
# 3 -0.008625 0.004753 0.019883 0.000000 -0.005827 0.000000
# 4 0.000000 0.000000 0.000000 0.021029 0.000000 0.000707
# 5 -0.010444 0.000911 -0.005827 0.000000 0.033850 0.000000
# 6 0.000000 0.000000 0.000000 0.000707 0.000000 0.014137
#
#
# Mechanical properties :
#
#
# Convention : Reuss Voigt Hill
#
# Bulk Modulus (GPa) = 32.81846 49.24345 41.03096
# Shear Modulus (GPa) = 25.78141 41.47877 33.63009
#
# Velocity S-wave (km/s) = 3.37624 4.28245 3.85606
# Velocity P-wave (km/s) = 5.45059 6.79889 6.16173
#
# Compressibility (1/GPa) = 0.03047066
#
# Stress axis : x y z
#
# Youngs Moduli (GPa) = 33.97136 42.92140 50.29454
#
# Poissons Ratio (x) = 0.73833 0.43378
# Poissons Ratio (y) = 0.58437 -0.23905
# Poissons Ratio (z) = 0.29300 -0.20401
#
# Static dielectric constant tensor:
#      x y z
#    x 1.850020 0.000000 0.032020 
#    y 0.000000 1.823020 0.000000 
#    z 0.032020 0.000000 1.826860 
# 
# From -- ./inp_files/3592.got.cif
#   From: 2010.05.17/outbox.cif.g08.bks.cpg/sg5_2_cif.got.tgz:3592.got - 2010.06.03 18:56:24.
