data_PCOD9128773
_publ_section_title
;
Structure prediction by ZEFSAII (Michael W. Deem and Ramdas Pophale) SiO2 
 PCOD9128773
Probable space group: C 2
;
_chemical_formula_sum "Si O2"
_cell_formula_units_Z 16
_cell_length_a 6.686560
_cell_length_b 12.887840
_cell_length_c 8.518350
_cell_angle_alpha 90.000000
_cell_angle_beta 52.219521
_cell_angle_gamma 90.000000
_cell_volume 580.183530
_symmetry_space_group_name_H-M "C 2"
_symmetry_group_IT_number 5
_symmetry_cell_setting 'monoclinic'
loop_
_space_group_symop_operation_xyz
x,y,z
-x,y,-z
1/2+x,1/2+y,z
1/2-x,1/2+y,-z
loop_
_atom_site_type_symbol
_atom_site_label
_atom_site_fract_x
_atom_site_fract_y
_atom_site_fract_z
Si Si1 0.243281 0.604370 0.226068
Si Si2 0.289027 0.213868 0.295541
Si Si3 0.499179 0.802613 0.820999
Si Si4 0.697830 0.429375 0.542293
O O1 0.013353 0.624274 0.750612
O O2 0.281833 0.716568 0.288570
O O3 0.265211 0.521201 0.353611
O O4 0.500000 0.589991 0.000000
O O5 0.373044 0.324901 0.328175
O O6 0.000000 0.194385 0.500000
O O7 0.236174 0.239168 0.136860
O O8 0.555068 0.894449 0.674922
O O9 0.500000 0.838452 0.000000
O O10 0.500000 0.452354 0.500000
#
# Coordination Sequence:
#
# PCOD9128773 Si02
#       4
#     4   4   4   4
#     4  11  26  52  87 130 175 233 295 360 442 523
#     4  10  24  53  85 122 177 233 285 365 438 522
#     4  10  24  51  85 123 174 230 288 367 438 516
#     4  11  24  51  87 126 176 230 294 357 445 526
#
# _framework density 27.577480999999999
#
# number of rings (size 3 to 8) (size 9 to 14) (size 15 to 20)
#    0.000    1.500    2.500    0.000    0.000    9.000 
#   40.500    2.500    0.000    0.000    0.000    0.000 
#    0.000    0.000    0.000    0.000    0.000    0.000 
#
# Total GULP energy -44788.239772 kJ/mol
# GULP energy per Si atom -5598.529972 kJ/mol
# Density = 2.751471 g / cm^3
# Si number density = 27.577481 Si / 1000 Ang^3
#
#
#
# Elastic Constant Matrix: (Units=GPa)
#
#
# Indices 1 2 3 4 5 6 
#
# 1 257.9339 63.2379 73.6201 -0.0001 19.3753 0.0000
# 2 63.2379 172.9554 75.3987 0.0000 21.9851 0.0000
# 3 73.6201 75.3987 185.9868 0.0000 27.8039 0.0000
# 4 -0.0001 0.0000 0.0000 63.5678 0.0000 24.5614
# 5 19.3753 21.9851 27.8039 0.0000 53.7745 0.0000
# 6 0.0000 0.0000 0.0000 24.5614 0.0000 43.9473
#
#
#
# Elastic Compliance Matrix: (Units=1/GPa)
#
#
# Indices 1 2 3 4 5 6 
#
# 1 0.004540 -0.001024 -0.001301 0.000000 -0.000545 0.000000
# 2 -0.001024 0.007370 -0.002370 0.000000 -0.001419 0.000000
# 3 -0.001301 -0.002370 0.007194 0.000000 -0.002282 0.000000
# 4 0.000000 0.000000 0.000000 0.020064 0.000000 -0.011213
# 5 -0.000545 -0.001419 -0.002282 0.000000 0.020552 0.000000
# 6 0.000000 0.000000 0.000000 -0.011213 0.000000 0.029022
#
#
# Mechanical properties :
#
#
# Convention : Reuss Voigt Hill
#
# Bulk Modulus (GPa) = 102.94485 115.70992 109.32739
# Shear Modulus (GPa) = 49.32484 59.23253 54.27869
#
# Velocity S-wave (km/s) = 4.23376 4.63953 4.44128
# Velocity P-wave (km/s) = 7.83007 8.41127 8.12587
#
# Compressibility (1/GPa) = 0.00971394
#
# Stress axis : x y z
#
# Youngs Moduli (GPa) = 220.25864 135.68822 139.01175
#
# Poissons Ratio (x) = 0.13891 0.18081
# Poissons Ratio (y) = 0.22549 0.32952
# Poissons Ratio (z) = 0.28648 0.32164
#
# Static dielectric constant tensor:
#      x y z
#    x 2.236400 0.000000 -0.085640 
#    y 0.000000 2.080760 0.000000 
#    z -0.085640 0.000000 2.275790 
# 
# From -- ./inp_files/18466.got.cif
#   From: 2010.05.17/outbox.cif.g08.bks.cpg/sg5_10_cif.got.tgz:18466.got - 2010.06.03 18:56:24.
