data_PCOD9128093
_publ_section_title
;
Structure prediction by ZEFSAII (Michael W. Deem and Ramdas Pophale) SiO2 
 PCOD9128093
Probable space group: C 2
;
_chemical_formula_sum "Si O2"
_cell_formula_units_Z 28
_cell_length_a 17.794934
_cell_length_b 8.366492
_cell_length_c 8.336105
_cell_angle_alpha 90.000000
_cell_angle_beta 105.201933
_cell_angle_gamma 90.000000
_cell_volume 1197.660464
_symmetry_space_group_name_H-M "C 2"
_symmetry_group_IT_number 5
_symmetry_cell_setting 'monoclinic'
loop_
_space_group_symop_operation_xyz
x,y,z
-x,y,-z
1/2+x,1/2+y,z
1/2-x,1/2+y,-z
loop_
_atom_site_type_symbol
_atom_site_label
_atom_site_fract_x
_atom_site_fract_y
_atom_site_fract_z
Si Si1 0.500000 0.149791 0.000000
Si Si2 0.795910 0.799643 0.670699
Si Si3 0.100865 0.475804 0.820429
Si Si4 0.048333 0.896375 0.301190
Si Si5 0.750255 0.463782 0.667578
Si Si6 0.500000 0.151949 0.500000
Si Si7 0.606682 0.597823 0.768052
Si Si8 0.261726 0.436667 0.979517
O O1 0.519365 0.271086 0.152267
O O2 0.434102 0.034435 0.031488
O O3 0.864910 0.931614 0.705111
O O4 0.808863 0.609888 0.663901
O O5 0.747745 0.850007 0.485651
O O6 0.768231 0.809768 0.840331
O O7 0.046845 0.548322 0.652439
O O8 0.101106 0.286013 0.794282
O O9 0.189392 0.539349 0.870395
O O10 0.060157 0.778358 0.458381
O O11 0.980126 0.023474 0.290365
O O12 0.664158 0.548267 0.651842
O O13 0.764119 0.388929 0.852839
O O14 0.655438 0.518493 0.941232
#
# Coordination Sequence:
#
# PCOD9128093 Si02
#       8
#     2   4   4   4   4   2   4   4
#     4  10  24  40  70 100 144 190 250 294 384 454
#     4  12  24  44  73 104 145 190 247 303 368 445
#     4  11  23  47  69 102 146 196 246 311 371 440
#     4  11  23  44  68 106 142 195 243 303 380 447
#     4  10  26  43  68 111 138 192 246 302 365 442
#     4  10  26  40  68  98 150 194 236 308 376 444
#     4  10  24  46  73 104 146 196 252 306 373 441
#     4  10  23  46  70 102 148 187 240 315 367 428
#
# _framework density 23.378914999999999
#
# number of rings (size 3 to 8) (size 9 to 14) (size 15 to 20)
#    0.857    0.571    1.429    2.571    2.000    9.143 
#    0.000    1.429    0.000    0.000    0.000    0.000 
#    0.000    0.000    0.000    0.000    0.000    0.000 
#
# Total GULP energy -77948.811783 kJ/mol
# GULP energy per Si atom -5567.772270 kJ/mol
# Density = 2.332570 g / cm^3
# Si number density = 23.378915 Si / 1000 Ang^3
#
#
#
# Elastic Constant Matrix: (Units=GPa)
#
#
# Indices 1 2 3 4 5 6 
#
# 1 62.8313 5.6608 -3.7600 0.0000 16.6907 0.0000
# 2 5.6608 82.9953 54.6057 0.0000 -1.7844 0.0000
# 3 -3.7600 54.6057 120.9084 0.0000 -0.8872 0.0000
# 4 0.0000 0.0000 0.0000 24.5532 0.0000 -1.9132
# 5 16.6907 -1.7844 -0.8872 0.0000 27.8910 0.0000
# 6 0.0000 0.0000 0.0000 -1.9132 0.0000 32.1532
#
#
#
# Elastic Compliance Matrix: (Units=1/GPa)
#
#
# Indices 1 2 3 4 5 6 
#
# 1 0.019377 -0.002722 0.001746 0.000000 -0.011715 0.000000
# 2 -0.002722 0.017545 -0.007990 0.000000 0.002497 0.000000
# 3 0.001746 -0.007990 0.011925 0.000000 -0.001177 0.000000
# 4 0.000000 0.000000 0.000000 0.040918 0.000000 0.002435
# 5 -0.011715 0.002497 -0.001177 0.000000 0.042986 0.000000
# 6 0.000000 0.000000 0.000000 0.002435 0.000000 0.031246
#
#
# Mechanical properties :
#
#
# Convention : Reuss Voigt Hill
#
# Bulk Modulus (GPa) = 32.34718 42.19423 37.27070
# Shear Modulus (GPa) = 26.00972 30.93470 28.47221
#
# Velocity S-wave (km/s) = 3.33908 3.64151 3.49357
# Velocity P-wave (km/s) = 5.36022 5.98063 5.67891
#
# Compressibility (1/GPa) = 0.03091460
#
# Stress axis : x y z
#
# Youngs Moduli (GPa) = 51.60684 56.99498 83.85698
#
# Poissons Ratio (x) = 0.15516 -0.14642
# Poissons Ratio (y) = 0.14049 0.67005
# Poissons Ratio (z) = -0.09011 0.45541
#
# Static dielectric constant tensor:
#      x y z
#    x 2.036040 0.000000 -0.062790 
#    y 0.000000 1.815230 0.000000 
#    z -0.062790 0.000000 1.960480 
# 
# From -- ./inp_files/26822.got.cif
#   From: 2010.05.17/outbox.cif.g08.bks.cpg/sg5_14_cif.got.tgz:26822.got - 2010.06.03 18:56:24.
