data_PCOD9128074
_publ_section_title
;
Structure prediction by ZEFSAII (Michael W. Deem and Ramdas Pophale) SiO2 
 PCOD9128074
Probable space group: C 2
;
_chemical_formula_sum "Si O2"
_cell_formula_units_Z 28
_cell_length_a 11.533021
_cell_length_b 9.864680
_cell_length_c 18.530909
_cell_angle_alpha 90.000000
_cell_angle_beta 33.510360
_cell_angle_gamma 90.000000
_cell_volume 1163.940885
_symmetry_space_group_name_H-M "C 2"
_symmetry_group_IT_number 5
_symmetry_cell_setting 'monoclinic'
loop_
_space_group_symop_operation_xyz
x,y,z
-x,y,-z
1/2+x,1/2+y,z
1/2-x,1/2+y,-z
loop_
_atom_site_type_symbol
_atom_site_label
_atom_site_fract_x
_atom_site_fract_y
_atom_site_fract_z
Si Si1 0.980599 0.910680 0.317871
Si Si2 0.065458 0.082077 0.048038
Si Si3 0.352263 0.056309 0.427542
Si Si4 0.860051 0.794496 0.140283
Si Si5 0.535352 0.149196 0.777219
Si Si6 0.782009 0.735326 0.698128
Si Si7 0.434078 0.707204 0.330497
O O1 0.993772 0.789458 0.253593
O O2 0.675099 0.668693 0.537865
O O3 0.131889 0.865842 0.304868
O O4 0.750462 0.936264 0.472948
O O5 0.950548 0.194103 0.155258
O O6 0.314308 0.091822 0.919861
O O7 0.971284 0.932201 0.109633
O O8 0.000000 0.113555 0.000000
O O9 0.369651 0.050961 0.332687
O O10 0.566130 0.113551 0.352243
O O11 0.970636 0.058394 0.740891
O O12 0.841711 0.689818 0.215201
O O13 0.621594 0.813324 0.237670
O O14 0.000000 0.747516 0.000000
O O15 0.751885 0.742631 0.628379
#
# Coordination Sequence:
#
# PCOD9128074 Si02
#       7
#     4   4   4   4   4   4   4
#     4   9  22  42  70 109 134 196 249 286 378 443
#     4  11  22  42  71 104 136 189 248 294 376 436
#     4   9  22  41  69 108 136 187 254 289 373 447
#     4  11  26  46  67 109 148 185 249 309 368 446
#     4  11  22  48  73 101 148 194 241 312 365 441
#     4  11  20  44  74 102 144 195 240 314 367 440
#     4  10  23  46  65 107 147 188 250 300 372 445
#
# _framework density 24.056204999999999
#
# number of rings (size 3 to 8) (size 9 to 14) (size 15 to 20)
#    0.857    0.857    2.857    2.143    0.000    2.857 
#   10.286    2.857    0.000    0.000    0.000    0.000 
#    0.000    0.000    0.000    0.000    0.000    0.000 
#
# Total GULP energy -78163.493199 kJ/mol
# GULP energy per Si atom -5583.106657 kJ/mol
# Density = 2.400145 g / cm^3
# Si number density = 24.056205 Si / 1000 Ang^3
#
#
#
# Elastic Constant Matrix: (Units=GPa)
#
#
# Indices 1 2 3 4 5 6 
#
# 1 111.0377 23.5918 23.8486 0.0000 -7.4213 0.0000
# 2 23.5918 115.2450 7.4508 -0.0001 -4.7531 0.0000
# 3 23.8486 7.4508 111.4164 -0.0003 -0.5057 -0.0001
# 4 0.0000 -0.0001 -0.0003 28.1254 0.0000 -9.9666
# 5 -7.4213 -4.7531 -0.5057 0.0000 19.3589 0.0000
# 6 0.0000 0.0000 -0.0001 -9.9666 0.0000 13.8386
#
#
#
# Elastic Compliance Matrix: (Units=1/GPa)
#
#
# Indices 1 2 3 4 5 6 
#
# 1 0.010043 -0.001787 -0.002015 0.000000 0.003359 0.000000
# 2 -0.001787 0.009121 -0.000220 0.000000 0.001549 0.000000
# 3 -0.002015 -0.000220 0.009419 0.000000 -0.000581 0.000000
# 4 0.000000 0.000000 0.000000 0.047739 0.000000 0.034382
# 5 0.003359 0.001549 -0.000581 0.000000 0.053308 0.000000
# 6 0.000000 0.000000 0.000000 0.034382 0.000000 0.097024
#
#
# Mechanical properties :
#
#
# Convention : Reuss Voigt Hill
#
# Bulk Modulus (GPa) = 48.69045 49.72018 49.20532
# Shear Modulus (GPa) = 20.70015 31.11843 25.90929
#
# Velocity S-wave (km/s) = 2.93660 3.60053 3.28538
# Velocity P-wave (km/s) = 5.63758 6.16427 5.90680
#
# Compressibility (1/GPa) = 0.02053791
#
# Stress axis : x y z
#
# Youngs Moduli (GPa) = 99.57292 109.63557 106.17130
#
# Poissons Ratio (x) = 0.19593 0.21393
# Poissons Ratio (y) = 0.17795 0.02340
# Poissons Ratio (z) = 0.20063 0.02416
#
# Static dielectric constant tensor:
#      x y z
#    x 1.908670 0.000000 0.006820 
#    y 0.000000 2.039960 0.000000 
#    z 0.006820 0.000000 2.028620 
# 
# From -- ./inp_files/65272.got.cif
#   From: 2010.05.17/outbox.cif.g08.bks.cpg/sg5_33_cif.got.tgz:65272.got - 2010.06.03 18:56:24.
