data_PCOD9128822
_publ_section_title
;
Structure prediction by ZEFSAII (Michael W. Deem and Ramdas Pophale) SiO2 
 PCOD9128822
Probable space group: C 2
;
_chemical_formula_sum "Si O2"
_cell_formula_units_Z 28
_cell_length_a 18.973322
_cell_length_b 9.166851
_cell_length_c 21.976369
_cell_angle_alpha 90.000000
_cell_angle_beta 160.500854
_cell_angle_gamma 90.000000
_cell_volume 1275.840736
_symmetry_space_group_name_H-M "C 2"
_symmetry_group_IT_number 5
_symmetry_cell_setting 'monoclinic'
loop_
_space_group_symop_operation_xyz
x,y,z
-x,y,-z
1/2+x,1/2+y,z
1/2-x,1/2+y,-z
loop_
_atom_site_type_symbol
_atom_site_label
_atom_site_fract_x
_atom_site_fract_y
_atom_site_fract_z
Si Si1 0.193892 0.000000 0.564915
Si Si2 0.780056 0.217830 0.937851
Si Si3 0.000000 0.141738 0.000000
Si Si4 0.000000 0.198737 0.500000
Si Si5 0.356368 0.190125 0.513578
Si Si6 0.896021 0.428481 0.315681
Si Si7 0.445273 0.680889 0.262473
Si Si8 0.319979 0.010451 0.045028
O O1 0.147190 0.828991 0.533596
O O2 0.165044 0.092869 0.601985
O O3 0.031975 0.068977 0.384281
O O4 0.433490 0.021103 0.738667
O O5 0.552985 0.213478 0.719680
O O6 0.805340 0.070678 0.998320
O O7 0.781035 0.349504 0.986861
O O8 0.952058 0.229659 0.023455
O O9 0.201713 0.036207 0.167990
O O10 0.100602 0.305790 0.630754
O O11 0.139904 0.194088 0.374378
O O12 0.399795 0.034090 0.518434
O O13 0.896727 0.335518 0.254051
O O14 0.248999 0.614411 0.066854
#
# Coordination Sequence:
#
# PCOD9128822 Si02
#       8
#     4   4   2   2   4   4   4   4
#     4  11  24  44  66 104 142 183 236 308 357 434
#     4  11  26  44  72 108 144 195 246 296 371 431
#     4  10  26  48  68 102 158 188 238 294 380 438
#     4  10  26  44  64 102 136 190 246 290 376 434
#     4  11  22  44  70  98 146 184 232 304 370 414
#     4  10  25  43  72  99 140 199 231 297 373 430
#     4  11  23  44  71 104 141 177 236 318 355 415
#     4  12  26  43  76 108 137 192 255 300 357 435
#
# _framework density 21.946313
#
# number of rings (size 3 to 8) (size 9 to 14) (size 15 to 20)
#    0.000    1.143    2.857    1.714    8.000    5.143 
#    0.000    0.000    0.000    0.000    0.000    0.000 
#    0.000    0.000    0.000    0.000    0.000    0.000 
#
# Total GULP energy -78241.827533 kJ/mol
# GULP energy per Si atom -5588.701967 kJ/mol
# Density = 2.189636 g / cm^3
# Si number density = 21.946313 Si / 1000 Ang^3
#
#
#
# Elastic Constant Matrix: (Units=GPa)
#
#
# Indices 1 2 3 4 5 6 
#
# 1 99.9501 56.1288 5.4159 -0.0016 -1.4988 -0.0006
# 2 56.1288 139.3136 6.5359 -0.0009 -13.3452 0.0007
# 3 5.4159 6.5359 53.5559 -0.0010 -10.4647 0.0006
# 4 -0.0016 -0.0009 -0.0010 29.6202 -0.0014 -10.7325
# 5 -1.4988 -13.3452 -10.4647 -0.0014 21.3515 0.0001
# 6 -0.0006 0.0007 0.0006 -10.7325 0.0001 46.4218
#
#
#
# Elastic Compliance Matrix: (Units=1/GPa)
#
#
# Indices 1 2 3 4 5 6 
#
# 1 0.013135 -0.005535 -0.001270 0.000001 -0.003160 0.000000
# 2 -0.005535 0.009968 0.000536 0.000000 0.006104 0.000000
# 3 -0.001270 0.000536 0.020772 0.000001 0.010427 0.000000
# 4 0.000001 0.000000 0.000001 0.036847 0.000003 0.008519
# 5 -0.003160 0.006104 0.010427 0.000003 0.055539 0.000000
# 6 0.000000 0.000000 0.000000 0.008519 0.000000 0.023511
#
#
# Mechanical properties :
#
#
# Convention : Reuss Voigt Hill
#
# Bulk Modulus (GPa) = 31.91178 47.66453 39.78816
# Shear Modulus (GPa) = 27.35880 34.46129 30.91004
#
# Velocity S-wave (km/s) = 3.53459 3.96694 3.75699
# Velocity P-wave (km/s) = 5.58839 6.53820 6.08187
#
# Compressibility (1/GPa) = 0.03133639
#
# Stress axis : x y z
#
# Youngs Moduli (GPa) = 76.13396 100.32413 48.14064
#
# Poissons Ratio (x) = 0.55530 0.06115
# Poissons Ratio (y) = 0.42141 -0.02581
# Poissons Ratio (z) = 0.09671 -0.05378
#
# Static dielectric constant tensor:
#      x y z
#    x 1.837910 0.000000 -0.029640 
#    y 0.000000 1.823040 0.000000 
#    z -0.029640 0.000000 1.798920 
# 
# From -- ./inp_files/69458.got.cif
#   From: 2010.05.17/outbox.cif.g08.bks.cpg/sg5_35_cif.got.tgz:69458.got - 2010.06.03 18:56:24.
