data_PCOD9128451
_publ_section_title
;
Structure prediction by ZEFSAII (Michael W. Deem and Ramdas Pophale) SiO2 
 PCOD9128451
Probable space group: C 2
;
_chemical_formula_sum "Si O2"
_cell_formula_units_Z 26
_cell_length_a 14.221376
_cell_length_b 9.623177
_cell_length_c 8.877048
_cell_angle_alpha 90.000000
_cell_angle_beta 118.452083
_cell_angle_gamma 90.000000
_cell_volume 1068.130149
_symmetry_space_group_name_H-M "C 2"
_symmetry_group_IT_number 5
_symmetry_cell_setting 'monoclinic'
loop_
_space_group_symop_operation_xyz
x,y,z
-x,y,-z
1/2+x,1/2+y,z
1/2-x,1/2+y,-z
loop_
_atom_site_type_symbol
_atom_site_label
_atom_site_fract_x
_atom_site_fract_y
_atom_site_fract_z
Si Si1 0.632499 0.465270 0.109186
Si Si2 0.379287 0.652950 0.621828
Si Si3 0.000000 0.496977 0.000000
Si Si4 0.500000 0.443536 0.500000
Si Si5 0.931887 0.803008 0.208727
Si Si6 0.145689 0.698261 0.320411
Si Si7 0.000000 0.374361 0.500000
Si Si8 0.143875 0.504407 0.857565
O O1 0.615617 0.604566 0.197526
O O2 0.668265 0.337465 0.242847
O O3 0.732878 0.481229 0.072407
O O4 0.551586 0.403144 0.920500
O O5 0.444661 0.535142 0.585362
O O6 0.253977 0.650971 0.480803
O O7 0.434729 0.786580 0.579980
O O8 0.082635 0.588032 0.165854
O O9 0.920117 0.425694 0.057748
O O10 0.398205 0.379832 0.331940
O O11 0.867785 0.667913 0.115859
O O12 0.048010 0.745228 0.352544
O O13 0.915990 0.465252 0.342260
#
# Coordination Sequence:
#
# PCOD9128451 Si02
#       8
#     4   4   2   2   4   4   2   4
#     4  12  24  46  73 107 144 199 252 311 367 453
#     4  11  27  43  71 104 148 196 243 315 372 435
#     4  10  24  44  70 100 138 198 242 304 354 450
#     4  11  25  42  70 106 151 189 248 314 370 445
#     4  11  25  46  73 109 143 198 254 303 377 445
#     4  11  21  45  69 102 143 188 250 295 371 439
#     4  11  25  50  64 110 159 193 242 306 386 447
#     4  11  25  45  74 102 150 197 246 309 366 459
#
# _framework density 24.341602999999999
#
# number of rings (size 3 to 8) (size 9 to 14) (size 15 to 20)
#    0.000    0.923    6.154    0.462    8.615    0.000 
#    2.769    0.000    0.000    0.000    0.000    0.000 
#    0.000    0.000    0.000    0.000    0.000    0.000 
#
# Total GULP energy -72407.839682 kJ/mol
# GULP energy per Si atom -5569.833822 kJ/mol
# Density = 2.428620 g / cm^3
# Si number density = 24.341603 Si / 1000 Ang^3
#
#
#
# Elastic Constant Matrix: (Units=GPa)
#
#
# Indices 1 2 3 4 5 6 
#
# 1 78.3616 -0.7774 11.5944 0.0000 -10.3532 0.0000
# 2 -0.7774 29.8640 34.7737 0.0000 -4.4330 0.0000
# 3 11.5944 34.7737 118.8310 0.0000 -8.7070 0.0000
# 4 0.0000 0.0000 0.0000 36.9473 0.0000 -10.0774
# 5 -10.3532 -4.4330 -8.7070 0.0000 51.3882 0.0000
# 6 0.0000 0.0000 0.0000 -10.0774 0.0000 16.4387
#
#
#
# Elastic Compliance Matrix: (Units=1/GPa)
#
#
# Indices 1 2 3 4 5 6 
#
# 1 0.013439 0.003099 -0.002025 0.000000 0.002632 0.000000
# 2 0.003099 0.051688 -0.015245 0.000000 0.002500 0.000000
# 3 -0.002025 -0.015245 0.013110 0.000000 0.000498 0.000000
# 4 0.000000 0.000000 0.000000 0.032500 0.000000 0.019923
# 5 0.002632 0.002500 0.000498 0.000000 0.020290 0.000000
# 6 0.000000 0.000000 0.000000 0.019923 0.000000 0.073046
#
#
# Mechanical properties :
#
#
# Convention : Reuss Voigt Hill
#
# Bulk Modulus (GPa) = 20.04191 35.35977 27.70084
# Shear Modulus (GPa) = 20.07653 33.05257 26.56455
#
# Velocity S-wave (km/s) = 2.87502 3.68892 3.30710
# Velocity P-wave (km/s) = 4.39004 5.71858 5.09777
#
# Compressibility (1/GPa) = 0.04989543
#
# Stress axis : x y z
#
# Youngs Moduli (GPa) = 74.40773 19.34696 76.27493
#
# Poissons Ratio (x) = -0.05995 0.15447
# Poissons Ratio (y) = -0.23057 1.16278
# Poissons Ratio (z) = 0.15069 0.29494
#
# Static dielectric constant tensor:
#      x y z
#    x 2.175700 0.000000 -0.007790 
#    y 0.000000 2.092870 0.000000 
#    z -0.007790 0.000000 1.953960 
# 
# From -- ./inp_files/23743.got.cif
#   From: 2010.05.17/outbox.cif.g08.bks.cpg/sg5_12_cif.got.tgz:23743.got - 2010.06.03 18:56:24.
