data_PCOD9128215
_publ_section_title
;
Structure prediction by ZEFSAII (Michael W. Deem and Ramdas Pophale) SiO2 
 PCOD9128215
Probable space group: C 2
;
_chemical_formula_sum "Si O2"
_cell_formula_units_Z 28
_cell_length_a 15.329546
_cell_length_b 8.883734
_cell_length_c 15.863900
_cell_angle_alpha 90.000000
_cell_angle_beta 145.427408
_cell_angle_gamma 90.000000
_cell_volume 1225.920608
_symmetry_space_group_name_H-M "C 2"
_symmetry_group_IT_number 5
_symmetry_cell_setting 'monoclinic'
loop_
_space_group_symop_operation_xyz
x,y,z
-x,y,-z
1/2+x,1/2+y,z
1/2-x,1/2+y,-z
loop_
_atom_site_type_symbol
_atom_site_label
_atom_site_fract_x
_atom_site_fract_y
_atom_site_fract_z
Si Si1 0.071242 0.799450 0.295277
Si Si2 0.405022 0.842197 0.507891
Si Si3 0.373720 0.028419 0.214034
Si Si4 0.570923 0.148024 0.966409
Si Si5 0.030094 0.313659 0.124944
Si Si6 0.170383 0.651598 0.642341
Si Si7 0.630699 0.575564 0.880631
O O1 0.253318 0.771466 0.429432
O O2 0.987334 0.666644 0.279869
O O3 0.999831 0.777092 0.146254
O O4 0.999628 0.963673 0.260182
O O5 0.500000 0.782216 0.500000
O O6 0.526044 0.886895 0.676265
O O7 0.337339 0.002536 0.420722
O O8 0.294565 0.089080 0.236444
O O9 0.252269 0.999970 0.043754
O O10 0.504559 0.986465 0.884824
O O11 0.500000 0.172802 0.000000
O O12 0.753533 0.132659 0.100208
O O13 0.205096 0.272175 0.282208
O O14 0.936389 0.205461 0.112645
O O15 0.000000 0.291863 0.000000
O O16 0.000000 0.717382 0.500000
#
# Coordination Sequence:
#
# PCOD9128215 Si02
#       7
#     4   4   4   4   4   4   4
#     4  11  22  40  62  91 119 156 198 252 301 346
#     4   9  20  40  61  83 120 159 201 239 291 359
#     4   9  20  38  57  91 120 148 199 253 280 353
#     4  10  24  38  56  90 132 151 191 257 306 347
#     4  11  20  37  64  88 118 163 201 240 297 357
#     4   9  18  36  61  87 112 154 205 238 277 356
#     4  11  21  38  64  90 118 161 205 242 288 365
#
# _framework density 22.839977999999999
#
# number of rings (size 3 to 8) (size 9 to 14) (size 15 to 20)
#    0.000    2.286    2.857    1.714    2.000    2.857 
#   10.286    2.143    0.000    0.000    0.000    0.000 
#    0.000    0.000    0.000    0.000    0.000    0.000 
#
# Total GULP energy -78106.537817 kJ/mol
# GULP energy per Si atom -5579.038415 kJ/mol
# Density = 2.278799 g / cm^3
# Si number density = 22.839978 Si / 1000 Ang^3
#
#
#
# Elastic Constant Matrix: (Units=GPa)
#
#
# Indices 1 2 3 4 5 6 
#
# 1 68.1245 8.8192 19.6630 0.0000 6.9743 0.0000
# 2 8.8192 32.1772 5.0064 0.0000 10.3198 0.0000
# 3 19.6630 5.0064 50.4732 0.0000 16.7604 0.0000
# 4 0.0000 0.0000 0.0000 13.2907 0.0000 10.4855
# 5 6.9743 10.3198 16.7604 0.0000 37.6513 0.0000
# 6 0.0000 0.0000 0.0000 10.4855 0.0000 27.8982
#
#
#
# Elastic Compliance Matrix: (Units=1/GPa)
#
#
# Indices 1 2 3 4 5 6 
#
# 1 0.016976 -0.003904 -0.006498 0.000000 0.000818 0.000000
# 2 -0.003904 0.034976 0.001168 0.000000 -0.009383 0.000000
# 3 -0.006498 0.001168 0.025739 0.000000 -0.010574 0.000000
# 4 0.000000 0.000000 0.000000 0.106955 0.000000 -0.040199
# 5 0.000818 -0.009383 -0.010574 0.000000 0.033687 0.000000
# 6 0.000000 0.000000 0.000000 -0.040199 0.000000 0.050954
#
#
# Mechanical properties :
#
#
# Convention : Reuss Voigt Hill
#
# Bulk Modulus (GPa) = 16.88559 24.19470 20.54014
# Shear Modulus (GPa) = 16.26035 23.58713 19.92374
#
# Velocity S-wave (km/s) = 2.67109 3.21707 2.95671
# Velocity P-wave (km/s) = 4.11363 4.94121 4.54629
#
# Compressibility (1/GPa) = 0.05922210
#
# Stress axis : x y z
#
# Youngs Moduli (GPa) = 58.90602 28.59131 38.85086
#
# Poissons Ratio (x) = 0.11163 0.25245
# Poissons Ratio (y) = 0.22999 -0.04536
# Poissons Ratio (z) = 0.38276 -0.03338
#
# Static dielectric constant tensor:
#      x y z
#    x 1.962740 0.000000 -0.007660 
#    y 0.000000 1.834430 0.000000 
#    z -0.007660 0.000000 1.888170 
# 
# From -- ./inp_files/61475.got.cif
#   From: 2010.05.17/outbox.cif.g08.bks.cpg/sg5_31_cif.got.tgz:61475.got - 2010.06.03 18:56:24.
