data_PCOD9128444
_publ_section_title
;
Structure prediction by ZEFSAII (Michael W. Deem and Ramdas Pophale) SiO2 
 PCOD9128444
Probable space group: C 2
;
_chemical_formula_sum "Si O2"
_cell_formula_units_Z 26
_cell_length_a 18.545320
_cell_length_b 9.087448
_cell_length_c 8.878203
_cell_angle_alpha 90.000000
_cell_angle_beta 49.757657
_cell_angle_gamma 90.000000
_cell_volume 1142.108349
_symmetry_space_group_name_H-M "C 2"
_symmetry_group_IT_number 5
_symmetry_cell_setting 'monoclinic'
loop_
_space_group_symop_operation_xyz
x,y,z
-x,y,-z
1/2+x,1/2+y,z
1/2-x,1/2+y,-z
loop_
_atom_site_type_symbol
_atom_site_label
_atom_site_fract_x
_atom_site_fract_y
_atom_site_fract_z
Si Si1 0.326052 0.806020 0.718825
Si Si2 0.223583 0.619689 0.078139
Si Si3 0.500000 0.570438 0.000000
Si Si4 0.149055 0.823572 0.736640
Si Si5 0.900327 0.570920 0.999998
Si Si6 0.772667 0.323235 0.290950
Si Si7 0.546344 0.812175 0.729623
O O1 0.243026 0.811106 0.708056
O O2 0.418764 0.807651 0.488962
O O3 0.304973 0.953275 0.842121
O O4 0.310075 0.669324 0.852571
O O5 0.246087 0.702193 0.203407
O O6 0.131014 0.666895 0.103497
O O7 0.588906 0.464876 0.859726
O O8 0.488023 0.673064 0.869289
O O9 0.094570 0.676990 0.861949
O O10 0.182149 0.835913 0.520684
O O11 0.808397 0.469423 0.159709
O O12 0.984191 0.457318 0.847872
O O13 0.862195 0.299383 0.282825
#
# Coordination Sequence:
#
# PCOD9128444 Si02
#       7
#     4   4   2   4   4   4   4
#     4  10  24  44  68  97 139 190 238 286 362 431
#     4  11  23  43  68 100 137 185 235 288 350 431
#     4  12  24  40  66 108 138 166 242 312 344 400
#     4  10  27  40  70 101 137 184 243 301 348 422
#     4  11  24  45  67 103 145 181 238 301 360 424
#     4  11  23  43  73  97 135 192 240 287 354 438
#     4  11  25  43  72 101 140 186 239 294 359 426
#
# _framework density 22.764914999999998
#
# number of rings (size 3 to 8) (size 9 to 14) (size 15 to 20)
#    0.000    1.231    3.077    0.923   12.923    0.615 
#    0.000    1.538    0.000    3.692    0.000    0.000 
#    0.000    0.000    0.000    0.000    0.000    0.000 
#
# Total GULP energy -72530.275714 kJ/mol
# GULP energy per Si atom -5579.251978 kJ/mol
# Density = 2.271310 g / cm^3
# Si number density = 22.764915 Si / 1000 Ang^3
#
#
#
# Elastic Constant Matrix: (Units=GPa)
#
#
# Indices 1 2 3 4 5 6 
#
# 1 78.4126 27.3561 47.2757 0.0000 3.4820 0.0000
# 2 27.3561 122.4661 88.3346 0.0000 -2.7185 0.0000
# 3 47.2757 88.3346 236.8094 0.0000 5.1129 0.0000
# 4 0.0000 0.0000 0.0000 12.4854 0.0000 2.6684
# 5 3.4820 -2.7185 5.1129 0.0000 29.9104 0.0000
# 6 0.0000 0.0000 0.0000 2.6684 0.0000 38.2181
#
#
#
# Elastic Compliance Matrix: (Units=1/GPa)
#
#
# Indices 1 2 3 4 5 6 
#
# 1 0.014788 -0.001683 -0.002293 0.000000 -0.001483 0.000000
# 2 -0.001683 0.011453 -0.003978 0.000000 0.001917 0.000000
# 3 -0.002293 -0.003978 0.006189 0.000000 -0.001153 0.000000
# 4 0.000000 0.000000 0.000000 0.081307 0.000000 -0.005677
# 5 -0.001483 0.001917 -0.001153 0.000000 0.033977 0.000000
# 6 0.000000 0.000000 0.000000 -0.005677 0.000000 0.026562
#
#
# Mechanical properties :
#
#
# Convention : Reuss Voigt Hill
#
# Bulk Modulus (GPa) = 60.51606 84.84677 72.68141
# Shear Modulus (GPa) = 25.55062 34.43757 29.99409
#
# Velocity S-wave (km/s) = 3.35381 3.89362 3.63376
# Velocity P-wave (km/s) = 6.45276 7.58719 7.04286
#
# Compressibility (1/GPa) = 0.01652454
#
# Stress axis : x y z
#
# Youngs Moduli (GPa) = 67.62188 87.31326 161.57369
#
# Poissons Ratio (x) = 0.14691 0.37042
# Poissons Ratio (y) = 0.11378 0.64269
# Poissons Ratio (z) = 0.15503 0.34730
#
# Static dielectric constant tensor:
#      x y z
#    x 1.981760 0.000000 0.018680 
#    y 0.000000 1.873600 0.000000 
#    z 0.018680 0.000000 1.888930 
# 
# From -- ./inp_files/29105.got.cif
#   From: 2010.05.17/outbox.cif.g08.bks.cpg/sg5_15_cif.got.tgz:29105.got - 2010.06.03 18:56:24.
