data_PCOD9128045
_publ_section_title
;
Structure prediction by ZEFSAII (Michael W. Deem and Ramdas Pophale) SiO2 
 PCOD9128045
Probable space group: C 2
;
_chemical_formula_sum "Si O2"
_cell_formula_units_Z 18
_cell_length_a 17.082412
_cell_length_b 9.095125
_cell_length_c 5.112675
_cell_angle_alpha 90.000000
_cell_angle_beta 72.295460
_cell_angle_gamma 90.000000
_cell_volume 756.717317
_symmetry_space_group_name_H-M "C 2"
_symmetry_group_IT_number 5
_symmetry_cell_setting 'monoclinic'
loop_
_space_group_symop_operation_xyz
x,y,z
-x,y,-z
1/2+x,1/2+y,z
1/2-x,1/2+y,-z
loop_
_atom_site_type_symbol
_atom_site_label
_atom_site_fract_x
_atom_site_fract_y
_atom_site_fract_z
Si Si1 0.713656 0.228640 0.101923
Si Si2 0.500000 0.564265 0.000000
Si Si3 0.140169 0.419958 0.179753
Si Si4 0.884476 0.811233 0.311691
Si Si5 0.500000 0.079233 0.000000
Si Si6 0.000000 0.260502 0.500000
O O1 0.660564 0.319237 0.366814
O O2 0.699349 0.057413 0.187961
O O3 0.804545 0.293164 0.002102
O O4 0.677513 0.254780 0.848974
O O5 0.425844 0.459678 0.168634
O O6 0.519864 0.662512 0.229684
O O7 0.082500 0.355276 0.466642
O O8 0.070820 0.485254 0.059784
O O9 0.956972 0.689926 0.249252
#
# Coordination Sequence:
#
# PCOD9128045 Si02
#       6
#     4   2   4   4   2   2
#     4  11  26  44  74 105 149 182 240 299 367 416
#     4  11  25  42  76 104 144 188 246 294 348 432
#     4  11  26  47  73 109 144 195 238 300 360 428
#     4  10  23  45  72 105 143 187 237 295 365 425
#     4   9  21  48  74 102 136 198 238 290 358 442
#     4  12  26  44  70 104 148 190 242 292 354 436
#
# _framework density 23.786950999999998
#
# number of rings (size 3 to 8) (size 9 to 14) (size 15 to 20)
#    0.000    1.333    0.000    3.333    6.222   15.111 
#    0.000    0.000    0.000    0.000    0.000    0.000 
#    0.000    0.000    0.000    0.000    0.000    0.000 
#
# Total GULP energy -50395.125365 kJ/mol
# GULP energy per Si atom -5599.458374 kJ/mol
# Density = 2.373281 g / cm^3
# Si number density = 23.786951 Si / 1000 Ang^3
#
#
#
# Elastic Constant Matrix: (Units=GPa)
#
#
# Indices 1 2 3 4 5 6 
#
# 1 104.6854 53.2443 47.3240 0.0000 -27.1884 0.0000
# 2 53.2443 135.7156 44.8181 0.0000 -27.6244 0.0000
# 3 47.3240 44.8181 112.5567 0.0000 -23.9095 0.0000
# 4 0.0000 0.0000 0.0000 17.9624 0.0000 2.1200
# 5 -27.1884 -27.6244 -23.9095 0.0000 55.0170 0.0000
# 6 0.0000 0.0000 0.0000 2.1200 0.0000 42.4055
#
#
#
# Elastic Compliance Matrix: (Units=1/GPa)
#
#
# Indices 1 2 3 4 5 6 
#
# 1 0.013933 -0.003529 -0.003709 0.000000 0.003502 0.000000
# 2 -0.003529 0.009878 -0.001946 0.000000 0.002370 0.000000
# 3 -0.003709 -0.001946 0.011702 0.000000 0.002275 0.000000
# 4 0.000000 0.000000 0.000000 0.056002 0.000000 -0.002800
# 5 0.003502 0.002370 0.002275 0.000000 0.022086 0.000000
# 6 0.000000 0.000000 0.000000 -0.002800 0.000000 0.023722
#
#
# Mechanical properties :
#
#
# Convention : Reuss Voigt Hill
#
# Bulk Modulus (GPa) = 58.32489 71.52562 64.92526
# Shear Modulus (GPa) = 30.97763 36.91506 33.94635
#
# Velocity S-wave (km/s) = 3.61265 3.94369 3.78180
# Velocity P-wave (km/s) = 6.47878 7.13243 6.81345
#
# Compressibility (1/GPa) = 0.01714534
#
# Stress axis : x y z
#
# Youngs Moduli (GPa) = 71.76951 101.23677 85.45389
#
# Poissons Ratio (x) = 0.35723 0.31698
# Poissons Ratio (y) = 0.25325 0.16630
# Poissons Ratio (z) = 0.26622 0.19702
#
# Static dielectric constant tensor:
#      x y z
#    x 1.902100 0.000000 -0.014240 
#    y 0.000000 1.975690 0.000000 
#    z -0.014240 0.000000 1.886910 
# 
# From -- ./inp_files/6344.got.cif
#   From: 2010.05.17/outbox.cif.g08.bks.cpg/sg5_4_cif.got.tgz:6344.got - 2010.06.03 18:56:24.
