data_PCOD9128613
_publ_section_title
;
Structure prediction by ZEFSAII (Michael W. Deem and Ramdas Pophale) SiO2 
 PCOD9128613
Probable space group: C 2
;
_chemical_formula_sum "Si O2"
_cell_formula_units_Z 20
_cell_length_a 17.978258
_cell_length_b 4.907890
_cell_length_c 26.046205
_cell_angle_alpha 90.000000
_cell_angle_beta 161.416916
_cell_angle_gamma 90.000000
_cell_volume 732.387592
_symmetry_space_group_name_H-M "C 2"
_symmetry_group_IT_number 5
_symmetry_cell_setting 'monoclinic'
loop_
_space_group_symop_operation_xyz
x,y,z
-x,y,-z
1/2+x,1/2+y,z
1/2-x,1/2+y,-z
loop_
_atom_site_type_symbol
_atom_site_label
_atom_site_fract_x
_atom_site_fract_y
_atom_site_fract_z
Si Si1 0.233181 0.666170 0.250377
Si Si2 0.055127 0.906834 0.743016
Si Si3 0.695143 0.806869 0.998461
Si Si4 0.000000 0.740608 0.000000
Si Si5 0.130304 0.787069 0.482483
Si Si6 0.500000 0.973689 0.500000
O O1 0.493363 0.578091 0.400261
O O2 0.285775 0.791231 0.340295
O O3 0.054158 0.418056 0.143998
O O4 0.103465 0.854073 0.122022
O O5 0.132229 0.731597 0.842085
O O6 0.289883 0.047498 0.878281
O O7 0.885839 0.155659 0.646560
O O8 0.957429 0.724105 0.632933
O O9 0.810285 0.062354 0.044607
O O10 0.044911 0.648635 0.479023
#
# Coordination Sequence:
#
# PCOD9128613 Si02
#       6
#     4   4   4   2   4   2
#     4  10  24  46  72 111 157 205 260 327 406 472
#     4  10  24  47  75 112 153 208 264 333 402 480
#     4  11  26  48  78 114 163 212 265 330 404 490
#     4   8  20  48  66 100 152 200 258 318 404 478
#     4  11  26  45  75 111 155 199 269 327 401 471
#     4  12  26  44  78 116 156 208 260 352 390 482
#
# _framework density 27.307943000000002
#
# number of rings (size 3 to 8) (size 9 to 14) (size 15 to 20)
#    0.000    1.600    0.000    1.800   14.000    1.600 
#    3.600    1.000    0.000    0.000    0.000    0.000 
#    0.000    0.000    0.000    0.000    0.000    0.000 
#
# Total GULP energy -55856.655352 kJ/mol
# GULP energy per Si atom -5585.665535 kJ/mol
# Density = 2.724579 g / cm^3
# Si number density = 27.307943 Si / 1000 Ang^3
#
#
#
# Elastic Constant Matrix: (Units=GPa)
#
#
# Indices 1 2 3 4 5 6 
#
# 1 134.7971 36.6210 73.7335 -0.0904 -23.3434 -0.0138
# 2 36.6210 83.8327 43.3661 -0.0714 -10.3994 0.0489
# 3 73.7335 43.3661 170.5697 -0.0821 -13.0656 0.0847
# 4 -0.0904 -0.0714 -0.0821 19.9907 0.0875 -12.5817
# 5 -23.3434 -10.3994 -13.0656 0.0875 88.3354 -0.0141
# 6 -0.0138 0.0489 0.0847 -12.5817 -0.0141 35.5813
#
#
#
# Elastic Compliance Matrix: (Units=1/GPa)
#
#
# Indices 1 2 3 4 5 6 
#
# 1 0.010461 -0.002381 -0.003769 0.000033 0.001927 0.000029
# 2 -0.002381 0.014386 -0.002576 0.000023 0.000683 -0.000006
# 3 -0.003769 -0.002576 0.008140 -0.000004 -0.000095 -0.000019
# 4 0.000033 0.000023 -0.000004 0.064343 -0.000049 0.022752
# 5 0.001927 0.000683 -0.000095 -0.000049 0.011896 -0.000013
# 6 0.000029 -0.000006 -0.000019 0.022752 -0.000013 0.036150
#
#
# Mechanical properties :
#
#
# Convention : Reuss Voigt Hill
#
# Bulk Modulus (GPa) = 64.37306 77.40452 70.88879
# Shear Modulus (GPa) = 29.76095 44.48007 37.12051
#
# Velocity S-wave (km/s) = 3.30484 4.04026 3.69091
# Velocity P-wave (km/s) = 6.17954 7.08318 6.64674
#
# Compressibility (1/GPa) = 0.01553445
#
# Stress axis : x y z
#
# Youngs Moduli (GPa) = 95.59612 69.51255 122.85639
#
# Poissons Ratio (x) = 0.16550 0.46305
# Poissons Ratio (y) = 0.22760 0.31647
# Poissons Ratio (z) = 0.36030 0.17906
#
# Static dielectric constant tensor:
#      x y z
#    x 2.196440 -0.000120 0.006550 
#    y -0.000120 2.150160 0.000140 
#    z 0.006550 0.000140 2.126280 
# 
# From -- ./inp_files/70782.got.cif
#   From: 2010.05.17/outbox.cif.g08.bks.cpg/sg5_36_cif.got.tgz:70782.got - 2010.06.03 18:56:24.
