data_PCOD9128077
_publ_section_title
;
Structure prediction by ZEFSAII (Michael W. Deem and Ramdas Pophale) SiO2 
 PCOD9128077
Probable space group: C 2
;
_chemical_formula_sum "Si O2"
_cell_formula_units_Z 20
_cell_length_a 9.974570
_cell_length_b 8.242588
_cell_length_c 11.443998
_cell_angle_alpha 90.000000
_cell_angle_beta 110.544424
_cell_angle_gamma 90.000000
_cell_volume 881.043046
_symmetry_space_group_name_H-M "C 2"
_symmetry_group_IT_number 5
_symmetry_cell_setting 'monoclinic'
loop_
_space_group_symop_operation_xyz
x,y,z
-x,y,-z
1/2+x,1/2+y,z
1/2-x,1/2+y,-z
loop_
_atom_site_type_symbol
_atom_site_label
_atom_site_fract_x
_atom_site_fract_y
_atom_site_fract_z
Si Si1 0.000000 0.073460 0.000000
Si Si2 0.518848 0.254801 0.133368
Si Si3 0.159929 0.561059 0.533387
Si Si4 0.241582 0.726012 0.788694
Si Si5 0.280374 0.589108 0.310104
Si Si6 0.000000 0.240508 0.500000
O O1 0.134042 0.178308 0.082595
O O2 0.975921 0.942654 0.097128
O O3 0.409901 0.186900 0.195225
O O4 0.682214 0.222601 0.217207
O O5 0.500000 0.175516 0.000000
O O6 0.247667 0.624707 0.670460
O O7 0.227411 0.583931 0.428071
O O8 0.127799 0.369597 0.526029
O O9 0.000000 0.638317 0.500000
O O10 0.245543 0.914911 0.755371
O O11 0.447443 0.633848 0.375179
#
# Coordination Sequence:
#
# PCOD9128077 Si02
#       6
#     2   4   4   4   4   2
#     4  10  28  44  68 100 138 184 236 272 336 404
#     4  10  26  46  68  98 141 181 230 278 337 404
#     4  10  23  46  67 100 142 169 219 286 343 407
#     4  12  26  46  73 100 139 181 231 284 339 402
#     4  12  25  43  73 103 134 179 228 280 347 404
#     4  10  24  40  66 100 134 172 216 274 344 400
#
# _framework density 22.700365999999999
#
# number of rings (size 3 to 8) (size 9 to 14) (size 15 to 20)
#    1.200    0.000    2.000    2.400    5.600    4.800 
#    0.000    0.000    0.000    0.000    0.000    0.000 
#    0.000    0.000    0.000    0.000    0.000    0.000 
#
# Total GULP energy -55772.601876 kJ/mol
# GULP energy per Si atom -5577.260188 kJ/mol
# Density = 2.264870 g / cm^3
# Si number density = 22.700366 Si / 1000 Ang^3
#
#
#
# Elastic Constant Matrix: (Units=GPa)
#
#
# Indices 1 2 3 4 5 6 
#
# 1 67.8466 14.2435 42.3453 0.0000 1.8524 0.0000
# 2 14.2435 106.9015 57.4041 0.0000 20.0110 0.0000
# 3 42.3453 57.4041 154.9087 0.0000 32.0891 0.0000
# 4 0.0000 0.0000 0.0000 40.1889 0.0000 15.7746
# 5 1.8524 20.0110 32.0891 0.0000 57.2185 0.0000
# 6 0.0000 0.0000 0.0000 15.7746 0.0000 15.9458
#
#
#
# Elastic Compliance Matrix: (Units=1/GPa)
#
#
# Indices 1 2 3 4 5 6 
#
# 1 0.018076 0.000072 -0.005478 0.000000 0.002462 0.000000
# 2 0.000072 0.011859 -0.004022 0.000000 -0.001894 0.000000
# 3 -0.005478 -0.004022 0.010313 0.000000 -0.004200 0.000000
# 4 0.000000 0.000000 0.000000 0.040677 0.000000 -0.040241
# 5 0.002462 -0.001894 -0.004200 0.000000 0.020415 0.000000
# 6 0.000000 0.000000 0.000000 -0.040241 0.000000 0.102521
#
#
# Mechanical properties :
#
#
# Convention : Reuss Voigt Hill
#
# Bulk Modulus (GPa) = 46.74429 61.96030 54.35230
# Shear Modulus (GPa) = 21.75360 37.04824 29.40092
#
# Velocity S-wave (km/s) = 3.09899 4.04425 3.60276
# Velocity P-wave (km/s) = 5.78287 7.01157 6.42665
#
# Compressibility (1/GPa) = 0.02139299
#
# Stress axis : x y z
#
# Youngs Moduli (GPa) = 55.32317 84.32364 96.96296
#
# Poissons Ratio (x) = -0.00610 0.53114
# Poissons Ratio (y) = -0.00400 0.38998
# Poissons Ratio (z) = 0.30305 0.33915
#
# Static dielectric constant tensor:
#      x y z
#    x 1.911710 0.000000 0.034930 
#    y 0.000000 1.866190 0.000000 
#    z 0.034930 0.000000 1.837960 
# 
# From -- ./inp_files/38176.got.cif
#   From: 2010.05.17/outbox.cif.g08.bks.cpg/sg5_20_cif.got.tgz:38176.got - 2010.06.03 18:56:24.
