data_PCOD9128035
_publ_section_title
;
Structure prediction by ZEFSAII (Michael W. Deem and Ramdas Pophale) SiO2 
 PCOD9128035
Probable space group: C 2
;
_chemical_formula_sum "Si O2"
_cell_formula_units_Z 30
_cell_length_a 5.130945
_cell_length_b 18.096724
_cell_length_c 14.887125
_cell_angle_alpha 90.000000
_cell_angle_beta 104.498599
_cell_angle_gamma 90.000000
_cell_volume 1338.296970
_symmetry_space_group_name_H-M "C 2"
_symmetry_group_IT_number 5
_symmetry_cell_setting 'monoclinic'
loop_
_space_group_symop_operation_xyz
x,y,z
-x,y,-z
1/2+x,1/2+y,z
1/2-x,1/2+y,-z
loop_
_atom_site_type_symbol
_atom_site_label
_atom_site_fract_x
_atom_site_fract_y
_atom_site_fract_z
Si Si1 0.070064 0.224400 0.416907
Si Si2 0.951971 0.668201 0.732127
Si Si3 0.098764 0.554924 0.110783
Si Si4 0.097568 0.957684 0.108798
Si Si5 0.357712 0.866308 0.639573
Si Si6 0.000000 0.972089 0.500000
Si Si7 0.030008 0.839992 0.250013
Si Si8 0.210459 0.580191 0.585554
O O1 0.251860 0.282323 0.381856
O O2 0.226729 0.154223 0.463723
O O3 0.000000 0.268404 0.500000
O O4 0.833230 0.188734 0.338646
O O5 0.040445 0.752573 0.765667
O O6 0.914523 0.621740 0.819708
O O7 0.116140 0.614699 0.673826
O O8 0.891894 0.493069 0.128785
O O9 0.395038 0.519722 0.130818
O O10 0.000000 0.573960 0.000000
O O11 0.078166 0.882352 0.161627
O O12 0.000000 0.943906 0.000000
O O13 0.679925 0.854603 0.674528
O O14 0.239328 0.918310 0.553455
O O15 0.209016 0.883497 0.719870
O O16 0.952145 0.023309 0.585631
O O17 0.000000 0.542921 0.500000
#
# Coordination Sequence:
#
# PCOD9128035 Si02
#       8
#     4   4   4   4   4   2   4   4
#     4  11  23  44  65  93 137 188 229 283 349 410
#     4  11  25  42  71  99 136 182 233 292 347 414
#     4  10  24  45  72 104 140 180 226 282 356 424
#     4  10  23  45  71 101 139 180 220 280 355 425
#     4  11  28  43  67  98 134 186 233 290 339 412
#     4  12  30  42  64  98 142 186 248 292 350 400
#     4  11  25  45  70 101 135 176 238 284 350 406
#     4  12  24  42  63  96 134 183 231 288 343 412
#
# _framework density 22.416547000000001
#
# number of rings (size 3 to 8) (size 9 to 14) (size 15 to 20)
#    0.000    1.067    3.333    0.800   10.267    2.667 
#    0.000    0.000    0.000    4.800    0.000    0.000 
#    0.000    0.000    0.000    0.000    0.000    0.000 
#
# Total GULP energy -83517.445299 kJ/mol
# GULP energy per Si atom -5567.829687 kJ/mol
# Density = 2.236553 g / cm^3
# Si number density = 22.416547 Si / 1000 Ang^3
#
#
#
# Elastic Constant Matrix: (Units=GPa)
#
#
# Indices 1 2 3 4 5 6 
#
# 1 79.2440 32.5483 33.6536 0.0000 -15.8869 0.0000
# 2 32.5483 143.9645 79.0420 0.0000 -17.9951 0.0000
# 3 33.6536 79.0420 104.1981 0.0000 -28.2014 0.0000
# 4 0.0000 0.0000 0.0000 43.3140 0.0000 -9.9915
# 5 -15.8869 -17.9951 -28.2014 0.0000 35.7403 0.0000
# 6 0.0000 0.0000 0.0000 -9.9915 0.0000 33.4836
#
#
#
# Elastic Compliance Matrix: (Units=1/GPa)
#
#
# Indices 1 2 3 4 5 6 
#
# 1 0.015150 -0.001421 -0.002780 0.000000 0.003825 0.000000
# 2 -0.001421 0.012096 -0.009205 0.000000 -0.001805 0.000000
# 3 -0.002780 -0.009205 0.020204 0.000000 0.010071 0.000000
# 4 0.000000 0.000000 0.000000 0.024794 0.000000 0.007399
# 5 0.003825 -0.001805 0.010071 0.000000 0.036718 0.000000
# 6 0.000000 0.000000 0.000000 0.007399 0.000000 0.032073
#
#
# Mechanical properties :
#
#
# Convention : Reuss Voigt Hill
#
# Bulk Modulus (GPa) = 48.45480 68.65495 58.55487
# Shear Modulus (GPa) = 28.61618 34.65176 31.63397
#
# Velocity S-wave (km/s) = 3.57678 3.93595 3.76065
# Velocity P-wave (km/s) = 6.22257 7.16582 6.71079
#
# Compressibility (1/GPa) = 0.02063779
#
# Stress axis : x y z
#
# Youngs Moduli (GPa) = 66.00489 82.67384 49.49604
#
# Poissons Ratio (x) = 0.11746 0.13761
# Poissons Ratio (y) = 0.09377 0.45562
# Poissons Ratio (z) = 0.18350 0.76102
#
# Static dielectric constant tensor:
#      x y z
#    x 1.396160 0.000000 -0.197510 
#    y 0.000000 1.835870 0.000000 
#    z -0.197510 0.000000 1.804360 
# 
# From -- ./inp_files/49371.got.cif
#   From: 2010.05.17/outbox.cif.g08.bks.cpg/sg5_25_cif.got.tgz:49371.got - 2010.06.03 18:56:24.
