data_PCOD9128990
_publ_section_title
;
Structure prediction by ZEFSAII (Michael W. Deem and Ramdas Pophale) SiO2 
 PCOD9128990
Probable space group: C 2
;
_chemical_formula_sum "Si O2"
_cell_formula_units_Z 26
_cell_length_a 15.363088
_cell_length_b 8.331250
_cell_length_c 10.525082
_cell_angle_alpha 90.000000
_cell_angle_beta 57.651559
_cell_angle_gamma 90.000000
_cell_volume 1138.080798
_symmetry_space_group_name_H-M "C 2"
_symmetry_group_IT_number 5
_symmetry_cell_setting 'monoclinic'
loop_
_space_group_symop_operation_xyz
x,y,z
-x,y,-z
1/2+x,1/2+y,z
1/2-x,1/2+y,-z
loop_
_atom_site_type_symbol
_atom_site_label
_atom_site_fract_x
_atom_site_fract_y
_atom_site_fract_z
Si Si1 0.942013 0.282810 0.278117
Si Si2 0.237405 0.383032 0.906458
Si Si3 0.226133 0.006634 0.857718
Si Si4 0.767136 0.286461 0.604991
Si Si5 0.585907 0.088591 0.839827
Si Si6 0.000000 0.053261 0.000000
Si Si7 0.417694 0.570209 0.653548
O O1 0.825408 0.294929 0.425305
O O2 0.966638 0.461165 0.213336
O O3 0.958877 0.166214 0.145873
O O4 0.017163 0.204583 0.322873
O O5 0.160421 0.481964 0.874527
O O6 0.350845 0.453996 0.791767
O O7 0.234047 0.195635 0.877506
O O8 0.218243 0.413342 0.070674
O O9 0.266303 0.948794 0.689109
O O10 0.104350 0.965368 0.958992
O O11 0.652808 0.213800 0.706121
O O12 0.836557 0.161298 0.628773
O O13 0.500000 0.157747 0.000000
O O14 0.500000 0.481135 0.500000
#
# Coordination Sequence:
#
# PCOD9128990 Si02
#       7
#     4   4   4   4   4   2   4
#     4  11  21  43  70  97 137 183 224 282 348 412
#     4  11  22  41  71  94 139 176 237 279 342 409
#     4  12  25  44  69 103 132 184 233 291 341 415
#     4  10  26  41  66  98 143 176 236 280 345 407
#     4  11  23  40  68  99 132 182 226 278 342 408
#     4  12  24  42  72  98 138 180 226 278 356 402
#     4   9  20  43  67  97 136 187 223 285 348 409
#
# _framework density 22.845476000000001
#
# number of rings (size 3 to 8) (size 9 to 14) (size 15 to 20)
#    0.000    1.231    3.846    1.846    5.385    0.000 
#    0.000    2.308    0.000    0.000    0.000    0.000 
#    0.000    0.000    0.000    0.000    0.000    0.000 
#
# Total GULP energy -72652.748109 kJ/mol
# GULP energy per Si atom -5588.672931 kJ/mol
# Density = 2.279348 g / cm^3
# Si number density = 22.845476 Si / 1000 Ang^3
#
#
#
# Elastic Constant Matrix: (Units=GPa)
#
#
# Indices 1 2 3 4 5 6 
#
# 1 35.1884 3.4930 23.9956 0.0000 -15.2127 0.0000
# 2 3.4930 70.6993 25.0307 0.0000 -12.6760 0.0000
# 3 23.9956 25.0307 161.7146 0.0000 -20.2762 0.0000
# 4 0.0000 0.0000 0.0000 27.1848 0.0000 -10.0561
# 5 -15.2127 -12.6760 -20.2762 0.0000 35.3647 0.0000
# 6 0.0000 0.0000 0.0000 -10.0561 0.0000 23.4280
#
#
#
# Elastic Compliance Matrix: (Units=1/GPa)
#
#
# Indices 1 2 3 4 5 6 
#
# 1 0.037218 0.002189 -0.004046 0.000000 0.014475 0.000000
# 2 0.002189 0.015741 -0.002086 0.000000 0.005388 0.000000
# 3 -0.004046 -0.002086 0.007321 0.000000 0.001709 0.000000
# 4 0.000000 0.000000 0.000000 0.043728 0.000000 0.018770
# 5 0.014475 0.005388 0.001709 0.000000 0.037415 0.000000
# 6 0.000000 0.000000 0.000000 0.018770 0.000000 0.050741
#
#
# Mechanical properties :
#
#
# Convention : Reuss Voigt Hill
#
# Bulk Modulus (GPa) = 19.08614 41.40454 30.24534
# Shear Modulus (GPa) = 22.98695 31.53438 27.26066
#
# Velocity S-wave (km/s) = 3.17550 3.71931 3.45811
# Velocity P-wave (km/s) = 4.67093 6.05041 5.40486
#
# Compressibility (1/GPa) = 0.05239405
#
# Stress axis : x y z
#
# Youngs Moduli (GPa) = 26.86855 63.52958 136.58745
#
# Poissons Ratio (x) = -0.13907 0.55270
# Poissons Ratio (y) = -0.05882 0.28487
# Poissons Ratio (z) = 0.10872 0.13250
#
# Static dielectric constant tensor:
#      x y z
#    x 1.881260 0.000000 0.001570 
#    y 0.000000 1.817760 0.000000 
#    z 0.001570 0.000000 1.920760 
# 
# From -- ./inp_files/44112.got.cif
#   From: 2010.05.17/outbox.cif.g08.bks.cpg/sg5_23_cif.got.tgz:44112.got - 2010.06.03 18:56:24.
