data_PCOD9128126
_publ_section_title
;
Structure prediction by ZEFSAII (Michael W. Deem and Ramdas Pophale) SiO2 
 PCOD9128126
Probable space group: C 2
;
_chemical_formula_sum "Si O2"
_cell_formula_units_Z 22
_cell_length_a 13.535250
_cell_length_b 14.360941
_cell_length_c 4.922910
_cell_angle_alpha 90.000000
_cell_angle_beta 105.875376
_cell_angle_gamma 90.000000
_cell_volume 920.412421
_symmetry_space_group_name_H-M "C 2"
_symmetry_group_IT_number 5
_symmetry_cell_setting 'monoclinic'
loop_
_space_group_symop_operation_xyz
x,y,z
-x,y,-z
1/2+x,1/2+y,z
1/2-x,1/2+y,-z
loop_
_atom_site_type_symbol
_atom_site_label
_atom_site_fract_x
_atom_site_fract_y
_atom_site_fract_z
Si Si1 0.000000 0.452330 0.000000
Si Si2 0.317909 0.245949 0.994404
Si Si3 0.000000 0.878870 0.000000
Si Si4 0.687188 0.725111 0.366884
Si Si5 0.701747 0.033259 0.012156
Si Si6 0.000000 0.327278 0.500000
Si Si7 0.833072 0.011767 0.631176
O O1 0.031683 0.392380 0.768532
O O2 0.896279 0.507972 0.878285
O O3 0.278665 0.234081 0.656287
O O4 0.329160 0.138672 0.098288
O O5 0.417439 0.310557 0.082682
O O6 0.227344 0.278210 0.130014
O O7 0.069975 0.945905 0.241741
O O8 0.591002 0.768330 0.444354
O O9 0.651771 0.619830 0.272797
O O10 0.796257 0.020174 0.293284
O O11 0.741183 0.981709 0.768996
#
# Coordination Sequence:
#
# PCOD9128126 Si02
#       7
#     2   4   2   4   4   2   4
#     4  12  25  39  72 102 132 180 240 289 335 422
#     4  10  24  44  72  98 142 181 224 292 353 425
#     4  12  27  43  76 112 134 186 246 301 343 420
#     4  10  24  47  65  98 141 186 225 280 365 415
#     4  10  23  47  66 101 141 184 223 286 364 420
#     4  12  26  40  72 100 130 188 236 290 324 438
#     4  10  25  43  71  97 143 181 227 290 354 420
#
# _framework density 23.902329999999999
#
# number of rings (size 3 to 8) (size 9 to 14) (size 15 to 20)
#    0.000    1.455    0.000    2.727    7.636    8.000 
#    0.000    5.455    0.000    0.000    0.000    0.000 
#    0.000    0.000    0.000    0.000    0.000    0.000 
#
# Total GULP energy -61439.081140 kJ/mol
# GULP energy per Si atom -5585.371013 kJ/mol
# Density = 2.384793 g / cm^3
# Si number density = 23.902330 Si / 1000 Ang^3
#
#
#
# Elastic Constant Matrix: (Units=GPa)
#
#
# Indices 1 2 3 4 5 6 
#
# 1 143.2863 70.9888 30.5662 0.0000 -14.0988 0.0000
# 2 70.9888 80.8584 19.8994 0.0000 -6.4202 0.0000
# 3 30.5662 19.8994 97.7791 0.0000 -22.6139 0.0000
# 4 0.0000 0.0000 0.0000 23.4851 0.0000 -6.2970
# 5 -14.0988 -6.4202 -22.6139 0.0000 37.1570 0.0000
# 6 0.0000 0.0000 0.0000 -6.2970 0.0000 47.7986
#
#
#
# Elastic Compliance Matrix: (Units=1/GPa)
#
#
# Indices 1 2 3 4 5 6 
#
# 1 0.012793 -0.010735 -0.001304 0.000000 0.002205 0.000000
# 2 -0.010735 0.022046 -0.001387 0.000000 -0.001108 0.000000
# 3 -0.001304 -0.001387 0.012508 0.000000 0.006878 0.000000
# 4 0.000000 0.000000 0.000000 0.044139 0.000000 0.005815
# 5 0.002205 -0.001108 0.006878 0.000000 0.031744 0.000000
# 6 0.000000 0.000000 0.000000 0.005815 0.000000 0.021687
#
#
# Mechanical properties :
#
#
# Convention : Reuss Voigt Hill
#
# Bulk Modulus (GPa) = 48.79692 62.75917 55.77804
# Shear Modulus (GPa) = 27.99536 35.05276 31.52406
#
# Velocity S-wave (km/s) = 3.42605 3.83364 3.63556
# Velocity P-wave (km/s) = 6.00915 6.77564 6.40387
#
# Compressibility (1/GPa) = 0.02049310
#
# Stress axis : x y z
#
# Youngs Moduli (GPa) = 78.16839 45.36055 79.95022
#
# Poissons Ratio (x) = 0.48696 0.10428
# Poissons Ratio (y) = 0.83916 0.11089
# Poissons Ratio (z) = 0.10195 0.06292
#
# Static dielectric constant tensor:
#      x y z
#    x 2.022260 0.000000 -0.020460 
#    y 0.000000 2.014930 0.000000 
#    z -0.020460 0.000000 1.925380 
# 
# From -- ./inp_files/4818.got.cif
#   From: 2010.05.17/outbox.cif.g08.bks.cpg/sg5_3_cif.got.tgz:4818.got - 2010.06.03 18:56:24.
