data_PCOD9128231
_publ_section_title
;
Structure prediction by ZEFSAII (Michael W. Deem and Ramdas Pophale) SiO2 
 PCOD9128231
Probable space group: C 2
;
_chemical_formula_sum "Si O2"
_cell_formula_units_Z 26
_cell_length_a 10.824065
_cell_length_b 9.071653
_cell_length_c 16.519430
_cell_angle_alpha 90.000000
_cell_angle_beta 43.704735
_cell_angle_gamma 90.000000
_cell_volume 1120.762445
_symmetry_space_group_name_H-M "C 2"
_symmetry_group_IT_number 5
_symmetry_cell_setting 'monoclinic'
loop_
_space_group_symop_operation_xyz
x,y,z
-x,y,-z
1/2+x,1/2+y,z
1/2-x,1/2+y,-z
loop_
_atom_site_type_symbol
_atom_site_label
_atom_site_fract_x
_atom_site_fract_y
_atom_site_fract_z
Si Si1 0.900856 0.301390 0.366421
Si Si2 0.321040 0.235380 0.792454
Si Si3 0.779857 0.922970 0.220029
Si Si4 0.000000 0.437639 0.000000
Si Si5 0.855227 0.950961 0.637425
Si Si6 0.052163 0.653155 0.834443
Si Si7 0.694942 0.007490 0.437666
O O1 0.500000 0.486600 0.500000
O O2 0.800729 0.364457 0.335834
O O3 0.107694 0.344355 0.262088
O O4 0.831516 0.133358 0.402864
O O5 0.415127 0.336735 0.679126
O O6 0.454156 0.171177 0.795878
O O7 0.221530 0.093070 0.802950
O O8 0.172812 0.339035 0.902242
O O9 0.942372 0.814028 0.127146
O O10 0.764384 0.926663 0.324989
O O11 0.031311 0.538247 0.063841
O O12 0.340915 0.892748 0.473946
O O13 0.753547 0.091889 0.722061
O O14 0.500000 0.071109 0.500000
#
# Coordination Sequence:
#
# PCOD9128231 Si02
#       7
#     4   4   4   2   4   4   4
#     4  11  23  40  64  94 151 193 238 279 331 415
#     4  11  25  52  74 103 143 188 237 301 362 426
#     4  11  25  41  65 104 139 180 238 291 355 416
#     4  10  28  52  78 106 130 182 248 302 380 420
#     4  11  25  42  71 107 155 198 230 281 350 426
#     4  11  27  49  73 110 141 182 246 299 359 430
#     4  10  24  39  58  96 141 199 239 272 334 409
#
# _framework density 23.198494
#
# number of rings (size 3 to 8) (size 9 to 14) (size 15 to 20)
#    0.000    1.231    3.077    0.462    8.615    4.923 
#    0.000    0.000    0.000    0.000    0.000    0.000 
#    0.000    0.000    0.000    0.000    0.000    0.000 
#
# Total GULP energy -72735.932947 kJ/mol
# GULP energy per Si atom -5595.071765 kJ/mol
# Density = 2.314569 g / cm^3
# Si number density = 23.198494 Si / 1000 Ang^3
#
#
#
# Elastic Constant Matrix: (Units=GPa)
#
#
# Indices 1 2 3 4 5 6 
#
# 1 106.5017 32.3611 8.3091 0.0000 16.5454 0.0000
# 2 32.3611 117.4216 23.7394 0.0000 4.6127 0.0000
# 3 8.3091 23.7394 63.4635 0.0000 13.7556 0.0000
# 4 0.0000 0.0000 0.0000 18.4653 0.0000 7.7092
# 5 16.5454 4.6127 13.7556 0.0000 19.8003 0.0000
# 6 0.0000 0.0000 0.0000 7.7092 0.0000 46.6897
#
#
#
# Elastic Compliance Matrix: (Units=1/GPa)
#
#
# Indices 1 2 3 4 5 6 
#
# 1 0.011856 -0.003247 0.001937 0.000000 -0.010496 0.000000
# 2 -0.003247 0.010104 -0.004041 0.000000 0.003166 0.000000
# 3 0.001937 -0.004041 0.020204 0.000000 -0.014714 0.000000
# 4 0.000000 0.000000 0.000000 0.058165 0.000000 -0.009604
# 5 -0.010496 0.003166 -0.014714 0.000000 0.068759 0.000000
# 6 0.000000 0.000000 0.000000 -0.009604 0.000000 0.023004
#
#
# Mechanical properties :
#
#
# Convention : Reuss Voigt Hill
#
# Bulk Modulus (GPa) = 31.78322 46.24511 39.01416
# Shear Modulus (GPa) = 23.44342 31.85620 27.64981
#
# Velocity S-wave (km/s) = 3.18238 3.70969 3.45611
# Velocity P-wave (km/s) = 5.21859 6.19087 5.72541
#
# Compressibility (1/GPa) = 0.03146314
#
# Stress axis : x y z
#
# Youngs Moduli (GPa) = 84.34888 98.97448 49.49502
#
# Poissons Ratio (x) = 0.32134 -0.09589
# Poissons Ratio (y) = 0.27385 0.19999
# Poissons Ratio (z) = -0.16341 0.39992
#
# Static dielectric constant tensor:
#      x y z
#    x 1.873650 0.000000 -0.029090 
#    y 0.000000 1.886260 0.000000 
#    z -0.029090 0.000000 1.873220 
# 
# From -- ./inp_files/64304.got.cif
#   From: 2010.05.17/outbox.cif.g08.bks.cpg/sg5_33_cif.got.tgz:64304.got - 2010.06.03 18:56:24.
