data_PCOD9128987
_publ_section_title
;
Structure prediction by ZEFSAII (Michael W. Deem and Ramdas Pophale) SiO2 
 PCOD9128987
Probable space group: C 2
;
_chemical_formula_sum "Si O2"
_cell_formula_units_Z 16
_cell_length_a 7.150523
_cell_length_b 6.805566
_cell_length_c 14.931436
_cell_angle_alpha 90.000000
_cell_angle_beta 58.061022
_cell_angle_gamma 90.000000
_cell_volume 616.613179
_symmetry_space_group_name_H-M "C 2"
_symmetry_group_IT_number 5
_symmetry_cell_setting 'monoclinic'
loop_
_space_group_symop_operation_xyz
x,y,z
-x,y,-z
1/2+x,1/2+y,z
1/2-x,1/2+y,-z
loop_
_atom_site_type_symbol
_atom_site_label
_atom_site_fract_x
_atom_site_fract_y
_atom_site_fract_z
Si Si1 0.144263 0.350250 0.181722
Si Si2 0.951992 0.058350 0.351459
Si Si3 0.000000 0.583317 0.000000
Si Si4 0.721396 0.308915 0.156519
Si Si5 0.000000 0.764721 0.500000
O O1 0.363933 0.230546 0.098514
O O2 0.180918 0.580367 0.162780
O O3 0.075176 0.262127 0.295949
O O4 0.927677 0.323813 0.173512
O O5 0.026112 0.912999 0.410589
O O6 0.015350 0.929299 0.248121
O O7 0.709509 0.123289 0.440495
O O8 0.801896 0.418889 0.045745
#
# Coordination Sequence:
#
# PCOD9128987 Si02
#       5
#     4   4   2   4   2
#     4  11  26  48  76 110 151 195 245 306 367 444
#     4  11  28  51  76 112 150 195 252 307 372 440
#     4  10  26  40  78 106 156 188 250 292 376 432
#     4  11  26  48  76 110 151 195 245 306 367 444
#     4  12  28  48  80 108 150 198 248 310 372 436
#
# _framework density 25.948195999999999
#
# number of rings (size 3 to 8) (size 9 to 14) (size 15 to 20)
#    0.000    1.000    2.500    0.750   10.500   11.000 
#    0.000    0.000    0.000    0.000    0.000    0.000 
#    0.000    0.000    0.000    0.000    0.000    0.000 
#
# Total GULP energy -44676.585600 kJ/mol
# GULP energy per Si atom -5584.573200 kJ/mol
# Density = 2.588914 g / cm^3
# Si number density = 25.948196 Si / 1000 Ang^3
#
#
#
# Elastic Constant Matrix: (Units=GPa)
#
#
# Indices 1 2 3 4 5 6 
#
# 1 75.4272 26.2094 -7.6698 0.0000 -11.3323 0.0000
# 2 26.2094 197.1503 6.8404 0.0000 -7.4022 0.0000
# 3 -7.6698 6.8404 116.8379 0.0000 0.2231 0.0000
# 4 0.0000 0.0000 0.0000 48.2478 0.0000 -22.1353
# 5 -11.3323 -7.4022 0.2231 0.0000 27.0897 0.0000
# 6 0.0000 0.0000 0.0000 -22.1353 0.0000 44.4345
#
#
#
# Elastic Compliance Matrix: (Units=1/GPa)
#
#
# Indices 1 2 3 4 5 6 
#
# 1 0.014849 -0.001797 0.001069 0.000000 0.005712 0.000000
# 2 -0.001797 0.005353 -0.000433 0.000000 0.000715 0.000000
# 3 0.001069 -0.000433 0.008654 0.000000 0.000258 0.000000
# 4 0.000000 0.000000 0.000000 0.026867 0.000000 0.013384
# 5 0.005712 0.000715 0.000258 0.000000 0.039497 0.000000
# 6 0.000000 0.000000 0.000000 0.013384 0.000000 0.029172
#
#
# Mechanical properties :
#
#
# Convention : Reuss Voigt Hill
#
# Bulk Modulus (GPa) = 37.68580 48.90836 43.29708
# Shear Modulus (GPa) = 36.88475 48.22342 42.55409
#
# Velocity S-wave (km/s) = 3.77434 4.31565 4.05404
# Velocity P-wave (km/s) = 5.79216 6.61230 6.21577
#
# Compressibility (1/GPa) = 0.02653519
#
# Stress axis : x y z
#
# Youngs Moduli (GPa) = 67.34458 186.81214 115.55503
#
# Poissons Ratio (x) = 0.33564 -0.12353
# Poissons Ratio (y) = 0.12100 0.05000
# Poissons Ratio (z) = -0.07199 0.08083
#
# Static dielectric constant tensor:
#      x y z
#    x 2.209240 0.000000 0.124490 
#    y 0.000000 1.978650 0.000000 
#    z 0.124490 0.000000 2.089080 
# 
# From -- ./inp_files/48464.got.cif
#   From: 2010.05.17/outbox.cif.g08.bks.cpg/sg5_25_cif.got.tgz:48464.got - 2010.06.03 18:56:24.
