data_PCOD9128212
_publ_section_title
;
Structure prediction by ZEFSAII (Michael W. Deem and Ramdas Pophale) SiO2 
 PCOD9128212
Probable space group: C 2
;
_chemical_formula_sum "Si O2"
_cell_formula_units_Z 24
_cell_length_a 11.486957
_cell_length_b 8.971548
_cell_length_c 11.251346
_cell_angle_alpha 90.000000
_cell_angle_beta 85.240952
_cell_angle_gamma 90.000000
_cell_volume 1155.518774
_symmetry_space_group_name_H-M "C 2"
_symmetry_group_IT_number 5
_symmetry_cell_setting 'monoclinic'
loop_
_space_group_symop_operation_xyz
x,y,z
-x,y,-z
1/2+x,1/2+y,z
1/2-x,1/2+y,-z
loop_
_atom_site_type_symbol
_atom_site_label
_atom_site_fract_x
_atom_site_fract_y
_atom_site_fract_z
Si Si1 0.120828 0.426000 0.333110
Si Si2 0.516517 0.546583 0.122531
Si Si3 0.892245 0.925374 0.353249
Si Si4 0.000000 0.669707 0.500000
Si Si5 0.500000 0.674625 0.500000
Si Si6 0.182821 0.225150 0.974667
Si Si7 0.606407 0.031661 0.076177
O O1 0.261126 0.414411 0.315384
O O2 0.086502 0.562812 0.420925
O O3 0.063227 0.280123 0.397775
O O4 0.072554 0.468052 0.207511
O O5 0.484593 0.455561 0.239834
O O6 0.638576 0.632546 0.095634
O O7 0.500000 0.456390 0.000000
O O8 0.416288 0.674391 0.111747
O O9 0.928012 0.776959 0.419070
O O10 0.909293 0.065165 0.441114
O O11 0.306026 0.168933 0.919885
O O12 0.175613 0.396427 0.006633
O O13 0.500000 0.067703 0.000000
#
# Coordination Sequence:
#
# PCOD9128212 Si02
#       7
#     4   4   4   2   2   4   4
#     4  11  23  43  61  88 131 160 204 268 298 366
#     4   8  17  39  61  86 124 160 190 251 315 357
#     4  11  20  43  66  88 123 166 206 257 309 366
#     4  10  26  40  62  96 118 160 222 252 298 370
#     4  10  24  36  66  90 114 174 214 242 316 360
#     4   9  21  39  60  92 127 159 201 249 310 373
#     4  12  23  41  64  93 127 167 204 253 319 373
#
# _framework density 20.769891999999999
#
# number of rings (size 3 to 8) (size 9 to 14) (size 15 to 20)
#    1.000    0.667    3.333    2.000    0.000    2.667 
#    3.000    6.667    0.000    0.000    0.000    0.000 
#    0.000    0.000    0.000    0.000    0.000    0.000 
#
# Total GULP energy -66965.230047 kJ/mol
# GULP energy per Si atom -5580.435837 kJ/mol
# Density = 2.072262 g / cm^3
# Si number density = 20.769892 Si / 1000 Ang^3
#
#
#
# Elastic Constant Matrix: (Units=GPa)
#
#
# Indices 1 2 3 4 5 6 
#
# 1 56.7530 -1.6022 -1.0355 0.0000 0.6170 0.0000
# 2 -1.6022 72.0764 2.0365 0.0000 -5.6361 0.0000
# 3 -1.0355 2.0365 53.1632 0.0000 4.9335 0.0000
# 4 0.0000 0.0000 0.0000 11.9367 0.0000 -0.6030
# 5 0.6170 -5.6361 4.9335 0.0000 24.0010 0.0000
# 6 0.0000 0.0000 0.0000 -0.6030 0.0000 12.7854
#
#
#
# Elastic Compliance Matrix: (Units=1/GPa)
#
#
# Indices 1 2 3 4 5 6 
#
# 1 0.017642 0.000347 0.000372 0.000000 -0.000449 0.000000
# 2 0.000347 0.014180 -0.000861 0.000000 0.003498 0.000000
# 3 0.000372 -0.000861 0.019237 0.000000 -0.004166 0.000000
# 4 0.000000 0.000000 0.000000 0.083975 0.000000 0.003960
# 5 -0.000449 0.003498 -0.004166 0.000000 0.043354 0.000000
# 6 0.000000 0.000000 0.000000 0.003960 0.000000 0.078401
#
#
# Mechanical properties :
#
#
# Convention : Reuss Voigt Hill
#
# Bulk Modulus (GPa) = 19.69541 20.08779 19.89160
# Shear Modulus (GPa) = 18.24832 21.91755 20.08293
#
# Velocity S-wave (km/s) = 2.96733 3.25199 3.11292
# Velocity P-wave (km/s) = 4.60904 4.87783 4.74534
#
# Compressibility (1/GPa) = 0.05077326
#
# Stress axis : x y z
#
# Youngs Moduli (GPa) = 56.68401 70.52323 51.98360
#
# Poissons Ratio (x) = -0.02444 -0.01934
# Poissons Ratio (y) = -0.01964 0.04476
# Poissons Ratio (z) = -0.02108 0.06072
#
# Static dielectric constant tensor:
#      x y z
#    x 1.737510 0.000000 -0.011150 
#    y 0.000000 1.746410 0.000000 
#    z -0.011150 0.000000 1.778170 
# 
# From -- ./inp_files/38391.got.cif
#   From: 2010.05.17/outbox.cif.g08.bks.cpg/sg5_20_cif.got.tgz:38391.got - 2010.06.03 18:56:24.
