data_PCOD9128703
_publ_section_title
;
Structure prediction by ZEFSAII (Michael W. Deem and Ramdas Pophale) SiO2 
 PCOD9128703
Probable space group: C 2
;
_chemical_formula_sum "Si O2"
_cell_formula_units_Z 26
_cell_length_a 9.974249
_cell_length_b 10.413114
_cell_length_c 13.920350
_cell_angle_alpha 90.000000
_cell_angle_beta 55.856683
_cell_angle_gamma 90.000000
_cell_volume 1196.604091
_symmetry_space_group_name_H-M "C 2"
_symmetry_group_IT_number 5
_symmetry_cell_setting 'monoclinic'
loop_
_space_group_symop_operation_xyz
x,y,z
-x,y,-z
1/2+x,1/2+y,z
1/2-x,1/2+y,-z
loop_
_atom_site_type_symbol
_atom_site_label
_atom_site_fract_x
_atom_site_fract_y
_atom_site_fract_z
Si Si1 0.810457 0.160240 0.314343
Si Si2 0.018464 0.903424 0.701867
Si Si3 0.379681 0.154687 0.794096
Si Si4 0.835945 0.747544 0.027323
Si Si5 0.472762 0.884895 0.781885
Si Si6 0.500000 0.312798 0.500000
Si Si7 0.836738 0.480813 0.122791
O O1 0.770264 0.184701 0.217097
O O2 0.653266 0.217728 0.429433
O O3 0.956329 0.253799 0.288364
O O4 0.859808 0.013147 0.312869
O O5 0.031305 0.751144 0.717737
O O6 0.843364 0.928946 0.822898
O O7 0.007457 0.901552 0.591187
O O8 0.420866 0.010195 0.745093
O O9 0.339980 0.174789 0.922594
O O10 0.685603 0.841987 0.095174
O O11 0.821867 0.631557 0.108914
O O12 0.000000 0.815217 0.000000
O O13 0.615278 0.944302 0.789315
O O14 0.000000 0.438969 0.000000
#
# Coordination Sequence:
#
# PCOD9128703 Si02
#       7
#     4   4   4   4   4   2   4
#     4  11  26  45  70 100 134 177 236 289 357 405
#     4  11  24  49  72 101 136 180 230 292 355 414
#     4  11  25  40  66  99 143 180 225 286 329 418
#     4  11  24  39  61 104 147 187 234 271 335 419
#     4  12  23  41  66  95 137 186 226 279 338 407
#     4  10  24  48  72 100 130 178 236 302 348 412
#     4  11  20  42  65  98 144 182 223 269 339 414
#
# _framework density 21.728155999999998
#
# number of rings (size 3 to 8) (size 9 to 14) (size 15 to 20)
#    0.000    0.923    7.692    0.923    2.154    2.462 
#    0.000    0.000    0.000    0.000    0.000    0.000 
#    0.000    0.000    0.000    0.000    0.000    0.000 
#
# Total GULP energy -72397.567125 kJ/mol
# GULP energy per Si atom -5569.043625 kJ/mol
# Density = 2.167870 g / cm^3
# Si number density = 21.728156 Si / 1000 Ang^3
#
#
#
# Elastic Constant Matrix: (Units=GPa)
#
#
# Indices 1 2 3 4 5 6 
#
# 1 92.1001 48.5773 35.4205 0.0000 -15.1712 0.0000
# 2 48.5773 125.4920 19.1063 0.0000 2.9903 0.0000
# 3 35.4205 19.1063 63.7229 0.0000 -13.9221 0.0000
# 4 0.0000 0.0000 0.0000 17.5824 0.0000 -7.7748
# 5 -15.1712 2.9903 -13.9221 0.0000 28.1229 0.0000
# 6 0.0000 0.0000 0.0000 -7.7748 0.0000 47.4739
#
#
#
# Elastic Compliance Matrix: (Units=1/GPa)
#
#
# Indices 1 2 3 4 5 6 
#
# 1 0.017680 -0.006020 -0.006502 0.000000 0.006959 0.000000
# 2 -0.006020 0.010545 -0.000863 0.000000 -0.004796 0.000000
# 3 -0.006502 -0.000863 0.021102 0.000000 0.007031 0.000000
# 4 0.000000 0.000000 0.000000 0.061315 0.000000 0.010042
# 5 0.006959 -0.004796 0.007031 0.000000 0.043303 0.000000
# 6 0.000000 0.000000 0.000000 0.010042 0.000000 0.022709
#
#
# Mechanical properties :
#
#
# Convention : Reuss Voigt Hill
#
# Bulk Modulus (GPa) = 44.33390 54.16926 49.25158
# Shear Modulus (GPa) = 23.70323 30.51654 27.10988
#
# Velocity S-wave (km/s) = 3.30646 3.75169 3.53609
# Velocity P-wave (km/s) = 5.91820 6.61449 6.27601
#
# Compressibility (1/GPa) = 0.02255610
#
# Stress axis : x y z
#
# Youngs Moduli (GPa) = 56.56249 94.83605 47.38870
#
# Poissons Ratio (x) = 0.57087 0.30812
# Poissons Ratio (y) = 0.34048 0.04092
# Poissons Ratio (z) = 0.36777 0.08189
#
# Static dielectric constant tensor:
#      x y z
#    x 1.836770 0.000000 0.006030 
#    y 0.000000 1.884520 0.000000 
#    z 0.006030 0.000000 1.834520 
# 
# From -- ./inp_files/50225.got.cif
#   From: 2010.05.17/outbox.cif.g08.bks.cpg/sg5_26_cif.got.tgz:50225.got - 2010.06.03 18:56:24.
