data_PCOD9128176
_publ_section_title
;
Structure prediction by ZEFSAII (Michael W. Deem and Ramdas Pophale) SiO2 
 PCOD9128176
Probable space group: C 2
;
_chemical_formula_sum "Si O2"
_cell_formula_units_Z 18
_cell_length_a 5.249533
_cell_length_b 24.797962
_cell_length_c 5.739813
_cell_angle_alpha 90.000000
_cell_angle_beta 88.901919
_cell_angle_gamma 90.000000
_cell_volume 747.058550
_symmetry_space_group_name_H-M "C 2"
_symmetry_group_IT_number 5
_symmetry_cell_setting 'monoclinic'
loop_
_space_group_symop_operation_xyz
x,y,z
-x,y,-z
1/2+x,1/2+y,z
1/2-x,1/2+y,-z
loop_
_atom_site_type_symbol
_atom_site_label
_atom_site_fract_x
_atom_site_fract_y
_atom_site_fract_z
Si Si1 0.349505 0.703950 0.252990
Si Si2 0.000000 0.403921 0.000000
Si Si3 0.745518 0.321032 0.348072
Si Si4 0.245060 0.973342 0.639018
Si Si5 0.259238 0.086666 0.845589
O O1 0.500000 0.702587 0.500000
O O2 0.197400 0.760153 0.257109
O O3 0.204028 0.646908 0.252155
O O4 0.500000 0.705198 0.000000
O O5 0.796779 0.443055 0.878240
O O6 0.174143 0.363675 0.846097
O O7 0.500000 0.336816 0.500000
O O8 0.000000 0.317827 0.500000
O O9 0.500000 0.958352 0.500000
O O10 0.000000 0.956722 0.500000
O O11 0.236069 0.037815 0.667417
O O12 0.500000 0.073577 0.000000
O O13 0.000000 0.086488 0.000000
#
# Coordination Sequence:
#
# PCOD9128176 Si02
#       5
#     4   2   4   4   4
#     4  10  23  48  80 118 161 210 265 339 411 491
#     4  12  28  54  76 114 164 214 272 342 398 492
#     4  11  27  50  78 113 154 211 271 330 406 485
#     4  12  28  48  79 115 153 208 269 333 404 484
#     4  11  24  47  78 114 155 202 258 330 408 485
#
# _framework density 24.094497
#
# number of rings (size 3 to 8) (size 9 to 14) (size 15 to 20)
#    0.000    0.889    2.222    2.667    0.000   16.000 
#    0.000    0.000    0.000    0.000    0.000    0.000 
#    0.000    0.000    0.000    0.000    0.000    0.000 
#
# Total GULP energy -50372.467401 kJ/mol
# GULP energy per Si atom -5596.940822 kJ/mol
# Density = 2.403966 g / cm^3
# Si number density = 24.094497 Si / 1000 Ang^3
#
#
#
# Elastic Constant Matrix: (Units=GPa)
#
#
# Indices 1 2 3 4 5 6 
#
# 1 170.9686 33.4967 53.1733 0.0000 6.4648 0.0000
# 2 33.4967 197.3590 44.4186 0.0000 5.4221 0.0000
# 3 53.1733 44.4186 103.6242 0.0000 8.0676 0.0000
# 4 0.0000 0.0000 0.0000 -9.1611 0.0000 26.3554
# 5 6.4648 5.4221 8.0676 0.0000 50.7926 0.0000
# 6 0.0000 0.0000 0.0000 26.3554 0.0000 21.2079
#
#
#
# Elastic Compliance Matrix: (Units=1/GPa)
#
#
# Indices 1 2 3 4 5 6 
#
# 1 0.006996 -0.000417 -0.003387 0.000000 -0.000308 0.000000
# 2 -0.000417 0.005635 -0.002186 0.000000 -0.000201 0.000000
# 3 -0.003387 -0.002186 0.012427 0.000000 -0.001309 0.000000
# 4 0.000000 0.000000 0.000000 -0.023859 0.000000 0.029650
# 5 -0.000308 -0.000201 -0.001309 0.000000 0.019957 0.000000
# 6 0.000000 0.000000 0.000000 0.029650 0.000000 0.010306
#
#
# Mechanical properties :
#
#
# Convention : Reuss Voigt Hill
#
# Bulk Modulus (GPa) = 76.46124 81.56988 79.01556
# Shear Modulus (GPa) = 104.59902 35.29210 69.94556
#
# Velocity S-wave (km/s) = 6.59593 3.83134 5.39377
# Velocity P-wave (km/s) = 9.47687 7.31436 8.46496
#
# Compressibility (1/GPa) = 0.01307852
#
# Stress axis : x y z
#
# Youngs Moduli (GPa) = 142.94383 177.45759 80.46744
#
# Poissons Ratio (x) = 0.07392 0.27256
# Poissons Ratio (y) = 0.05954 0.17591
# Poissons Ratio (z) = 0.48419 0.38794
#
# Static dielectric constant tensor:
#      x y z
#    x 1.839080 0.000000 0.002780 
#    y 0.000000 1.918540 0.000000 
#    z 0.002780 0.000000 1.997870 
# 
# From -- ./inp_files/895.got.cif
#   From: 2010.05.17/outbox.cif.g08.bks.cpg/sg5_1_cif.got.tgz:895.got - 2010.06.03 18:56:24.
