data_PCOD9128195
_publ_section_title
;
Structure prediction by ZEFSAII (Michael W. Deem and Ramdas Pophale) SiO2 
 PCOD9128195
Probable space group: C 2
;
_chemical_formula_sum "Si O2"
_cell_formula_units_Z 30
_cell_length_a 23.133512
_cell_length_b 5.201357
_cell_length_c 23.012409
_cell_angle_alpha 90.000000
_cell_angle_beta 32.249172
_cell_angle_gamma 90.000000
_cell_volume 1477.535775
_symmetry_space_group_name_H-M "C 2"
_symmetry_group_IT_number 5
_symmetry_cell_setting 'monoclinic'
loop_
_space_group_symop_operation_xyz
x,y,z
-x,y,-z
1/2+x,1/2+y,z
1/2-x,1/2+y,-z
loop_
_atom_site_type_symbol
_atom_site_label
_atom_site_fract_x
_atom_site_fract_y
_atom_site_fract_z
Si Si1 0.638011 0.173320 0.045913
Si Si2 0.403917 0.797683 0.494418
Si Si3 0.621971 0.078926 0.308688
Si Si4 0.748552 0.520855 0.463760
Si Si5 0.273448 0.531483 0.287100
Si Si6 0.392982 0.026641 0.229452
Si Si7 0.227144 0.678237 0.096177
Si Si8 0.000000 0.950793 0.500000
O O1 0.519332 0.091446 0.126116
O O2 0.648362 0.158068 0.107239
O O3 0.682623 0.452548 0.988456
O O4 0.718621 0.956662 0.953492
O O5 0.351809 0.639592 0.486767
O O6 0.408873 0.624350 0.547877
O O7 0.528067 0.869220 0.378351
O O8 0.325764 0.031588 0.581040
O O9 0.720628 0.016802 0.268368
O O10 0.666898 0.153184 0.208201
O O11 0.555590 0.288642 0.402270
O O12 0.725011 0.245431 0.512313
O O13 0.845233 0.496672 0.335187
O O14 0.337093 0.273873 0.248458
O O15 0.351779 0.773959 0.230579
#
# Coordination Sequence:
#
# PCOD9128195 Si02
#       8
#     4   4   4   4   4   4   4   2
#     4  10  23  50  65  96 128 173 230 283 333 383
#     4  11  24  39  62  95 142 178 211 269 330 401
#     4  12  24  40  68 100 135 176 222 274 334 396
#     4  11  25  40  59  97 133 168 221 267 320 414
#     4  11  22  42  63 100 129 176 210 266 329 413
#     4  11  24  42  70  85 137 179 210 274 350 382
#     4  10  25  43  73  95 129 169 231 285 326 394
#     4  12  22  40  68  96 144 178 220 268 340 406
#
# _framework density 20.304075999999998
#
# number of rings (size 3 to 8) (size 9 to 14) (size 15 to 20)
#    0.000    1.067    2.667    4.000    5.600    0.000 
#    2.400    4.000    0.000    0.000    0.000    0.000 
#    0.000    0.000    0.000    0.000    0.000    0.000 
#
# Total GULP energy -83815.222568 kJ/mol
# GULP energy per Si atom -5587.681505 kJ/mol
# Density = 2.025786 g / cm^3
# Si number density = 20.304076 Si / 1000 Ang^3
#
#
#
# Elastic Constant Matrix: (Units=GPa)
#
#
# Indices 1 2 3 4 5 6 
#
# 1 82.4901 -8.8921 34.6484 -0.0856 -4.2031 0.0635
# 2 -8.8921 53.7359 -4.3260 -0.1298 6.2462 0.1107
# 3 34.6484 -4.3260 69.9940 -0.0450 17.9679 0.0580
# 4 -0.0856 -0.1298 -0.0450 1.5014 0.0191 -5.7387
# 5 -4.2031 6.2462 17.9679 0.0191 39.8724 -0.0123
# 6 0.0635 0.1107 0.0580 -5.7387 -0.0123 28.0586
#
#
#
# Elastic Compliance Matrix: (Units=1/GPa)
#
#
# Indices 1 2 3 4 5 6 
#
# 1 0.016624 0.001292 -0.009664 0.002834 0.005904 0.000559
# 2 0.001292 0.019371 0.001476 0.006954 -0.003566 0.001338
# 3 -0.009664 0.001476 0.022032 0.001132 -0.011179 0.000197
# 4 0.002834 0.006954 0.001132 3.055096 -0.002570 0.624807
# 5 0.005904 -0.003566 -0.011179 -0.002570 0.031300 -0.000488
# 6 0.000559 0.001338 0.000197 0.624807 -0.000488 0.163422
#
#
# Mechanical properties :
#
#
# Convention : Reuss Voigt Hill
#
# Bulk Modulus (GPa) = 22.60516 27.67561 25.14038
# Shear Modulus (GPa) = 1.49863 26.20580 13.85222
#
# Velocity S-wave (km/s) = 0.86006 3.59648 2.61480
# Velocity P-wave (km/s) = 3.48479 5.55935 4.63951
#
# Compressibility (1/GPa) = 0.04423769
#
# Stress axis : x y z
#
# Youngs Moduli (GPa) = 60.15291 51.62392 45.38841
#
# Poissons Ratio (x) = -0.06672 0.43861
# Poissons Ratio (y) = -0.07775 -0.06701
# Poissons Ratio (z) = 0.58129 -0.07621
#
# Static dielectric constant tensor:
#      x y z
#    x 1.755030 -0.000030 -0.009490 
#    y -0.000030 1.763370 0.000000 
#    z -0.009490 0.000000 1.716630 
# 
# From -- ./inp_files/67239.got.cif
#   From: 2010.05.17/outbox.cif.g08.bks.cpg/sg5_34_cif.got.tgz:67239.got - 2010.06.03 18:56:24.
