data_PCOD9128584
_publ_section_title
;
Structure prediction by ZEFSAII (Michael W. Deem and Ramdas Pophale) SiO2 
 PCOD9128584
Probable space group: C 2
;
_chemical_formula_sum "Si O2"
_cell_formula_units_Z 22
_cell_length_a 11.870485
_cell_length_b 11.733205
_cell_length_c 14.295032
_cell_angle_alpha 90.000000
_cell_angle_beta 148.109379
_cell_angle_gamma 90.000000
_cell_volume 1051.841581
_symmetry_space_group_name_H-M "C 2"
_symmetry_group_IT_number 5
_symmetry_cell_setting 'monoclinic'
loop_
_space_group_symop_operation_xyz
x,y,z
-x,y,-z
1/2+x,1/2+y,z
1/2-x,1/2+y,-z
loop_
_atom_site_type_symbol
_atom_site_label
_atom_site_fract_x
_atom_site_fract_y
_atom_site_fract_z
Si Si1 0.160165 0.889150 0.243561
Si Si2 0.516028 0.634182 0.121718
Si Si3 0.701275 0.200906 0.041310
Si Si4 0.000000 0.491884 0.000000
Si Si5 0.250617 0.354105 0.331502
Si Si6 0.027624 0.353145 0.368178
O O1 0.333279 0.918481 0.283714
O O2 0.292947 0.843146 0.425918
O O3 0.046497 0.008276 0.184690
O O4 0.988169 0.793647 0.093445
O O5 0.300949 0.690782 0.009259
O O6 0.702251 0.719390 0.285945
O O7 0.500000 0.625758 0.000000
O O8 0.626702 0.079030 0.023367
O O9 0.896843 0.240904 0.245086
O O10 0.139796 0.414681 0.166007
O O11 0.500000 0.377011 0.500000
O O12 0.138883 0.393706 0.350384
#
# Coordination Sequence:
#
# PCOD9128584 Si02
#       6
#     4   4   4   2   4   4
#     4  11  24  47  73 102 138 174 239 286 343 413
#     4  11  26  43  74 101 138 184 229 288 353 400
#     4  11  25  46  73  99 137 182 232 285 346 412
#     4  12  26  48  70  98 140 184 232 282 346 414
#     4  11  28  46  67 101 144 182 234 282 350 406
#     4  10  24  46  69 103 131 181 233 281 346 409
#
# _framework density 20.915697999999999
#
# number of rings (size 3 to 8) (size 9 to 14) (size 15 to 20)
#    0.000    1.091    2.727    1.091   15.273    1.455 
#    3.273    0.000    0.000    0.000    0.000    0.000 
#    0.000    0.000    0.000    0.000    0.000    0.000 
#
# Total GULP energy -61401.161098 kJ/mol
# GULP energy per Si atom -5581.923736 kJ/mol
# Density = 2.086809 g / cm^3
# Si number density = 20.915698 Si / 1000 Ang^3
#
#
#
# Elastic Constant Matrix: (Units=GPa)
#
#
# Indices 1 2 3 4 5 6 
#
# 1 107.8303 33.5813 85.7966 0.0002 8.8258 0.0000
# 2 33.5813 92.3232 52.9656 0.0002 -0.5766 0.0003
# 3 85.7966 52.9656 148.6422 0.0004 -4.5211 0.0004
# 4 0.0002 0.0002 0.0004 6.7076 0.0002 7.5632
# 5 8.8258 -0.5766 -4.5211 0.0002 35.2709 0.0001
# 6 0.0000 0.0003 0.0004 7.5632 0.0001 16.2829
#
#
#
# Elastic Compliance Matrix: (Units=1/GPa)
#
#
# Indices 1 2 3 4 5 6 
#
# 1 0.018352 -0.000668 -0.010536 0.000000 -0.005954 0.000000
# 2 -0.000668 0.013645 -0.004482 0.000000 -0.000184 0.000000
# 3 -0.010536 -0.004482 0.014541 -0.000001 0.004427 0.000000
# 4 0.000000 0.000000 -0.000001 0.313027 -0.000002 -0.145397
# 5 -0.005954 -0.000184 0.004427 -0.000002 0.030406 0.000000
# 6 0.000000 0.000000 0.000000 -0.145397 0.000000 0.128949
#
#
# Mechanical properties :
#
#
# Convention : Reuss Voigt Hill
#
# Bulk Modulus (GPa) = 65.93915 77.05364 71.49640
# Shear Modulus (GPa) = 9.00338 23.41576 16.20957
#
# Velocity S-wave (km/s) = 2.07700 3.34957 2.78689
# Velocity P-wave (km/s) = 6.11118 7.20275 6.67930
#
# Compressibility (1/GPa) = 0.01516550
#
# Stress axis : x y z
#
# Youngs Moduli (GPa) = 54.48898 73.28860 68.77241
#
# Poissons Ratio (x) = 0.04896 0.72459
# Poissons Ratio (y) = 0.03640 0.30824
# Poissons Ratio (z) = 0.57410 0.32848
#
# Static dielectric constant tensor:
#      x y z
#    x 1.824250 0.000000 0.030320 
#    y 0.000000 1.724720 0.000000 
#    z 0.030320 0.000000 1.726800 
# 
# From -- ./inp_files/52909.got.cif
#   From: 2010.05.17/outbox.cif.g08.bks.cpg/sg5_27_cif.got.tgz:52909.got - 2010.06.03 18:56:24.
