data_PCOD9128246
_publ_section_title
;
Structure prediction by ZEFSAII (Michael W. Deem and Ramdas Pophale) SiO2 
 PCOD9128246
Probable space group: C 2
;
_chemical_formula_sum "Si O2"
_cell_formula_units_Z 30
_cell_length_a 13.064782
_cell_length_b 29.418478
_cell_length_c 10.611610
_cell_angle_alpha 90.000000
_cell_angle_beta 158.762468
_cell_angle_gamma 90.000000
_cell_volume 1477.387158
_symmetry_space_group_name_H-M "C 2"
_symmetry_group_IT_number 5
_symmetry_cell_setting 'monoclinic'
loop_
_space_group_symop_operation_xyz
x,y,z
-x,y,-z
1/2+x,1/2+y,z
1/2-x,1/2+y,-z
loop_
_atom_site_type_symbol
_atom_site_label
_atom_site_fract_x
_atom_site_fract_y
_atom_site_fract_z
Si Si1 0.500000 0.601130 0.500000
Si Si2 0.210487 0.681676 0.017892
Si Si3 0.807443 0.129754 0.886096
Si Si4 0.666183 0.552620 0.436020
Si Si5 0.738757 0.236720 0.383578
Si Si6 0.408269 0.336452 0.746461
Si Si7 0.917393 0.394583 0.256758
Si Si8 0.890640 0.500536 0.228091
O O1 0.286105 0.636890 0.187061
O O2 0.653892 0.571329 0.566998
O O3 0.453645 0.720699 0.310108
O O4 0.229236 0.666919 0.897131
O O5 0.896831 0.698009 0.686018
O O6 0.500000 0.108815 0.500000
O O7 0.020282 0.092912 0.189358
O O8 0.000000 0.150636 0.000000
O O9 0.941328 0.533457 0.678067
O O10 0.436078 0.513248 0.156978
O O11 0.710189 0.286018 0.413958
O O12 0.500000 0.236689 0.000000
O O13 0.162331 0.372748 0.456876
O O14 0.500000 0.335040 0.000000
O O15 0.661800 0.358388 0.959066
O O16 0.000000 0.394801 0.500000
O O17 0.899143 0.447414 0.202200
O O18 0.000000 0.504905 0.500000
#
# Coordination Sequence:
#
# PCOD9128246 Si02
#       8
#     2   4   4   4   4   4   4   4
#     4  10  24  40  54  80 116 154 190 240 280 324
#     4  11  22  36  55  78 112 150 185 227 283 323
#     4  11  22  38  55  76 107 144 188 235 276 324
#     4  11  23  36  57  78 110 148 194 230 280 328
#     4  11  19  32  53  80 114 145 185 217 270 352
#     4   9  17  28  47  75 110 145 167 213 272 343
#     4   9  17  30  47  73 111 142 171 214 283 337
#     4  11  21  35  56  82 112 147 186 232 280 342
#
# _framework density 20.306121000000001
#
# number of rings (size 3 to 8) (size 9 to 14) (size 15 to 20)
#    0.000    1.600    1.333    4.800    0.000    9.067 
#    0.000    0.000    0.000    0.000    0.000    0.000 
#   70.000    0.000    0.000    0.000    0.000    0.000 
#
# Total GULP energy -83615.061018 kJ/mol
# GULP energy per Si atom -5574.337401 kJ/mol
# Density = 2.025990 g / cm^3
# Si number density = 20.306121 Si / 1000 Ang^3
#
#
#
# Elastic Constant Matrix: (Units=GPa)
#
#
# Indices 1 2 3 4 5 6 
#
# 1 70.9033 7.1264 5.1401 -0.0001 -3.0085 0.0000
# 2 7.1264 80.7513 -5.3640 0.0003 -11.4859 0.0001
# 3 5.1401 -5.3640 32.7547 -0.0013 10.1760 -0.0003
# 4 -0.0001 0.0003 -0.0013 19.1202 -0.0004 11.2327
# 5 -3.0085 -11.4859 10.1760 -0.0004 21.9813 -0.0001
# 6 0.0000 0.0001 -0.0003 11.2327 -0.0001 19.6081
#
#
#
# Elastic Compliance Matrix: (Units=1/GPa)
#
#
# Indices 1 2 3 4 5 6 
#
# 1 0.014587 -0.001086 -0.003400 0.000000 0.003003 0.000000
# 2 -0.001086 0.013459 0.000275 0.000000 0.006757 0.000000
# 3 -0.003400 0.000275 0.036451 0.000003 -0.017196 -0.000001
# 4 0.000000 0.000000 0.000003 0.078831 0.000000 -0.045159
# 5 0.003003 0.006757 -0.017196 0.000000 0.057395 0.000000
# 6 0.000000 0.000000 -0.000001 -0.045159 0.000000 0.076869
#
#
# Mechanical properties :
#
#
# Convention : Reuss Voigt Hill
#
# Bulk Modulus (GPa) = 17.83306 22.02384 19.92845
# Shear Modulus (GPa) = 16.40934 23.97570 20.19252
#
# Velocity S-wave (km/s) = 2.84579 3.43988 3.15684
# Velocity P-wave (km/s) = 4.42710 5.16202 4.80862
#
# Compressibility (1/GPa) = 0.05607562
#
# Stress axis : x y z
#
# Youngs Moduli (GPa) = 68.55536 74.30046 27.43421
#
# Poissons Ratio (x) = 0.08069 0.09327
# Poissons Ratio (y) = 0.07445 -0.00756
# Poissons Ratio (z) = 0.23308 -0.02046
#
# Static dielectric constant tensor:
#      x y z
#    x 1.705610 0.000000 -0.092670 
#    y 0.000000 1.750880 0.000000 
#    z -0.092670 0.000000 1.724250 
# 
# From -- ./inp_files/43498.got.cif
#   From: 2010.05.17/outbox.cif.g08.bks.cpg/sg5_22_cif.got.tgz:43498.got - 2010.06.03 18:56:24.
