data_PCOD9128488
_publ_section_title
;
Structure prediction by ZEFSAII (Michael W. Deem and Ramdas Pophale) SiO2 
 PCOD9128488
Probable space group: C 2
;
_chemical_formula_sum "Si O2"
_cell_formula_units_Z 30
_cell_length_a 11.456464
_cell_length_b 14.426860
_cell_length_c 8.948296
_cell_angle_alpha 90.000000
_cell_angle_beta 107.146587
_cell_angle_gamma 90.000000
_cell_volume 1413.246159
_symmetry_space_group_name_H-M "C 2"
_symmetry_group_IT_number 5
_symmetry_cell_setting 'monoclinic'
loop_
_space_group_symop_operation_xyz
x,y,z
-x,y,-z
1/2+x,1/2+y,z
1/2-x,1/2+y,-z
loop_
_atom_site_type_symbol
_atom_site_label
_atom_site_fract_x
_atom_site_fract_y
_atom_site_fract_z
Si Si1 0.637514 0.530290 0.079608
Si Si2 0.528975 0.312942 0.679990
Si Si3 0.773174 0.894840 0.648317
Si Si4 0.000000 0.713425 0.000000
Si Si5 0.050339 0.225933 0.168649
Si Si6 0.209149 0.394161 0.307203
Si Si7 0.625492 0.704773 0.641159
Si Si8 0.788307 0.571227 0.841350
O O1 0.720111 0.461661 0.208301
O O2 0.615690 0.628812 0.154960
O O3 0.500000 0.492160 0.000000
O O4 0.702251 0.547818 0.947936
O O5 0.500000 0.266801 0.500000
O O6 0.413702 0.379776 0.655437
O O7 0.656647 0.366264 0.704322
O O8 0.527796 0.262951 0.846294
O O9 0.710997 0.932367 0.476032
O O10 0.708025 0.795814 0.650540
O O11 0.116319 0.649348 0.076929
O O12 0.137253 0.297872 0.281665
O O13 0.929122 0.208111 0.214717
O O14 0.000000 0.270935 0.000000
O O15 0.153052 0.474645 0.186049
O O16 0.500000 0.700455 0.500000
O O17 0.708934 0.613574 0.673791
#
# Coordination Sequence:
#
# PCOD9128488 Si02
#       8
#     4   4   4   2   4   4   4   4
#     4  11  24  42  70 105 132 179 235 283 339 416
#     4  10  24  44  73  99 137 185 238 281 349 411
#     4  11  25  44  68 102 136 175 230 290 346 407
#     4  12  26  48  70 102 148 186 226 296 350 418
#     4  11  24  44  68  95 135 177 230 275 337 405
#     4  11  26  44  68 102 135 181 225 287 346 415
#     4  12  25  46  72  98 137 184 229 284 345 411
#     4  12  27  43  69 106 136 183 233 279 355 413
#
# _framework density 21.227726000000001
#
# number of rings (size 3 to 8) (size 9 to 14) (size 15 to 20)
#    0.000    0.800    5.333    1.600    7.467    0.533 
#    2.400    0.000    0.000    0.000    0.000    0.000 
#    0.000    0.000    0.000    0.000    0.000    0.000 
#
# Total GULP energy -83594.900751 kJ/mol
# GULP energy per Si atom -5572.993383 kJ/mol
# Density = 2.117941 g / cm^3
# Si number density = 21.227726 Si / 1000 Ang^3
#
#
#
# Elastic Constant Matrix: (Units=GPa)
#
#
# Indices 1 2 3 4 5 6 
#
# 1 14.1654 8.6431 8.5229 0.0000 0.1144 0.0000
# 2 8.6431 55.0506 35.2598 0.0000 -10.5432 0.0000
# 3 8.5229 35.2598 120.3238 0.0000 -7.2048 0.0000
# 4 0.0000 0.0000 0.0000 39.0444 0.0000 -13.1096
# 5 0.1144 -10.5432 -7.2048 0.0000 33.3854 0.0000
# 6 0.0000 0.0000 0.0000 -13.1096 0.0000 34.0392
#
#
#
# Elastic Compliance Matrix: (Units=1/GPa)
#
#
# Indices 1 2 3 4 5 6 
#
# 1 0.079266 -0.011743 -0.002443 0.000000 -0.004507 0.000000
# 2 -0.011743 0.025236 -0.006163 0.000000 0.006680 0.000000
# 3 -0.002443 -0.006163 0.010307 0.000000 0.000286 0.000000
# 4 0.000000 0.000000 0.000000 0.029416 0.000000 0.011329
# 5 -0.004507 0.006680 0.000286 0.000000 0.032140 0.000000
# 6 0.000000 0.000000 0.000000 0.011329 0.000000 0.033741
#
#
# Mechanical properties :
#
#
# Convention : Reuss Voigt Hill
#
# Bulk Modulus (GPa) = 13.49358 32.71015 23.10186
# Shear Modulus (GPa) = 18.14825 30.43474 24.29150
#
# Velocity S-wave (km/s) = 2.92709 3.79057 3.38646
# Velocity P-wave (km/s) = 4.21832 5.88222 5.11833
#
# Compressibility (1/GPa) = 0.07410934
#
# Stress axis : x y z
#
# Youngs Moduli (GPa) = 12.61572 39.62639 97.01933
#
# Poissons Ratio (x) = 0.46534 0.23704
# Poissons Ratio (y) = 0.14815 0.59796
# Poissons Ratio (z) = 0.03082 0.24423
#
# Static dielectric constant tensor:
#      x y z
#    x 1.731020 0.000000 0.008120 
#    y 0.000000 1.774310 0.000000 
#    z 0.008120 0.000000 1.861490 
# 
# From -- ./inp_files/20452.got.cif
#   From: 2010.05.17/outbox.cif.g08.bks.cpg/sg5_11_cif.got.tgz:20452.got - 2010.06.03 18:56:24.
