data_PCOD9128086
_publ_section_title
;
Structure prediction by ZEFSAII (Michael W. Deem and Ramdas Pophale) SiO2 
 PCOD9128086
Probable space group: C 2
;
_chemical_formula_sum "Si O2"
_cell_formula_units_Z 22
_cell_length_a 14.103403
_cell_length_b 4.868772
_cell_length_c 25.034267
_cell_angle_alpha 90.000000
_cell_angle_beta 150.828300
_cell_angle_gamma 90.000000
_cell_volume 837.894033
_symmetry_space_group_name_H-M "C 2"
_symmetry_group_IT_number 5
_symmetry_cell_setting 'monoclinic'
loop_
_space_group_symop_operation_xyz
x,y,z
-x,y,-z
1/2+x,1/2+y,z
1/2-x,1/2+y,-z
loop_
_atom_site_type_symbol
_atom_site_label
_atom_site_fract_x
_atom_site_fract_y
_atom_site_fract_z
Si Si1 0.744595 0.782610 0.738352
Si Si2 0.363338 0.384699 0.680866
Si Si3 0.662740 0.006088 0.474182
Si Si4 0.117981 0.397062 0.831457
Si Si5 0.484752 0.795053 0.882139
Si Si6 0.000000 0.569954 0.000000
O O1 0.750940 0.785823 0.677666
O O2 0.537539 0.906129 0.649751
O O3 0.790224 0.479204 0.779828
O O4 0.920421 0.981698 0.843472
O O5 0.222010 0.396474 0.561399
O O6 0.445910 0.686654 0.732223
O O7 0.551799 0.184805 0.773734
O O8 0.820833 0.833071 0.517782
O O9 0.313818 0.269960 0.904120
O O10 0.117473 0.392032 0.896798
O O11 0.550320 0.880179 0.973389
#
# Coordination Sequence:
#
# PCOD9128086 Si02
#       6
#     4   4   4   4   4   2
#     4  10  23  46  68  97 140 183 225 285 348 424
#     4  10  23  46  68  97 140 183 225 285 348 424
#     4  12  25  38  69 106 138 176 228 282 345 434
#     4  10  25  45  71 104 139 182 241 291 352 424
#     4  10  25  45  71 104 139 182 241 291 352 424
#     4  12  28  46  80 100 144 194 240 310 364 414
#
# _framework density 26.2563
#
# number of rings (size 3 to 8) (size 9 to 14) (size 15 to 20)
#    0.000    1.455    0.000    2.727    7.636    7.273 
#    0.000    7.273    0.000    0.000    0.000    0.000 
#    0.000    0.000    0.000    0.000    0.000    0.000 
#
# Total GULP energy -61635.578403 kJ/mol
# GULP energy per Si atom -5603.234400 kJ/mol
# Density = 2.619654 g / cm^3
# Si number density = 26.256300 Si / 1000 Ang^3
#
#
#
# Elastic Constant Matrix: (Units=GPa)
#
#
# Indices 1 2 3 4 5 6 
#
# 1 110.6435 6.1042 13.9001 -0.0005 -28.2424 0.0014
# 2 6.1042 107.2225 0.1940 -0.0028 -11.7665 0.0072
# 3 13.9001 0.1940 61.8646 -0.0002 -2.0426 0.0003
# 4 -0.0005 -0.0028 -0.0002 26.1276 0.0003 -5.6459
# 5 -28.2424 -11.7665 -2.0426 0.0003 49.8854 -0.0008
# 6 0.0014 0.0072 0.0003 -5.6459 -0.0008 35.8455
#
#
#
# Elastic Compliance Matrix: (Units=1/GPa)
#
#
# Indices 1 2 3 4 5 6 
#
# 1 0.010867 0.000052 -0.002241 0.000000 0.006073 0.000000
# 2 0.000052 0.009575 0.000034 0.000001 0.002289 -0.000002
# 3 -0.002241 0.000034 0.016649 0.000000 -0.000579 0.000000
# 4 0.000000 0.000001 0.000000 0.039622 0.000000 0.006241
# 5 0.006073 0.002289 -0.000579 0.000000 0.024000 0.000000
# 6 0.000000 -0.000002 0.000000 0.006241 0.000000 0.028880
#
#
# Mechanical properties :
#
#
# Convention : Reuss Voigt Hill
#
# Bulk Modulus (GPa) = 30.50735 35.56969 33.03852
# Shear Modulus (GPa) = 34.52315 39.67386 37.09850
#
# Velocity S-wave (km/s) = 3.63002 3.89140 3.76298
# Velocity P-wave (km/s) = 5.40497 5.81096 5.61164
#
# Compressibility (1/GPa) = 0.03277899
#
# Stress axis : x y z
#
# Youngs Moduli (GPa) = 92.02317 104.44311 60.06481
#
# Poissons Ratio (x) = -0.00541 0.13462
# Poissons Ratio (y) = -0.00477 -0.00204
# Poissons Ratio (z) = 0.20625 -0.00354
#
# Static dielectric constant tensor:
#      x y z
#    x 2.137200 0.000000 0.004000 
#    y 0.000000 1.990700 0.000000 
#    z 0.004000 0.000000 2.059330 
# 
# From -- ./inp_files/57447.got.cif
#   From: 2010.05.17/outbox.cif.g08.bks.cpg/sg5_29_cif.got.tgz:57447.got - 2010.06.03 18:56:24.
