data_PCOD9128192
_publ_section_title
;
Structure prediction by ZEFSAII (Michael W. Deem and Ramdas Pophale) SiO2 
 PCOD9128192
Probable space group: C 2
;
_chemical_formula_sum "Si O2"
_cell_formula_units_Z 14
_cell_length_a 8.405780
_cell_length_b 13.626184
_cell_length_c 8.810229
_cell_angle_alpha 90.000000
_cell_angle_beta 32.850992
_cell_angle_gamma 90.000000
_cell_volume 547.399061
_symmetry_space_group_name_H-M "C 2"
_symmetry_group_IT_number 5
_symmetry_cell_setting 'monoclinic'
loop_
_space_group_symop_operation_xyz
x,y,z
-x,y,-z
1/2+x,1/2+y,z
1/2-x,1/2+y,-z
loop_
_atom_site_type_symbol
_atom_site_label
_atom_site_fract_x
_atom_site_fract_y
_atom_site_fract_z
Si Si1 0.000000 0.280680 0.500000
Si Si2 0.156096 0.564333 0.528467
Si Si3 0.717274 0.865886 0.621410
Si Si4 0.298434 0.692703 0.950016
O O1 0.783410 0.339639 0.560036
O O2 0.803140 0.214647 0.767277
O O3 0.155113 0.481807 0.659164
O O4 0.473155 0.602323 0.223517
O O5 0.000000 0.530334 0.500000
O O6 0.979421 0.658315 0.733439
O O7 0.453387 0.793538 0.881741
O O8 0.000000 0.850523 0.500000
#
# Coordination Sequence:
#
# PCOD9128192 Si02
#       4
#     2   4   4   4
#     4   8  22  52  74 110 154 206 248 336 362 476
#     4  12  24  47  76 114 152 201 254 319 381 462
#     4  10  23  49  78 115 152 207 258 318 386 464
#     4  10  25  46  77 107 157 198 253 317 389 443
#
# _framework density 25.575492000000001
#
# number of rings (size 3 to 8) (size 9 to 14) (size 15 to 20)
#    1.714    0.000    1.429    1.714    2.000    3.429 
#    0.000    2.857    3.143    0.000    0.000    0.000 
#    0.000    0.000    0.000    0.000    0.000    0.000 
#
# Total GULP energy -39075.748579 kJ/mol
# GULP energy per Si atom -5582.249797 kJ/mol
# Density = 2.551728 g / cm^3
# Si number density = 25.575492 Si / 1000 Ang^3
#
#
#
# Elastic Constant Matrix: (Units=GPa)
#
#
# Indices 1 2 3 4 5 6 
#
# 1 185.9545 36.9781 31.3040 -0.0090 6.5653 0.0705
# 2 36.9781 127.9701 0.0329 -0.0055 -9.7623 0.2093
# 3 31.3040 0.0329 70.8834 -0.0656 2.6016 0.1306
# 4 -0.0090 -0.0055 -0.0656 13.4831 0.0429 -4.8102
# 5 6.5653 -9.7623 2.6016 0.0429 39.8198 -0.0605
# 6 0.0705 0.2093 0.1306 -4.8102 -0.0605 51.5549
#
#
#
# Elastic Compliance Matrix: (Units=1/GPa)
#
#
# Indices 1 2 3 4 5 6 
#
# 1 0.006261 -0.001909 -0.002716 -0.000004 -0.001323 0.000004
# 2 -0.001909 0.008546 0.000753 -0.000013 0.002361 -0.000032
# 3 -0.002716 0.000753 0.015320 0.000063 -0.000369 -0.000033
# 4 -0.000004 -0.000013 0.000063 0.076721 -0.000079 0.007158
# 5 -0.001323 0.002361 -0.000369 -0.000079 0.025934 0.000016
# 6 0.000004 -0.000032 -0.000033 0.007158 0.000016 0.020065
#
#
# Mechanical properties :
#
#
# Convention : Reuss Voigt Hill
#
# Bulk Modulus (GPa) = 44.67742 57.93754 51.30748
# Shear Modulus (GPa) = 29.75240 42.07109 35.91175
#
# Velocity S-wave (km/s) = 3.41444 4.06023 3.75126
# Velocity P-wave (km/s) = 5.74903 6.68456 6.23437
#
# Compressibility (1/GPa) = 0.02238267
#
# Stress axis : x y z
#
# Youngs Moduli (GPa) = 159.71256 117.01322 65.27281
#
# Poissons Ratio (x) = 0.22343 0.17726
# Poissons Ratio (y) = 0.30497 -0.04913
# Poissons Ratio (z) = 0.43373 -0.08808
#
# Static dielectric constant tensor:
#      x y z
#    x 1.956010 0.000260 0.282640 
#    y 0.000260 2.068340 -0.000780 
#    z 0.282640 -0.000780 1.422900 
# 
# From -- ./inp_files/15975.got.cif
#   From: 2010.05.17/outbox.cif.g08.bks.cpg/sg5_8_cif.got.tgz:15975.got - 2010.06.03 18:56:24.
