data_PCOD9128478
_publ_section_title
;
Structure prediction by ZEFSAII (Michael W. Deem and Ramdas Pophale) SiO2 
 PCOD9128478
Probable space group: C 2
;
_chemical_formula_sum "Si O2"
_cell_formula_units_Z 18
_cell_length_a 18.251293
_cell_length_b 9.391052
_cell_length_c 5.183974
_cell_angle_alpha 90.000000
_cell_angle_beta 60.114512
_cell_angle_gamma 90.000000
_cell_volume 770.373447
_symmetry_space_group_name_H-M "C 2"
_symmetry_group_IT_number 5
_symmetry_cell_setting 'monoclinic'
loop_
_space_group_symop_operation_xyz
x,y,z
-x,y,-z
1/2+x,1/2+y,z
1/2-x,1/2+y,-z
loop_
_atom_site_type_symbol
_atom_site_label
_atom_site_fract_x
_atom_site_fract_y
_atom_site_fract_z
Si Si1 0.440630 0.058970 0.363324
Si Si2 0.211887 0.780521 0.426234
Si Si3 0.365171 0.803119 0.815068
Si Si4 0.656826 0.584138 0.505946
Si Si5 0.500000 0.733190 0.000000
O O1 0.500000 0.094018 0.500000
O O2 0.365040 0.173652 0.492124
O O3 0.394400 0.908171 0.530115
O O4 0.500000 0.064086 0.000000
O O5 0.273356 0.692511 0.504444
O O6 0.173555 0.929095 0.583123
O O7 0.274725 0.841918 0.092674
O O8 0.348680 0.635601 0.781513
O O9 0.439821 0.812108 0.895795
O O10 0.564352 0.631769 0.745324
#
# Coordination Sequence:
#
# PCOD9128478 Si02
#       5
#     4   4   4   4   2
#     4  12  30  49  78 117 161 202 261 320 391 457
#     4  11  27  47  75 114 153 203 256 320 389 460
#     4  11  25  47  79 109 155 204 261 311 388 464
#     4  11  24  45  75 106 153 194 259 308 385 453
#     4  10  24  44  72 114 142 206 248 320 368 462
#
# _framework density 23.365292
#
# number of rings (size 3 to 8) (size 9 to 14) (size 15 to 20)
#    0.000    0.889    0.000    4.667   17.111    3.556 
#    0.000    0.000    0.000    0.000    0.000    0.000 
#    0.000    0.000    0.000    0.000    0.000    0.000 
#
# Total GULP energy -50162.662873 kJ/mol
# GULP energy per Si atom -5573.629208 kJ/mol
# Density = 2.331211 g / cm^3
# Si number density = 23.365292 Si / 1000 Ang^3
#
#
#
# Elastic Constant Matrix: (Units=GPa)
#
#
# Indices 1 2 3 4 5 6 
#
# 1 152.3706 61.9969 51.1239 0.0000 -16.3044 0.0000
# 2 61.9969 141.2149 20.5712 0.0000 -8.3910 0.0000
# 3 51.1239 20.5712 117.6133 0.0000 -12.7157 0.0000
# 4 0.0000 0.0000 0.0000 1.6709 0.0000 3.0008
# 5 -16.3044 -8.3910 -12.7157 0.0000 43.4353 0.0000
# 6 0.0000 0.0000 0.0000 3.0008 0.0000 38.8148
#
#
#
# Elastic Compliance Matrix: (Units=1/GPa)
#
#
# Indices 1 2 3 4 5 6 
#
# 1 0.009259 -0.003486 -0.003214 0.000000 0.001861 0.000000
# 2 -0.003486 0.008627 0.000047 0.000000 0.000372 0.000000
# 3 -0.003214 0.000047 0.010081 0.000000 0.001754 0.000000
# 4 0.000000 0.000000 0.000000 0.694984 0.000000 -0.053729
# 5 0.001861 0.000372 0.001754 0.000000 0.024307 0.000000
# 6 0.000000 0.000000 0.000000 -0.053729 0.000000 0.029917
#
#
# Mechanical properties :
#
#
# Convention : Reuss Voigt Hill
#
# Bulk Modulus (GPa) = 68.21062 75.39809 71.80436
# Shear Modulus (GPa) = 6.28640 35.28464 20.78552
#
# Velocity S-wave (km/s) = 1.64205 3.89026 2.98583
# Velocity P-wave (km/s) = 5.73163 7.24694 6.53337
#
# Compressibility (1/GPa) = 0.01466047
#
# Stress axis : x y z
#
# Youngs Moduli (GPa) = 108.00550 115.91248 99.19846
#
# Poissons Ratio (x) = 0.40408 0.31879
# Poissons Ratio (y) = 0.37652 -0.00462
# Poissons Ratio (z) = 0.34709 -0.00540
#
# Static dielectric constant tensor:
#      x y z
#    x 1.876780 0.000000 0.067080 
#    y 0.000000 1.922900 0.000000 
#    z 0.067080 0.000000 2.167280 
# 
# From -- ./inp_files/7980.got.cif
#   From: 2010.05.17/outbox.cif.g08.bks.cpg/sg5_4_cif.got.tgz:7980.got - 2010.06.03 18:56:24.
