data_PCOD9128958
_publ_section_title
;
Structure prediction by ZEFSAII (Michael W. Deem and Ramdas Pophale) SiO2 
 PCOD9128958
Probable space group: C 2
;
_chemical_formula_sum "Si O2"
_cell_formula_units_Z 14
_cell_length_a 12.002691
_cell_length_b 10.211119
_cell_length_c 4.989326
_cell_angle_alpha 90.000000
_cell_angle_beta 122.934451
_cell_angle_gamma 90.000000
_cell_volume 513.224645
_symmetry_space_group_name_H-M "C 2"
_symmetry_group_IT_number 5
_symmetry_cell_setting 'monoclinic'
loop_
_space_group_symop_operation_xyz
x,y,z
-x,y,-z
1/2+x,1/2+y,z
1/2-x,1/2+y,-z
loop_
_atom_site_type_symbol
_atom_site_label
_atom_site_fract_x
_atom_site_fract_y
_atom_site_fract_z
Si Si1 0.909345 0.417600 0.145705
Si Si2 0.000000 0.662346 0.500000
Si Si3 0.404294 0.605343 0.630606
Si Si4 0.702170 0.323148 0.494841
O O1 0.000000 0.357219 0.500000
O O2 0.890346 0.563628 0.235921
O O3 0.778267 0.346549 0.878849
O O4 0.000000 0.432726 0.000000
O O5 0.064850 0.752108 0.365137
O O6 0.500000 0.577343 0.500000
O O7 0.328483 0.472231 0.625766
O O8 0.294729 0.720157 0.460426
O O9 0.500000 0.645304 0.000000
#
# Coordination Sequence:
#
# PCOD9128958 Si02
#       4
#     4   2   4   4
#     4  10  25  51  74 116 156 214 268 332 409 481
#     4  10  26  50  80 120 164 220 272 338 426 484
#     4  12  32  55  84 129 166 223 284 340 423 501
#     4  12  27  55  85 120 174 214 278 353 408 503
#
# _framework density 27.278504000000002
#
# number of rings (size 3 to 8) (size 9 to 14) (size 15 to 20)
#    0.857    0.000    1.429    2.571    4.000   10.286 
#    7.714    0.000    0.000    0.000    0.000    0.000 
#    0.000    0.000    0.000    0.000    0.000    0.000 
#
# Total GULP energy -39195.469372 kJ/mol
# GULP energy per Si atom -5599.352767 kJ/mol
# Density = 2.721642 g / cm^3
# Si number density = 27.278504 Si / 1000 Ang^3
#
#
#
# Elastic Constant Matrix: (Units=GPa)
#
#
# Indices 1 2 3 4 5 6 
#
# 1 158.6863 63.4957 10.3999 0.0000 -1.0129 0.0000
# 2 63.4957 194.3814 -15.0520 0.0000 23.3304 0.0000
# 3 10.3999 -15.0520 84.5481 0.0000 -13.5835 0.0000
# 4 0.0000 0.0000 0.0000 33.2590 0.0000 9.3753
# 5 -1.0129 23.3304 -13.5835 0.0000 39.9012 0.0000
# 6 0.0000 0.0000 0.0000 9.3753 0.0000 43.8356
#
#
#
# Elastic Compliance Matrix: (Units=1/GPa)
#
#
# Indices 1 2 3 4 5 6 
#
# 1 0.007465 -0.002694 -0.001179 0.000000 0.001363 0.000000
# 2 -0.002694 0.006524 0.000919 0.000000 -0.003570 0.000000
# 3 -0.001179 0.000919 0.012742 0.000000 0.003770 0.000000
# 4 0.000000 0.000000 0.000000 0.031996 0.000000 -0.006843
# 5 0.001363 -0.003570 0.003770 0.000000 0.028467 0.000000
# 6 0.000000 0.000000 0.000000 -0.006843 0.000000 0.024276
#
#
# Mechanical properties :
#
#
# Convention : Reuss Voigt Hill
#
# Bulk Modulus (GPa) = 48.01864 61.70033 54.85948
# Shear Modulus (GPa) = 40.21908 48.65064 44.43486
#
# Velocity S-wave (km/s) = 3.84394 4.22771 4.04038
# Velocity P-wave (km/s) = 6.11085 6.81903 6.47463
#
# Compressibility (1/GPa) = 0.02082525
#
# Stress axis : x y z
#
# Youngs Moduli (GPa) = 133.95005 153.27889 78.48077
#
# Poissons Ratio (x) = 0.41286 0.09251
# Poissons Ratio (y) = 0.36080 -0.07214
# Poissons Ratio (z) = 0.15790 -0.14090
#
# Static dielectric constant tensor:
#      x y z
#    x 2.180940 0.000000 -0.020550 
#    y 0.000000 2.144720 0.000000 
#    z -0.020550 0.000000 2.082530 
# 
# From -- ./inp_files/4285.got.cif
#   From: 2010.05.17/outbox.cif.g08.bks.cpg/sg5_3_cif.got.tgz:4285.got - 2010.06.03 18:56:24.
