data_PCOD9128123
_publ_section_title
;
Structure prediction by ZEFSAII (Michael W. Deem and Ramdas Pophale) SiO2 
 PCOD9128123
Probable space group: C 2
;
_chemical_formula_sum "Si O2"
_cell_formula_units_Z 16
_cell_length_a 7.516608
_cell_length_b 16.111345
_cell_length_c 5.146428
_cell_angle_alpha 90.000000
_cell_angle_beta 95.163949
_cell_angle_gamma 90.000000
_cell_volume 620.716531
_symmetry_space_group_name_H-M "C 2"
_symmetry_group_IT_number 5
_symmetry_cell_setting 'monoclinic'
loop_
_space_group_symop_operation_xyz
x,y,z
-x,y,-z
1/2+x,1/2+y,z
1/2-x,1/2+y,-z
loop_
_atom_site_type_symbol
_atom_site_label
_atom_site_fract_x
_atom_site_fract_y
_atom_site_fract_z
Si Si1 0.837963 0.438240 0.775616
Si Si2 0.301833 0.605135 0.365320
Si Si3 0.278223 0.783149 0.393719
Si Si4 0.500000 0.693528 0.000000
Si Si5 0.500000 0.368861 0.000000
O O1 0.824982 0.527284 0.637471
O O2 0.819627 0.363872 0.567135
O O3 0.653614 0.426168 0.906324
O O4 0.000000 0.434312 0.000000
O O5 0.500000 0.585274 0.500000
O O6 0.244563 0.690583 0.503492
O O7 0.340373 0.630720 0.067145
O O8 0.558270 0.758612 0.780756
O O9 0.102267 0.809426 0.213653
#
# Coordination Sequence:
#
# PCOD9128123 Si02
#       5
#     4   4   4   2   2
#     4  12  29  52  85 129 170 224 286 357 421 512
#     4  10  23  46  85 122 167 215 286 347 424 504
#     4  10  26  48  84 123 172 221 278 350 435 494
#     4   8  23  44  86 117 166 224 263 356 418 513
#     4  12  27  46  84 121 172 218 279 350 424 513
#
# _framework density 25.776665000000001
#
# number of rings (size 3 to 8) (size 9 to 14) (size 15 to 20)
#    1.500    0.000    0.000    3.000   10.500    0.000 
#    4.500    0.000    5.500    1.500    0.000    0.000 
#    0.000    0.000    0.000    0.000    0.000    0.000 
#
# Total GULP energy -44584.721994 kJ/mol
# GULP energy per Si atom -5573.090249 kJ/mol
# Density = 2.571800 g / cm^3
# Si number density = 25.776665 Si / 1000 Ang^3
#
#
#
# Elastic Constant Matrix: (Units=GPa)
#
#
# Indices 1 2 3 4 5 6 
#
# 1 124.5682 72.7993 54.4783 0.0000 1.5337 0.0000
# 2 72.7993 264.6909 106.4006 0.0000 37.8933 0.0000
# 3 54.4783 106.4006 146.2484 0.0000 33.0409 0.0000
# 4 0.0000 0.0000 0.0000 40.8855 0.0000 26.7884
# 5 1.5337 37.8933 33.0409 0.0000 54.0481 0.0000
# 6 0.0000 0.0000 0.0000 26.7884 0.0000 -46.2924
#
#
#
# Elastic Compliance Matrix: (Units=1/GPa)
#
#
# Indices 1 2 3 4 5 6 
#
# 1 0.010575 -0.002100 -0.003105 0.000000 0.003070 0.000000
# 2 -0.002100 0.005877 -0.002989 0.000000 -0.002234 0.000000
# 3 -0.003105 -0.002989 0.011226 0.000000 -0.004679 0.000000
# 4 0.000000 0.000000 0.000000 0.017734 0.000000 0.010263
# 5 0.003070 -0.002234 -0.004679 0.000000 0.022841 0.000000
# 6 0.000000 0.000000 0.000000 0.010263 0.000000 -0.015663
#
#
# Mechanical properties :
#
#
# Convention : Reuss Voigt Hill
#
# Bulk Modulus (GPa) = 88.57281 111.42932 100.00107
# Shear Modulus (GPa) = 68.73665 29.85018 49.29341
#
# Velocity S-wave (km/s) = 5.16954 3.40668 4.37776
# Velocity P-wave (km/s) = 8.37069 7.66789 8.02698
#
# Compressibility (1/GPa) = 0.01129015
#
# Stress axis : x y z
#
# Youngs Moduli (GPa) = 94.56124 170.16474 89.07963
#
# Poissons Ratio (x) = 0.35732 0.27662
# Poissons Ratio (y) = 0.19856 0.26623
# Poissons Ratio (z) = 0.29364 0.50856
#
# Static dielectric constant tensor:
#      x y z
#    x 2.102400 0.000000 -0.045330 
#    y 0.000000 2.046030 0.000000 
#    z -0.045330 0.000000 2.369160 
# 
# From -- ./inp_files/2239.got.cif
#   From: 2010.05.17/outbox.cif.g08.bks.cpg/sg5_2_cif.got.tgz:2239.got - 2010.06.03 18:56:24.
