data_PCOD9128279
_publ_section_title
;
Structure prediction by ZEFSAII (Michael W. Deem and Ramdas Pophale) SiO2 
 PCOD9128279
Probable space group: C 2
;
_chemical_formula_sum "Si O2"
_cell_formula_units_Z 24
_cell_length_a 21.085299
_cell_length_b 5.180425
_cell_length_c 10.165505
_cell_angle_alpha 90.000000
_cell_angle_beta 70.322712
_cell_angle_gamma 90.000000
_cell_volume 1045.544331
_symmetry_space_group_name_H-M "C 2"
_symmetry_group_IT_number 5
_symmetry_cell_setting 'monoclinic'
loop_
_space_group_symop_operation_xyz
x,y,z
-x,y,-z
1/2+x,1/2+y,z
1/2-x,1/2+y,-z
loop_
_atom_site_type_symbol
_atom_site_label
_atom_site_fract_x
_atom_site_fract_y
_atom_site_fract_z
Si Si1 0.373308 0.313500 0.155253
Si Si2 0.139704 0.167705 0.292903
Si Si3 0.500000 0.664832 0.000000
Si Si4 0.625026 0.190314 0.136193
Si Si5 0.017386 0.546111 0.755572
Si Si6 0.751257 0.384989 0.583998
Si Si7 0.500000 0.760435 0.500000
O O1 0.432216 0.509255 0.073907
O O2 0.412293 0.134634 0.232810
O O3 0.310223 0.432882 0.272920
O O4 0.353274 0.182127 0.031238
O O5 0.134167 0.418534 0.202893
O O6 0.189229 0.253886 0.373992
O O7 0.066442 0.111458 0.407922
O O8 0.160144 0.919290 0.193215
O O9 0.509550 0.838730 0.121220
O O10 0.544040 0.249017 0.197735
O O11 0.022747 0.434510 0.607090
O O12 0.768804 0.658291 0.505069
#
# Coordination Sequence:
#
# PCOD9128279 Si02
#       7
#     4   4   2   4   4   4   2
#     4  12  25  42  78 102 147 195 242 312 364 447
#     4  11  26  45  67 106 142 189 247 297 370 436
#     4  12  22  44  72 114 142 188 258 304 374 428
#     4  11  23  44  71 103 141 181 242 308 364 424
#     4  11  23  42  68 111 144 184 252 300 376 431
#     4  12  30  50  72 105 151 201 249 296 374 452
#     4  10  24  40  70  94 146 190 232 312 350 432
#
# _framework density 22.954552
#
# number of rings (size 3 to 8) (size 9 to 14) (size 15 to 20)
#    0.000    0.667    3.333    4.000    4.667    5.333 
#    0.000    0.000    0.000    0.000    0.000    0.000 
#    0.000    0.000    0.000    0.000    0.000    0.000 
#
# Total GULP energy -67137.466641 kJ/mol
# GULP energy per Si atom -5594.788887 kJ/mol
# Density = 2.290231 g / cm^3
# Si number density = 22.954552 Si / 1000 Ang^3
#
#
#
# Elastic Constant Matrix: (Units=GPa)
#
#
# Indices 1 2 3 4 5 6 
#
# 1 55.1642 3.2348 23.2802 0.0000 -1.2812 0.0000
# 2 3.2348 65.9598 23.4389 0.0000 -0.0234 0.0000
# 3 23.2802 23.4389 143.1961 0.0000 6.2605 0.0000
# 4 0.0000 0.0000 0.0000 24.4961 0.0000 18.5672
# 5 -1.2812 -0.0234 6.2605 0.0000 49.3761 0.0000
# 6 0.0000 0.0000 0.0000 18.5672 0.0000 21.9596
#
#
#
# Elastic Compliance Matrix: (Units=1/GPa)
#
#
# Indices 1 2 3 4 5 6 
#
# 1 0.019506 0.000196 -0.003243 0.000000 0.000917 0.000000
# 2 0.000196 0.016105 -0.002683 0.000000 0.000353 0.000000
# 3 -0.003243 -0.002683 0.007998 0.000000 -0.001100 0.000000
# 4 0.000000 0.000000 0.000000 0.113672 0.000000 -0.096112
# 5 0.000917 0.000353 -0.001100 0.000000 0.020416 0.000000
# 6 0.000000 0.000000 0.000000 -0.096112 0.000000 0.126802
#
#
# Mechanical properties :
#
#
# Convention : Reuss Voigt Hill
#
# Bulk Modulus (GPa) = 31.10626 40.46976 35.78801
# Shear Modulus (GPa) = 15.30565 33.45744 24.38155
#
# Velocity S-wave (km/s) = 2.58501 3.82193 3.26262
# Velocity P-wave (km/s) = 4.74240 6.09466 5.46055
#
# Compressibility (1/GPa) = 0.03214787
#
# Stress axis : x y z
#
# Youngs Moduli (GPa) = 51.26545 62.09320 125.03051
#
# Poissons Ratio (x) = -0.01219 0.40553
# Poissons Ratio (y) = -0.01006 0.33551
# Poissons Ratio (z) = 0.16628 0.16662
#
# Static dielectric constant tensor:
#      x y z
#    x 1.900250 0.000000 0.040200 
#    y 0.000000 1.889940 0.000000 
#    z 0.040200 0.000000 1.822770 
# 
# From -- ./inp_files/30261.got.cif
#   From: 2010.05.17/outbox.cif.g08.bks.cpg/sg5_16_cif.got.tgz:30261.got - 2010.06.03 18:56:24.
