data_PCOD9128513
_publ_section_title
;
Structure prediction by ZEFSAII (Michael W. Deem and Ramdas Pophale) SiO2 
 PCOD9128513
Probable space group: C 2
;
_chemical_formula_sum "Si O2"
_cell_formula_units_Z 28
_cell_length_a 14.688830
_cell_length_b 16.706410
_cell_length_c 6.783119
_cell_angle_alpha 90.000000
_cell_angle_beta 124.695180
_cell_angle_gamma 90.000000
_cell_volume 1368.588812
_symmetry_space_group_name_H-M "C 2"
_symmetry_group_IT_number 5
_symmetry_cell_setting 'monoclinic'
loop_
_space_group_symop_operation_xyz
x,y,z
-x,y,-z
1/2+x,1/2+y,z
1/2-x,1/2+y,-z
loop_
_atom_site_type_symbol
_atom_site_label
_atom_site_fract_x
_atom_site_fract_y
_atom_site_fract_z
Si Si1 0.692026 0.445510 0.290934
Si Si2 0.201765 0.207627 0.363768
Si Si3 0.784006 0.514198 0.006057
Si Si4 0.869112 0.384572 0.824909
Si Si5 0.620721 0.165010 0.733628
Si Si6 0.602369 0.569001 0.477462
Si Si7 0.375098 0.269876 0.896416
O O1 0.724330 0.495255 0.137987
O O2 0.802323 0.422276 0.555037
O O3 0.611903 0.494433 0.338791
O O4 0.636748 0.364307 0.146877
O O5 0.152102 0.289357 0.213637
O O6 0.280301 0.164704 0.301926
O O7 0.114495 0.147861 0.357413
O O8 0.287110 0.232778 0.639301
O O9 0.880904 0.577908 0.166527
O O10 0.819066 0.430419 0.951818
O O11 0.706656 0.558617 0.752039
O O12 0.000000 0.399330 0.000000
O O13 0.500000 0.182053 0.500000
O O14 0.648953 0.235898 0.918704
O O15 0.500000 0.569218 0.500000
O O16 0.500000 0.244675 0.000000
#
# Coordination Sequence:
#
# PCOD9128513 Si02
#       7
#     4   4   4   4   4   4   4
#     4  10  24  45  66  96 136 170 221 276 329 396
#     4  11  23  47  63  97 139 170 227 275 319 401
#     4  11  24  43  68  98 133 169 226 276 324 402
#     4  10  25  44  66  96 132 179 222 272 329 394
#     4  12  24  39  73 101 132 177 218 273 339 385
#     4  11  25  44  70  99 132 177 223 273 332 391
#     4  11  23  42  66  97 134 174 217 272 330 394
#
# _framework density 20.459031
#
# number of rings (size 3 to 8) (size 9 to 14) (size 15 to 20)
#    0.000    1.143    4.286    0.857    4.000    1.714 
#    5.143    0.000    0.000    0.000    0.000    0.000 
#    0.000    0.000    0.000    0.000    0.000    0.000 
#
# Total GULP energy -78193.089308 kJ/mol
# GULP energy per Si atom -5585.220665 kJ/mol
# Density = 2.041247 g / cm^3
# Si number density = 20.459031 Si / 1000 Ang^3
#
#
#
# Elastic Constant Matrix: (Units=GPa)
#
#
# Indices 1 2 3 4 5 6 
#
# 1 110.2893 49.8214 32.7572 0.0000 -21.7181 0.0000
# 2 49.8214 142.6059 46.2358 0.0000 -22.6945 0.0000
# 3 32.7572 46.2358 75.1444 0.0000 -21.4740 0.0000
# 4 0.0000 0.0000 0.0000 3.2333 0.0000 -15.1771
# 5 -21.7181 -22.6945 -21.4740 0.0000 30.6543 0.0000
# 6 0.0000 0.0000 0.0000 -15.1771 0.0000 23.4166
#
#
#
# Elastic Compliance Matrix: (Units=1/GPa)
#
#
# Indices 1 2 3 4 5 6 
#
# 1 0.011880 -0.002676 -0.002117 0.000000 0.004953 0.000000
# 2 -0.002676 0.009653 -0.004092 0.000000 0.002385 0.000000
# 3 -0.002117 -0.004092 0.019322 0.000000 0.009006 0.000000
# 4 0.000000 0.000000 0.000000 -0.151436 0.000000 -0.098151
# 5 0.004953 0.002385 0.009006 0.000000 0.044205 0.000000
# 6 0.000000 0.000000 0.000000 -0.098151 0.000000 -0.020910
#
#
# Mechanical properties :
#
#
# Convention : Reuss Voigt Hill
#
# Bulk Modulus (GPa) = 43.31623 65.07427 54.19525
# Shear Modulus (GPa) = -80.87865 24.74252 -28.06807
#
# Velocity S-wave (km/s) = -6.29427 3.48137 -3.70796
# Velocity P-wave (km/s) = 5.62189 6.93081 2.86622
#
# Compressibility (1/GPa) = 0.02308603
#
# Stress axis : x y z
#
# Youngs Moduli (GPa) = 84.17593 103.59170 51.75483
#
# Poissons Ratio (x) = 0.27720 0.10956
# Poissons Ratio (y) = 0.22524 0.21176
# Poissons Ratio (z) = 0.17820 0.42387
#
# Static dielectric constant tensor:
#      x y z
#    x 1.724970 0.000000 -0.002360 
#    y 0.000000 1.749170 0.000000 
#    z -0.002360 0.000000 1.716950 
# 
# From -- ./inp_files/7257.got.cif
#   From: 2010.05.17/outbox.cif.g08.bks.cpg/sg5_4_cif.got.tgz:7257.got - 2010.06.03 18:56:24.
