data_PCOD9128253
_publ_section_title
;
Structure prediction by ZEFSAII (Michael W. Deem and Ramdas Pophale) SiO2 
 PCOD9128253
Probable space group: C 2
;
_chemical_formula_sum "Si O2"
_cell_formula_units_Z 30
_cell_length_a 12.013983
_cell_length_b 9.085664
_cell_length_c 28.970296
_cell_angle_alpha 90.000000
_cell_angle_beta 26.200172
_cell_angle_gamma 90.000000
_cell_volume 1396.161739
_symmetry_space_group_name_H-M "C 2"
_symmetry_group_IT_number 5
_symmetry_cell_setting 'monoclinic'
loop_
_space_group_symop_operation_xyz
x,y,z
-x,y,-z
1/2+x,1/2+y,z
1/2-x,1/2+y,-z
loop_
_atom_site_type_symbol
_atom_site_label
_atom_site_fract_x
_atom_site_fract_y
_atom_site_fract_z
Si Si1 0.498987 0.650720 0.445859
Si Si2 0.831203 0.431406 0.479048
Si Si3 0.980429 0.574331 0.769348
Si Si4 0.670137 0.581714 0.681453
Si Si5 0.708982 0.857317 0.847685
Si Si6 0.689618 0.849671 0.614651
Si Si7 0.983915 0.290260 0.830506
Si Si8 0.500000 0.078792 0.000000
O O1 0.500000 0.620359 0.500000
O O2 0.409237 0.523687 0.444825
O O3 0.295628 0.780444 0.518545
O O4 0.772813 0.680032 0.323475
O O5 0.914450 0.382238 0.396991
O O6 0.047804 0.520248 0.423779
O O7 0.059358 0.470639 0.696246
O O8 0.757279 0.692432 0.849359
O O9 0.945456 0.450737 0.821332
O O10 0.468901 0.451454 0.752304
O O11 0.613133 0.690564 0.660795
O O12 0.650983 0.687280 0.733900
O O13 0.603188 0.825119 0.835864
O O14 0.539768 0.966452 0.942181
O O15 0.000000 0.843512 0.500000
O O16 0.731233 0.189614 0.925261
#
# Coordination Sequence:
#
# PCOD9128253 Si02
#       8
#     4   4   4   4   4   4   4   2
#     4  12  26  40  59  95 136 182 234 268 307 377
#     4  12  23  38  62  84 133 183 221 270 313 352
#     4  11  22  43  65  98 131 173 225 266 319 388
#     4  10  24  40  61  99 130 174 224 263 317 382
#     4  11  24  46  71  98 134 163 212 277 332 406
#     4  11  21  41  58  88 136 179 225 267 305 365
#     4  10  25  44  73  95 132 166 208 273 343 401
#     4  10  26  50  68 106 126 156 216 268 344 428
#
# _framework density 21.487482
#
# number of rings (size 3 to 8) (size 9 to 14) (size 15 to 20)
#    0.000    1.067    4.000    1.600    3.733    4.267 
#    0.000    2.667    0.000    0.000    0.000    0.000 
#    0.000    0.000    0.000    0.000    0.000    0.000 
#
# Total GULP energy -83576.559355 kJ/mol
# GULP energy per Si atom -5571.770624 kJ/mol
# Density = 2.143858 g / cm^3
# Si number density = 21.487482 Si / 1000 Ang^3
#
#
#
# Elastic Constant Matrix: (Units=GPa)
#
#
# Indices 1 2 3 4 5 6 
#
# 1 101.8305 55.3967 17.5689 -0.0078 8.9082 -0.0131
# 2 55.3967 155.5244 29.2906 -0.0256 4.0114 -0.0545
# 3 17.5689 29.2906 42.0766 -0.1501 3.5894 -0.2412
# 4 -0.0078 -0.0256 -0.1501 17.2389 -0.0208 -14.5041
# 5 8.9082 4.0114 3.5894 -0.0208 13.5393 -0.0577
# 6 -0.0131 -0.0545 -0.2412 -14.5041 -0.0577 21.3133
#
#
#
# Elastic Compliance Matrix: (Units=1/GPa)
#
#
# Indices 1 2 3 4 5 6 
#
# 1 0.012974 -0.004068 -0.002007 -0.000146 -0.006800 -0.000143
# 2 -0.004068 0.008685 -0.004458 -0.000115 0.001285 -0.000106
# 3 -0.002007 -0.004458 0.028128 0.001118 -0.004810 0.001054
# 4 -0.000146 -0.000115 0.001118 0.135762 0.000436 0.092402
# 5 -0.006800 0.001285 -0.004810 0.000436 0.079231 0.000456
# 6 -0.000143 -0.000106 0.001054 0.092402 0.000456 0.109814
#
#
# Mechanical properties :
#
#
# Convention : Reuss Voigt Hill
#
# Bulk Modulus (GPa) = 34.81690 55.99376 45.40533
# Shear Modulus (GPa) = 12.33856 23.56330 17.95093
#
# Velocity S-wave (km/s) = 2.39889 3.31510 2.89349
# Velocity P-wave (km/s) = 4.88993 6.38502 5.68682
#
# Compressibility (1/GPa) = 0.02872168
#
# Stress axis : x y z
#
# Youngs Moduli (GPa) = 77.07480 115.13684 35.55203
#
# Poissons Ratio (x) = 0.46839 0.07134
# Poissons Ratio (y) = 0.31355 0.15849
# Poissons Ratio (z) = 0.15467 0.51329
#
# Static dielectric constant tensor:
#      x y z
#    x 1.785420 -0.000040 -0.001600 
#    y -0.000040 1.895200 0.000190 
#    z -0.001600 0.000190 1.831860 
# 
# From -- ./inp_files/71692.got.cif
#   From: 2010.05.17/outbox.cif.g08.bks.cpg/sg5_36_cif.got.tgz:71692.got - 2010.06.03 18:56:24.
