data_PCOD9128821
_publ_section_title
;
Structure prediction by ZEFSAII (Michael W. Deem and Ramdas Pophale) SiO2 
 PCOD9128821
Probable space group: C 2
;
_chemical_formula_sum "Si O2"
_cell_formula_units_Z 14
_cell_length_a 6.119757
_cell_length_b 20.301630
_cell_length_c 4.946443
_cell_angle_alpha 90.000000
_cell_angle_beta 89.682600
_cell_angle_gamma 90.000000
_cell_volume 614.541804
_symmetry_space_group_name_H-M "C 2"
_symmetry_group_IT_number 5
_symmetry_cell_setting 'monoclinic'
loop_
_space_group_symop_operation_xyz
x,y,z
-x,y,-z
1/2+x,1/2+y,z
1/2-x,1/2+y,-z
loop_
_atom_site_type_symbol
_atom_site_label
_atom_site_fract_x
_atom_site_fract_y
_atom_site_fract_z
Si Si1 0.000000 0.136770 0.000000
Si Si2 0.845175 0.738840 0.756694
Si Si3 0.140917 0.466964 0.258482
Si Si4 0.000000 0.050814 0.500000
Si Si5 0.500000 0.837540 0.500000
O O1 0.197464 0.179653 0.874093
O O2 0.906182 0.097820 0.738101
O O3 0.670129 0.793229 0.660948
O O4 0.000000 0.722052 0.500000
O O5 0.000000 0.762208 0.000000
O O6 0.367584 0.501255 0.305391
O O7 0.136622 0.388560 0.312051
O O8 0.000000 0.497348 0.500000
O O9 0.000000 0.480670 0.000000
#
# Coordination Sequence:
#
# PCOD9128821 Si02
#       5
#     2   4   4   2   2
#     4  12  28  50  72 112 150 190 264 294 346 464
#     4  12  27  47  78 109 148 199 237 310 373 421
#     4  10  25  43  71 109 146 186 239 301 361 440
#     4  12  25  48  76 102 153 198 238 304 372 422
#     4  10  27  44  76 112 151 172 260 298 366 456
#
# _framework density 22.781196999999999
#
# number of rings (size 3 to 8) (size 9 to 14) (size 15 to 20)
#    0.857    0.000    0.000    6.000    8.000    4.571 
#    0.000    2.857    0.000    0.000    0.000    0.000 
#    0.000    0.000    0.000    0.000    0.000    0.000 
#
# Total GULP energy -39053.166821 kJ/mol
# GULP energy per Si atom -5579.023832 kJ/mol
# Density = 2.272935 g / cm^3
# Si number density = 22.781197 Si / 1000 Ang^3
#
#
#
# Elastic Constant Matrix: (Units=GPa)
#
#
# Indices 1 2 3 4 5 6 
#
# 1 112.2437 85.3543 77.2328 0.0000 25.8065 0.0000
# 2 85.3543 122.3555 84.5046 0.0000 10.3617 0.0000
# 3 77.2328 84.5046 220.7324 0.0000 30.0890 0.0000
# 4 0.0000 0.0000 0.0000 74.0723 0.0000 -17.8149
# 5 25.8065 10.3617 30.0890 0.0000 61.2591 0.0000
# 6 0.0000 0.0000 0.0000 -17.8149 0.0000 19.0069
#
#
#
# Elastic Compliance Matrix: (Units=1/GPa)
#
#
# Indices 1 2 3 4 5 6 
#
# 1 0.021662 -0.013504 -0.001583 0.000000 -0.006064 0.000000
# 2 -0.013504 0.019532 -0.003299 0.000000 0.004005 0.000000
# 3 -0.001583 -0.003299 0.006624 0.000000 -0.002029 0.000000
# 4 0.000000 0.000000 0.000000 0.017429 0.000000 0.016336
# 5 -0.006064 0.004005 -0.002029 0.000000 0.019197 0.000000
# 6 0.000000 0.000000 0.000000 0.016336 0.000000 0.067924
#
#
# Mechanical properties :
#
#
# Convention : Reuss Voigt Hill
#
# Bulk Modulus (GPa) = 90.52929 105.50165 98.01547
# Shear Modulus (GPa) = 25.93069 44.75032 35.34050
#
# Velocity S-wave (km/s) = 3.37746 4.43691 3.94293
# Velocity P-wave (km/s) = 7.41852 8.52406 7.99043
#
# Compressibility (1/GPa) = 0.01104615
#
# Stress axis : x y z
#
# Youngs Moduli (GPa) = 46.16472 51.19687 150.97697
#
# Poissons Ratio (x) = 0.69138 0.23895
# Poissons Ratio (y) = 0.62342 0.49802
# Poissons Ratio (z) = 0.07307 0.16888
#
# Static dielectric constant tensor:
#      x y z
#    x 1.672880 0.000000 -0.090520 
#    y 0.000000 1.857250 0.000000 
#    z -0.090520 0.000000 1.823080 
# 
# From -- ./inp_files/462.got.cif
#   From: 2010.05.17/outbox.cif.g08.bks.cpg/sg5_1_cif.got.tgz:462.got - 2010.06.03 18:56:24.
