data_PCOD9128418
_publ_section_title
;
Structure prediction by ZEFSAII (Michael W. Deem and Ramdas Pophale) SiO2 
 PCOD9128418
Probable space group: C 2
;
_chemical_formula_sum "Si O2"
_cell_formula_units_Z 14
_cell_length_a 15.857333
_cell_length_b 7.107922
_cell_length_c 16.571598
_cell_angle_alpha 90.000000
_cell_angle_beta 162.154116
_cell_angle_gamma 90.000000
_cell_volume 572.410674
_symmetry_space_group_name_H-M "C 2"
_symmetry_group_IT_number 5
_symmetry_cell_setting 'monoclinic'
loop_
_space_group_symop_operation_xyz
x,y,z
-x,y,-z
1/2+x,1/2+y,z
1/2-x,1/2+y,-z
loop_
_atom_site_type_symbol
_atom_site_label
_atom_site_fract_x
_atom_site_fract_y
_atom_site_fract_z
Si Si1 0.907602 0.578430 0.201705
Si Si2 0.358915 0.352117 0.703325
Si Si3 0.500000 0.222173 0.000000
Si Si4 0.291984 0.356313 0.237274
O O1 0.885131 0.755801 0.241385
O O2 0.085549 0.426461 0.412340
O O3 0.061514 0.650942 0.262509
O O4 0.608507 0.495578 0.911282
O O5 0.359842 0.335377 0.800572
O O6 0.274620 0.077860 0.831848
O O7 0.500000 0.330180 0.500000
O O8 0.000000 0.272579 0.000000
#
# Coordination Sequence:
#
# PCOD9128418 Si02
#       4
#     4   4   2   4
#     4  12  27  47  73 105 145 188 237 290 358 419
#     4  12  28  45  75 105 146 185 240 289 356 423
#     4  10  28  44  74 106 142 184 236 292 352 420
#     4  10  24  43  74  97 145 180 232 289 350 410
#
# _framework density 24.457965999999999
#
# number of rings (size 3 to 8) (size 9 to 14) (size 15 to 20)
#    0.857    0.000    0.000    5.143   14.000    0.000 
#    0.000    0.000    0.000    0.000    0.000    0.000 
#    0.000    0.000    0.000    0.000    0.000    0.000 
#
# Total GULP energy -39232.507787 kJ/mol
# GULP energy per Si atom -5604.643970 kJ/mol
# Density = 2.440230 g / cm^3
# Si number density = 24.457966 Si / 1000 Ang^3
#
#
#
# Elastic Constant Matrix: (Units=GPa)
#
#
# Indices 1 2 3 4 5 6 
#
# 1 81.1242 15.8043 12.2552 -0.0117 -24.4616 0.0076
# 2 15.8043 63.1972 -3.0730 -0.0445 -1.9767 0.0244
# 3 12.2552 -3.0730 103.0057 -0.0217 -6.7525 0.0200
# 4 -0.0117 -0.0445 -0.0217 -86.1817 -0.0018 41.4475
# 5 -24.4616 -1.9767 -6.7525 -0.0018 34.8062 0.0038
# 6 0.0076 0.0244 0.0200 41.4475 0.0038 50.0882
#
#
#
# Elastic Compliance Matrix: (Units=1/GPa)
#
#
# Indices 1 2 3 4 5 6 
#
# 1 0.016678 -0.003886 -0.001364 0.000000 0.011236 -0.000001
# 2 -0.003886 0.016786 0.000857 -0.000009 -0.001611 -0.000001
# 3 -0.001364 0.000857 0.009963 -0.000003 0.001023 -0.000001
# 4 0.000000 -0.000009 -0.000003 -0.008300 -0.000003 0.006868
# 5 0.011236 -0.001611 0.001023 -0.000003 0.036734 -0.000002
# 6 -0.000001 -0.000001 -0.000001 0.006868 -0.000002 0.014281
#
#
# Mechanical properties :
#
#
# Convention : Reuss Voigt Hill
#
# Bulk Modulus (GPa) = 28.86521 33.03335 30.94928
# Shear Modulus (GPa) = 46.95993 14.56526 30.76259
#
# Velocity S-wave (km/s) = 4.38656 2.44298 3.55036
# Velocity P-wave (km/s) = 6.12238 4.63606 5.43031
#
# Compressibility (1/GPa) = 0.03464378
#
# Stress axis : x y z
#
# Youngs Moduli (GPa) = 59.96030 59.57175 100.37044
#
# Poissons Ratio (x) = 0.23147 0.13687
# Poissons Ratio (y) = 0.23298 -0.08606
# Poissons Ratio (z) = 0.08176 -0.05108
#
# Static dielectric constant tensor:
#      x y z
#    x 1.965450 0.000000 0.048000 
#    y 0.000000 1.960040 0.000010 
#    z 0.048000 0.000010 1.906750 
# 
# From -- ./inp_files/6305.got.cif
#   From: 2010.05.17/outbox.cif.g08.bks.cpg/sg5_4_cif.got.tgz:6305.got - 2010.06.03 18:56:24.
