data_PCOD9128120
_publ_section_title
;
Structure prediction by ZEFSAII (Michael W. Deem and Ramdas Pophale) SiO2 
 PCOD9128120
Probable space group: C 2
;
_chemical_formula_sum "Si O2"
_cell_formula_units_Z 14
_cell_length_a 21.043961
_cell_length_b 4.976690
_cell_length_c 20.477628
_cell_angle_alpha 90.000000
_cell_angle_beta 165.861141
_cell_angle_gamma 90.000000
_cell_volume 523.869037
_symmetry_space_group_name_H-M "C 2"
_symmetry_group_IT_number 5
_symmetry_cell_setting 'monoclinic'
loop_
_space_group_symop_operation_xyz
x,y,z
-x,y,-z
1/2+x,1/2+y,z
1/2-x,1/2+y,-z
loop_
_atom_site_type_symbol
_atom_site_label
_atom_site_fract_x
_atom_site_fract_y
_atom_site_fract_z
Si Si1 0.500000 0.182081 0.000000
Si Si2 0.785357 0.918789 0.392033
Si Si3 0.335856 0.548285 0.627852
Si Si4 0.291922 0.256725 0.923778
O O1 0.283851 0.987523 0.751622
O O2 0.364250 0.354503 0.921948
O O3 0.031216 0.088831 0.659446
O O4 0.803792 0.624059 0.441780
O O5 0.520301 0.034628 0.159343
O O6 0.209083 0.302113 0.463027
O O7 0.629337 0.467326 0.941870
#
# Coordination Sequence:
#
# PCOD9128120 Si02
#       4
#     2   4   4   4
#     4   8  20  46  74 114 148 198 250 324 386 466
#     4  10  23  46  76 112 151 198 253 317 385 456
#     4  12  25  53  74 117 155 212 258 320 380 466
#     4  10  23  46  76 112 151 198 253 317 385 456
#
# _framework density 26.724239000000001
#
# number of rings (size 3 to 8) (size 9 to 14) (size 15 to 20)
#    1.714    0.000    2.857    0.857    0.000    3.429 
#   10.286    0.000   12.571    0.000    0.000    0.000 
#    0.000    0.000    0.000    0.000    0.000    0.000 
#
# Total GULP energy -39047.880866 kJ/mol
# GULP energy per Si atom -5578.268695 kJ/mol
# Density = 2.666341 g / cm^3
# Si number density = 26.724239 Si / 1000 Ang^3
#
#
#
# Elastic Constant Matrix: (Units=GPa)
#
#
# Indices 1 2 3 4 5 6 
#
# 1 84.3136 28.4430 53.7060 0.0036 -26.6155 0.0007
# 2 28.4430 136.4103 84.4261 -0.0136 -15.5187 -0.0068
# 3 53.7060 84.4261 254.7072 0.0151 -21.4592 0.0083
# 4 0.0036 -0.0136 0.0151 33.1639 0.0071 -10.3087
# 5 -26.6155 -15.5187 -21.4592 0.0071 54.9232 0.0045
# 6 0.0007 -0.0068 0.0083 -10.3087 0.0045 47.3061
#
#
#
# Elastic Compliance Matrix: (Units=1/GPa)
#
#
# Indices 1 2 3 4 5 6 
#
# 1 0.015792 -0.001054 -0.002441 -0.000003 0.006401 -0.000001
# 2 -0.001054 0.009408 -0.002808 0.000006 0.001051 0.000003
# 3 -0.002441 -0.002808 0.005382 -0.000004 0.000127 -0.000002
# 4 -0.000003 0.000006 -0.000004 0.032344 -0.000006 0.007048
# 5 0.006401 0.001051 0.000127 -0.000006 0.021655 -0.000003
# 6 -0.000001 0.000003 -0.000002 0.007048 -0.000003 0.022675
#
#
# Mechanical properties :
#
#
# Convention : Reuss Voigt Hill
#
# Bulk Modulus (GPa) = 55.62830 89.84236 72.73533
# Shear Modulus (GPa) = 39.72896 47.66904 43.69900
#
# Velocity S-wave (km/s) = 3.85986 4.22801 4.04813
# Velocity P-wave (km/s) = 6.38166 7.58460 7.00898
#
# Compressibility (1/GPa) = 0.01797646
#
# Stress axis : x y z
#
# Youngs Moduli (GPa) = 63.32520 106.29557 185.80092
#
# Poissons Ratio (x) = 0.11199 0.45357
# Poissons Ratio (y) = 0.06672 0.52166
# Poissons Ratio (z) = 0.15459 0.29844
#
# Static dielectric constant tensor:
#      x y z
#    x 2.305510 0.000000 0.023770 
#    y 0.000000 2.201560 0.000000 
#    z 0.023770 0.000000 2.059740 
# 
# From -- ./inp_files/71416.got.cif
#   From: 2010.05.17/outbox.cif.g08.bks.cpg/sg5_36_cif.got.tgz:71416.got - 2010.06.03 18:56:24.
