data_PCOD9128861
_publ_section_title
;
Structure prediction by ZEFSAII (Michael W. Deem and Ramdas Pophale) SiO2 
 PCOD9128861
Probable space group: C 2
;
_chemical_formula_sum "Si O2"
_cell_formula_units_Z 26
_cell_length_a 11.672026
_cell_length_b 8.745485
_cell_length_c 25.221099
_cell_angle_alpha 90.000000
_cell_angle_beta 30.172617
_cell_angle_gamma 90.000000
_cell_volume 1293.965032
_symmetry_space_group_name_H-M "C 2"
_symmetry_group_IT_number 5
_symmetry_cell_setting 'monoclinic'
loop_
_space_group_symop_operation_xyz
x,y,z
-x,y,-z
1/2+x,1/2+y,z
1/2-x,1/2+y,-z
loop_
_atom_site_type_symbol
_atom_site_label
_atom_site_fract_x
_atom_site_fract_y
_atom_site_fract_z
Si Si1 0.908589 0.872210 0.298185
Si Si2 0.249317 0.127369 0.197621
Si Si3 0.520504 0.843525 0.372831
Si Si4 0.500000 0.289435 0.000000
Si Si5 0.266901 0.838314 0.066578
Si Si6 0.288426 0.617905 0.546064
Si Si7 0.271184 0.016560 0.965222
O O1 0.682125 0.909409 0.354991
O O2 0.851340 0.744488 0.364483
O O3 0.085511 0.805914 0.184420
O O4 0.034994 0.019110 0.271508
O O5 0.358878 0.194653 0.100017
O O6 0.173652 0.264545 0.266185
O O7 0.454619 0.030108 0.141928
O O8 0.383038 0.707094 0.456785
O O9 0.360494 0.973363 0.412052
O O10 0.324444 0.396843 0.038414
O O11 0.314008 0.684482 0.015250
O O12 0.500000 0.888090 0.000000
O O13 0.187616 0.964359 0.056487
O O14 0.500000 0.573431 0.500000
#
# Coordination Sequence:
#
# PCOD9128861 Si02
#       7
#     4   4   4   2   4   4   4
#     4  11  24  42  67  96 131 172 222 273 330 389
#     4  12  25  41  64  96 134 174 224 270 326 391
#     4  11  24  45  70  98 132 170 219 276 339 395
#     4  12  26  38  64  96 134 180 228 266 320 390
#     4  12  24  41  66  92 137 182 222 269 325 385
#     4  10  25  45  71  99 129 166 219 278 337 401
#     4  12  24  40  61  92 132 178 226 266 315 387
#
# _framework density 20.09328
#
# number of rings (size 3 to 8) (size 9 to 14) (size 15 to 20)
#    0.000    0.615    5.385    1.846    2.154    3.692 
#    0.000    0.000    0.000    0.000    0.000    0.000 
#    0.000    0.000    0.000    0.000    0.000    0.000 
#
# Total GULP energy -72691.529360 kJ/mol
# GULP energy per Si atom -5591.656105 kJ/mol
# Density = 2.004755 g / cm^3
# Si number density = 20.093280 Si / 1000 Ang^3
#
#
#
# Elastic Constant Matrix: (Units=GPa)
#
#
# Indices 1 2 3 4 5 6 
#
# 1 130.2023 61.9717 36.5477 0.0000 -10.7796 0.0000
# 2 61.9717 83.2585 27.3591 0.0000 -9.0035 0.0000
# 3 36.5477 27.3591 97.4984 0.0001 7.3905 0.0005
# 4 0.0000 0.0000 0.0001 36.3663 -0.0001 -11.1253
# 5 -10.7796 -9.0035 7.3905 -0.0001 33.2900 -0.0001
# 6 0.0000 0.0000 0.0005 -11.1253 -0.0001 40.4015
#
#
#
# Elastic Compliance Matrix: (Units=1/GPa)
#
#
# Indices 1 2 3 4 5 6 
#
# 1 0.012505 -0.008205 -0.002567 0.000000 0.002400 0.000000
# 2 -0.008205 0.019304 -0.002579 0.000000 0.003137 0.000000
# 3 -0.002567 -0.002579 0.012265 0.000000 -0.004252 0.000000
# 4 0.000000 0.000000 0.000000 0.030028 0.000000 0.008269
# 5 0.002400 0.003137 -0.004252 0.000000 0.032608 0.000000
# 6 0.000000 0.000000 0.000000 0.008269 0.000000 0.027028
#
#
# Mechanical properties :
#
#
# Convention : Reuss Voigt Hill
#
# Bulk Modulus (GPa) = 57.56318 62.52403 60.04360
# Shear Modulus (GPa) = 30.07860 34.35028 32.21444
#
# Velocity S-wave (km/s) = 3.87324 4.13914 4.00840
# Velocity P-wave (km/s) = 6.97946 7.35036 7.16731
#
# Compressibility (1/GPa) = 0.01737222
#
# Stress axis : x y z
#
# Youngs Moduli (GPa) = 79.96987 51.80156 81.53326
#
# Poissons Ratio (x) = 0.42501 0.20930
# Poissons Ratio (y) = 0.65611 0.21030
# Poissons Ratio (z) = 0.20529 0.13361
#
# Static dielectric constant tensor:
#      x y z
#    x 1.732080 0.000000 -0.001360 
#    y 0.000000 1.686810 0.000000 
#    z -0.001360 0.000000 1.699860 
# 
# From -- ./inp_files/38397.got.cif
#   From: 2010.05.17/outbox.cif.g08.bks.cpg/sg5_20_cif.got.tgz:38397.got - 2010.06.03 18:56:24.
