data_PCOD9128295
_publ_section_title
;
Structure prediction by ZEFSAII (Michael W. Deem and Ramdas Pophale) SiO2 
 PCOD9128295
Probable space group: C 2
;
_chemical_formula_sum "Si O2"
_cell_formula_units_Z 28
_cell_length_a 19.505926
_cell_length_b 6.037214
_cell_length_c 13.606975
_cell_angle_alpha 90.000000
_cell_angle_beta 128.191720
_cell_angle_gamma 90.000000
_cell_volume 1259.382278
_symmetry_space_group_name_H-M "C 2"
_symmetry_group_IT_number 5
_symmetry_cell_setting 'monoclinic'
loop_
_space_group_symop_operation_xyz
x,y,z
-x,y,-z
1/2+x,1/2+y,z
1/2-x,1/2+y,-z
loop_
_atom_site_type_symbol
_atom_site_label
_atom_site_fract_x
_atom_site_fract_y
_atom_site_fract_z
Si Si1 0.934431 0.113740 0.570755
Si Si2 0.500000 0.684715 0.000000
Si Si3 0.780532 0.110843 0.565417
Si Si4 0.448917 0.299081 0.088097
Si Si5 0.786755 0.862454 0.328441
Si Si6 0.597498 0.316854 0.734727
Si Si7 0.000000 0.490254 0.500000
Si Si8 0.114915 0.575757 0.164506
O O1 0.882075 0.131380 0.625903
O O2 0.937020 0.334239 0.508631
O O3 0.877201 0.936383 0.458964
O O4 0.032503 0.027594 0.668931
O O5 0.461845 0.542386 0.055655
O O6 0.575525 0.833811 0.112256
O O7 0.745946 0.356522 0.490846
O O8 0.750179 0.145221 0.650603
O O9 0.403490 0.266161 0.151248
O O10 0.547378 0.197125 0.177046
O O11 0.397843 0.184363 0.953325
O O12 0.809288 0.848295 0.233860
O O13 0.714110 0.050501 0.282700
O O14 0.551893 0.130674 0.626848
#
# Coordination Sequence:
#
# PCOD9128295 Si02
#       8
#     4   2   4   4   4   4   2   4
#     4  11  24  42  63  97 137 181 224 272 348 422
#     4   8  18  44  66  92 116 162 226 264 330 396
#     4  10  24  41  66  98 139 182 233 281 343 417
#     4   9  22  43  67  91 121 175 220 272 333 415
#     4  11  22  44  59 100 137 164 222 292 340 406
#     4  12  24  42  64  94 137 172 222 273 349 416
#     4  12  22  42  64  90 132 186 216 278 330 438
#     4   9  21  43  66  93 123 165 227 277 329 406
#
# _framework density 22.233122999999999
#
# number of rings (size 3 to 8) (size 9 to 14) (size 15 to 20)
#    0.000    2.000    2.857    0.857    6.000    3.429 
#   12.857    0.000    0.000    0.000    0.000    0.000 
#    0.000    0.000    0.000    0.000    0.000    0.000 
#
# Total GULP energy -78063.821458 kJ/mol
# GULP energy per Si atom -5575.987247 kJ/mol
# Density = 2.218252 g / cm^3
# Si number density = 22.233123 Si / 1000 Ang^3
#
#
#
# Elastic Constant Matrix: (Units=GPa)
#
#
# Indices 1 2 3 4 5 6 
#
# 1 147.9240 30.2756 17.0333 0.0000 -25.8542 0.0000
# 2 30.2756 95.1247 15.9088 0.0000 -12.8377 0.0000
# 3 17.0333 15.9088 40.7877 0.0000 -15.3465 0.0000
# 4 0.0000 0.0000 0.0000 -4.4995 0.0000 7.8273
# 5 -25.8542 -12.8377 -15.3465 0.0000 32.4221 0.0000
# 6 0.0000 0.0000 0.0000 7.8273 0.0000 5.8318
#
#
#
# Elastic Compliance Matrix: (Units=1/GPa)
#
#
# Indices 1 2 3 4 5 6 
#
# 1 0.008154 -0.001743 -0.000655 0.000000 0.005502 0.000000
# 2 -0.001743 0.011846 -0.003225 0.000000 0.001774 0.000000
# 3 -0.000655 -0.003225 0.030869 0.000000 0.012812 0.000000
# 4 0.000000 0.000000 0.000000 -0.066645 0.000000 0.089448
# 5 0.005502 0.001774 0.012812 0.000000 0.041997 0.000000
# 6 0.000000 0.000000 0.000000 0.089448 0.000000 0.051419
#
#
# Mechanical properties :
#
#
# Convention : Reuss Voigt Hill
#
# Bulk Modulus (GPa) = 25.23799 45.58576 35.41187
# Shear Modulus (GPa) = 48.97345 21.45878 35.21611
#
# Velocity S-wave (km/s) = 4.69841 3.11009 3.98420
# Velocity P-wave (km/s) = 6.38824 5.78316 6.09321
#
# Compressibility (1/GPa) = 0.03962281
#
# Stress axis : x y z
#
# Youngs Moduli (GPa) = 122.63818 84.41612 32.39460
#
# Poissons Ratio (x) = 0.14715 0.02122
# Poissons Ratio (y) = 0.21377 0.10447
# Poissons Ratio (z) = 0.08035 0.27224
#
# Static dielectric constant tensor:
#      x y z
#    x 1.857280 0.000000 -0.015150 
#    y 0.000000 1.891250 0.000000 
#    z -0.015150 0.000000 1.869620 
# 
# From -- ./inp_files/56586.got.cif
#   From: 2010.05.17/outbox.cif.g08.bks.cpg/sg5_29_cif.got.tgz:56586.got - 2010.06.03 18:56:24.
