data_PCOD9128912
_publ_section_title
;
Structure prediction by ZEFSAII (Michael W. Deem and Ramdas Pophale) SiO2 
 PCOD9128912
Probable space group: C 2
;
_chemical_formula_sum "Si O2"
_cell_formula_units_Z 20
_cell_length_a 26.429913
_cell_length_b 4.659776
_cell_length_c 17.612064
_cell_angle_alpha 90.000000
_cell_angle_beta 160.873174
_cell_angle_gamma 90.000000
_cell_volume 710.713950
_symmetry_space_group_name_H-M "C 2"
_symmetry_group_IT_number 5
_symmetry_cell_setting 'monoclinic'
loop_
_space_group_symop_operation_xyz
x,y,z
-x,y,-z
1/2+x,1/2+y,z
1/2-x,1/2+y,-z
loop_
_atom_site_type_symbol
_atom_site_label
_atom_site_fract_x
_atom_site_fract_y
_atom_site_fract_z
Si Si1 0.386897 0.971200 0.101627
Si Si2 0.550166 0.282622 0.654315
Si Si3 0.312967 0.878205 0.547926
Si Si4 0.327131 0.738940 0.783768
Si Si5 0.280233 0.739695 0.274486
O O1 0.462770 0.121101 0.282992
O O2 0.515476 0.797417 0.235548
O O3 0.309298 0.182665 0.930333
O O4 0.235303 0.805612 0.913170
O O5 0.500000 0.154264 0.500000
O O6 0.449877 0.582058 0.514321
O O7 0.204979 0.603945 0.407930
O O8 0.262168 0.092225 0.410743
O O9 0.259140 0.565448 0.760069
O O10 0.300596 0.062903 0.771803
O O11 0.500000 0.699333 0.000000
#
# Coordination Sequence:
#
# PCOD9128912 Si02
#       5
#     4   4   4   4   4
#     4  11  25  46  77 111 153 201 256 316 386 457
#     4  10  25  47  75 117 153 205 258 325 385 460
#     4  12  26  45  73 110 148 199 253 309 380 459
#     4  12  24  45  72 106 155 198 253 315 376 457
#     4  11  25  47  72 111 149 197 254 317 381 456
#
# _framework density 28.140720000000002
#
# number of rings (size 3 to 8) (size 9 to 14) (size 15 to 20)
#    0.000    0.800    2.000    4.200    2.800    3.200 
#    0.000    5.000    0.000    0.000    0.000    0.000 
#    0.000    0.000    0.000    0.000    0.000    0.000 
#
# Total GULP energy -55956.546276 kJ/mol
# GULP energy per Si atom -5595.654628 kJ/mol
# Density = 2.807667 g / cm^3
# Si number density = 28.140720 Si / 1000 Ang^3
#
#
#
# Elastic Constant Matrix: (Units=GPa)
#
#
# Indices 1 2 3 4 5 6 
#
# 1 176.6991 46.2307 66.7499 -0.0003 17.4102 0.0002
# 2 46.2307 105.1521 21.3409 0.0044 -4.5844 -0.0005
# 3 66.7499 21.3409 169.6098 -0.0001 25.9660 0.0000
# 4 -0.0003 0.0044 -0.0001 26.4537 0.0004 -5.0571
# 5 17.4102 -4.5844 25.9660 0.0004 79.1421 -0.0003
# 6 0.0002 -0.0005 0.0000 -5.0571 -0.0003 41.4871
#
#
#
# Elastic Compliance Matrix: (Units=1/GPa)
#
#
# Indices 1 2 3 4 5 6 
#
# 1 0.007402 -0.002810 -0.002406 0.000001 -0.001002 0.000000
# 2 -0.002810 0.010904 -0.000482 -0.000002 0.001408 0.000000
# 3 -0.002406 -0.000482 0.007188 0.000000 -0.001857 0.000000
# 4 0.000001 -0.000002 0.000000 0.038704 0.000000 0.004718
# 5 -0.001002 0.001408 -0.001857 0.000000 0.013547 0.000000
# 6 0.000000 0.000000 0.000000 0.004718 0.000000 0.024679
#
#
# Mechanical properties :
#
#
# Convention : Reuss Voigt Hill
#
# Bulk Modulus (GPa) = 70.92764 80.01156 75.46960
# Shear Modulus (GPa) = 42.18741 50.55922 46.37331
#
# Velocity S-wave (km/s) = 3.87610 4.24330 4.06385
# Velocity P-wave (km/s) = 6.72990 7.24581 6.99262
#
# Compressibility (1/GPa) = 0.01409888
#
# Stress axis : x y z
#
# Youngs Moduli (GPa) = 135.09629 91.70528 139.12560
#
# Poissons Ratio (x) = 0.25766 0.33477
# Poissons Ratio (y) = 0.37958 0.06703
# Poissons Ratio (z) = 0.32507 0.04418
#
# Static dielectric constant tensor:
#      x y z
#    x 2.272830 0.000000 0.026520 
#    y 0.000000 2.199910 0.000000 
#    z 0.026520 0.000000 2.258340 
# 
# From -- ./inp_files/63543.got.cif
#   From: 2010.05.17/outbox.cif.g08.bks.cpg/sg5_32_cif.got.tgz:63543.got - 2010.06.03 18:56:24.
