data_PCOD9128141
_publ_section_title
;
Structure prediction by ZEFSAII (Michael W. Deem and Ramdas Pophale) SiO2 
 PCOD9128141
Probable space group: C 2
;
_chemical_formula_sum "Si O2"
_cell_formula_units_Z 24
_cell_length_a 18.348343
_cell_length_b 7.911346
_cell_length_c 16.593796
_cell_angle_alpha 90.000000
_cell_angle_beta 156.870598
_cell_angle_gamma 90.000000
_cell_volume 946.181595
_symmetry_space_group_name_H-M "C 2"
_symmetry_group_IT_number 5
_symmetry_cell_setting 'monoclinic'
loop_
_space_group_symop_operation_xyz
x,y,z
-x,y,-z
1/2+x,1/2+y,z
1/2-x,1/2+y,-z
loop_
_atom_site_type_symbol
_atom_site_label
_atom_site_fract_x
_atom_site_fract_y
_atom_site_fract_z
Si Si1 0.275771 0.911480 0.267121
Si Si2 0.834981 0.060937 0.396129
Si Si3 0.367761 0.713986 0.772865
Si Si4 0.873869 0.412034 0.054272
Si Si5 0.783561 0.630201 0.556607
Si Si6 0.643866 0.286129 0.969605
O O1 0.500000 0.928893 0.500000
O O2 0.227800 0.728225 0.256663
O O3 0.790646 0.904561 0.892380
O O4 0.180093 0.060010 0.218595
O O5 0.863642 0.101521 0.521151
O O6 0.000000 0.043337 0.500000
O O7 0.728571 0.884150 0.291830
O O8 0.574324 0.780234 0.962111
O O9 0.289243 0.659876 0.605792
O O10 0.803289 0.593299 0.952166
O O11 0.069340 0.473650 0.293274
O O12 0.744142 0.333421 0.989092
O O13 0.924901 0.779402 0.728194
#
# Coordination Sequence:
#
# PCOD9128141 Si02
#       6
#     4   4   4   4   4   4
#     4  11  25  43  79 112 151 196 257 312 386 443
#     4  10  24  41  70 109 146 191 241 321 367 450
#     4  11  23  47  78 108 146 198 261 308 377 465
#     4   9  23  45  74 111 147 200 254 309 378 460
#     4   9  23  43  74 107 148 190 258 307 380 448
#     4  10  23  47  72 111 154 191 249 318 378 449
#
# _framework density 25.365110999999999
#
# number of rings (size 3 to 8) (size 9 to 14) (size 15 to 20)
#    1.000    1.000    0.000    1.500    9.333    4.667 
#    3.000    0.000    0.000    0.000    0.000    0.000 
#    0.000    0.000    0.000    0.000    0.000    0.000 
#
# Total GULP energy -67152.259676 kJ/mol
# GULP energy per Si atom -5596.021640 kJ/mol
# Density = 2.530738 g / cm^3
# Si number density = 25.365111 Si / 1000 Ang^3
#
#
#
# Elastic Constant Matrix: (Units=GPa)
#
#
# Indices 1 2 3 4 5 6 
#
# 1 226.8292 97.6726 80.8289 0.0000 25.7350 0.0000
# 2 97.6726 204.6681 31.6029 0.0002 15.1897 0.0001
# 3 80.8289 31.6029 89.4105 0.0007 2.0927 0.0002
# 4 0.0000 0.0002 0.0007 19.7323 0.0001 15.4213
# 5 25.7350 15.1897 2.0927 0.0001 43.3837 0.0000
# 6 0.0000 0.0001 0.0002 15.4213 0.0000 59.2440
#
#
#
# Elastic Compliance Matrix: (Units=1/GPa)
#
#
# Indices 1 2 3 4 5 6 
#
# 1 0.008277 -0.002683 -0.006449 0.000000 -0.003659 0.000000
# 2 -0.002683 0.006169 0.000258 0.000000 -0.000581 0.000000
# 3 -0.006449 0.000258 0.016854 -0.000001 0.002922 0.000000
# 4 0.000000 0.000000 -0.000001 0.063621 0.000000 -0.016561
# 5 -0.003659 -0.000581 0.002922 0.000000 0.025283 0.000000
# 6 0.000000 0.000000 0.000000 -0.016561 0.000000 0.021190
#
#
# Mechanical properties :
#
#
# Convention : Reuss Voigt Hill
#
# Bulk Modulus (GPa) = 73.77631 104.56851 89.17241
# Shear Modulus (GPa) = 30.55121 45.19222 37.87171
#
# Velocity S-wave (km/s) = 3.47430 4.22556 3.86821
# Velocity P-wave (km/s) = 6.72631 8.06982 7.42850
#
# Compressibility (1/GPa) = 0.01355449
#
# Stress axis : x y z
#
# Youngs Moduli (GPa) = 120.81956 162.08938 59.33169
#
# Poissons Ratio (x) = 0.43482 0.38260
# Poissons Ratio (y) = 0.32411 -0.01531
# Poissons Ratio (z) = 0.77911 -0.04183
#
# Static dielectric constant tensor:
#      x y z
#    x 1.936300 0.000000 -0.027910 
#    y 0.000000 2.046320 0.000000 
#    z -0.027910 0.000000 2.061080 
# 
# From -- ./inp_files/66522.got.cif
#   From: 2010.05.17/outbox.cif.g08.bks.cpg/sg5_34_cif.got.tgz:66522.got - 2010.06.03 18:56:24.
