data_PCOD9128506
_publ_section_title
;
Structure prediction by ZEFSAII (Michael W. Deem and Ramdas Pophale) SiO2 
 PCOD9128506
Probable space group: C 2
;
_chemical_formula_sum "Si O2"
_cell_formula_units_Z 22
_cell_length_a 7.217551
_cell_length_b 7.791164
_cell_length_c 17.902899
_cell_angle_alpha 90.000000
_cell_angle_beta 66.243035
_cell_angle_gamma 90.000000
_cell_volume 921.427659
_symmetry_space_group_name_H-M "C 2"
_symmetry_group_IT_number 5
_symmetry_cell_setting 'monoclinic'
loop_
_space_group_symop_operation_xyz
x,y,z
-x,y,-z
1/2+x,1/2+y,z
1/2-x,1/2+y,-z
loop_
_atom_site_type_symbol
_atom_site_label
_atom_site_fract_x
_atom_site_fract_y
_atom_site_fract_z
Si Si1 0.720580 0.654730 0.754689
Si Si2 0.653542 0.021821 0.685489
Si Si3 0.568767 0.522534 0.069486
Si Si4 0.594481 0.539044 0.626023
Si Si5 0.500000 0.184620 0.000000
Si Si6 0.699467 0.852026 0.519681
O O1 0.665912 0.842054 0.730017
O O2 0.573829 0.602803 0.845084
O O3 0.681664 0.521624 0.693388
O O4 0.955499 0.630207 0.736721
O O5 0.665757 0.978777 0.595263
O O6 0.867620 0.108355 0.669316
O O7 0.613223 0.380694 0.566963
O O8 0.500000 0.594822 0.000000
O O9 0.537331 0.318019 0.062584
O O10 0.800960 0.572430 0.045050
O O11 0.723913 0.673242 0.557975
O O12 0.500000 0.845733 0.500000
#
# Coordination Sequence:
#
# PCOD9128506 Si02
#       6
#     4   4   4   4   2   4
#     4  11  25  46  68 108 139 183 238 295 359 432
#     4  11  25  41  71  98 141 184 233 298 357 423
#     4  10  25  45  76 108 148 190 242 296 367 437
#     4  11  26  41  67  94 138 185 242 298 359 425
#     4  10  24  44  80 106 148 192 238 290 366 436
#     4  11  22  41  63  89 133 180 244 285 365 411
#
# _framework density 23.875990000000002
#
# number of rings (size 3 to 8) (size 9 to 14) (size 15 to 20)
#    0.545    0.727    1.818    2.727    6.364    2.909 
#    0.000    0.000    0.000    0.000    0.000    0.000 
#    0.000    0.000    0.000    0.000    0.000    0.000 
#
# Total GULP energy -61539.241940 kJ/mol
# GULP energy per Si atom -5594.476540 kJ/mol
# Density = 2.382165 g / cm^3
# Si number density = 23.875990 Si / 1000 Ang^3
#
#
#
# Elastic Constant Matrix: (Units=GPa)
#
#
# Indices 1 2 3 4 5 6 
#
# 1 151.7301 28.3585 51.5950 0.0000 -33.4386 0.0000
# 2 28.3585 59.9201 9.8620 0.0000 -0.2447 0.0000
# 3 51.5950 9.8620 112.2029 0.0000 -20.6467 0.0000
# 4 0.0000 0.0000 0.0000 -22.3156 0.0000 -30.2716
# 5 -33.4386 -0.2447 -20.6467 0.0000 30.5616 0.0000
# 6 0.0000 0.0000 0.0000 -30.2716 0.0000 22.7254
#
#
#
# Elastic Compliance Matrix: (Units=1/GPa)
#
#
# Indices 1 2 3 4 5 6 
#
# 1 0.010440 -0.004467 -0.002641 0.000000 0.009603 0.000000
# 2 -0.004467 0.018872 -0.000544 0.000000 -0.005104 0.000000
# 3 -0.002641 -0.000544 0.011011 0.000000 0.004545 0.000000
# 4 0.000000 0.000000 0.000000 -0.015964 0.000000 -0.021266
# 5 0.009603 -0.005104 0.004545 0.000000 0.046257 0.000000
# 6 0.000000 0.000000 0.000000 -0.021266 0.000000 0.015677
#
#
# Mechanical properties :
#
#
# Convention : Reuss Voigt Hill
#
# Bulk Modulus (GPa) = 39.96973 55.94266 47.95620
# Shear Modulus (GPa) = 45.48154 21.79678 33.63916
#
# Velocity S-wave (km/s) = 4.36926 3.02473 3.75762
# Velocity P-wave (km/s) = 6.49852 5.97328 6.24143
#
# Compressibility (1/GPa) = 0.02501893
#
# Stress axis : x y z
#
# Youngs Moduli (GPa) = 95.78678 52.98951 90.81876
#
# Poissons Ratio (x) = 0.23670 0.23985
# Poissons Ratio (y) = 0.42788 0.04938
# Poissons Ratio (z) = 0.25297 0.02881
#
# Static dielectric constant tensor:
#      x y z
#    x 1.916630 0.000000 0.013770 
#    y 0.000000 2.072060 0.000000 
#    z 0.013770 0.000000 1.867570 
# 
# From -- ./inp_files/59248.got.cif
#   From: 2010.05.17/outbox.cif.g08.bks.cpg/sg5_30_cif.got.tgz:59248.got - 2010.06.03 18:56:24.
