data_PCOD9128398
_publ_section_title
;
Structure prediction by ZEFSAII (Michael W. Deem and Ramdas Pophale) SiO2 
 PCOD9128398
Probable space group: C 2
;
_chemical_formula_sum "Si O2"
_cell_formula_units_Z 22
_cell_length_a 7.534506
_cell_length_b 5.311170
_cell_length_c 20.437672
_cell_angle_alpha 90.000000
_cell_angle_beta 103.973266
_cell_angle_gamma 90.000000
_cell_volume 793.653622
_symmetry_space_group_name_H-M "C 2"
_symmetry_group_IT_number 5
_symmetry_cell_setting 'monoclinic'
loop_
_space_group_symop_operation_xyz
x,y,z
-x,y,-z
1/2+x,1/2+y,z
1/2-x,1/2+y,-z
loop_
_atom_site_type_symbol
_atom_site_label
_atom_site_fract_x
_atom_site_fract_y
_atom_site_fract_z
Si Si1 0.629525 0.835610 0.138569
Si Si2 0.288506 0.050075 0.044481
Si Si3 0.647267 0.845725 0.676602
Si Si4 0.986933 0.034412 0.232886
Si Si5 0.000000 0.103984 0.500000
Si Si6 0.770910 0.274160 0.593920
O O1 0.528556 0.791796 0.198355
O O2 0.497125 0.015854 0.086485
O O3 0.657567 0.590096 0.095824
O O4 0.835177 0.911394 0.173988
O O5 0.261973 0.301158 0.999907
O O6 0.603785 0.569376 0.703785
O O7 0.428768 0.914253 0.650413
O O8 0.811376 0.920442 0.740621
O O9 0.719398 0.002646 0.619727
O O10 0.094767 0.941906 0.565216
O O11 0.145756 0.257344 0.471547
#
# Coordination Sequence:
#
# PCOD9128398 Si02
#       6
#     4   4   4   4   2   4
#     4  12  27  47  74 106 145 189 240 300 366 436
#     4  12  29  50  77 111 150 197 248 306 374 448
#     4  10  24  43  68  98 135 180 232 288 354 424
#     4  11  25  44  70 102 138 183 235 294 358 428
#     4  12  24  42  64  96 134 176 228 284 350 420
#     4  11  24  40  65  95 132 178 227 286 350 422
#
# _framework density 27.719899999999999
#
# number of rings (size 3 to 8) (size 9 to 14) (size 15 to 20)
#    0.000    0.727    0.000    6.000    0.000   17.455 
#    0.000    0.000    0.000    0.000    0.000    0.000 
#    0.000    0.000    0.000    0.000    0.000    0.000 
#
# Total GULP energy -61437.188858 kJ/mol
# GULP energy per Si atom -5585.198987 kJ/mol
# Density = 2.765681 g / cm^3
# Si number density = 27.719900 Si / 1000 Ang^3
#
#
#
# Elastic Constant Matrix: (Units=GPa)
#
#
# Indices 1 2 3 4 5 6 
#
# 1 168.6576 49.6129 83.5872 0.0000 26.7216 0.0000
# 2 49.6129 84.7535 50.0407 0.0000 21.8192 0.0000
# 3 83.5872 50.0407 161.6519 0.0000 29.6051 0.0000
# 4 0.0000 0.0000 0.0000 45.2452 0.0000 -1.4640
# 5 26.7216 21.8192 29.6051 0.0000 73.6433 0.0000
# 6 0.0000 0.0000 0.0000 -1.4640 0.0000 46.7612
#
#
#
# Elastic Compliance Matrix: (Units=1/GPa)
#
#
# Indices 1 2 3 4 5 6 
#
# 1 0.008581 -0.002772 -0.003410 0.000000 -0.000921 0.000000
# 2 -0.002772 0.015840 -0.003017 0.000000 -0.002474 0.000000
# 3 -0.003410 -0.003017 0.009168 0.000000 -0.001554 0.000000
# 4 0.000000 0.000000 0.000000 0.022124 0.000000 0.000693
# 5 -0.000921 -0.002474 -0.001554 0.000000 0.015271 0.000000
# 6 0.000000 0.000000 0.000000 0.000693 0.000000 0.021407
#
#
# Mechanical properties :
#
#
# Convention : Reuss Voigt Hill
#
# Bulk Modulus (GPa) = 65.83095 86.83829 76.33462
# Shear Modulus (GPa) = 43.15831 48.58475 45.87153
#
# Velocity S-wave (km/s) = 3.95009 4.19107 4.07236
# Velocity P-wave (km/s) = 6.67866 7.40373 7.05052
#
# Compressibility (1/GPa) = 0.01519042
#
# Stress axis : x y z
#
# Youngs Moduli (GPa) = 116.54103 63.13132 109.07657
#
# Poissons Ratio (x) = 0.17503 0.37195
# Poissons Ratio (y) = 0.32310 0.32905
# Poissons Ratio (z) = 0.39740 0.19045
#
# Static dielectric constant tensor:
#      x y z
#    x 2.119890 0.000000 -0.090710 
#    y 0.000000 2.171360 0.000000 
#    z -0.090710 0.000000 2.284510 
# 
# From -- ./inp_files/64198.got.cif
#   From: 2010.05.17/outbox.cif.g08.bks.cpg/sg5_33_cif.got.tgz:64198.got - 2010.06.03 18:56:24.
