data_PCOD9128761
_publ_section_title
;
Structure prediction by ZEFSAII (Michael W. Deem and Ramdas Pophale) SiO2 
 PCOD9128761
Probable space group: C 2
;
_chemical_formula_sum "Si O2"
_cell_formula_units_Z 24
_cell_length_a 13.799719
_cell_length_b 5.625091
_cell_length_c 13.485961
_cell_angle_alpha 90.000000
_cell_angle_beta 78.239498
_cell_angle_gamma 90.000000
_cell_volume 1024.868142
_symmetry_space_group_name_H-M "C 2"
_symmetry_group_IT_number 5
_symmetry_cell_setting 'monoclinic'
loop_
_space_group_symop_operation_xyz
x,y,z
-x,y,-z
1/2+x,1/2+y,z
1/2-x,1/2+y,-z
loop_
_atom_site_type_symbol
_atom_site_label
_atom_site_fract_x
_atom_site_fract_y
_atom_site_fract_z
Si Si1 0.701439 0.537140 0.474860
Si Si2 0.029247 0.113112 0.819145
Si Si3 0.000000 0.247465 0.500000
Si Si4 0.131390 0.839205 0.046648
Si Si5 0.874289 0.249043 0.694744
Si Si6 0.000000 0.475959 0.000000
Si Si7 0.764796 0.094269 0.156071
O O1 0.741106 0.276418 0.497476
O O2 0.586467 0.582361 0.528210
O O3 0.693866 0.573397 0.356626
O O4 0.978997 0.901673 0.892401
O O5 0.146535 0.110163 0.783642
O O6 0.961874 0.129974 0.737722
O O7 0.009330 0.330651 0.896950
O O8 0.063196 0.388771 0.404614
O O9 0.199449 0.810533 0.128784
O O10 0.106440 0.600892 0.992887
O O11 0.180008 0.012361 0.956943
O O12 0.811276 0.406717 0.782092
#
# Coordination Sequence:
#
# PCOD9128761 Si02
#       7
#     4   4   2   4   4   2   4
#     4  10  24  50  76 103 141 185 238 305 375 426
#     4  12  24  45  64 101 143 184 233 285 349 413
#     4   8  24  50  66 104 144 174 240 310 356 428
#     4  12  24  44  65  99 141 188 231 289 338 421
#     4  10  25  44  70 109 129 189 237 290 360 434
#     4  12  20  46  66  92 152 186 216 290 344 400
#     4  12  23  41  69  96 140 186 236 279 353 415
#
# _framework density 23.417643999999999
#
# number of rings (size 3 to 8) (size 9 to 14) (size 15 to 20)
#    1.000    0.000    5.000    2.000    2.333    2.000 
#    6.000    0.000    0.000    0.000    0.000    0.000 
#    0.000    0.000    0.000    0.000    0.000    0.000 
#
# Total GULP energy -66842.739872 kJ/mol
# GULP energy per Si atom -5570.228323 kJ/mol
# Density = 2.336434 g / cm^3
# Si number density = 23.417644 Si / 1000 Ang^3
#
#
#
# Elastic Constant Matrix: (Units=GPa)
#
#
# Indices 1 2 3 4 5 6 
#
# 1 167.8625 36.1908 25.3165 0.0000 19.4794 0.0000
# 2 36.1908 46.9444 6.6141 0.0000 11.0279 0.0000
# 3 25.3165 6.6141 77.2041 0.0000 18.6179 0.0000
# 4 0.0000 0.0000 0.0000 -1.0293 0.0000 8.1589
# 5 19.4794 11.0279 18.6179 0.0000 51.7286 0.0000
# 6 0.0000 0.0000 0.0000 8.1589 0.0000 36.8140
#
#
#
# Elastic Compliance Matrix: (Units=1/GPa)
#
#
# Indices 1 2 3 4 5 6 
#
# 1 0.007480 -0.005271 -0.001744 0.000000 -0.001065 0.000000
# 2 -0.005271 0.026189 0.000386 0.000000 -0.003737 0.000000
# 3 -0.001744 0.000386 0.014622 0.000000 -0.004688 0.000000
# 4 0.000000 0.000000 0.000000 -0.352426 0.000000 0.078107
# 5 -0.001065 -0.003737 -0.004688 0.000000 0.022217 0.000000
# 6 0.000000 0.000000 0.000000 0.078107 0.000000 0.009853
#
#
# Mechanical properties :
#
#
# Convention : Reuss Voigt Hill
#
# Bulk Modulus (GPa) = 28.54467 47.58377 38.06422
# Shear Modulus (GPa) = -20.23235 32.42865 6.09815
#
# Velocity S-wave (km/s) = -2.94254 3.72532 1.61547
# Velocity P-wave (km/s) = 0.81922 6.23440 4.44628
#
# Compressibility (1/GPa) = 0.03503281
#
# Stress axis : x y z
#
# Youngs Moduli (GPa) = 133.68362 38.18433 68.38921
#
# Poissons Ratio (x) = 0.20126 0.11930
# Poissons Ratio (y) = 0.70462 -0.02640
# Poissons Ratio (z) = 0.23321 -0.01474
#
# Static dielectric constant tensor:
#      x y z
#    x 1.903180 0.000000 0.050160 
#    y 0.000000 1.955050 0.000000 
#    z 0.050160 0.000000 1.925720 
# 
# From -- ./inp_files/53657.got.cif
#   From: 2010.05.17/outbox.cif.g08.bks.cpg/sg5_27_cif.got.tgz:53657.got - 2010.06.03 18:56:24.
