data_PCOD9128917
_publ_section_title
;
Structure prediction by ZEFSAII (Michael W. Deem and Ramdas Pophale) SiO2 
 PCOD9128917
Probable space group: C 2
;
_chemical_formula_sum "Si O2"
_cell_formula_units_Z 22
_cell_length_a 27.982746
_cell_length_b 5.556422
_cell_length_c 10.709526
_cell_angle_alpha 90.000000
_cell_angle_beta 148.851143
_cell_angle_gamma 90.000000
_cell_volume 861.325813
_symmetry_space_group_name_H-M "C 2"
_symmetry_group_IT_number 5
_symmetry_cell_setting 'monoclinic'
loop_
_space_group_symop_operation_xyz
x,y,z
-x,y,-z
1/2+x,1/2+y,z
1/2-x,1/2+y,-z
loop_
_atom_site_type_symbol
_atom_site_label
_atom_site_fract_x
_atom_site_fract_y
_atom_site_fract_z
Si Si1 0.181029 0.157380 0.977917
Si Si2 0.686178 0.374025 0.217708
Si Si3 0.500000 0.823855 0.000000
Si Si4 0.168040 0.003474 0.444950
Si Si5 0.479204 0.196423 0.732452
Si Si6 0.128266 0.653111 0.751682
O O1 0.131787 0.410399 0.841873
O O2 0.126161 0.916366 0.811363
O O3 0.275067 0.153618 0.108871
O O4 0.204149 0.110292 0.175039
O O5 0.755087 0.169006 0.318400
O O6 0.707169 0.364751 0.412148
O O7 0.578306 0.320914 0.960939
O O8 0.592555 0.671112 0.206096
O O9 0.509852 0.978732 0.146787
O O10 0.103715 0.858115 0.396469
O O11 0.450561 0.131125 0.529045
#
# Coordination Sequence:
#
# PCOD9128917 Si02
#       6
#     4   4   2   4   4   4
#     4  10  25  48  77 110 145 208 260 325 391 474
#     4  12  26  47  77 116 157 203 271 323 410 489
#     4  12  22  48  74 108 162 206 252 332 414 464
#     4  12  27  47  76 119 157 209 260 334 411 486
#     4  12  26  49  74 115 158 207 260 338 402 479
#     4  10  25  47  79 104 151 205 261 326 394 459
#
# _framework density 25.542017999999999
#
# number of rings (size 3 to 8) (size 9 to 14) (size 15 to 20)
#    0.000    0.727    3.636    2.182   12.727    2.182 
#    0.000    1.818    0.000    0.000    0.000    0.000 
#    0.000    0.000    0.000    0.000    0.000    0.000 
#
# Total GULP energy -61658.841609 kJ/mol
# GULP energy per Si atom -5605.349237 kJ/mol
# Density = 2.548388 g / cm^3
# Si number density = 25.542018 Si / 1000 Ang^3
#
#
#
# Elastic Constant Matrix: (Units=GPa)
#
#
# Indices 1 2 3 4 5 6 
#
# 1 91.7018 48.1421 57.8949 0.0001 -9.8547 0.0000
# 2 48.1421 135.4960 78.4652 0.0003 -10.1391 0.0008
# 3 57.8949 78.4652 123.0136 0.0000 -20.2226 0.0001
# 4 0.0001 0.0003 0.0000 51.0089 0.0000 -0.9082
# 5 -9.8547 -10.1391 -20.2226 0.0000 63.3033 0.0000
# 6 0.0000 0.0008 0.0001 -0.9082 0.0000 19.8470
#
#
#
# Elastic Compliance Matrix: (Units=1/GPa)
#
#
# Indices 1 2 3 4 5 6 
#
# 1 0.015879 -0.002090 -0.006110 0.000000 0.000185 0.000000
# 2 -0.002090 0.011996 -0.006761 0.000000 -0.000564 0.000000
# 3 -0.006110 -0.006761 0.015813 0.000000 0.003018 0.000000
# 4 0.000000 0.000000 0.000000 0.019620 0.000000 0.000898
# 5 0.000185 -0.000564 0.003018 0.000000 0.016700 0.000000
# 6 0.000000 0.000000 0.000000 0.000898 0.000000 0.050427
#
#
# Mechanical properties :
#
#
# Convention : Reuss Voigt Hill
#
# Bulk Modulus (GPa) = 72.63557 79.91286 76.27422
# Shear Modulus (GPa) = 30.31313 37.87911 34.09612
#
# Velocity S-wave (km/s) = 3.44873 3.85517 3.65760
# Velocity P-wave (km/s) = 6.66016 7.15340 6.91118
#
# Compressibility (1/GPa) = 0.01376736
#
# Stress axis : x y z
#
# Youngs Moduli (GPa) = 62.97451 83.36306 63.23840
#
# Poissons Ratio (x) = 0.17422 0.38638
# Poissons Ratio (y) = 0.13161 0.42753
# Poissons Ratio (z) = 0.38477 0.56359
#
# Static dielectric constant tensor:
#      x y z
#    x 2.098850 0.000000 -0.019040 
#    y 0.000000 2.140950 0.000000 
#    z -0.019040 0.000000 1.959090 
# 
# From -- ./inp_files/48247.got.cif
#   From: 2010.05.17/outbox.cif.g08.bks.cpg/sg5_25_cif.got.tgz:48247.got - 2010.06.03 18:56:24.
