data_PCOD9128554
_publ_section_title
;
Structure prediction by ZEFSAII (Michael W. Deem and Ramdas Pophale) SiO2 
 PCOD9128554
Probable space group: C 2
;
_chemical_formula_sum "Si O2"
_cell_formula_units_Z 26
_cell_length_a 12.201086
_cell_length_b 7.553679
_cell_length_c 14.837655
_cell_angle_alpha 90.000000
_cell_angle_beta 58.772701
_cell_angle_gamma 90.000000
_cell_volume 1169.359365
_symmetry_space_group_name_H-M "C 2"
_symmetry_group_IT_number 5
_symmetry_cell_setting 'monoclinic'
loop_
_space_group_symop_operation_xyz
x,y,z
-x,y,-z
1/2+x,1/2+y,z
1/2-x,1/2+y,-z
loop_
_atom_site_type_symbol
_atom_site_label
_atom_site_fract_x
_atom_site_fract_y
_atom_site_fract_z
Si Si1 0.310106 0.154290 0.384321
Si Si2 0.121272 0.869178 0.381379
Si Si3 0.774950 0.964820 0.841837
Si Si4 0.500000 0.408337 0.000000
Si Si5 0.742627 0.612511 0.971050
Si Si6 0.647069 0.007589 0.437537
Si Si7 0.525372 0.097550 0.848443
O O1 0.241009 0.341075 0.394890
O O2 0.435613 0.137213 0.270182
O O3 0.222127 0.994013 0.387997
O O4 0.333257 0.116589 0.478486
O O5 0.117806 0.948252 0.281784
O O6 0.162437 0.662736 0.357134
O O7 0.000000 0.874851 0.500000
O O8 0.771583 0.792337 0.905686
O O9 0.638699 0.986247 0.848228
O O10 0.791644 0.121286 0.907688
O O11 0.625671 0.520151 0.970003
O O12 0.524173 0.279104 0.905487
O O13 0.883120 0.519457 0.913150
O O14 0.500000 0.941643 0.500000
#
# Coordination Sequence:
#
# PCOD9128554 Si02
#       7
#     4   4   4   2   4   4   4
#     4  11  24  45  70 102 142 187 236 293 353 420
#     4  10  24  45  74 104 146 186 240 294 349 424
#     4  11  24  46  71 104 139 187 234 292 355 416
#     4  12  26  40  70 100 132 188 228 274 358 418
#     4  12  25  44  71 100 138 182 231 285 352 420
#     4  11  24  42  70 104 141 188 238 287 353 422
#     4  11  25  46  67  98 146 175 232 300 341 421
#
# _framework density 22.234394999999999
#
# number of rings (size 3 to 8) (size 9 to 14) (size 15 to 20)
#    0.000    0.923    4.615    0.462    8.615    0.000 
#    0.000    1.538    0.000    0.000    0.000    0.000 
#    0.000    0.000    0.000    0.000    0.000    0.000 
#
# Total GULP energy -72619.281214 kJ/mol
# GULP energy per Si atom -5586.098555 kJ/mol
# Density = 2.218379 g / cm^3
# Si number density = 22.234395 Si / 1000 Ang^3
#
#
#
# Elastic Constant Matrix: (Units=GPa)
#
#
# Indices 1 2 3 4 5 6 
#
# 1 114.5355 27.4054 30.1291 0.0000 -4.1684 0.0000
# 2 27.4054 38.2489 23.5874 0.0000 -6.2518 0.0000
# 3 30.1291 23.5874 110.8433 0.0000 -4.3530 0.0000
# 4 0.0000 0.0000 0.0000 32.4815 0.0000 9.8828
# 5 -4.1684 -6.2518 -4.3530 0.0000 23.7802 0.0000
# 6 0.0000 0.0000 0.0000 9.8828 0.0000 58.5438
#
#
#
# Elastic Compliance Matrix: (Units=1/GPa)
#
#
# Indices 1 2 3 4 5 6 
#
# 1 0.010744 -0.006817 -0.001477 0.000000 -0.000179 0.000000
# 2 -0.006817 0.035547 -0.005431 0.000000 0.007156 0.000000
# 3 -0.001477 -0.005431 0.010589 0.000000 0.000252 0.000000
# 4 0.000000 0.000000 0.000000 0.032454 0.000000 -0.005478
# 5 -0.000179 0.007156 0.000252 0.000000 0.043948 0.000000
# 6 0.000000 0.000000 0.000000 -0.005478 0.000000 0.018006
#
#
# Mechanical properties :
#
#
# Convention : Reuss Voigt Hill
#
# Bulk Modulus (GPa) = 33.97672 47.31908 40.64790
# Shear Modulus (GPa) = 26.51872 35.12814 30.82343
#
# Velocity S-wave (km/s) = 3.45728 3.97911 3.72734
# Velocity P-wave (km/s) = 5.59029 6.51454 6.07003
#
# Compressibility (1/GPa) = 0.02943192
#
# Stress axis : x y z
#
# Youngs Moduli (GPa) = 93.07585 28.13158 94.44049
#
# Poissons Ratio (x) = 0.19176 0.13948
# Poissons Ratio (y) = 0.63446 0.51286
# Poissons Ratio (z) = 0.13746 0.15277
#
# Static dielectric constant tensor:
#      x y z
#    x 1.726280 0.000000 0.011390 
#    y 0.000000 1.823600 0.000000 
#    z 0.011390 0.000000 1.844760 
# 
# From -- ./inp_files/52208.got.cif
#   From: 2010.05.17/outbox.cif.g08.bks.cpg/sg5_27_cif.got.tgz:52208.got - 2010.06.03 18:56:24.
