data_PCOD9128438
_publ_section_title
;
Structure prediction by ZEFSAII (Michael W. Deem and Ramdas Pophale) SiO2 
 PCOD9128438
Probable space group: C 2
;
_chemical_formula_sum "Si O2"
_cell_formula_units_Z 20
_cell_length_a 21.108522
_cell_length_b 7.106481
_cell_length_c 14.411448
_cell_angle_alpha 90.000000
_cell_angle_beta 24.707183
_cell_angle_gamma 90.000000
_cell_volume 903.600683
_symmetry_space_group_name_H-M "C 2"
_symmetry_group_IT_number 5
_symmetry_cell_setting 'monoclinic'
loop_
_space_group_symop_operation_xyz
x,y,z
-x,y,-z
1/2+x,1/2+y,z
1/2-x,1/2+y,-z
loop_
_atom_site_type_symbol
_atom_site_label
_atom_site_fract_x
_atom_site_fract_y
_atom_site_fract_z
Si Si1 0.000000 0.701030 0.000000
Si Si2 0.567657 0.027113 0.564421
Si Si3 0.208977 0.454236 0.185568
Si Si4 0.323370 0.599596 0.568776
Si Si5 0.000000 0.100265 0.500000
Si Si6 0.051876 0.849102 0.733426
O O1 0.150403 0.594564 0.832820
O O2 0.055984 0.817310 0.837193
O O3 0.671030 0.057292 0.334040
O O4 0.394826 0.040550 0.756672
O O5 0.611250 0.810541 0.528924
O O6 0.580914 0.162562 0.634023
O O7 0.136688 0.244172 0.292843
O O8 0.385161 0.433958 0.934140
O O9 0.434825 0.500226 0.495947
O O10 0.329995 0.498155 0.462224
#
# Coordination Sequence:
#
# PCOD9128438 Si02
#       6
#     2   4   4   4   2   4
#     4  12  26  46  60  96 138 166 220 274 292 396
#     4   9  21  43  64  98 130 162 216 263 320 386
#     4   8  18  39  63  98 131 151 209 277 304 377
#     4  10  24  44  67  93 130 170 217 263 325 374
#     4   8  16  42  62  92 130 154 206 278 302 372
#     4  12  24  41  69  91 130 180 207 262 328 374
#
# _framework density 22.133669000000001
#
# number of rings (size 3 to 8) (size 9 to 14) (size 15 to 20)
#    0.000    2.800    4.000    0.000    8.400    1.600 
#    3.600    2.000    0.000    0.000    0.000    0.000 
#    0.000    0.000    0.000    0.000    0.000    0.000 
#
# Total GULP energy -55766.242031 kJ/mol
# GULP energy per Si atom -5576.624203 kJ/mol
# Density = 2.208329 g / cm^3
# Si number density = 22.133669 Si / 1000 Ang^3
#
#
#
# Elastic Constant Matrix: (Units=GPa)
#
#
# Indices 1 2 3 4 5 6 
#
# 1 126.0511 30.5243 36.4568 0.0002 17.2945 -0.0001
# 2 30.5243 54.7944 9.4124 0.0004 18.5629 -0.0003
# 3 36.4568 9.4124 61.9507 0.0004 -1.5149 -0.0002
# 4 0.0002 0.0004 0.0004 19.4992 0.0000 19.1818
# 5 17.2945 18.5629 -1.5149 0.0000 41.7513 0.0000
# 6 -0.0001 -0.0003 -0.0002 19.1818 0.0000 18.6766
#
#
#
# Elastic Compliance Matrix: (Units=1/GPa)
#
#
# Indices 1 2 3 4 5 6 
#
# 1 0.011063 -0.004138 -0.005954 -0.000020 -0.002959 0.000021
# 2 -0.004138 0.023820 -0.001402 0.000075 -0.008928 -0.000076
# 3 -0.005954 -0.001402 0.019952 0.000055 0.003814 -0.000056
# 4 -0.000020 0.000075 0.000055 -4.966196 -0.000030 5.100526
# 5 -0.002959 -0.008928 0.003814 -0.000030 0.029285 0.000031
# 6 0.000021 -0.000076 -0.000056 5.100526 0.000031 -5.184947
#
#
# Mechanical properties :
#
#
# Convention : Reuss Voigt Hill
#
# Bulk Modulus (GPa) = 31.40011 43.95368 37.67689
# Shear Modulus (GPa) = -0.49833 27.07893 13.29030
#
# Velocity S-wave (km/s) = -0.47501 3.50155 2.45308
# Velocity P-wave (km/s) = 3.73049 6.02073 5.00828
#
# Compressibility (1/GPa) = 0.03184702
#
# Stress axis : x y z
#
# Youngs Moduli (GPa) = 90.38809 41.98077 50.11979
#
# Poissons Ratio (x) = 0.17371 0.29843
# Poissons Ratio (y) = 0.37401 0.07029
# Poissons Ratio (z) = 0.53820 0.05887
#
# Static dielectric constant tensor:
#      x y z
#    x 1.914900 0.000000 0.010750 
#    y 0.000000 1.833640 0.000000 
#    z 0.010750 0.000000 1.793050 
# 
# From -- ./inp_files/37900.got.cif
#   From: 2010.05.17/outbox.cif.g08.bks.cpg/sg5_19_cif.got.tgz:37900.got - 2010.06.03 18:56:24.
