data_PCOD9128730
_publ_section_title
;
Structure prediction by ZEFSAII (Michael W. Deem and Ramdas Pophale) SiO2 
 PCOD9128730
Probable space group: C 2
;
_chemical_formula_sum "Si O2"
_cell_formula_units_Z 18
_cell_length_a 5.627862
_cell_length_b 25.751403
_cell_length_c 5.185780
_cell_angle_alpha 90.000000
_cell_angle_beta 91.770585
_cell_angle_gamma 90.000000
_cell_volume 751.192117
_symmetry_space_group_name_H-M "C 2"
_symmetry_group_IT_number 5
_symmetry_cell_setting 'monoclinic'
loop_
_space_group_symop_operation_xyz
x,y,z
-x,y,-z
1/2+x,1/2+y,z
1/2-x,1/2+y,-z
loop_
_atom_site_type_symbol
_atom_site_label
_atom_site_fract_x
_atom_site_fract_y
_atom_site_fract_z
Si Si1 0.256905 0.642930 0.151993
Si Si2 0.165265 0.530214 0.258325
Si Si3 0.167196 0.418305 0.255702
Si Si4 0.339964 0.757591 0.253542
Si Si5 0.500000 0.332965 0.500000
O O1 0.286025 0.586436 0.282132
O O2 0.255132 0.698049 0.295757
O O3 0.500000 0.647145 0.000000
O O4 0.000000 0.641712 0.000000
O O5 0.297478 0.474832 0.242474
O O6 0.000000 0.527784 0.500000
O O7 0.000000 0.531303 0.000000
O O8 0.337824 0.371183 0.324438
O O9 0.000000 0.420866 0.500000
O O10 0.000000 0.411089 0.000000
O O11 0.500000 0.772003 0.500000
O O12 0.123586 0.796306 0.290852
O O13 0.500000 0.761806 0.000000
#
# Coordination Sequence:
#
# PCOD9128730 Si02
#       5
#     4   4   4   4   2
#     4  10  24  48  77 112 152 195 251 318 388 464
#     4   9  20  43  74 103 148 189 244 312 382 456
#     4  10  24  49  71 110 149 196 257 315 381 461
#     4  11  29  49  73 110 151 198 258 318 385 463
#     4  12  28  48  80 106 156 208 260 316 394 464
#
# _framework density 23.961911000000001
#
# number of rings (size 3 to 8) (size 9 to 14) (size 15 to 20)
#    0.000    1.778    0.000    0.667    7.778    9.778 
#   22.000    0.000    0.000    0.000    0.000    0.000 
#    0.000    0.000    0.000    0.000    0.000    0.000 
#
# Total GULP energy -50257.845379 kJ/mol
# GULP energy per Si atom -5584.205042 kJ/mol
# Density = 2.390737 g / cm^3
# Si number density = 23.961911 Si / 1000 Ang^3
#
#
#
# Elastic Constant Matrix: (Units=GPa)
#
#
# Indices 1 2 3 4 5 6 
#
# 1 90.2189 67.2990 34.2708 0.0000 -6.0377 0.0000
# 2 67.2990 269.2165 33.7098 0.0000 -17.3397 0.0000
# 3 34.2708 33.7098 152.0962 0.0000 -3.9926 0.0000
# 4 0.0000 0.0000 0.0000 39.0667 0.0000 -6.9656
# 5 -6.0377 -17.3397 -3.9926 0.0000 30.9006 0.0000
# 6 0.0000 0.0000 0.0000 -6.9656 0.0000 50.0047
#
#
#
# Elastic Compliance Matrix: (Units=1/GPa)
#
#
# Indices 1 2 3 4 5 6 
#
# 1 0.014532 -0.003272 -0.002531 0.000000 0.000676 0.000000
# 2 -0.003272 0.004690 -0.000251 0.000000 0.001960 0.000000
# 3 -0.002531 -0.000251 0.007209 0.000000 0.000296 0.000000
# 4 0.000000 0.000000 0.000000 0.026249 0.000000 0.003656
# 5 0.000676 0.001960 0.000296 0.000000 0.033632 0.000000
# 6 0.000000 0.000000 0.000000 0.003656 0.000000 0.020507
#
#
# Mechanical properties :
#
#
# Convention : Reuss Voigt Hill
#
# Bulk Modulus (GPa) = 69.82324 86.89897 78.36111
# Shear Modulus (GPa) = 40.41979 49.07789 44.74884
#
# Velocity S-wave (km/s) = 4.11157 4.53057 4.32614
# Velocity P-wave (km/s) = 7.19322 7.98200 7.59785
#
# Compressibility (1/GPa) = 0.01432188
#
# Stress axis : x y z
#
# Youngs Moduli (GPa) = 68.81430 213.21482 138.72492
#
# Poissons Ratio (x) = 0.69768 0.35117
# Poissons Ratio (y) = 0.22517 0.03478
# Poissons Ratio (z) = 0.17420 0.05346
#
# Static dielectric constant tensor:
#      x y z
#    x 2.121160 0.000000 0.002510 
#    y 0.000000 2.015760 0.000000 
#    z 0.002510 0.000000 1.857820 
# 
# From -- ./inp_files/892.got.cif
#   From: 2010.05.17/outbox.cif.g08.bks.cpg/sg5_1_cif.got.tgz:892.got - 2010.06.03 18:56:24.
