data_PCOD9128320
_publ_section_title
;
Structure prediction by ZEFSAII (Michael W. Deem and Ramdas Pophale) SiO2 
 PCOD9128320
Probable space group: C 2
;
_chemical_formula_sum "Si O2"
_cell_formula_units_Z 32
_cell_length_a 14.207371
_cell_length_b 10.830627
_cell_length_c 16.834428
_cell_angle_alpha 90.000000
_cell_angle_beta 149.553163
_cell_angle_gamma 90.000000
_cell_volume 1312.652374
_symmetry_space_group_name_H-M "C 2"
_symmetry_group_IT_number 5
_symmetry_cell_setting 'monoclinic'
loop_
_space_group_symop_operation_xyz
x,y,z
-x,y,-z
1/2+x,1/2+y,z
1/2-x,1/2+y,-z
loop_
_atom_site_type_symbol
_atom_site_label
_atom_site_fract_x
_atom_site_fract_y
_atom_site_fract_z
Si Si1 0.710572 0.998360 0.187566
Si Si2 0.792615 0.779566 0.371994
Si Si3 0.062569 0.211541 0.955323
Si Si4 0.747975 0.957130 0.048709
Si Si5 0.854451 0.399866 0.579906
Si Si6 0.114169 0.889155 0.257758
Si Si7 0.044897 0.629455 0.801324
Si Si8 0.861904 0.270653 0.323911
O O1 0.754547 0.902634 0.289629
O O2 0.827690 0.957627 0.195215
O O3 0.768124 0.137614 0.246782
O O4 0.500000 0.990867 0.000000
O O5 0.631180 0.682202 0.230344
O O6 0.763904 0.821554 0.442124
O O7 0.000000 0.737874 0.500000
O O8 0.126122 0.334769 0.953116
O O9 0.264573 0.148846 0.108376
O O10 0.000000 0.232367 0.000000
O O11 0.916809 0.954688 0.110882
O O12 0.623207 0.075043 0.940993
O O13 0.746534 0.441488 0.422129
O O14 0.925611 0.522743 0.674920
O O15 0.024333 0.316552 0.669614
O O16 0.210372 0.869242 0.243605
O O17 0.064271 0.753011 0.257994
O O18 0.000000 0.261316 0.500000
#
# Coordination Sequence:
#
# PCOD9128320 Si02
#       8
#     4   4   4   4   4   4   4   4
#     4  12  21  38  68 103 132 172 229 285 345 399
#     4  12  23  40  70  99 137 176 231 289 340 408
#     4  11  23  44  65 100 139 181 235 285 346 415
#     4  11  21  41  67  98 138 176 226 287 341 411
#     4  11  24  45  67  98 140 182 229 286 350 406
#     4  10  24  43  67  96 136 179 233 286 338 418
#     4  11  25  43  71  98 144 182 227 292 349 413
#     4  10  24  42  64  97 136 177 231 284 339 417
#
# _framework density 24.378122000000001
#
# number of rings (size 3 to 8) (size 9 to 14) (size 15 to 20)
#    0.000    1.000    3.750    2.625    3.500    5.000 
#    0.000    0.000    0.000    0.000    0.000    0.000 
#    0.000    0.000    0.000    0.000    0.000    0.000 
#
# Total GULP energy -89453.049854 kJ/mol
# GULP energy per Si atom -5590.815616 kJ/mol
# Density = 2.432264 g / cm^3
# Si number density = 24.378122 Si / 1000 Ang^3
#
#
#
# Elastic Constant Matrix: (Units=GPa)
#
#
# Indices 1 2 3 4 5 6 
#
# 1 127.0518 -7.1407 19.1865 0.0004 18.0340 0.0003
# 2 -7.1407 25.4033 0.8621 0.0000 -1.2456 -0.0002
# 3 19.1865 0.8621 55.8190 -0.0005 16.8067 -0.0006
# 4 0.0004 0.0000 -0.0005 36.9681 -0.0002 10.5531
# 5 18.0340 -1.2456 16.8067 -0.0002 41.7380 -0.0002
# 6 0.0003 -0.0002 -0.0006 10.5531 -0.0002 20.4088
#
#
#
# Elastic Compliance Matrix: (Units=1/GPa)
#
#
# Indices 1 2 3 4 5 6 
#
# 1 0.008736 0.002392 -0.002190 0.000000 -0.002821 0.000000
# 2 0.002392 0.040136 -0.001697 0.000000 0.000848 0.000000
# 3 -0.002190 -0.001697 0.020966 0.000000 -0.007547 0.000001
# 4 0.000000 0.000000 0.000000 0.031735 0.000000 -0.016410
# 5 -0.002821 0.000848 -0.007547 0.000000 0.028242 0.000000
# 6 0.000000 0.000000 0.000001 -0.016410 0.000000 0.057484
#
#
# Mechanical properties :
#
#
# Convention : Reuss Voigt Hill
#
# Bulk Modulus (GPa) = 14.95942 26.01000 20.48471
# Shear Modulus (GPa) = 23.52118 32.84739 28.18429
#
# Velocity S-wave (km/s) = 3.10957 3.67469 3.40388
# Velocity P-wave (km/s) = 4.36375 5.35696 4.88566
#
# Compressibility (1/GPa) = 0.06684751
#
# Stress axis : x y z
#
# Youngs Moduli (GPa) = 114.46243 24.91501 47.69521
#
# Poissons Ratio (x) = -0.05959 0.10447
# Poissons Ratio (y) = -0.27377 0.08095
# Poissons Ratio (z) = 0.25072 0.04229
#
# Static dielectric constant tensor:
#      x y z
#    x 2.026600 0.000000 0.054550 
#    y 0.000000 1.969690 0.000000 
#    z 0.054550 0.000000 1.947950 
# 
# From -- ./inp_files/61723.got.cif
#   From: 2010.05.17/outbox.cif.g08.bks.cpg/sg5_31_cif.got.tgz:61723.got - 2010.06.03 18:56:24.
