data_PCOD9128300
_publ_section_title
;
Structure prediction by ZEFSAII (Michael W. Deem and Ramdas Pophale) SiO2 
 PCOD9128300
Probable space group: C 2
;
_chemical_formula_sum "Si O2"
_cell_formula_units_Z 28
_cell_length_a 18.989976
_cell_length_b 8.700628
_cell_length_c 18.231600
_cell_angle_alpha 90.000000
_cell_angle_beta 154.417687
_cell_angle_gamma 90.000000
_cell_volume 1300.737965
_symmetry_space_group_name_H-M "C 2"
_symmetry_group_IT_number 5
_symmetry_cell_setting 'monoclinic'
loop_
_space_group_symop_operation_xyz
x,y,z
-x,y,-z
1/2+x,1/2+y,z
1/2-x,1/2+y,-z
loop_
_atom_site_type_symbol
_atom_site_label
_atom_site_fract_x
_atom_site_fract_y
_atom_site_fract_z
Si Si1 0.000000 0.819631 0.500000
Si Si2 0.148733 0.742217 0.416567
Si Si3 0.093228 0.321888 0.461021
Si Si4 0.754217 0.956749 0.894742
Si Si5 0.427240 0.493909 0.294020
Si Si6 0.176027 0.648727 0.951681
Si Si7 0.745832 0.097134 0.653187
Si Si8 0.500000 0.534936 0.000000
O O1 0.897799 0.916509 0.345022
O O2 0.887651 0.707438 0.439632
O O3 0.288026 0.810787 0.496660
O O4 0.242584 0.641025 0.565186
O O5 0.040699 0.876957 0.353452
O O6 0.017855 0.642107 0.246612
O O7 0.201511 0.416727 0.620803
O O8 0.933460 0.428030 0.302806
O O9 0.026063 0.150024 0.406519
O O10 0.758181 0.108692 0.949907
O O11 0.867943 0.952837 0.929745
O O12 0.797017 0.817260 0.989580
O O13 0.267710 0.540182 0.097097
O O14 0.904313 0.129440 0.848918
#
# Coordination Sequence:
#
# PCOD9128300 Si02
#       8
#     2   4   4   4   4   4   4   2
#     4  10  24  48  64 100 142 192 230 296 358 434
#     4  11  22  42  68 109 138 178 242 297 354 420
#     4  11  23  42  71 100 133 186 233 299 353 421
#     4  11  25  42  72 101 143 181 244 292 366 417
#     4  10  24  41  69 100 144 178 237 295 358 418
#     4  11  22  43  73 103 135 189 234 302 345 430
#     4  11  24  42  69  92 141 185 239 284 368 430
#     4  12  28  44  66 108 140 194 236 306 352 448
#
# _framework density 21.526243000000001
#
# number of rings (size 3 to 8) (size 9 to 14) (size 15 to 20)
#    0.000    1.143    2.857    2.571    6.000    2.857 
#    0.000    0.000    0.000    1.714    0.000    0.000 
#    0.000    0.000    0.000    0.000    0.000    0.000 
#
# Total GULP energy -78058.683338 kJ/mol
# GULP energy per Si atom -5575.620238 kJ/mol
# Density = 2.147725 g / cm^3
# Si number density = 21.526243 Si / 1000 Ang^3
#
#
#
# Elastic Constant Matrix: (Units=GPa)
#
#
# Indices 1 2 3 4 5 6 
#
# 1 132.4430 43.4235 41.3676 0.0001 2.6493 0.0000
# 2 43.4235 83.3249 24.2267 0.0003 -9.4917 0.0002
# 3 41.3676 24.2267 109.6074 0.0004 -18.8742 0.0003
# 4 0.0001 0.0003 0.0004 23.4088 0.0002 -5.0852
# 5 2.6493 -9.4917 -18.8742 0.0002 30.2863 0.0001
# 6 0.0000 0.0002 0.0003 -5.0852 0.0001 11.9518
#
#
#
# Elastic Compliance Matrix: (Units=1/GPa)
#
#
# Indices 1 2 3 4 5 6 
#
# 1 0.010389 -0.004889 -0.003652 0.000000 -0.004717 0.000000
# 2 -0.004889 0.015301 -0.000714 0.000000 0.004778 0.000000
# 3 -0.003652 -0.000714 0.011960 0.000000 0.007549 0.000000
# 4 0.000000 0.000000 0.000000 0.047070 -0.000001 0.020027
# 5 -0.004717 0.004778 0.007549 -0.000001 0.039633 -0.000001
# 6 0.000000 0.000000 0.000000 0.020027 -0.000001 0.092191
#
#
# Mechanical properties :
#
#
# Convention : Reuss Voigt Hill
#
# Bulk Modulus (GPa) = 52.25195 60.37899 56.31547
# Shear Modulus (GPa) = 20.70967 27.55319 24.13143
#
# Velocity S-wave (km/s) = 3.10508 3.58156 3.35180
# Velocity P-wave (km/s) = 6.09768 6.72409 6.41853
#
# Compressibility (1/GPa) = 0.01913804
#
# Stress axis : x y z
#
# Youngs Moduli (GPa) = 96.25914 65.35496 83.61417
#
# Poissons Ratio (x) = 0.31954 0.30540
# Poissons Ratio (y) = 0.47064 0.05969
# Poissons Ratio (z) = 0.35158 0.04666
#
# Static dielectric constant tensor:
#      x y z
#    x 1.841570 0.000000 -0.025010 
#    y 0.000000 1.828200 0.000000 
#    z -0.025010 0.000000 1.859560 
# 
# From -- ./inp_files/62263.got.cif
#   From: 2010.05.17/outbox.cif.g08.bks.cpg/sg5_32_cif.got.tgz:62263.got - 2010.06.03 18:56:24.
