data_PCOD9128715
_publ_section_title
;
Structure prediction by ZEFSAII (Michael W. Deem and Ramdas Pophale) SiO2 
 PCOD9128715
Probable space group: C 2
;
_chemical_formula_sum "Si O2"
_cell_formula_units_Z 18
_cell_length_a 13.869055
_cell_length_b 5.107836
_cell_length_c 20.695460
_cell_angle_alpha 90.000000
_cell_angle_beta 151.495686
_cell_angle_gamma 90.000000
_cell_volume 699.651904
_symmetry_space_group_name_H-M "C 2"
_symmetry_group_IT_number 5
_symmetry_cell_setting 'monoclinic'
loop_
_space_group_symop_operation_xyz
x,y,z
-x,y,-z
1/2+x,1/2+y,z
1/2-x,1/2+y,-z
loop_
_atom_site_type_symbol
_atom_site_label
_atom_site_fract_x
_atom_site_fract_y
_atom_site_fract_z
Si Si1 0.000000 0.084080 0.000000
Si Si2 0.141708 0.309305 0.949219
Si Si3 0.298883 0.576176 0.461874
Si Si4 0.101020 0.403344 0.702189
Si Si5 0.236142 0.087610 0.338784
O O1 0.799970 0.915829 0.863947
O O2 0.059108 0.257903 0.972522
O O3 0.991169 0.176758 0.809421
O O4 0.166736 0.614834 0.947618
O O5 0.319108 0.327031 0.428855
O O6 0.093939 0.544309 0.382074
O O7 0.498674 0.626430 0.622611
O O8 0.264978 0.827544 0.397009
O O9 0.171666 0.530658 0.676817
#
# Coordination Sequence:
#
# PCOD9128715 Si02
#       5
#     2   4   4   4   4
#     4  10  24  48  74 110 148 188 242 296 362 434
#     4  11  23  44  73 106 147 192 237 296 363 428
#     4  12  26  47  74 106 147 192 244 298 358 429
#     4  11  26  46  76 109 146 192 240 299 362 428
#     4  11  26  46  72 106 146 192 243 297 356 428
#
# _framework density 25.727079
#
# number of rings (size 3 to 8) (size 9 to 14) (size 15 to 20)
#    0.000    0.889    0.000    6.000    0.000    9.778 
#    0.000   11.111    0.000    0.000    0.000    0.000 
#    0.000    0.000    0.000    0.000    0.000    0.000 
#
# Total GULP energy -50466.808850 kJ/mol
# GULP energy per Si atom -5607.423206 kJ/mol
# Density = 2.566852 g / cm^3
# Si number density = 25.727079 Si / 1000 Ang^3
#
#
#
# Elastic Constant Matrix: (Units=GPa)
#
#
# Indices 1 2 3 4 5 6 
#
# 1 142.9288 32.0974 17.3711 0.0005 -0.4095 0.0007
# 2 32.0974 137.3516 13.4379 0.0048 -14.1036 0.0094
# 3 17.3711 13.4379 106.4703 0.0048 3.8018 0.0017
# 4 0.0005 0.0048 0.0048 0.0951 0.0000 -39.6451
# 5 -0.4095 -14.1036 3.8018 0.0000 37.9795 -0.0003
# 6 0.0007 0.0094 0.0017 -39.6451 -0.0003 -10.7369
#
#
#
# Elastic Compliance Matrix: (Units=1/GPa)
#
#
# Indices 1 2 3 4 5 6 
#
# 1 0.007498 -0.001701 -0.000992 0.000000 -0.000452 0.000000
# 2 -0.001701 0.008076 -0.000851 0.000002 0.003066 0.000001
# 3 -0.000992 -0.000851 0.009708 0.000000 -0.001299 0.000001
# 4 0.000000 0.000002 0.000000 0.006827 0.000000 -0.025207
# 5 -0.000452 0.003066 -0.001299 0.000000 0.027594 0.000000
# 6 0.000000 0.000001 0.000001 -0.025207 0.000000 -0.000060
#
#
# Mechanical properties :
#
#
# Convention : Reuss Voigt Hill
#
# Bulk Modulus (GPa) = 54.96921 56.95152 55.96036
# Shear Modulus (GPa) = 68.68467 27.05716 47.87092
#
# Velocity S-wave (km/s) = 5.17256 3.24651 4.31829
# Velocity P-wave (km/s) = 7.55556 6.01980 6.83098
#
# Compressibility (1/GPa) = 0.01819200
#
# Stress axis : x y z
#
# Youngs Moduli (GPa) = 133.37053 123.81922 103.00769
#
# Poissons Ratio (x) = 0.21067 0.10223
# Poissons Ratio (y) = 0.22692 0.08768
# Poissons Ratio (z) = 0.13236 0.10540
#
# Static dielectric constant tensor:
#      x y z
#    x 2.025440 0.000000 0.048640 
#    y 0.000000 1.973620 0.000000 
#    z 0.048640 0.000000 2.137810 
# 
# From -- ./inp_files/65589.got.cif
#   From: 2010.05.17/outbox.cif.g08.bks.cpg/sg5_33_cif.got.tgz:65589.got - 2010.06.03 18:56:24.
