data_PCOD9128301
_publ_section_title
;
Structure prediction by ZEFSAII (Michael W. Deem and Ramdas Pophale) SiO2 
 PCOD9128301
Probable space group: C 2
;
_chemical_formula_sum "Si O2"
_cell_formula_units_Z 20
_cell_length_a 13.890157
_cell_length_b 4.754859
_cell_length_c 14.902059
_cell_angle_alpha 90.000000
_cell_angle_beta 132.678216
_cell_angle_gamma 90.000000
_cell_volume 723.569511
_symmetry_space_group_name_H-M "C 2"
_symmetry_group_IT_number 5
_symmetry_cell_setting 'monoclinic'
loop_
_space_group_symop_operation_xyz
x,y,z
-x,y,-z
1/2+x,1/2+y,z
1/2-x,1/2+y,-z
loop_
_atom_site_type_symbol
_atom_site_label
_atom_site_fract_x
_atom_site_fract_y
_atom_site_fract_z
Si Si1 0.031556 0.623140 0.327870
Si Si2 0.840311 0.116156 0.664792
Si Si3 0.273214 0.203405 0.068310
Si Si4 0.872204 0.864752 0.871273
Si Si5 0.622994 0.799369 0.618878
O O1 0.921332 0.620926 0.181271
O O2 0.146775 0.430793 0.360208
O O3 0.950412 0.508648 0.359629
O O4 0.084612 0.936960 0.362970
O O5 0.906081 0.045547 0.802863
O O6 0.696915 0.990444 0.591059
O O7 0.185346 0.083054 0.092534
O O8 0.264416 0.533240 0.045159
O O9 0.747795 0.679562 0.754417
O O10 0.000000 0.734596 0.000000
O O11 0.500000 0.630311 0.500000
#
# Coordination Sequence:
#
# PCOD9128301 Si02
#       5
#     4   4   4   4   4
#     4  11  22  43  66  96 131 174 217 274 327 390
#     4  10  24  41  69  96 131 172 222 267 333 389
#     4  11  22  36  62  93 133 168 216 269 326 387
#     4   9  19  39  61  93 130 163 216 267 319 387
#     4   9  23  43  66  98 133 171 223 273 325 394
#
# _framework density 27.640744000000002
#
# number of rings (size 3 to 8) (size 9 to 14) (size 15 to 20)
#    1.200    0.800    0.000    3.600    0.000    4.800 
#    0.000    6.000    0.000    0.000    0.000    0.000 
#    0.000    0.000    0.000    0.000    0.000    0.000 
#
# Total GULP energy -55911.600851 kJ/mol
# GULP energy per Si atom -5591.160085 kJ/mol
# Density = 2.757783 g / cm^3
# Si number density = 27.640744 Si / 1000 Ang^3
#
#
#
# Elastic Constant Matrix: (Units=GPa)
#
#
# Indices 1 2 3 4 5 6 
#
# 1 144.5351 25.5802 32.2916 0.0000 -15.1286 -0.0001
# 2 25.5802 78.8284 5.6391 0.0000 -5.5122 0.0000
# 3 32.2916 5.6391 195.0224 0.0000 41.5883 0.0000
# 4 0.0000 0.0000 0.0000 12.9168 0.0000 -6.6954
# 5 -15.1286 -5.5122 41.5883 0.0000 53.2062 0.0000
# 6 -0.0001 0.0000 0.0000 -6.6954 0.0000 27.7290
#
#
#
# Elastic Compliance Matrix: (Units=1/GPa)
#
#
# Indices 1 2 3 4 5 6 
#
# 1 0.008169 -0.002242 -0.002080 0.000000 0.003717 0.000000
# 2 -0.002242 0.013494 -0.000217 0.000000 0.000930 0.000000
# 3 -0.002080 -0.000217 0.006731 0.000000 -0.005876 0.000000
# 4 0.000000 0.000000 0.000000 0.088495 0.000000 0.021368
# 5 0.003717 0.000930 -0.005876 0.000000 0.024541 0.000000
# 6 0.000000 0.000000 0.000000 0.021368 0.000000 0.041223
#
#
# Mechanical properties :
#
#
# Convention : Reuss Voigt Hill
#
# Bulk Modulus (GPa) = 51.77392 60.60085 56.18738
# Shear Modulus (GPa) = 25.23067 42.42873 33.82970
#
# Velocity S-wave (km/s) = 3.02455 3.92217 3.50223
# Velocity P-wave (km/s) = 5.56497 6.51792 6.06020
#
# Compressibility (1/GPa) = 0.01931475
#
# Stress axis : x y z
#
# Youngs Moduli (GPa) = 122.40769 74.10694 148.55901
#
# Poissons Ratio (x) = 0.16617 0.30907
# Poissons Ratio (y) = 0.27447 0.03228
# Poissons Ratio (z) = 0.25466 0.01610
#
# Static dielectric constant tensor:
#      x y z
#    x 2.103960 0.000000 -0.007970 
#    y 0.000000 1.995900 0.000000 
#    z -0.007970 0.000000 2.251730 
# 
# From -- ./inp_files/62025.got.cif
#   From: 2010.05.17/outbox.cif.g08.bks.cpg/sg5_32_cif.got.tgz:62025.got - 2010.06.03 18:56:24.
