data_PCOD9128292
_publ_section_title
;
Structure prediction by ZEFSAII (Michael W. Deem and Ramdas Pophale) SiO2 
 PCOD9128292
Probable space group: C 2
;
_chemical_formula_sum "Si O2"
_cell_formula_units_Z 26
_cell_length_a 18.648532
_cell_length_b 13.695487
_cell_length_c 5.086849
_cell_angle_alpha 90.000000
_cell_angle_beta 66.356493
_cell_angle_gamma 90.000000
_cell_volume 1190.129357
_symmetry_space_group_name_H-M "C 2"
_symmetry_group_IT_number 5
_symmetry_cell_setting 'monoclinic'
loop_
_space_group_symop_operation_xyz
x,y,z
-x,y,-z
1/2+x,1/2+y,z
1/2-x,1/2+y,-z
loop_
_atom_site_type_symbol
_atom_site_label
_atom_site_fract_x
_atom_site_fract_y
_atom_site_fract_z
Si Si1 0.072915 0.294360 0.006522
Si Si2 0.176491 0.733954 0.754702
Si Si3 0.841037 0.139090 0.471076
Si Si4 0.500000 0.641712 0.500000
Si Si5 0.669020 0.953982 0.152583
Si Si6 0.906825 0.658403 0.643148
Si Si7 0.269154 0.444491 0.497065
O O1 0.027025 0.210411 0.226105
O O2 0.120394 0.360659 0.134386
O O3 0.129738 0.233608 0.733762
O O4 0.000000 0.356017 0.000000
O O5 0.259213 0.680926 0.707013
O O6 0.133082 0.676315 0.582258
O O7 0.189338 0.842587 0.624074
O O8 0.126572 0.734182 0.093671
O O9 0.915604 0.100455 0.531760
O O10 0.816166 0.042234 0.350211
O O11 0.694683 0.943268 0.414928
O O12 0.620331 0.053167 0.207891
O O13 0.741403 0.955493 0.839745
O O14 0.000000 0.664195 0.500000
#
# Coordination Sequence:
#
# PCOD9128292 Si02
#       7
#     4   4   4   2   4   4   4
#     4  10  24  41  66 104 142 182 227 299 371 428
#     4  12  25  48  73 102 146 192 242 302 355 444
#     4  11  23  45  70 104 144 183 241 295 364 437
#     4  10  24  42  70 100 146 180 222 304 358 426
#     4  12  24  43  72 108 138 185 236 300 362 438
#     4  12  27  48  72 103 147 192 245 302 362 427
#     4  12  26  42  76 105 137 194 244 286 366 428
#
# _framework density 21.846364000000001
#
# number of rings (size 3 to 8) (size 9 to 14) (size 15 to 20)
#    0.000    0.615    4.615    2.308    7.538    1.231 
#    1.385    3.077    0.000    0.000    0.000    0.000 
#    0.000    0.000    0.000    0.000    0.000    0.000 
#
# Total GULP energy -72567.456488 kJ/mol
# GULP energy per Si atom -5582.112038 kJ/mol
# Density = 2.179664 g / cm^3
# Si number density = 21.846364 Si / 1000 Ang^3
#
#
#
# Elastic Constant Matrix: (Units=GPa)
#
#
# Indices 1 2 3 4 5 6 
#
# 1 123.7417 32.0491 14.6478 0.0000 -14.1437 0.0000
# 2 32.0491 90.7239 -7.2637 0.0000 -10.9543 0.0000
# 3 14.6478 -7.2637 78.9209 0.0000 -14.6540 0.0000
# 4 0.0000 0.0000 0.0000 22.6556 0.0000 -0.2188
# 5 -14.1437 -10.9543 -14.6540 0.0000 34.6343 0.0000
# 6 0.0000 0.0000 0.0000 -0.2188 0.0000 34.1150
#
#
#
# Elastic Compliance Matrix: (Units=1/GPa)
#
#
# Indices 1 2 3 4 5 6 
#
# 1 0.009339 -0.003174 -0.001632 0.000000 0.002119 0.000000
# 2 -0.003174 0.012800 0.002472 0.000000 0.003799 0.000000
# 3 -0.001632 0.002472 0.014350 0.000000 0.006187 0.000000
# 4 0.000000 0.000000 0.000000 0.044142 0.000000 0.000283
# 5 0.002119 0.003799 0.006187 0.000000 0.033558 0.000000
# 6 0.000000 0.000000 0.000000 0.000283 0.000000 0.029314
#
#
# Mechanical properties :
#
#
# Convention : Reuss Voigt Hill
#
# Bulk Modulus (GPa) = 31.42391 41.36142 36.39267
# Shear Modulus (GPa) = 31.49063 35.21120 33.35092
#
# Velocity S-wave (km/s) = 3.80077 4.01903 3.91143
# Velocity P-wave (km/s) = 5.80314 6.36481 6.09045
#
# Compressibility (1/GPa) = 0.03182290
#
# Stress axis : x y z
#
# Youngs Moduli (GPa) = 107.08043 78.12368 69.68547
#
# Poissons Ratio (x) = 0.24795 0.11372
# Poissons Ratio (y) = 0.33985 -0.17230
# Poissons Ratio (z) = 0.17474 -0.19316
#
# Static dielectric constant tensor:
#      x y z
#    x 1.936890 0.000000 0.011550 
#    y 0.000000 1.802310 0.000000 
#    z 0.011550 0.000000 1.804120 
# 
# From -- ./inp_files/8487.got.cif
#   From: 2010.05.17/outbox.cif.g08.bks.cpg/sg5_5_cif.got.tgz:8487.got - 2010.06.03 18:56:24.
