data_PCOD9128877
_publ_section_title
;
Structure prediction by ZEFSAII (Michael W. Deem and Ramdas Pophale) SiO2 
 PCOD9128877
Probable space group: C 2
;
_chemical_formula_sum "Si O2"
_cell_formula_units_Z 26
_cell_length_a 11.672214
_cell_length_b 11.661088
_cell_length_c 11.652899
_cell_angle_alpha 90.000000
_cell_angle_beta 42.612646
_cell_angle_gamma 90.000000
_cell_volume 1073.840084
_symmetry_space_group_name_H-M "C 2"
_symmetry_group_IT_number 5
_symmetry_cell_setting 'monoclinic'
loop_
_space_group_symop_operation_xyz
x,y,z
-x,y,-z
1/2+x,1/2+y,z
1/2-x,1/2+y,-z
loop_
_atom_site_type_symbol
_atom_site_label
_atom_site_fract_x
_atom_site_fract_y
_atom_site_fract_z
Si Si1 0.339400 0.633360 0.350694
Si Si2 0.803370 0.507631 0.901588
Si Si3 0.500000 0.565082 0.000000
Si Si4 0.036934 0.318771 0.339722
Si Si5 0.824839 0.651359 0.195723
Si Si6 0.402171 0.465285 0.723165
Si Si7 0.486853 0.210790 0.317981
O O1 0.399957 0.741509 0.378710
O O2 0.431639 0.528061 0.347455
O O3 0.137433 0.642586 0.503484
O O4 0.422501 0.634543 0.163507
O O5 0.645193 0.482798 0.937999
O O6 0.951592 0.430158 0.746518
O O7 0.849102 0.638073 0.840325
O O8 0.740915 0.477854 0.072815
O O9 0.208560 0.242329 0.213457
O O10 0.000000 0.342939 0.500000
O O11 0.694266 0.541625 0.303380
O O12 0.883764 0.706542 0.272656
O O13 0.000000 0.624282 0.000000
O O14 0.455265 0.332961 0.674359
#
# Coordination Sequence:
#
# PCOD9128877 Si02
#       7
#     4   4   2   4   4   4   4
#     4  10  25  47  71 107 144 191 248 311 380 451
#     4  11  26  43  70 105 142 191 251 296 383 454
#     4  10  26  48  66  96 150 186 230 316 370 450
#     4  11  24  42  75 105 137 191 251 312 371 455
#     4  11  22  45  74 106 142 195 245 305 378 440
#     4  10  25  46  71 112 149 188 257 310 363 465
#     4  12  25  45  76 108 145 204 246 307 382 449
#
# _framework density 24.212168999999999
#
# number of rings (size 3 to 8) (size 9 to 14) (size 15 to 20)
#    0.000    1.231    3.077    0.923   14.000    0.000 
#    4.154    1.538    0.000    0.000    0.000    0.000 
#    0.000    0.000    0.000    0.000    0.000    0.000 
#
# Total GULP energy -72609.658313 kJ/mol
# GULP energy per Si atom -5585.358332 kJ/mol
# Density = 2.415706 g / cm^3
# Si number density = 24.212169 Si / 1000 Ang^3
#
#
#
# Elastic Constant Matrix: (Units=GPa)
#
#
# Indices 1 2 3 4 5 6 
#
# 1 69.6431 0.7776 10.6227 0.0000 -6.3793 0.0000
# 2 0.7776 100.8436 35.2722 0.0000 -5.7973 0.0000
# 3 10.6227 35.2722 151.2734 0.0000 2.0446 0.0000
# 4 0.0000 0.0000 0.0000 12.2677 0.0000 -3.3561
# 5 -6.3793 -5.7973 2.0446 0.0000 38.6500 0.0000
# 6 0.0000 0.0000 0.0000 -3.3561 0.0000 7.5196
#
#
#
# Elastic Compliance Matrix: (Units=1/GPa)
#
#
# Indices 1 2 3 4 5 6 
#
# 1 0.014768 0.000445 -0.001175 0.000000 0.002566 0.000000
# 2 0.000445 0.010930 -0.002605 0.000000 0.001851 0.000000
# 3 -0.001175 -0.002605 0.007314 0.000000 -0.000972 0.000000
# 4 0.000000 0.000000 0.000000 0.092852 0.000000 0.041441
# 5 0.002566 0.001851 -0.000972 0.000000 0.026626 0.000000
# 6 0.000000 0.000000 0.000000 0.041441 0.000000 0.151481
#
#
# Mechanical properties :
#
#
# Convention : Reuss Voigt Hill
#
# Bulk Modulus (GPa) = 37.96319 46.12276 42.04298
# Shear Modulus (GPa) = 15.65324 30.02665 22.83995
#
# Velocity S-wave (km/s) = 2.54540 3.52539 3.07469
# Velocity P-wave (km/s) = 4.93479 5.97176 5.47787
#
# Compressibility (1/GPa) = 0.02634131
#
# Stress axis : x y z
#
# Youngs Moduli (GPa) = 67.71239 91.48779 136.73161
#
# Poissons Ratio (x) = -0.04069 0.16072
# Poissons Ratio (y) = -0.03012 0.35617
# Poissons Ratio (z) = 0.07959 0.23831
#
# Static dielectric constant tensor:
#      x y z
#    x 1.972400 0.000000 -0.009860 
#    y 0.000000 1.938580 0.000000 
#    z -0.009860 0.000000 2.083480 
# 
# From -- ./inp_files/39111.got.cif
#   From: 2010.05.17/outbox.cif.g08.bks.cpg/sg5_20_cif.got.tgz:39111.got - 2010.06.03 18:56:24.
