data_PCOD9128833
_publ_section_title
;
Structure prediction by ZEFSAII (Michael W. Deem and Ramdas Pophale) SiO2 
 PCOD9128833
Probable space group: C 2
;
_chemical_formula_sum "Si O2"
_cell_formula_units_Z 22
_cell_length_a 15.473804
_cell_length_b 14.211357
_cell_length_c 5.342839
_cell_angle_alpha 90.000000
_cell_angle_beta 127.772586
_cell_angle_gamma 90.000000
_cell_volume 928.705741
_symmetry_space_group_name_H-M "C 2"
_symmetry_group_IT_number 5
_symmetry_cell_setting 'monoclinic'
loop_
_space_group_symop_operation_xyz
x,y,z
-x,y,-z
1/2+x,1/2+y,z
1/2-x,1/2+y,-z
loop_
_atom_site_type_symbol
_atom_site_label
_atom_site_fract_x
_atom_site_fract_y
_atom_site_fract_z
Si Si1 0.885910 0.681980 0.879533
Si Si2 0.833592 0.568378 0.305228
Si Si3 0.000000 0.345807 0.000000
Si Si4 0.338121 0.732571 0.396002
Si Si5 0.373703 0.526919 0.305995
Si Si6 0.314245 0.891867 0.994470
O O1 0.875020 0.606082 0.638650
O O2 0.777766 0.746501 0.668818
O O3 0.874559 0.632037 0.136395
O O4 0.000000 0.730005 0.000000
O O5 0.700529 0.561143 0.062733
O O6 0.862470 0.460895 0.294810
O O7 0.944905 0.279864 0.695655
O O8 0.899080 0.402698 0.925388
O O9 0.361170 0.621727 0.443025
O O10 0.314455 0.785406 0.091449
O O11 0.500000 0.505098 0.500000
O O12 0.302917 0.437875 0.271815
#
# Coordination Sequence:
#
# PCOD9128833 Si02
#       6
#     4   4   2   4   4   4
#     4  11  24  45  70 109 146 200 245 308 369 454
#     4   9  24  42  72 103 147 192 251 292 383 432
#     4  12  26  42  74 102 156 186 268 308 370 458
#     4  11  26  43  70 110 140 200 256 310 383 437
#     4   9  21  46  71 101 148 195 251 304 381 442
#     4  10  25  44  68 109 143 195 251 308 372 444
#
# _framework density 23.688883000000001
#
# number of rings (size 3 to 8) (size 9 to 14) (size 15 to 20)
#    1.091    0.727    0.000    2.182   11.455    1.455 
#    3.273    0.000    0.000    0.000    0.000    0.000 
#    0.000    0.000    0.000    0.000    0.000    0.000 
#
# Total GULP energy -61300.045406 kJ/mol
# GULP energy per Si atom -5572.731401 kJ/mol
# Density = 2.363497 g / cm^3
# Si number density = 23.688883 Si / 1000 Ang^3
#
#
#
# Elastic Constant Matrix: (Units=GPa)
#
#
# Indices 1 2 3 4 5 6 
#
# 1 200.0765 42.8931 51.9637 0.0000 43.2523 0.0000
# 2 42.8931 56.7249 21.2280 0.0000 4.7916 0.0000
# 3 51.9637 21.2280 71.7013 0.0000 5.1682 0.0000
# 4 0.0000 0.0000 0.0000 15.1934 0.0000 -0.5493
# 5 43.2523 4.7916 5.1682 0.0000 55.2340 0.0000
# 6 0.0000 0.0000 0.0000 -0.5493 0.0000 -14.9213
#
#
#
# Elastic Compliance Matrix: (Units=1/GPa)
#
#
# Indices 1 2 3 4 5 6 
#
# 1 0.008239 -0.004126 -0.004340 0.000000 -0.005688 0.000000
# 2 -0.004126 0.021968 -0.003634 0.000000 0.001665 0.000000
# 3 -0.004340 -0.003634 0.018022 0.000000 0.002027 0.000000
# 4 0.000000 0.000000 0.000000 0.065731 0.000000 -0.002420
# 5 -0.005688 0.001665 0.002027 0.000000 0.022225 0.000000
# 6 0.000000 0.000000 0.000000 -0.002420 0.000000 -0.066929
#
#
# Mechanical properties :
#
#
# Convention : Reuss Voigt Hill
#
# Bulk Modulus (GPa) = 41.61444 62.29691 51.95567
# Shear Modulus (GPa) = 49.27881 25.26243 37.27062
#
# Velocity S-wave (km/s) = 4.56592 3.26916 3.97084
# Velocity P-wave (km/s) = 6.73811 6.37220 6.55771
#
# Compressibility (1/GPa) = 0.02403012
#
# Stress axis : x y z
#
# Youngs Moduli (GPa) = 121.36915 45.52099 55.48894
#
# Poissons Ratio (x) = 0.18781 0.24081
# Poissons Ratio (y) = 0.50073 0.20164
# Poissons Ratio (z) = 0.52672 0.16542
#
# Static dielectric constant tensor:
#      x y z
#    x 1.958260 0.000000 -0.018530 
#    y 0.000000 1.934410 0.000000 
#    z -0.018530 0.000000 1.966970 
# 
# From -- ./inp_files/6917.got.cif
#   From: 2010.05.17/outbox.cif.g08.bks.cpg/sg5_4_cif.got.tgz:6917.got - 2010.06.03 18:56:24.
