data_PCOD9128610
_publ_section_title
;
Structure prediction by ZEFSAII (Michael W. Deem and Ramdas Pophale) SiO2 
 PCOD9128610
Probable space group: C 2
;
_chemical_formula_sum "Si O2"
_cell_formula_units_Z 18
_cell_length_a 5.833861
_cell_length_b 7.806337
_cell_length_c 16.218109
_cell_angle_alpha 90.000000
_cell_angle_beta 68.999979
_cell_angle_gamma 90.000000
_cell_volume 689.533332
_symmetry_space_group_name_H-M "C 2"
_symmetry_group_IT_number 5
_symmetry_cell_setting 'monoclinic'
loop_
_space_group_symop_operation_xyz
x,y,z
-x,y,-z
1/2+x,1/2+y,z
1/2-x,1/2+y,-z
loop_
_atom_site_type_symbol
_atom_site_label
_atom_site_fract_x
_atom_site_fract_y
_atom_site_fract_z
Si Si1 0.893187 0.460880 0.847502
Si Si2 0.000000 0.621257 0.500000
Si Si3 0.191430 0.172728 0.269585
Si Si4 0.000000 0.126494 0.000000
Si Si5 0.124058 0.883121 0.614845
Si Si6 0.500000 0.088172 0.000000
O O1 0.891352 0.287961 0.796256
O O2 0.028014 0.609935 0.778489
O O3 0.620877 0.515805 0.910148
O O4 0.045089 0.469115 0.914257
O O5 0.016663 0.737965 0.417119
O O6 0.237041 0.501189 0.469008
O O7 0.179728 0.290589 0.351866
O O8 0.038902 0.002167 0.305933
O O9 0.257806 0.193085 0.005848
#
# Coordination Sequence:
#
# PCOD9128610 Si02
#       6
#     4   2   4   2   4   2
#     4  10  24  46  72 106 154 202 256 322 360 458
#     4  12  24  48  76 100 144 186 240 296 362 498
#     4  12  26  46  70 112 148 190 244 322 378 436
#     4   8  20  45  73 108 144 218 262 316 372 454
#     4  12  26  46  74 108 140 190 238 298 390 444
#     4   8  20  45  73 108 144 218 262 316 372 454
#
# _framework density 26.104607999999999
#
# number of rings (size 3 to 8) (size 9 to 14) (size 15 to 20)
#    1.333    0.000    0.000    5.333    3.111    0.889 
#    0.000    2.222    0.000    0.000    0.000    0.000 
#    0.000    0.000    0.000    0.000    0.000    0.000 
#
# Total GULP energy -50356.494151 kJ/mol
# GULP energy per Si atom -5595.166017 kJ/mol
# Density = 2.604519 g / cm^3
# Si number density = 26.104608 Si / 1000 Ang^3
#
#
#
# Elastic Constant Matrix: (Units=GPa)
#
#
# Indices 1 2 3 4 5 6 
#
# 1 132.0125 38.9948 9.8185 0.0000 1.9831 0.0000
# 2 38.9948 107.5384 32.4310 0.0000 2.6616 0.0000
# 3 9.8185 32.4310 88.2597 0.0000 8.2666 0.0000
# 4 0.0000 0.0000 0.0000 48.1019 0.0000 -2.6290
# 5 1.9831 2.6616 8.2666 0.0000 50.6343 0.0000
# 6 0.0000 0.0000 0.0000 -2.6290 0.0000 41.4100
#
#
#
# Elastic Compliance Matrix: (Units=1/GPa)
#
#
# Indices 1 2 3 4 5 6 
#
# 1 0.008489 -0.003142 0.000229 0.000000 -0.000205 0.000000
# 2 -0.003142 0.011621 -0.003935 0.000000 0.000155 0.000000
# 3 0.000229 -0.003935 0.012930 0.000000 -0.001913 0.000000
# 4 0.000000 0.000000 0.000000 0.020862 0.000000 0.001324
# 5 -0.000205 0.000155 -0.001913 0.000000 0.020062 0.000000
# 6 0.000000 0.000000 0.000000 0.001324 0.000000 0.024233
#
#
# Mechanical properties :
#
#
# Convention : Reuss Voigt Hill
#
# Bulk Modulus (GPa) = 51.69506 54.47770 53.08638
# Shear Modulus (GPa) = 42.25074 44.46699 43.35887
#
# Velocity S-wave (km/s) = 4.02744 4.13172 4.07992
# Velocity P-wave (km/s) = 6.43996 6.60877 6.52491
#
# Compressibility (1/GPa) = 0.01934421
#
# Stress axis : x y z
#
# Youngs Moduli (GPa) = 117.79542 86.04791 77.34051
#
# Poissons Ratio (x) = 0.27040 -0.01775
# Poissons Ratio (y) = 0.37017 0.30435
# Poissons Ratio (z) = -0.02703 0.33862
#
# Static dielectric constant tensor:
#      x y z
#    x 2.007960 0.000000 0.007670 
#    y 0.000000 2.088220 0.000000 
#    z 0.007670 0.000000 2.088640 
# 
# From -- ./inp_files/58436.got.cif
#   From: 2010.05.17/outbox.cif.g08.bks.cpg/sg5_30_cif.got.tgz:58436.got - 2010.06.03 18:56:24.
