data_PCOD9128494
_publ_section_title
;
Structure prediction by ZEFSAII (Michael W. Deem and Ramdas Pophale) SiO2 
 PCOD9128494
Probable space group: C 2
;
_chemical_formula_sum "Si O2"
_cell_formula_units_Z 24
_cell_length_a 22.047524
_cell_length_b 5.447497
_cell_length_c 9.363899
_cell_angle_alpha 90.000000
_cell_angle_beta 112.362868
_cell_angle_gamma 90.000000
_cell_volume 1040.059021
_symmetry_space_group_name_H-M "C 2"
_symmetry_group_IT_number 5
_symmetry_cell_setting 'monoclinic'
loop_
_space_group_symop_operation_xyz
x,y,z
-x,y,-z
1/2+x,1/2+y,z
1/2-x,1/2+y,-z
loop_
_atom_site_type_symbol
_atom_site_label
_atom_site_fract_x
_atom_site_fract_y
_atom_site_fract_z
Si Si1 0.452362 0.791010 0.207042
Si Si2 0.934592 0.667925 0.688616
Si Si3 0.285702 0.073302 0.486815
Si Si4 0.225278 0.030497 0.143565
Si Si5 0.500000 0.493020 0.500000
Si Si6 0.826704 0.529591 0.979509
Si Si7 0.500000 0.455206 0.000000
O O1 0.449621 0.646868 0.354649
O O2 0.458103 0.615799 0.074494
O O3 0.521806 0.925294 0.277927
O O4 0.394191 0.983834 0.125362
O O5 0.859102 0.606206 0.605600
O O6 0.959213 0.833907 0.577837
O O7 0.954374 0.795075 0.855199
O O8 0.248967 0.332043 0.480088
O O9 0.280067 0.023598 0.313633
O O10 0.180440 0.787862 0.106599
O O11 0.184601 0.282065 0.120924
O O12 0.264838 0.034126 0.031302
#
# Coordination Sequence:
#
# PCOD9128494 Si02
#       7
#     4   4   4   4   2   4   2
#     4  11  25  44  76 107 148 197 247 323 378 450
#     4  11  27  48  74 112 149 199 257 314 385 448
#     4  12  30  48  75 106 155 204 246 308 378 462
#     4  10  24  45  68 107 143 190 249 301 364 455
#     4  10  26  44  76 116 146 192 250 326 382 450
#     4  10  24  44  75 102 142 190 247 311 370 430
#     4  10  26  46  70 104 146 192 252 312 370 462
#
# _framework density 23.075612
#
# number of rings (size 3 to 8) (size 9 to 14) (size 15 to 20)
#    0.000    1.333    0.000    2.000   16.333    5.333 
#    0.000    0.000    0.000    0.000    0.000    0.000 
#    0.000    0.000    0.000    0.000    0.000    0.000 
#
# Total GULP energy -67129.996687 kJ/mol
# GULP energy per Si atom -5594.166391 kJ/mol
# Density = 2.302309 g / cm^3
# Si number density = 23.075612 Si / 1000 Ang^3
#
#
#
# Elastic Constant Matrix: (Units=GPa)
#
#
# Indices 1 2 3 4 5 6 
#
# 1 119.4885 57.6686 50.8888 0.0000 50.5153 0.0000
# 2 57.6686 155.5443 71.2894 0.0000 12.7535 0.0000
# 3 50.8888 71.2894 151.4162 0.0000 19.3078 0.0000
# 4 0.0000 0.0000 0.0000 39.7810 0.0000 14.6892
# 5 50.5153 12.7535 19.3078 0.0000 50.2587 0.0000
# 6 0.0000 0.0000 0.0000 14.6892 0.0000 21.1026
#
#
#
# Elastic Compliance Matrix: (Units=1/GPa)
#
#
# Indices 1 2 3 4 5 6 
#
# 1 0.018426 -0.004593 -0.001911 0.000000 -0.016621 0.000000
# 2 -0.004593 0.009362 -0.003312 0.000000 0.003513 0.000000
# 3 -0.001911 -0.003312 0.008889 0.000000 -0.000654 0.000000
# 4 0.000000 0.000000 0.000000 0.033834 0.000000 -0.023551
# 5 -0.016621 0.003513 -0.000654 0.000000 0.035962 0.000000
# 6 0.000000 0.000000 0.000000 -0.023551 0.000000 0.063781
#
#
# Mechanical properties :
#
#
# Convention : Reuss Voigt Hill
#
# Bulk Modulus (GPa) = 58.66710 87.34917 73.00813
# Shear Modulus (GPa) = 25.56649 38.66862 32.11756
#
# Velocity S-wave (km/s) = 3.33219 4.09802 3.73478
# Velocity P-wave (km/s) = 6.34694 7.76706 7.09264
#
# Compressibility (1/GPa) = 0.01704533
#
# Stress axis : x y z
#
# Youngs Moduli (GPa) = 54.27077 106.81666 112.49475
#
# Poissons Ratio (x) = 0.49061 0.21497
# Poissons Ratio (y) = 0.24926 0.37259
# Poissons Ratio (z) = 0.10371 0.35378
#
# Static dielectric constant tensor:
#      x y z
#    x 1.814160 0.000000 -0.025930 
#    y 0.000000 1.869430 0.000000 
#    z -0.025930 0.000000 1.882090 
# 
# From -- ./inp_files/30344.got.cif
#   From: 2010.05.17/outbox.cif.g08.bks.cpg/sg5_16_cif.got.tgz:30344.got - 2010.06.03 18:56:24.
