data_PCOD9128851
_publ_section_title
;
Structure prediction by ZEFSAII (Michael W. Deem and Ramdas Pophale) SiO2 
 PCOD9128851
Probable space group: C 2
;
_chemical_formula_sum "Si O2"
_cell_formula_units_Z 16
_cell_length_a 12.420108
_cell_length_b 7.279991
_cell_length_c 7.523929
_cell_angle_alpha 90.000000
_cell_angle_beta 94.190987
_cell_angle_gamma 90.000000
_cell_volume 678.481544
_symmetry_space_group_name_H-M "C 2"
_symmetry_group_IT_number 5
_symmetry_cell_setting 'monoclinic'
loop_
_space_group_symop_operation_xyz
x,y,z
-x,y,-z
1/2+x,1/2+y,z
1/2-x,1/2+y,-z
loop_
_atom_site_type_symbol
_atom_site_label
_atom_site_fract_x
_atom_site_fract_y
_atom_site_fract_z
Si Si1 0.112269 0.128640 0.923151
Si Si2 0.690006 0.553351 0.294592
Si Si3 0.713076 0.121861 0.323327
Si Si4 0.026186 0.362149 0.307998
O O1 0.177963 0.052291 0.762504
O O2 0.071142 0.322510 0.836788
O O3 0.197556 0.128873 0.094420
O O4 0.000000 0.050317 0.000000
O O5 0.689257 0.334265 0.282418
O O6 0.772046 0.601658 0.462333
O O7 0.582129 0.662265 0.342929
O O8 0.615566 0.997733 0.245692
O O9 0.000000 0.431062 0.500000
#
# Coordination Sequence:
#
# PCOD9128851 Si02
#       4
#     4   4   4   4
#     4  10  25  45  68 105 146 184 238 301 351 427
#     4  11  24  42  74 107 141 191 241 296 358 433
#     4  12  24  46  77 106 143 197 240 295 372 429
#     4  11  23  49  72 103 152 186 238 310 355 428
#
# _framework density 23.582069000000001
#
# number of rings (size 3 to 8) (size 9 to 14) (size 15 to 20)
#    0.000    1.000    5.000    0.000    7.000    1.000 
#    0.000   11.250    0.000    0.000    0.000    0.000 
#    0.000    0.000    0.000    0.000    0.000    0.000 
#
# Total GULP energy -44562.284476 kJ/mol
# GULP energy per Si atom -5570.285560 kJ/mol
# Density = 2.352840 g / cm^3
# Si number density = 23.582069 Si / 1000 Ang^3
#
#
#
# Elastic Constant Matrix: (Units=GPa)
#
#
# Indices 1 2 3 4 5 6 
#
# 1 91.0278 46.3019 24.0822 0.0000 -4.5567 0.0000
# 2 46.3019 117.1109 37.4802 0.0000 9.8602 0.0000
# 3 24.0822 37.4802 154.7788 0.0000 27.2435 0.0000
# 4 0.0000 0.0000 0.0000 12.4991 0.0000 19.2207
# 5 -4.5567 9.8602 27.2435 0.0000 39.1930 0.0000
# 6 0.0000 0.0000 0.0000 19.2207 0.0000 45.9753
#
#
#
# Elastic Compliance Matrix: (Units=1/GPa)
#
#
# Indices 1 2 3 4 5 6 
#
# 1 0.014452 -0.005541 -0.001650 0.000000 0.004221 0.000000
# 2 -0.005541 0.011408 -0.001460 0.000000 -0.002499 0.000000
# 3 -0.001650 -0.001460 0.008022 0.000000 -0.005400 0.000000
# 4 0.000000 0.000000 0.000000 0.224037 0.000000 -0.093663
# 5 0.004221 -0.002499 -0.005400 0.000000 0.030388 0.000000
# 6 0.000000 0.000000 0.000000 -0.093663 0.000000 0.060908
#
#
# Mechanical properties :
#
#
# Convention : Reuss Voigt Hill
#
# Bulk Modulus (GPa) = 60.31885 64.29399 62.30642
# Shear Modulus (GPa) = 13.43930 36.53702 24.98816
#
# Velocity S-wave (km/s) = 2.38984 3.94046 3.25872
# Velocity P-wave (km/s) = 5.76619 6.93008 6.37475
#
# Compressibility (1/GPa) = 0.01657857
#
# Stress axis : x y z
#
# Youngs Moduli (GPa) = 69.19453 87.66143 124.66200
#
# Poissons Ratio (x) = 0.48576 0.20566
# Poissons Ratio (y) = 0.38343 0.18205
# Poissons Ratio (z) = 0.11415 0.12801
#
# Static dielectric constant tensor:
#      x y z
#    x 1.952970 0.000000 -0.007690 
#    y 0.000000 1.862840 0.000000 
#    z -0.007690 0.000000 1.965220 
# 
# From -- ./inp_files/18083.got.cif
#   From: 2010.05.17/outbox.cif.g08.bks.cpg/sg5_10_cif.got.tgz:18083.got - 2010.06.03 18:56:24.
