data_PCOD9128011
_publ_section_title
;
Structure prediction by ZEFSAII (Michael W. Deem and Ramdas Pophale) SiO2 
 PCOD9128011
Probable space group: C 2
;
_chemical_formula_sum "Si O2"
_cell_formula_units_Z 24
_cell_length_a 13.581236
_cell_length_b 9.332900
_cell_length_c 8.653986
_cell_angle_alpha 90.000000
_cell_angle_beta 118.514892
_cell_angle_gamma 90.000000
_cell_volume 963.849651
_symmetry_space_group_name_H-M "C 2"
_symmetry_group_IT_number 5
_symmetry_cell_setting 'monoclinic'
loop_
_space_group_symop_operation_xyz
x,y,z
-x,y,-z
1/2+x,1/2+y,z
1/2-x,1/2+y,-z
loop_
_atom_site_type_symbol
_atom_site_label
_atom_site_fract_x
_atom_site_fract_y
_atom_site_fract_z
Si Si1 0.756485 0.090200 0.535436
Si Si2 0.650514 0.790897 0.174095
Si Si3 0.882139 0.910040 0.377179
Si Si4 0.451577 0.091435 0.809865
Si Si5 0.334548 0.979312 0.206477
Si Si6 0.346973 0.652776 0.123668
O O1 0.844542 0.206143 0.662968
O O2 0.822450 0.976905 0.481901
O O3 0.655017 0.157093 0.358593
O O4 0.702637 0.021028 0.648797
O O5 0.784021 0.811909 0.233898
O O6 0.600614 0.946055 0.158405
O O7 0.597402 0.706201 0.992753
O O8 0.907434 0.043764 0.283352
O O9 0.000000 0.836581 0.500000
O O10 0.544399 0.038863 0.756799
O O11 0.500000 0.170048 0.000000
O O12 0.324228 0.806312 0.186306
O O13 0.254393 0.056012 0.019746
#
# Coordination Sequence:
#
# PCOD9128011 Si02
#       6
#     4   4   4   4   4   4
#     4  10  25  42  67 100 134 178 227 284 327 409
#     4  10  23  45  66  96 141 168 230 277 337 399
#     4  11  25  42  65  97 134 173 225 279 337 390
#     4  11  21  42  69 104 128 177 225 278 336 406
#     4  11  23  42  73  99 139 176 231 276 348 396
#     4  11  22  44  67  99 131 182 217 287 328 410
#
# _framework density 24.900148999999999
#
# number of rings (size 3 to 8) (size 9 to 14) (size 15 to 20)
#    0.000    1.333    3.333    1.500    7.000    2.667 
#    0.000    0.000    0.000    0.000    0.000    0.000 
#    0.000    0.000    0.000    0.000    0.000    0.000 
#
# Total GULP energy -67093.649658 kJ/mol
# GULP energy per Si atom -5591.137472 kJ/mol
# Density = 2.484348 g / cm^3
# Si number density = 24.900149 Si / 1000 Ang^3
#
#
#
# Elastic Constant Matrix: (Units=GPa)
#
#
# Indices 1 2 3 4 5 6 
#
# 1 121.0352 -5.3344 34.0687 0.0000 -5.1793 0.0000
# 2 -5.3344 74.2925 21.6199 0.0000 -6.2636 0.0000
# 3 34.0687 21.6199 137.3462 0.0000 -11.8171 0.0000
# 4 0.0000 0.0000 0.0000 28.3554 0.0000 -11.7562
# 5 -5.1793 -6.2636 -11.8171 0.0000 29.8292 0.0000
# 6 0.0000 0.0000 0.0000 -11.7562 0.0000 23.5984
#
#
#
# Elastic Compliance Matrix: (Units=1/GPa)
#
#
# Indices 1 2 3 4 5 6 
#
# 1 0.009036 0.001421 -0.002386 0.000000 0.000922 0.000000
# 2 0.001421 0.014465 -0.002430 0.000000 0.002322 0.000000
# 3 -0.002386 -0.002430 0.008464 0.000000 0.002429 0.000000
# 4 0.000000 0.000000 0.000000 0.044447 0.000000 0.022143
# 5 0.000922 0.002322 0.002429 0.000000 0.035134 0.000000
# 6 0.000000 0.000000 0.000000 0.022143 0.000000 0.053407
#
#
# Mechanical properties :
#
#
# Convention : Reuss Voigt Hill
#
# Bulk Modulus (GPa) = 39.72064 48.15358 43.93711
# Shear Modulus (GPa) = 27.75717 35.17790 31.46754
#
# Velocity S-wave (km/s) = 3.34239 3.76275 3.55878
# Velocity P-wave (km/s) = 5.55716 6.18533 5.87964
#
# Compressibility (1/GPa) = 0.02517583
#
# Stress axis : x y z
#
# Youngs Moduli (GPa) = 110.67300 69.13180 118.14692
#
# Poissons Ratio (x) = -0.09822 0.28185
# Poissons Ratio (y) = -0.15724 0.28706
# Poissons Ratio (z) = 0.26402 0.16797
#
# Static dielectric constant tensor:
#      x y z
#    x 2.009960 0.000000 0.034870 
#    y 0.000000 1.965270 0.000000 
#    z 0.034870 0.000000 2.042390 
# 
# From -- ./inp_files/27313.got.cif
#   From: 2010.05.17/outbox.cif.g08.bks.cpg/sg5_14_cif.got.tgz:27313.got - 2010.06.03 18:56:24.
