data_PCOD9128109
_publ_section_title
;
Structure prediction by ZEFSAII (Michael W. Deem and Ramdas Pophale) SiO2 
 PCOD9128109
Probable space group: C 2
;
_chemical_formula_sum "Si O2"
_cell_formula_units_Z 20
_cell_length_a 15.616827
_cell_length_b 10.121782
_cell_length_c 5.248947
_cell_angle_alpha 90.000000
_cell_angle_beta 74.505976
_cell_angle_gamma 90.000000
_cell_volume 799.548922
_symmetry_space_group_name_H-M "C 2"
_symmetry_group_IT_number 5
_symmetry_cell_setting 'monoclinic'
loop_
_space_group_symop_operation_xyz
x,y,z
-x,y,-z
1/2+x,1/2+y,z
1/2-x,1/2+y,-z
loop_
_atom_site_type_symbol
_atom_site_label
_atom_site_fract_x
_atom_site_fract_y
_atom_site_fract_z
Si Si1 0.500000 0.125000 0.000000
Si Si2 0.694286 0.795942 0.528791
Si Si3 0.169448 0.461811 0.051421
Si Si4 0.000000 0.051329 0.000000
Si Si5 0.640493 0.563051 0.246312
Si Si6 0.100760 0.834483 0.616368
O O1 0.537000 0.215739 0.741215
O O2 0.582787 0.044088 0.045362
O O3 0.677098 0.850300 0.824228
O O4 0.655250 0.655424 0.479875
O O5 0.800090 0.786342 0.414759
O O6 0.663341 0.899872 0.337109
O O7 0.262301 0.544527 0.956656
O O8 0.940524 0.127553 0.844978
O O9 0.071974 0.952095 0.824722
O O10 0.605478 0.415816 0.348322
#
# Coordination Sequence:
#
# PCOD9128109 Si02
#       6
#     2   4   4   2   4   4
#     4  11  24  53  74 110 147 202 247 320 362 479
#     4  11  25  48  76 106 157 197 243 321 372 456
#     4  11  26  48  74 111 152 199 251 303 396 437
#     4  11  22  43  70 106 147 188 261 296 372 445
#     4  11  24  46  74 114 149 199 255 314 379 448
#     4  10  23  46  73 107 140 198 253 304 370 438
#
# _framework density 25.014102999999999
#
# number of rings (size 3 to 8) (size 9 to 14) (size 15 to 20)
#    0.000    1.200    4.000    0.600    2.800    1.600 
#   18.000    0.000    0.000    0.000    0.000    0.000 
#    0.000    0.000    0.000    0.000    0.000    0.000 
#
# Total GULP energy -55974.845869 kJ/mol
# GULP energy per Si atom -5597.484587 kJ/mol
# Density = 2.495717 g / cm^3
# Si number density = 25.014103 Si / 1000 Ang^3
#
#
#
# Elastic Constant Matrix: (Units=GPa)
#
#
# Indices 1 2 3 4 5 6 
#
# 1 180.9287 61.5396 44.8939 0.0000 4.4229 0.0000
# 2 61.5396 76.2860 13.0001 0.0000 -9.0523 0.0000
# 3 44.8939 13.0001 63.9873 0.0000 8.9495 0.0000
# 4 0.0000 0.0000 0.0000 40.0818 0.0000 -13.7724
# 5 4.4229 -9.0523 8.9495 0.0000 42.6858 0.0000
# 6 0.0000 0.0000 0.0000 -13.7724 0.0000 37.6434
#
#
#
# Elastic Compliance Matrix: (Units=1/GPa)
#
#
# Indices 1 2 3 4 5 6 
#
# 1 0.008989 -0.006594 -0.004781 0.000000 -0.001327 0.000000
# 2 -0.006594 0.018963 0.000119 0.000000 0.004680 0.000000
# 3 -0.004781 0.000119 0.019456 0.000000 -0.003559 0.000000
# 4 0.000000 0.000000 0.000000 0.028536 0.000000 0.010440
# 5 -0.001327 0.004680 -0.003559 0.000000 0.025303 0.000000
# 6 0.000000 0.000000 0.000000 0.010440 0.000000 0.030385
#
#
# Mechanical properties :
#
#
# Convention : Reuss Voigt Hill
#
# Bulk Modulus (GPa) = 40.16742 62.22990 51.19866
# Shear Modulus (GPa) = 30.78021 37.53342 34.15681
#
# Velocity S-wave (km/s) = 3.51167 3.87782 3.69928
# Velocity P-wave (km/s) = 5.70397 6.70685 6.22564
#
# Compressibility (1/GPa) = 0.02489580
#
# Stress axis : x y z
#
# Youngs Moduli (GPa) = 111.25198 52.73493 51.39771
#
# Poissons Ratio (x) = 0.34772 0.24574
# Poissons Ratio (y) = 0.73357 -0.00612
# Poissons Ratio (z) = 0.53192 -0.00628
#
# Static dielectric constant tensor:
#      x y z
#    x 1.958370 0.000000 0.055120 
#    y 0.000000 1.956120 0.000000 
#    z 0.055120 0.000000 2.081480 
# 
# From -- ./inp_files/6507.got.cif
#   From: 2010.05.17/outbox.cif.g08.bks.cpg/sg5_4_cif.got.tgz:6507.got - 2010.06.03 18:56:24.
