data_PCOD9128577
_publ_section_title
;
Structure prediction by ZEFSAII (Michael W. Deem and Ramdas Pophale) SiO2 
 PCOD9128577
Probable space group: C 2
;
_chemical_formula_sum "Si O2"
_cell_formula_units_Z 20
_cell_length_a 5.326124
_cell_length_b 21.694808
_cell_length_c 8.276317
_cell_angle_alpha 90.000000
_cell_angle_beta 60.688693
_cell_angle_gamma 90.000000
_cell_volume 833.886760
_symmetry_space_group_name_H-M "C 2"
_symmetry_group_IT_number 5
_symmetry_cell_setting 'monoclinic'
loop_
_space_group_symop_operation_xyz
x,y,z
-x,y,-z
1/2+x,1/2+y,z
1/2-x,1/2+y,-z
loop_
_atom_site_type_symbol
_atom_site_label
_atom_site_fract_x
_atom_site_fract_y
_atom_site_fract_z
Si Si1 0.845949 0.960130 0.200332
Si Si2 0.000000 0.554052 0.500000
Si Si3 0.558392 0.765449 0.672633
Si Si4 0.741580 0.393874 0.299759
Si Si5 0.724891 0.152132 0.199242
Si Si6 0.000000 0.739838 0.000000
O O1 0.547216 0.925482 0.247212
O O2 0.095758 0.913561 0.179078
O O3 0.760658 0.008892 0.366913
O O4 0.000000 0.992352 0.000000
O O5 0.021934 0.599702 0.338700
O O6 0.500000 0.770477 0.500000
O O7 0.751332 0.820693 0.677594
O O8 0.664188 0.697632 0.692537
O O9 0.274486 0.777974 0.867280
O O10 0.500000 0.416176 0.500000
O O11 0.547830 0.196212 0.137772
O O12 0.000000 0.133465 0.000000
#
# Coordination Sequence:
#
# PCOD9128577 Si02
#       6
#     4   2   4   4   4   2
#     4  12  28  51  77 111 149 206 259 319 382 453
#     4  12  24  52  72 104 150 200 266 318 376 448
#     4  11  25  44  78 112 156 194 255 310 399 457
#     4  12  26  51  76 113 155 198 253 320 387 461
#     4  10  24  46  74 111 151 198 254 315 390 456
#     4  10  24  46  68 124 142 204 244 318 390 474
#
# _framework density 23.984069000000002
#
# number of rings (size 3 to 8) (size 9 to 14) (size 15 to 20)
#    0.000    0.800    2.000    3.600    8.400    3.200 
#   21.600    0.000    0.000    0.000    0.000    0.000 
#    0.000    0.000    0.000    0.000    0.000    0.000 
#
# Total GULP energy -55832.400490 kJ/mol
# GULP energy per Si atom -5583.240049 kJ/mol
# Density = 2.392948 g / cm^3
# Si number density = 23.984069 Si / 1000 Ang^3
#
#
#
# Elastic Constant Matrix: (Units=GPa)
#
#
# Indices 1 2 3 4 5 6 
#
# 1 101.4840 44.0025 22.5346 0.0000 4.1529 0.0000
# 2 44.0025 111.0409 72.6253 0.0000 -9.0661 0.0000
# 3 22.5346 72.6253 145.9914 0.0000 -3.6477 0.0000
# 4 0.0000 0.0000 0.0000 5.9216 0.0000 -37.3573
# 5 4.1529 -9.0661 -3.6477 0.0000 23.3100 0.0000
# 6 0.0000 0.0000 0.0000 -37.3573 0.0000 -50.5110
#
#
#
# Elastic Compliance Matrix: (Units=1/GPa)
#
#
# Indices 1 2 3 4 5 6 
#
# 1 0.012363 -0.005831 0.000884 0.000000 -0.004332 0.000000
# 2 -0.005831 0.016515 -0.007157 0.000000 0.006342 0.000000
# 3 0.000884 -0.007157 0.010240 0.000000 -0.001339 0.000000
# 4 0.000000 0.000000 0.000000 0.029806 0.000000 -0.022044
# 5 -0.004332 0.006342 -0.001339 0.000000 0.045929 0.000000
# 6 0.000000 0.000000 0.000000 -0.022044 0.000000 -0.003494
#
#
# Mechanical properties :
#
#
# Convention : Reuss Voigt Hill
#
# Bulk Modulus (GPa) = 67.06764 70.76010 68.91387
# Shear Modulus (GPa) = 35.57764 10.36771 22.97268
#
# Velocity S-wave (km/s) = 3.85565 2.08138 3.09824
# Velocity P-wave (km/s) = 6.91705 5.94501 6.44937
#
# Compressibility (1/GPa) = 0.01491032
#
# Stress axis : x y z
#
# Youngs Moduli (GPa) = 80.88626 60.54970 97.65398
#
# Poissons Ratio (x) = 0.35308 -0.08635
# Poissons Ratio (y) = 0.47166 0.69893
# Poissons Ratio (z) = -0.07152 0.43337
#
# Static dielectric constant tensor:
#      x y z
#    x 1.990610 0.000000 0.017130 
#    y 0.000000 1.903870 0.000000 
#    z 0.017130 0.000000 2.017930 
# 
# From -- ./inp_files/12410.got.cif
#   From: 2010.05.17/outbox.cif.g08.bks.cpg/sg5_7_cif.got.tgz:12410.got - 2010.06.03 18:56:24.
