data_PCOD9128293
_publ_section_title
;
Structure prediction by ZEFSAII (Michael W. Deem and Ramdas Pophale) SiO2 
 PCOD9128293
Probable space group: C 2
;
_chemical_formula_sum "Si O2"
_cell_formula_units_Z 18
_cell_length_a 7.606614
_cell_length_b 21.034843
_cell_length_c 9.069774
_cell_angle_alpha 90.000000
_cell_angle_beta 146.522243
_cell_angle_gamma 90.000000
_cell_volume 800.500824
_symmetry_space_group_name_H-M "C 2"
_symmetry_group_IT_number 5
_symmetry_cell_setting 'monoclinic'
loop_
_space_group_symop_operation_xyz
x,y,z
-x,y,-z
1/2+x,1/2+y,z
1/2-x,1/2+y,-z
loop_
_atom_site_type_symbol
_atom_site_label
_atom_site_fract_x
_atom_site_fract_y
_atom_site_fract_z
Si Si1 0.969884 0.142920 0.155786
Si Si2 0.783160 0.868330 0.589852
Si Si3 0.500000 0.458511 0.500000
Si Si4 0.682489 0.082909 0.349055
Si Si5 0.371607 0.788132 0.077626
O O1 0.640725 0.106202 0.945736
O O2 0.919226 0.216092 0.165813
O O3 0.000000 0.143126 0.000000
O O4 0.250743 0.106409 0.437805
O O5 0.500000 0.893288 0.500000
O O6 0.005780 0.917671 0.654519
O O7 0.593681 0.832718 0.329160
O O8 0.016293 0.817310 0.830380
O O9 0.215948 0.508168 0.337212
O O10 0.000000 0.112929 0.500000
O O11 0.500000 0.789138 0.000000
#
# Coordination Sequence:
#
# PCOD9128293 Si02
#       5
#     4   4   2   4   4
#     4  11  23  41  68 101 134 175 229 279 341 406
#     4  12  25  43  71 102 132 182 232 280 336 413
#     4  10  26  48  70  96 150 176 236 272 354 388
#     4  10  24  41  66  90 133 187 213 277 338 395
#     4  11  23  43  68  98 143 178 217 292 348 396
#
# _framework density 22.485921999999999
#
# number of rings (size 3 to 8) (size 9 to 14) (size 15 to 20)
#    0.667    0.444    2.222    3.333    0.000   14.222 
#    0.000    0.000    0.000    0.000    0.000    0.000 
#    0.000    0.000    0.000    0.000    0.000    0.000 
#
# Total GULP energy -50204.337478 kJ/mol
# GULP energy per Si atom -5578.259720 kJ/mol
# Density = 2.243474 g / cm^3
# Si number density = 22.485922 Si / 1000 Ang^3
#
#
#
# Elastic Constant Matrix: (Units=GPa)
#
#
# Indices 1 2 3 4 5 6 
#
# 1 98.9340 44.0662 14.1842 0.0000 -4.1027 0.0000
# 2 44.0662 103.2912 21.4040 0.0000 -12.2727 0.0000
# 3 14.1842 21.4040 109.9225 0.0000 -1.8936 0.0000
# 4 0.0000 0.0000 0.0000 611.5779 0.0000 -283.0313
# 5 -4.1027 -12.2727 -1.8936 0.0000 34.1703 0.0000
# 6 0.0000 0.0000 0.0000 -283.0313 0.0000 57.8524
#
#
#
# Elastic Compliance Matrix: (Units=1/GPa)
#
#
# Indices 1 2 3 4 5 6 
#
# 1 0.012523 -0.005269 -0.000597 0.000000 -0.000422 0.000000
# 2 -0.005269 0.012746 -0.001736 0.000000 0.003849 0.000000
# 3 -0.000597 -0.001736 0.009509 0.000000 -0.000168 0.000000
# 4 0.000000 0.000000 0.000000 -0.001294 0.000000 -0.006328
# 5 -0.000422 0.003849 -0.000168 0.000000 0.030588 0.000000
# 6 0.000000 0.000000 0.000000 -0.006328 0.000000 -0.013674
#
#
# Mechanical properties :
#
#
# Convention : Reuss Voigt Hill
#
# Bulk Modulus (GPa) = 51.08620 52.38406 51.73513
# Shear Modulus (GPa) = 69.32226 156.21966 112.77096
#
# Velocity S-wave (km/s) = 5.55843 8.34417 7.08948
# Velocity P-wave (km/s) = 7.99771 10.77871 9.49063
#
# Compressibility (1/GPa) = 0.01957476
#
# Stress axis : x y z
#
# Youngs Moduli (GPa) = 79.85522 78.45493 105.15829
#
# Poissons Ratio (x) = 0.41336 0.06280
# Poissons Ratio (y) = 0.42074 0.18253
# Poissons Ratio (z) = 0.04769 0.13618
#
# Static dielectric constant tensor:
#      x y z
#    x 2.019950 0.000000 -0.073110 
#    y 0.000000 1.847760 0.000000 
#    z -0.073110 0.000000 1.824250 
# 
# From -- ./inp_files/2561.got.cif
#   From: 2010.05.17/outbox.cif.g08.bks.cpg/sg5_2_cif.got.tgz:2561.got - 2010.06.03 18:56:24.
