data_PCOD9128588
_publ_section_title
;
Structure prediction by ZEFSAII (Michael W. Deem and Ramdas Pophale) SiO2 
 PCOD9128588
Probable space group: C 2
;
_chemical_formula_sum "Si O2"
_cell_formula_units_Z 26
_cell_length_a 15.420915
_cell_length_b 9.446197
_cell_length_c 7.652061
_cell_angle_alpha 90.000000
_cell_angle_beta 113.648497
_cell_angle_gamma 90.000000
_cell_volume 1021.062194
_symmetry_space_group_name_H-M "C 2"
_symmetry_group_IT_number 5
_symmetry_cell_setting 'monoclinic'
loop_
_space_group_symop_operation_xyz
x,y,z
-x,y,-z
1/2+x,1/2+y,z
1/2-x,1/2+y,-z
loop_
_atom_site_type_symbol
_atom_site_label
_atom_site_fract_x
_atom_site_fract_y
_atom_site_fract_z
Si Si1 0.707778 0.709230 0.671368
Si Si2 0.710119 0.296912 0.815293
Si Si3 0.006630 0.889563 0.800781
Si Si4 0.500000 0.618690 0.500000
Si Si5 0.673206 0.028997 0.948992
Si Si6 0.764167 0.461836 0.514748
Si Si7 0.468569 0.081362 0.677739
O O1 0.595429 0.705573 0.618515
O O2 0.772988 0.621640 0.858526
O O3 0.718135 0.614552 0.503114
O O4 0.745945 0.864337 0.662102
O O5 0.613211 0.348922 0.827499
O O6 0.792517 0.369705 0.996353
O O7 0.721300 0.368750 0.637979
O O8 0.704170 0.127526 0.810328
O O9 0.949944 0.744469 0.715796
O O10 0.980676 0.016170 0.649927
O O11 0.000000 0.923755 0.000000
O O12 0.560376 0.034518 0.861422
O O13 0.876811 0.486370 0.630769
O O14 0.500000 0.078854 0.500000
#
# Coordination Sequence:
#
# PCOD9128588 Si02
#       7
#     4   4   4   2   4   4   4
#     4  11  28  46  77 110 156 197 258 316 387 460
#     4  10  24  46  69 110 146 189 258 314 374 458
#     4  11  25  46  78 109 149 204 253 313 386 456
#     4  12  24  52  72 114 162 190 264 320 384 464
#     4  10  24  46  71 106 154 194 247 321 376 453
#     4  11  27  47  74 113 143 205 252 320 382 456
#     4  11  27  45  76 109 154 199 262 311 389 458
#
# _framework density 25.463678999999999
#
# number of rings (size 3 to 8) (size 9 to 14) (size 15 to 20)
#    0.000    1.231    3.846    0.000   18.308    1.231 
#    0.000    0.000    0.000    0.000    0.000    0.000 
#    0.000    0.000    0.000    0.000    0.000    0.000 
#
# Total GULP energy -72791.914898 kJ/mol
# GULP energy per Si atom -5599.378069 kJ/mol
# Density = 2.540572 g / cm^3
# Si number density = 25.463679 Si / 1000 Ang^3
#
#
#
# Elastic Constant Matrix: (Units=GPa)
#
#
# Indices 1 2 3 4 5 6 
#
# 1 143.2143 25.6801 49.6938 0.0000 20.9674 0.0000
# 2 25.6801 94.1902 3.6273 0.0000 -6.9029 0.0000
# 3 49.6938 3.6273 106.8653 0.0000 -15.5011 0.0000
# 4 0.0000 0.0000 0.0000 41.0805 0.0000 2.9810
# 5 20.9674 -6.9029 -15.5011 0.0000 49.2163 0.0000
# 6 0.0000 0.0000 0.0000 2.9810 0.0000 37.1742
#
#
#
# Elastic Compliance Matrix: (Units=1/GPa)
#
#
# Indices 1 2 3 4 5 6 
#
# 1 0.010537 -0.003145 -0.005772 0.000000 -0.006748 0.000000
# 2 -0.003145 0.011668 0.001570 0.000000 0.003471 0.000000
# 3 -0.005772 0.001570 0.012970 0.000000 0.006764 0.000000
# 4 0.000000 0.000000 0.000000 0.024485 0.000000 -0.001963
# 5 -0.006748 0.003471 0.006764 0.000000 0.025811 0.000000
# 6 0.000000 0.000000 0.000000 -0.001963 0.000000 0.027058
#
#
# Mechanical properties :
#
#
# Convention : Reuss Voigt Hill
#
# Bulk Modulus (GPa) = 48.82693 55.80800 52.31746
# Shear Modulus (GPa) = 37.29949 43.17878 40.23913
#
# Velocity S-wave (km/s) = 3.83144 4.12236 3.97956
# Velocity P-wave (km/s) = 6.22816 6.68002 6.45804
#
# Compressibility (1/GPa) = 0.02048050
#
# Stress axis : x y z
#
# Youngs Moduli (GPa) = 94.90035 85.70271 77.10361
#
# Poissons Ratio (x) = 0.26955 0.44505
# Poissons Ratio (y) = 0.29848 -0.12105
# Poissons Ratio (z) = 0.54778 -0.13455
#
# Static dielectric constant tensor:
#      x y z
#    x 1.987770 0.000000 -0.026200 
#    y 0.000000 2.014030 0.000000 
#    z -0.026200 0.000000 2.122680 
# 
# From -- ./inp_files/23407.got.cif
#   From: 2010.05.17/outbox.cif.g08.bks.cpg/sg5_12_cif.got.tgz:23407.got - 2010.06.03 18:56:24.
