data_PCOD9128489
_publ_section_title
;
Structure prediction by ZEFSAII (Michael W. Deem and Ramdas Pophale) SiO2 
 PCOD9128489
Probable space group: C 2
;
_chemical_formula_sum "Si O2"
_cell_formula_units_Z 22
_cell_length_a 14.316493
_cell_length_b 5.781314
_cell_length_c 21.739592
_cell_angle_alpha 90.000000
_cell_angle_beta 31.155727
_cell_angle_gamma 90.000000
_cell_volume 930.920080
_symmetry_space_group_name_H-M "C 2"
_symmetry_group_IT_number 5
_symmetry_cell_setting 'monoclinic'
loop_
_space_group_symop_operation_xyz
x,y,z
-x,y,-z
1/2+x,1/2+y,z
1/2-x,1/2+y,-z
loop_
_atom_site_type_symbol
_atom_site_label
_atom_site_fract_x
_atom_site_fract_y
_atom_site_fract_z
Si Si1 0.500000 0.883760 0.000000
Si Si2 0.286948 0.270071 0.176901
Si Si3 0.154533 0.890589 0.465007
Si Si4 0.881778 0.057683 0.961009
Si Si5 0.949271 0.338740 0.811380
Si Si6 0.533847 0.885013 0.553626
O O1 0.601027 0.752237 0.996980
O O2 0.343438 0.012620 0.126957
O O3 0.481380 0.374126 0.085190
O O4 0.174970 0.341187 0.179236
O O5 0.154347 0.343798 0.305802
O O6 0.349519 0.890542 0.322796
O O7 0.000000 0.896331 0.500000
O O8 0.119505 0.640744 0.518291
O O9 0.136557 0.140467 0.508912
O O10 0.951218 0.112731 0.853480
O O11 0.669384 0.002575 0.077437
O O12 0.500000 0.890426 0.500000
#
# Coordination Sequence:
#
# PCOD9128489 Si02
#       6
#     2   4   4   4   4   4
#     4  12  24  46  78 112 158 200 252 342 394 478
#     4  12  26  49  73 114 154 201 264 328 397 479
#     4  10  24  46  69 110 144 209 258 320 390 465
#     4  12  26  48  73 117 155 201 268 323 411 472
#     4  12  26  46  77 110 156 206 263 322 405 479
#     4  10  24  44  74 102 147 205 256 317 394 458
#
# _framework density 23.632531
#
# number of rings (size 3 to 8) (size 9 to 14) (size 15 to 20)
#    0.000    0.727    3.636    3.273    7.636    4.364 
#    0.000    0.000    0.000    0.000    0.000    0.000 
#    0.000    0.000    0.000    0.000    0.000    0.000 
#
# Total GULP energy -61299.805228 kJ/mol
# GULP energy per Si atom -5572.709566 kJ/mol
# Density = 2.357874 g / cm^3
# Si number density = 23.632531 Si / 1000 Ang^3
#
#
#
# Elastic Constant Matrix: (Units=GPa)
#
#
# Indices 1 2 3 4 5 6 
#
# 1 105.8091 16.8792 29.8740 -0.0002 -1.6834 0.0006
# 2 16.8792 114.1804 24.8608 -0.0007 -11.8629 0.0021
# 3 29.8740 24.8608 160.2857 0.0018 -36.5256 -0.0009
# 4 -0.0002 -0.0007 0.0018 106.7368 0.0002 -45.4430
# 5 -1.6834 -11.8629 -36.5256 0.0002 33.6963 -0.0005
# 6 0.0006 0.0021 -0.0009 -45.4430 -0.0005 43.9330
#
#
#
# Elastic Compliance Matrix: (Units=1/GPa)
#
#
# Indices 1 2 3 4 5 6 
#
# 1 0.010253 -0.001272 -0.002256 0.000000 -0.002381 0.000000
# 2 -0.001272 0.009348 -0.000634 0.000000 0.002540 -0.000001
# 3 -0.002256 -0.000634 0.008873 0.000000 0.009282 0.000000
# 4 0.000000 0.000000 0.000000 0.016741 0.000000 0.017317
# 5 -0.002381 0.002540 0.009282 0.000000 0.040513 0.000001
# 6 0.000000 -0.000001 0.000000 0.017317 0.000001 0.040674
#
#
# Mechanical properties :
#
#
# Convention : Reuss Voigt Hill
#
# Bulk Modulus (GPa) = 49.62879 58.16704 53.89792
# Shear Modulus (GPa) = 35.34975 57.45065 46.40020
#
# Velocity S-wave (km/s) = 3.87176 4.93586 4.43584
# Velocity P-wave (km/s) = 6.40572 7.55978 7.00655
#
# Compressibility (1/GPa) = 0.02014959
#
# Stress axis : x y z
#
# Youngs Moduli (GPa) = 97.53206 106.97425 112.70300
#
# Poissons Ratio (x) = 0.13605 0.25430
# Poissons Ratio (y) = 0.12404 0.07145
# Poissons Ratio (z) = 0.22007 0.06782
#
# Static dielectric constant tensor:
#      x y z
#    x 1.794500 0.000000 -0.051390 
#    y 0.000000 2.105810 0.000000 
#    z -0.051390 0.000000 1.743250 
# 
# From -- ./inp_files/68546.got.cif
#   From: 2010.05.17/outbox.cif.g08.bks.cpg/sg5_35_cif.got.tgz:68546.got - 2010.06.03 18:56:24.
