data_PCOD9128820
_publ_section_title
;
Structure prediction by ZEFSAII (Michael W. Deem and Ramdas Pophale) SiO2 
 PCOD9128820
Probable space group: C 2
;
_chemical_formula_sum "Si O2"
_cell_formula_units_Z 30
_cell_length_a 15.197728
_cell_length_b 18.333166
_cell_length_c 5.672109
_cell_angle_alpha 90.000000
_cell_angle_beta 121.185809
_cell_angle_gamma 90.000000
_cell_volume 1352.000750
_symmetry_space_group_name_H-M "C 2"
_symmetry_group_IT_number 5
_symmetry_cell_setting 'monoclinic'
loop_
_space_group_symop_operation_xyz
x,y,z
-x,y,-z
1/2+x,1/2+y,z
1/2-x,1/2+y,-z
loop_
_atom_site_type_symbol
_atom_site_label
_atom_site_fract_x
_atom_site_fract_y
_atom_site_fract_z
Si Si1 0.214853 0.846460 0.045431
Si Si2 0.243090 0.990085 0.379504
Si Si3 0.000000 0.324853 0.000000
Si Si4 0.119965 0.573893 0.747378
Si Si5 0.608420 0.739752 0.509451
Si Si6 0.850235 0.427609 0.922902
Si Si7 0.059154 0.720773 0.833526
Si Si8 0.436096 0.576383 0.655506
O O1 0.303072 0.789438 0.255188
O O2 0.203569 0.922951 0.167531
O O3 0.253051 0.877191 0.848231
O O4 0.114862 0.797943 0.918573
O O5 0.292971 0.061931 0.329819
O O6 0.151980 0.016735 0.421182
O O7 0.339490 0.951994 0.641094
O O8 0.912530 0.275432 0.772682
O O9 0.948305 0.378887 0.113381
O O10 0.131434 0.649554 0.901848
O O11 0.000000 0.570212 0.500000
O O12 0.141611 0.502505 0.929552
O O13 0.500000 0.745890 0.500000
O O14 0.619115 0.653670 0.479416
O O15 0.000000 0.721091 0.500000
O O16 0.000000 0.710461 0.000000
O O17 0.500000 0.560470 0.500000
O O18 0.500000 0.581483 0.000000
#
# Coordination Sequence:
#
# PCOD9128820 Si02
#       8
#     4   4   2   4   4   4   4   4
#     4  11  26  46  70 105 145 193 249 303 369 440
#     4  11  26  46  72 106 142 196 241 305 368 442
#     4  12  20  36  68 100 146 178 226 300 374 438
#     4  10  25  43  71 107 143 184 241 299 377 439
#     4  11  23  42  67 102 141 180 233 300 367 433
#     4  11  24  38  69 104 146 185 238 298 373 441
#     4  11  29  51  76 106 148 199 255 308 363 436
#     4  11  28  49  73 104 145 194 250 299 358 432
#
# _framework density 22.189335
#
# number of rings (size 3 to 8) (size 9 to 14) (size 15 to 20)
#    0.000    1.067    3.333    0.800   14.000    2.667 
#    0.000    0.000    0.000    0.000    0.000    0.000 
#    0.000    0.000    0.000    0.000    0.000    0.000 
#
# Total GULP energy -83564.276933 kJ/mol
# GULP energy per Si atom -5570.951796 kJ/mol
# Density = 2.213883 g / cm^3
# Si number density = 22.189335 Si / 1000 Ang^3
#
#
#
# Elastic Constant Matrix: (Units=GPa)
#
#
# Indices 1 2 3 4 5 6 
#
# 1 105.2983 69.3301 28.2921 0.0000 -23.6953 0.0000
# 2 69.3301 135.2539 19.3212 0.0000 -10.4672 0.0000
# 3 28.2921 19.3212 62.7983 0.0000 -9.9429 0.0000
# 4 0.0000 0.0000 0.0000 32.4399 0.0000 -6.5766
# 5 -23.6953 -10.4672 -9.9429 0.0000 23.9935 0.0000
# 6 0.0000 0.0000 0.0000 -6.5766 0.0000 54.5970
#
#
#
# Elastic Compliance Matrix: (Units=1/GPa)
#
#
# Indices 1 2 3 4 5 6 
#
# 1 0.018918 -0.008094 -0.003889 0.000000 0.013540 0.000000
# 2 -0.008094 0.011345 -0.000349 0.000000 -0.003188 0.000000
# 3 -0.003889 -0.000349 0.018356 0.000000 0.003614 0.000000
# 4 0.000000 0.000000 0.000000 0.031598 0.000000 0.003806
# 5 0.013540 -0.003188 0.003614 0.000000 0.055157 0.000000
# 6 0.000000 0.000000 0.000000 0.003806 0.000000 0.018775
#
#
# Mechanical properties :
#
#
# Convention : Reuss Voigt Hill
#
# Bulk Modulus (GPa) = 41.74408 59.69305 50.71857
# Shear Modulus (GPa) = 26.76721 34.63321 30.70021
#
# Velocity S-wave (km/s) = 3.47696 3.95499 3.72365
# Velocity P-wave (km/s) = 5.91376 6.91491 6.43384
#
# Compressibility (1/GPa) = 0.02395549
#
# Stress axis : x y z
#
# Youngs Moduli (GPa) = 52.86076 88.14169 54.47938
#
# Poissons Ratio (x) = 0.71339 0.21186
# Poissons Ratio (y) = 0.42784 0.01902
# Poissons Ratio (z) = 0.20557 0.03077
#
# Static dielectric constant tensor:
#      x y z
#    x 1.842320 0.000000 0.005190 
#    y 0.000000 1.759320 0.000000 
#    z 0.005190 0.000000 1.474030 
# 
# From -- ./inp_files/7324.got.cif
#   From: 2010.05.17/outbox.cif.g08.bks.cpg/sg5_4_cif.got.tgz:7324.got - 2010.06.03 18:56:24.
