data_PCOD9128569
_publ_section_title
;
Structure prediction by ZEFSAII (Michael W. Deem and Ramdas Pophale) SiO2 
 PCOD9128569
Probable space group: C 2
;
_chemical_formula_sum "Si O2"
_cell_formula_units_Z 28
_cell_length_a 14.160390
_cell_length_b 5.355258
_cell_length_c 19.514570
_cell_angle_alpha 90.000000
_cell_angle_beta 126.985933
_cell_angle_gamma 90.000000
_cell_volume 1182.070949
_symmetry_space_group_name_H-M "C 2"
_symmetry_group_IT_number 5
_symmetry_cell_setting 'monoclinic'
loop_
_space_group_symop_operation_xyz
x,y,z
-x,y,-z
1/2+x,1/2+y,z
1/2-x,1/2+y,-z
loop_
_atom_site_type_symbol
_atom_site_label
_atom_site_fract_x
_atom_site_fract_y
_atom_site_fract_z
Si Si1 0.066753 0.478940 0.767996
Si Si2 0.303571 0.355843 0.816462
Si Si3 0.678580 0.036250 0.300933
Si Si4 0.858295 0.686364 0.333223
Si Si5 0.725308 0.753346 0.529399
Si Si6 0.500000 0.259300 0.000000
Si Si7 0.828251 0.588374 0.040551
Si Si8 0.000000 0.341145 0.500000
O O1 0.174980 0.294550 0.793952
O O2 0.066757 0.673802 0.704044
O O3 0.110733 0.597445 0.858195
O O4 0.934567 0.381111 0.722120
O O5 0.347886 0.142806 0.785468
O O6 0.266583 0.579412 0.750510
O O7 0.402524 0.414147 0.915022
O O8 0.697672 0.243023 0.367892
O O9 0.810449 0.926865 0.350225
O O10 0.920910 0.512650 0.415615
O O11 0.768153 0.525509 0.501114
O O12 0.589177 0.698859 0.489310
O O13 0.423762 0.102745 0.021167
O O14 0.755050 0.331453 0.003235
#
# Coordination Sequence:
#
# PCOD9128569 Si02
#       8
#     4   4   4   4   4   2   4   2
#     4  10  24  46  67 108 146 194 251 311 372 452
#     4  10  24  49  66 112 145 196 256 306 383 447
#     4  12  24  48  72 104 153 199 249 322 376 446
#     4  10  25  47  71 108 147 196 258 306 379 449
#     4  12  28  47  76 114 148 200 259 307 383 455
#     4  12  24  48  78 112 154 200 250 322 380 462
#     4  12  27  46  73 110 146 193 251 307 379 452
#     4  12  24  52  72 110 156 196 254 326 372 448
#
# _framework density 23.687242000000001
#
# number of rings (size 3 to 8) (size 9 to 14) (size 15 to 20)
#    0.857    0.000    4.286    1.714    2.000    5.143 
#    2.571    0.000    0.000    0.000    0.000    0.000 
#    0.000    0.000    0.000    0.000    0.000    0.000 
#
# Total GULP energy -78101.680494 kJ/mol
# GULP energy per Si atom -5578.691464 kJ/mol
# Density = 2.363333 g / cm^3
# Si number density = 23.687242 Si / 1000 Ang^3
#
#
#
# Elastic Constant Matrix: (Units=GPa)
#
#
# Indices 1 2 3 4 5 6 
#
# 1 177.0572 15.0934 27.9902 0.0000 -6.1748 0.0000
# 2 15.0934 42.0883 11.4786 0.0000 -9.8910 0.0000
# 3 27.9902 11.4786 122.8797 0.0000 -15.4486 0.0000
# 4 0.0000 0.0000 0.0000 -9.7665 0.0000 -7.5524
# 5 -6.1748 -9.8910 -15.4486 0.0000 39.8435 0.0000
# 6 0.0000 0.0000 0.0000 -7.5524 0.0000 25.4027
#
#
#
# Elastic Compliance Matrix: (Units=1/GPa)
#
#
# Indices 1 2 3 4 5 6 
#
# 1 0.005992 -0.001820 -0.001193 0.000000 0.000014 0.000000
# 2 -0.001820 0.026107 -0.001309 0.000000 0.005691 0.000000
# 3 -0.001193 -0.001309 0.008902 0.000000 0.002942 0.000000
# 4 0.000000 0.000000 0.000000 -0.083251 0.000000 -0.024751
# 5 0.000014 0.005691 0.002942 0.000000 0.027654 0.000000
# 6 0.000000 0.000000 0.000000 -0.024751 0.000000 0.032007
#
#
# Mechanical properties :
#
#
# Convention : Reuss Voigt Hill
#
# Bulk Modulus (GPa) = 30.90508 50.12773 40.51641
# Shear Modulus (GPa) = 135.72013 30.26013 82.99013
#
# Velocity S-wave (km/s) = 7.57767 3.57807 5.92553
# Velocity P-wave (km/s) = 9.46768 6.18695 7.99735
#
# Compressibility (1/GPa) = 0.03235714
#
# Stress axis : x y z
#
# Youngs Moduli (GPa) = 166.88470 38.30427 112.33548
#
# Poissons Ratio (x) = 0.06972 0.13403
# Poissons Ratio (y) = 0.30375 0.14700
# Poissons Ratio (z) = 0.19911 0.05012
#
# Static dielectric constant tensor:
#      x y z
#    x 1.929780 0.000000 0.012280 
#    y 0.000000 1.915420 0.000000 
#    z 0.012280 0.000000 1.923420 
# 
# From -- ./inp_files/65713.got.cif
#   From: 2010.05.17/outbox.cif.g08.bks.cpg/sg5_33_cif.got.tgz:65713.got - 2010.06.03 18:56:24.
