data_PCOD9128557
_publ_section_title
;
Structure prediction by ZEFSAII (Michael W. Deem and Ramdas Pophale) SiO2 
 PCOD9128557
Probable space group: C 2
;
_chemical_formula_sum "Si O2"
_cell_formula_units_Z 30
_cell_length_a 15.891586
_cell_length_b 4.881456
_cell_length_c 15.740992
_cell_angle_alpha 90.000000
_cell_angle_beta 110.359758
_cell_angle_gamma 90.000000
_cell_volume 1144.807086
_symmetry_space_group_name_H-M "C 2"
_symmetry_group_IT_number 5
_symmetry_cell_setting 'monoclinic'
loop_
_space_group_symop_operation_xyz
x,y,z
-x,y,-z
1/2+x,1/2+y,z
1/2-x,1/2+y,-z
loop_
_atom_site_type_symbol
_atom_site_label
_atom_site_fract_x
_atom_site_fract_y
_atom_site_fract_z
Si Si1 0.785660 0.638140 0.141905
Si Si2 0.058743 0.279478 0.847672
Si Si3 0.500000 0.825771 0.000000
Si Si4 0.827976 0.654007 0.879263
Si Si5 0.755734 0.236032 0.557291
Si Si6 0.615396 0.044778 0.643182
Si Si7 0.986337 0.027347 0.329829
Si Si8 0.388837 0.108884 0.713113
O O1 0.861260 0.494960 0.111041
O O2 0.697013 0.452751 0.097712
O O3 0.824075 0.571985 0.249927
O O4 0.750664 0.944533 0.121479
O O5 0.071010 0.055020 0.778650
O O6 0.976630 0.449932 0.777369
O O7 0.027360 0.160193 0.925818
O O8 0.580628 0.022669 0.056971
O O9 0.833088 0.672377 0.778264
O O10 0.711073 0.499025 0.494938
O O11 0.684868 0.069197 0.590592
O O12 0.832246 0.397549 0.636573
O O13 0.555052 0.311468 0.620811
O O14 0.541871 0.806544 0.631995
O O15 0.075430 0.876419 0.323998
#
# Coordination Sequence:
#
# PCOD9128557 Si02
#       8
#     4   4   2   4   4   4   4   4
#     4  11  22  43  74 105 133 208 249 302 373 460
#     4  10  24  45  75 104 152 195 258 316 379 455
#     4  10  26  50  60 118 150 194 246 330 376 444
#     4  11  26  42  74 104 151 196 250 310 376 452
#     4  12  29  47  77 116 160 196 253 328 397 469
#     4  11  23  45  76 112 149 190 260 308 384 465
#     4  11  22  43  79 107 143 204 252 310 370 473
#     4  11  25  45  76 111 149 199 257 304 391 459
#
# _framework density 26.205286000000001
#
# number of rings (size 3 to 8) (size 9 to 14) (size 15 to 20)
#    0.000    1.067    4.000    2.400    7.467    1.600 
#    2.400    0.667    2.933    0.000    0.000    0.000 
#    0.000    0.000    0.000    0.000    0.000    0.000 
#
# Total GULP energy -83889.600021 kJ/mol
# GULP energy per Si atom -5592.640001 kJ/mol
# Density = 2.614564 g / cm^3
# Si number density = 26.205286 Si / 1000 Ang^3
#
#
#
# Elastic Constant Matrix: (Units=GPa)
#
#
# Indices 1 2 3 4 5 6 
#
# 1 93.7082 31.9315 43.7518 0.0000 -16.0630 0.0000
# 2 31.9315 122.3032 22.8472 0.0001 -11.8031 -0.0001
# 3 43.7518 22.8472 82.5641 0.0000 1.8485 0.0000
# 4 0.0000 0.0001 0.0000 25.3261 0.0000 6.5132
# 5 -16.0630 -11.8031 1.8485 0.0000 45.0160 0.0000
# 6 0.0000 -0.0001 0.0000 6.5132 0.0000 32.5519
#
#
#
# Elastic Compliance Matrix: (Units=1/GPa)
#
#
# Indices 1 2 3 4 5 6 
#
# 1 0.016123 -0.002170 -0.008066 0.000000 0.005515 0.000000
# 2 -0.002170 0.009172 -0.001426 0.000000 0.001689 0.000000
# 3 -0.008066 -0.001426 0.016869 0.000000 -0.003945 0.000000
# 4 0.000000 0.000000 0.000000 0.041627 0.000000 -0.008329
# 5 0.005515 0.001689 -0.003945 0.000000 0.024787 0.000000
# 6 0.000000 0.000000 0.000000 -0.008329 0.000000 0.032387
#
#
# Mechanical properties :
#
#
# Convention : Reuss Voigt Hill
#
# Bulk Modulus (GPa) = 53.08185 55.07074 54.07629
# Shear Modulus (GPa) = 29.31349 33.91514 31.61431
#
# Velocity S-wave (km/s) = 3.34819 3.60142 3.47711
# Velocity P-wave (km/s) = 5.93694 6.19309 6.06637
#
# Compressibility (1/GPa) = 0.01883883
#
# Stress axis : x y z
#
# Youngs Moduli (GPa) = 62.02509 109.02266 59.27939
#
# Poissons Ratio (x) = 0.23660 0.47818
# Poissons Ratio (y) = 0.13461 0.08453
# Poissons Ratio (z) = 0.50032 0.15547
#
# Static dielectric constant tensor:
#      x y z
#    x 2.114320 0.000000 0.015590 
#    y 0.000000 2.040950 0.000000 
#    z 0.015590 0.000000 2.080690 
# 
# From -- ./inp_files/61125.got.cif
#   From: 2010.05.17/outbox.cif.g08.bks.cpg/sg5_31_cif.got.tgz:61125.got - 2010.06.03 18:56:24.
