data_PCOD9128167
_publ_section_title
;
Structure prediction by ZEFSAII (Michael W. Deem and Ramdas Pophale) SiO2 
 PCOD9128167
Probable space group: C 2
;
_chemical_formula_sum "Si O2"
_cell_formula_units_Z 20
_cell_length_a 25.820236
_cell_length_b 4.923519
_cell_length_c 10.012534
_cell_angle_alpha 90.000000
_cell_angle_beta 139.941977
_cell_angle_gamma 90.000000
_cell_volume 819.164134
_symmetry_space_group_name_H-M "C 2"
_symmetry_group_IT_number 5
_symmetry_cell_setting 'monoclinic'
loop_
_space_group_symop_operation_xyz
x,y,z
-x,y,-z
1/2+x,1/2+y,z
1/2-x,1/2+y,-z
loop_
_atom_site_type_symbol
_atom_site_label
_atom_site_fract_x
_atom_site_fract_y
_atom_site_fract_z
Si Si1 0.500000 0.794150 0.500000
Si Si2 0.405259 0.901240 0.062420
Si Si3 0.855625 0.102510 0.376868
Si Si4 0.207024 0.903971 0.164432
Si Si5 0.500000 0.995829 0.000000
Si Si6 0.643778 0.084648 0.446356
O O1 0.424940 0.619716 0.405199
O O2 0.536287 0.958093 0.696801
O O3 0.344364 0.661070 0.980609
O O4 0.353992 0.165208 0.925536
O O5 0.454322 0.831317 0.025842
O O6 0.770528 0.260688 0.185728
O O7 0.885806 0.294466 0.556845
O O8 0.846101 0.802879 0.415195
O O9 0.263162 0.006488 0.399375
O O10 0.572516 0.169849 0.209163
#
# Coordination Sequence:
#
# PCOD9128167 Si02
#       6
#     2   4   4   4   2   4
#     4  12  28  48  78 110 154 186 254 298 380 422
#     4  12  27  46  79 108 146 200 236 314 359 444
#     4  10  23  48  72 107 145 191 241 304 352 444
#     4  10  23  50  75 108 144 196 248 296 371 430
#     4  12  28  48  78 110 154 186 254 298 380 422
#     4  10  23  48  72 107 145 191 241 304 352 444
#
# _framework density 24.415133000000001
#
# number of rings (size 3 to 8) (size 9 to 14) (size 15 to 20)
#    1.200    0.000    4.000    0.000    2.800    9.600 
#    0.000    0.000    0.000    0.000    0.000    0.000 
#    0.000    0.000    0.000    0.000    0.000    0.000 
#
# Total GULP energy -55694.419868 kJ/mol
# GULP energy per Si atom -5569.441987 kJ/mol
# Density = 2.435956 g / cm^3
# Si number density = 24.415133 Si / 1000 Ang^3
#
#
#
# Elastic Constant Matrix: (Units=GPa)
#
#
# Indices 1 2 3 4 5 6 
#
# 1 89.2269 3.0420 62.1242 0.0001 5.0622 -0.0002
# 2 3.0420 77.2689 35.3275 0.0000 4.7085 0.0006
# 3 62.1242 35.3275 171.8141 0.0000 21.0673 0.0000
# 4 0.0001 0.0000 0.0000 24.4444 0.0000 0.1224
# 5 5.0622 4.7085 21.0673 0.0000 20.0005 -0.0001
# 6 -0.0002 0.0006 0.0000 0.1224 -0.0001 16.9445
#
#
#
# Elastic Compliance Matrix: (Units=1/GPa)
#
#
# Indices 1 2 3 4 5 6 
#
# 1 0.015372 0.002125 -0.006266 0.000000 0.002209 0.000000
# 2 0.002125 0.014580 -0.003766 0.000000 -0.000004 -0.000001
# 3 -0.006266 -0.003766 0.009826 0.000000 -0.007878 0.000000
# 4 0.000000 0.000000 0.000000 0.040911 0.000000 -0.000296
# 5 0.002209 -0.000004 -0.007878 0.000000 0.057738 0.000000
# 6 0.000000 -0.000001 0.000000 -0.000296 0.000000 0.059018
#
#
# Mechanical properties :
#
#
# Convention : Reuss Voigt Hill
#
# Bulk Modulus (GPa) = 41.72768 59.92192 50.82480
# Shear Modulus (GPa) = 22.59904 28.13230 25.36567
#
# Velocity S-wave (km/s) = 3.04569 3.39816 3.22674
# Velocity P-wave (km/s) = 5.43105 6.32399 5.89446
#
# Compressibility (1/GPa) = 0.02396491
#
# Stress axis : x y z
#
# Youngs Moduli (GPa) = 65.05167 68.58661 101.76873
#
# Poissons Ratio (x) = -0.14575 0.63770
# Poissons Ratio (y) = -0.13824 0.38324
# Poissons Ratio (z) = 0.40762 0.25828
#
# Static dielectric constant tensor:
#      x y z
#    x 2.005890 0.000000 -0.010350 
#    y 0.000000 1.850490 0.000000 
#    z -0.010350 0.000000 2.003650 
# 
# From -- ./inp_files/48186.got.cif
#   From: 2010.05.17/outbox.cif.g08.bks.cpg/sg5_25_cif.got.tgz:48186.got - 2010.06.03 18:56:24.
