data_PCOD9128171
_publ_section_title
;
Structure prediction by ZEFSAII (Michael W. Deem and Ramdas Pophale) SiO2 
 PCOD9128171
Probable space group: C 2
;
_chemical_formula_sum "Si O2"
_cell_formula_units_Z 24
_cell_length_a 9.291318
_cell_length_b 10.786723
_cell_length_c 15.472445
_cell_angle_alpha 90.000000
_cell_angle_beta 37.639174
_cell_angle_gamma 90.000000
_cell_volume 946.987563
_symmetry_space_group_name_H-M "C 2"
_symmetry_group_IT_number 5
_symmetry_cell_setting 'monoclinic'
loop_
_space_group_symop_operation_xyz
x,y,z
-x,y,-z
1/2+x,1/2+y,z
1/2-x,1/2+y,-z
loop_
_atom_site_type_symbol
_atom_site_label
_atom_site_fract_x
_atom_site_fract_y
_atom_site_fract_z
Si Si1 0.813910 0.399780 0.213311
Si Si2 0.146166 0.675057 0.806964
Si Si3 0.803646 0.561057 0.654658
Si Si4 0.333415 0.307187 0.378026
Si Si5 0.906688 0.187451 0.951421
Si Si6 0.998738 0.369934 0.313523
O O1 0.765994 0.539779 0.209167
O O2 0.600725 0.314184 0.282724
O O3 0.052241 0.336031 0.065915
O O4 0.853030 0.395714 0.297235
O O5 0.203851 0.708707 0.679723
O O6 0.266662 0.784721 0.805047
O O7 0.863520 0.665129 0.941273
O O8 0.722269 0.439990 0.639600
O O9 0.578971 0.635077 0.795314
O O10 0.000000 0.624429 0.500000
O O11 0.929946 0.500665 0.677904
O O12 0.162408 0.297537 0.540564
O O13 0.000000 0.138317 0.000000
#
# Coordination Sequence:
#
# PCOD9128171 Si02
#       6
#     4   4   4   4   4   4
#     4  12  27  45  72 111 146 195 250 297 373 436
#     4  11  26  48  72 104 153 197 241 308 367 436
#     4   9  22  47  77 107 147 194 246 306 367 436
#     4  10  23  48  75 108 152 190 248 304 364 436
#     4  12  26  47  73 109 151 196 246 309 365 438
#     4  10  24  46  75 112 145 195 247 303 367 437
#
# _framework density 25.343523000000001
#
# number of rings (size 3 to 8) (size 9 to 14) (size 15 to 20)
#    0.000    1.333    1.667    3.000    7.000    4.667 
#    0.000    0.000    0.000    0.000    0.000    0.000 
#    0.000    0.000    0.000    0.000    0.000    0.000 
#
# Total GULP energy -67229.947477 kJ/mol
# GULP energy per Si atom -5602.495623 kJ/mol
# Density = 2.528584 g / cm^3
# Si number density = 25.343523 Si / 1000 Ang^3
#
#
#
# Elastic Constant Matrix: (Units=GPa)
#
#
# Indices 1 2 3 4 5 6 
#
# 1 104.3403 -0.8014 -2.4166 -0.0003 -7.8687 0.0000
# 2 -0.8014 78.1464 13.9698 -0.0003 0.9478 0.0002
# 3 -2.4166 13.9698 107.1798 -0.0023 2.4949 0.0006
# 4 -0.0003 -0.0003 -0.0023 34.9095 0.0007 -9.8775
# 5 -7.8687 0.9478 2.4949 0.0007 40.0157 -0.0001
# 6 0.0000 0.0002 0.0006 -9.8775 -0.0001 36.3208
#
#
#
# Elastic Compliance Matrix: (Units=1/GPa)
#
#
# Indices 1 2 3 4 5 6 
#
# 1 0.009732 0.000047 0.000169 0.000000 0.001902 0.000000
# 2 0.000047 0.013104 -0.001702 0.000000 -0.000195 0.000000
# 3 0.000169 -0.001702 0.009568 0.000001 -0.000523 0.000000
# 4 0.000000 0.000000 0.000001 0.031033 -0.000001 0.008440
# 5 0.001902 -0.000195 -0.000523 -0.000001 0.025401 0.000000
# 6 0.000000 0.000000 0.000000 0.008440 0.000000 0.029828
#
#
# Mechanical properties :
#
#
# Convention : Reuss Voigt Hill
#
# Bulk Modulus (GPa) = 33.97907 34.57445 34.27676
# Shear Modulus (GPa) = 38.03748 40.84351 39.44050
#
# Velocity S-wave (km/s) = 3.87832 4.01882 3.94920
# Velocity P-wave (km/s) = 5.78719 5.93351 5.86081
#
# Compressibility (1/GPa) = 0.02942988
#
# Stress axis : x y z
#
# Youngs Moduli (GPa) = 102.75657 76.31461 104.51524
#
# Poissons Ratio (x) = -0.00355 -0.01767
# Poissons Ratio (y) = -0.00478 0.17792
# Poissons Ratio (z) = -0.01737 0.12991
#
# Static dielectric constant tensor:
#      x y z
#    x 2.015070 0.000000 0.033070 
#    y 0.000000 1.990270 0.000000 
#    z 0.033070 0.000000 2.017210 
# 
# From -- ./inp_files/65212.got.cif
#   From: 2010.05.17/outbox.cif.g08.bks.cpg/sg5_33_cif.got.tgz:65212.got - 2010.06.03 18:56:24.
