data_PCOD9128784
_publ_section_title
;
Structure prediction by ZEFSAII (Michael W. Deem and Ramdas Pophale) SiO2 
 PCOD9128784
Probable space group: C 2
;
_chemical_formula_sum "Si O2"
_cell_formula_units_Z 22
_cell_length_a 9.135298
_cell_length_b 8.150885
_cell_length_c 18.679970
_cell_angle_alpha 90.000000
_cell_angle_beta 38.288234
_cell_angle_gamma 90.000000
_cell_volume 861.841866
_symmetry_space_group_name_H-M "C 2"
_symmetry_group_IT_number 5
_symmetry_cell_setting 'monoclinic'
loop_
_space_group_symop_operation_xyz
x,y,z
-x,y,-z
1/2+x,1/2+y,z
1/2-x,1/2+y,-z
loop_
_atom_site_type_symbol
_atom_site_label
_atom_site_fract_x
_atom_site_fract_y
_atom_site_fract_z
Si Si1 0.247689 0.500000 0.032469
Si Si2 0.000000 0.118095 0.500000
Si Si3 0.486331 0.201196 0.663378
Si Si4 0.462345 0.536454 0.676931
Si Si5 0.500000 0.121865 0.500000
Si Si6 0.276483 0.875746 0.809551
Si Si7 0.000000 0.328426 0.000000
O O1 0.146235 0.394962 0.137924
O O2 0.079025 0.465580 0.030330
O O3 0.311240 0.681443 0.041999
O O4 0.502099 0.423555 0.914257
O O5 0.237904 0.211662 0.426523
O O6 0.060380 0.038372 0.400266
O O7 0.372538 0.361949 0.742656
O O8 0.454444 0.212941 0.591288
O O9 0.401630 0.022775 0.718662
O O10 0.742862 0.543849 0.584993
O O11 0.341889 0.699688 0.753102
#
# Coordination Sequence:
#
# PCOD9128784 Si02
#       7
#     4   2   4   4   2   4   2
#     4  10  26  58  78 122 160 210 264 356 398 511
#     4  10  26  44  68 108 154 202 262 322 396 482
#     4  11  25  46  69 111 151 206 260 322 402 481
#     4  11  25  44  75 103 159 204 256 331 395 486
#     4  10  26  44  68 108 154 202 262 322 396 482
#     4  10  26  49  77 118 154 206 279 324 420 482
#     4  10  24  54  90 104 168 212 270 328 434 468
#
# _framework density 25.526723
#
# number of rings (size 3 to 8) (size 9 to 14) (size 15 to 20)
#    0.000    1.818    0.000    1.091   15.273    8.000 
#   13.091    3.636    0.000    0.000    0.000    0.000 
#    0.000    0.000    0.000    0.000    0.000    0.000 
#
# Total GULP energy -61290.875782 kJ/mol
# GULP energy per Si atom -5571.897798 kJ/mol
# Density = 2.546862 g / cm^3
# Si number density = 25.526723 Si / 1000 Ang^3
#
#
#
# Elastic Constant Matrix: (Units=GPa)
#
#
# Indices 1 2 3 4 5 6 
#
# 1 227.2492 52.6021 36.8366 0.0000 26.5836 0.0000
# 2 52.6021 212.6939 51.6259 0.0001 18.0461 0.0000
# 3 36.8366 51.6259 64.1603 0.0004 -5.6855 -0.0001
# 4 0.0000 0.0001 0.0004 18.6062 -0.0001 -1.1112
# 5 26.5836 18.0461 -5.6855 -0.0001 26.6824 0.0000
# 6 0.0000 0.0000 -0.0001 -1.1112 0.0000 -87.3476
#
#
#
# Elastic Compliance Matrix: (Units=1/GPa)
#
#
# Indices 1 2 3 4 5 6 
#
# 1 0.005813 0.000108 -0.004021 0.000000 -0.006722 0.000000
# 2 0.000108 0.006598 -0.005888 0.000000 -0.005825 0.000000
# 3 -0.004021 -0.005888 0.023789 0.000000 0.013057 0.000000
# 4 0.000000 0.000000 0.000000 0.053705 0.000000 -0.000683
# 5 -0.006722 -0.005825 0.013057 0.000000 0.050897 0.000000
# 6 0.000000 0.000000 0.000000 -0.000683 0.000000 -0.011440
#
#
# Mechanical properties :
#
#
# Convention : Reuss Voigt Hill
#
# Bulk Modulus (GPa) = 60.23804 87.35917 73.79861
# Shear Modulus (GPa) = 32.36354 15.79078 24.07716
#
# Velocity S-wave (km/s) = 3.56452 2.48986 3.07451
# Velocity P-wave (km/s) = 6.37106 6.52402 6.44799
#
# Compressibility (1/GPa) = 0.01660080
#
# Stress axis : x y z
#
# Youngs Moduli (GPa) = 172.01576 151.56057 42.03684
#
# Poissons Ratio (x) = -0.01644 0.16902
# Poissons Ratio (y) = -0.01866 0.24749
# Poissons Ratio (z) = 0.69161 0.89231
#
# Static dielectric constant tensor:
#      x y z
#    x 1.976790 0.000000 0.011830 
#    y 0.000000 2.100440 0.000000 
#    z 0.011830 0.000000 1.950980 
# 
# From -- ./inp_files/64290.got.cif
#   From: 2010.05.17/outbox.cif.g08.bks.cpg/sg5_33_cif.got.tgz:64290.got - 2010.06.03 18:56:24.
