data_PCOD9128152
_publ_section_title
;
Structure prediction by ZEFSAII (Michael W. Deem and Ramdas Pophale) SiO2 
 PCOD9128152
Probable space group: C 2
;
_chemical_formula_sum "Si O2"
_cell_formula_units_Z 16
_cell_length_a 7.452237
_cell_length_b 9.152116
_cell_length_c 12.596648
_cell_angle_alpha 90.000000
_cell_angle_beta 140.051207
_cell_angle_gamma 90.000000
_cell_volume 551.655147
_symmetry_space_group_name_H-M "C 2"
_symmetry_group_IT_number 5
_symmetry_cell_setting 'monoclinic'
loop_
_space_group_symop_operation_xyz
x,y,z
-x,y,-z
1/2+x,1/2+y,z
1/2-x,1/2+y,-z
loop_
_atom_site_type_symbol
_atom_site_label
_atom_site_fract_x
_atom_site_fract_y
_atom_site_fract_z
Si Si1 0.959070 0.607160 0.603605
Si Si2 0.650145 0.863887 0.813539
Si Si3 0.693519 0.310254 0.885233
Si Si4 0.652837 0.546668 0.715087
O O1 0.191450 0.489707 0.744031
O O2 0.987281 0.729137 0.708477
O O3 0.000000 0.657831 0.500000
O O4 0.660354 0.526395 0.469465
O O5 0.629249 0.719501 0.731544
O O6 0.388078 0.950604 0.757361
O O7 0.824560 0.815215 0.996709
O O8 0.694187 0.475524 0.847896
O O9 0.000000 0.243355 0.000000
#
# Coordination Sequence:
#
# PCOD9128152 Si02
#       4
#     4   4   4   4
#     4  12  25  44  76 119 165 214 273 344 417 493
#     4  11  25  46  75 113 159 215 275 340 415 497
#     4  10  23  47  76 111 158 215 273 337 412 497
#     4  11  24  47  75 111 157 214 274 343 412 493
#
# _framework density 29.003627999999999
#
# number of rings (size 3 to 8) (size 9 to 14) (size 15 to 20)
#    0.000    1.000    0.000    6.750    0.000    6.000 
#    0.000    6.250    0.000    3.000    0.000    0.000 
#    0.000    0.000    0.000    0.000    0.000    0.000 
#
# Total GULP energy -44607.244850 kJ/mol
# GULP energy per Si atom -5575.905606 kJ/mol
# Density = 2.893761 g / cm^3
# Si number density = 29.003628 Si / 1000 Ang^3
#
#
#
# Elastic Constant Matrix: (Units=GPa)
#
#
# Indices 1 2 3 4 5 6 
#
# 1 185.6009 26.6120 85.0359 0.0022 -26.9282 0.0014
# 2 26.6120 194.2222 58.7581 0.0005 -18.1973 -0.0002
# 3 85.0359 58.7581 241.4677 0.0008 -34.8906 0.0021
# 4 0.0022 0.0005 0.0008 80.4383 0.0013 4.0948
# 5 -26.9282 -18.1973 -34.8906 0.0013 72.7619 0.0019
# 6 0.0014 -0.0002 0.0021 4.0948 0.0019 32.0172
#
#
#
# Elastic Compliance Matrix: (Units=1/GPa)
#
#
# Indices 1 2 3 4 5 6 
#
# 1 0.006561 -0.000140 -0.002074 0.000000 0.001398 0.000000
# 2 -0.000140 0.005604 -0.001203 0.000000 0.000773 0.000000
# 3 -0.002074 -0.001203 0.005383 0.000000 0.001513 0.000000
# 4 0.000000 0.000000 0.000000 0.012513 0.000000 -0.001600
# 5 0.001398 0.000773 0.001513 0.000000 0.015180 -0.000001
# 6 0.000000 0.000000 0.000000 -0.001600 -0.000001 0.031438
#
#
# Mechanical properties :
#
#
# Convention : Reuss Voigt Hill
#
# Bulk Modulus (GPa) = 93.33741 106.90032 100.11887
# Shear Modulus (GPa) = 57.41466 67.10247 62.25856
#
# Velocity S-wave (km/s) = 4.45406 4.81520 4.63814
# Velocity P-wave (km/s) = 7.66177 8.23726 7.95472
#
# Compressibility (1/GPa) = 0.01071382
#
# Stress axis : x y z
#
# Youngs Moduli (GPa) = 152.40728 178.43696 185.76645
#
# Poissons Ratio (x) = 0.02506 0.38536
# Poissons Ratio (y) = 0.02140 0.22340
# Poissons Ratio (z) = 0.31616 0.21458
#
# Static dielectric constant tensor:
#      x y z
#    x 3.673090 0.000000 0.728840 
#    y 0.000000 2.270070 0.000000 
#    z 0.728840 0.000000 2.946460 
# 
# From -- ./inp_files/28821.got.cif
#   From: 2010.05.17/outbox.cif.g08.bks.cpg/sg5_15_cif.got.tgz:28821.got - 2010.06.03 18:56:24.
