data_PCOD9128052
_publ_section_title
;
Structure prediction by ZEFSAII (Michael W. Deem and Ramdas Pophale) SiO2 
 PCOD9128052
Probable space group: C 2
;
_chemical_formula_sum "Si O2"
_cell_formula_units_Z 28
_cell_length_a 13.592989
_cell_length_b 5.182495
_cell_length_c 15.248078
_cell_angle_alpha 90.000000
_cell_angle_beta 73.137755
_cell_angle_gamma 90.000000
_cell_volume 1027.976387
_symmetry_space_group_name_H-M "C 2"
_symmetry_group_IT_number 5
_symmetry_cell_setting 'monoclinic'
loop_
_space_group_symop_operation_xyz
x,y,z
-x,y,-z
1/2+x,1/2+y,z
1/2-x,1/2+y,-z
loop_
_atom_site_type_symbol
_atom_site_label
_atom_site_fract_x
_atom_site_fract_y
_atom_site_fract_z
Si Si1 0.091204 0.817820 0.186759
Si Si2 0.500000 0.828340 0.000000
Si Si3 0.500000 0.052017 0.500000
Si Si4 0.320242 0.841000 0.281601
Si Si5 0.792327 0.556850 0.091604
Si Si6 0.458758 0.841962 0.694765
Si Si7 0.300851 0.361751 0.524759
Si Si8 0.396739 0.437540 0.151671
O O1 0.185161 0.920545 0.102701
O O2 0.109063 0.563214 0.240109
O O3 0.989357 0.753690 0.156780
O O4 0.065930 0.062579 0.257163
O O5 0.391403 0.968287 0.011678
O O6 0.468096 0.658282 0.090988
O O7 0.454614 0.880505 0.591172
O O8 0.412372 0.239950 0.484157
O O9 0.307896 0.979757 0.191371
O O10 0.423252 0.905197 0.308247
O O11 0.224261 0.897379 0.366723
O O12 0.336807 0.542642 0.250845
O O13 0.814849 0.858456 0.099009
O O14 0.277238 0.633208 0.485328
#
# Coordination Sequence:
#
# PCOD9128052 Si02
#       8
#     4   2   2   4   4   4   4   4
#     4  11  26  45  75 105 138 191 242 284 361 440
#     4  10  24  46  66 110 136 182 234 288 372 430
#     4  12  28  46  72 106 150 190 250 318 356 426
#     4  10  23  46  71  96 143 190 237 293 373 421
#     4  11  23  45  76  99 142 190 232 299 363 436
#     4  11  25  47  68 104 143 187 247 297 356 432
#     4  12  29  46  71 106 146 194 247 309 366 429
#     4  10  23  45  72  99 146 180 234 298 353 441
#
# _framework density 27.237981000000001
#
# number of rings (size 3 to 8) (size 9 to 14) (size 15 to 20)
#    0.000    1.143    2.857    1.286   12.000    2.286 
#    5.143    0.000    0.000    0.000    0.000    0.000 
#    0.000    0.000    0.000    0.000    0.000    0.000 
#
# Total GULP energy -78336.623285 kJ/mol
# GULP energy per Si atom -5595.473092 kJ/mol
# Density = 2.717599 g / cm^3
# Si number density = 27.237981 Si / 1000 Ang^3
#
#
#
# Elastic Constant Matrix: (Units=GPa)
#
#
# Indices 1 2 3 4 5 6 
#
# 1 118.3630 13.9708 8.1425 0.0000 -14.9075 0.0000
# 2 13.9708 89.4796 29.4981 0.0001 -6.4228 0.0001
# 3 8.1425 29.4981 117.9154 0.0000 -12.4096 0.0000
# 4 0.0000 0.0001 0.0000 35.9732 0.0000 -2.4891
# 5 -14.9075 -6.4228 -12.4096 0.0000 45.8928 0.0000
# 6 0.0000 0.0001 0.0000 -2.4891 0.0000 36.6705
#
#
#
# Elastic Compliance Matrix: (Units=1/GPa)
#
#
# Indices 1 2 3 4 5 6 
#
# 1 0.008935 -0.001188 -0.000033 0.000000 0.002727 0.000000
# 2 -0.001188 0.012375 -0.002956 0.000000 0.000546 0.000000
# 3 -0.000033 -0.002956 0.009447 0.000000 0.002130 0.000000
# 4 0.000000 0.000000 0.000000 0.027930 0.000000 0.001896
# 5 0.002727 0.000546 0.002130 0.000000 0.023328 0.000000
# 6 0.000000 0.000000 0.000000 0.001896 0.000000 0.027399
#
#
# Mechanical properties :
#
#
# Convention : Reuss Voigt Hill
#
# Bulk Modulus (GPa) = 44.63965 47.66453 46.15209
# Shear Modulus (GPa) = 39.92504 41.98371 40.95437
#
# Velocity S-wave (km/s) = 3.83271 3.93028 3.88180
# Velocity P-wave (km/s) = 6.00088 6.17523 6.08868
#
# Compressibility (1/GPa) = 0.02240161
#
# Stress axis : x y z
#
# Youngs Moduli (GPa) = 111.92460 80.80755 105.85792
#
# Poissons Ratio (x) = 0.09604 0.00346
# Poissons Ratio (y) = 0.13302 0.31294
# Poissons Ratio (z) = 0.00365 0.23888
#
# Static dielectric constant tensor:
#      x y z
#    x 2.159400 0.000000 0.042300 
#    y 0.000000 2.485670 0.000000 
#    z 0.042300 0.000000 2.089530 
# 
# From -- ./inp_files/61092.got.cif
#   From: 2010.05.17/outbox.cif.g08.bks.cpg/sg5_31_cif.got.tgz:61092.got - 2010.06.03 18:56:24.
