data_PCOD9128030
_publ_section_title
;
Structure prediction by ZEFSAII (Michael W. Deem and Ramdas Pophale) SiO2 
 PCOD9128030
Probable space group: C 2
;
_chemical_formula_sum "Si O2"
_cell_formula_units_Z 20
_cell_length_a 18.349435
_cell_length_b 8.695942
_cell_length_c 10.974774
_cell_angle_alpha 90.000000
_cell_angle_beta 149.471904
_cell_angle_gamma 90.000000
_cell_volume 889.539279
_symmetry_space_group_name_H-M "C 2"
_symmetry_group_IT_number 5
_symmetry_cell_setting 'monoclinic'
loop_
_space_group_symop_operation_xyz
x,y,z
-x,y,-z
1/2+x,1/2+y,z
1/2-x,1/2+y,-z
loop_
_atom_site_type_symbol
_atom_site_label
_atom_site_fract_x
_atom_site_fract_y
_atom_site_fract_z
Si Si1 0.619413 0.075080 0.570638
Si Si2 0.552859 0.553190 0.938159
Si Si3 0.896141 0.939833 0.466265
Si Si4 0.335413 0.115001 0.766619
Si Si5 0.107424 0.352039 0.335175
O O1 0.500000 0.050732 0.500000
O O2 0.633785 0.257812 0.570938
O O3 0.571512 0.976331 0.385899
O O4 0.779501 0.017936 0.831501
O O5 0.471876 0.480972 0.705032
O O6 0.520009 0.735316 0.877674
O O7 0.500000 0.514681 0.000000
O O8 0.000000 0.965625 0.500000
O O9 0.758822 0.054796 0.254975
O O10 0.238572 0.243296 0.563842
O O11 0.343552 0.955953 0.704738
O O12 0.500000 0.167712 0.000000
#
# Coordination Sequence:
#
# PCOD9128030 Si02
#       5
#     4   4   4   4   4
#     4  11  25  43  66  99 136 176 222 273 331 395
#     4  11  24  44  69  97 135 176 220 276 330 393
#     4  10  23  45  69  99 138 175 217 273 336 397
#     4  11  23  40  66  93 124 169 219 267 322 386
#     4  11  24  40  64  98 131 170 221 273 325 389
#
# _framework density 22.483550999999999
#
# number of rings (size 3 to 8) (size 9 to 14) (size 15 to 20)
#    0.000    1.200    0.000    6.600    0.000   13.600 
#    0.000    1.000    0.000    0.000    0.000    0.000 
#    0.000    0.000    0.000    0.000    0.000    0.000 
#
# Total GULP energy -55882.388640 kJ/mol
# GULP energy per Si atom -5588.238864 kJ/mol
# Density = 2.243238 g / cm^3
# Si number density = 22.483551 Si / 1000 Ang^3
#
#
#
# Elastic Constant Matrix: (Units=GPa)
#
#
# Indices 1 2 3 4 5 6 
#
# 1 107.4236 4.1999 63.8144 0.0000 16.5798 0.0000
# 2 4.1999 44.9180 16.3311 0.0000 9.4361 0.0000
# 3 63.8144 16.3311 102.2567 0.0000 19.2587 0.0000
# 4 0.0000 0.0000 0.0000 39.8664 0.0000 -2.4495
# 5 16.5798 9.4361 19.2587 0.0000 29.1818 0.0000
# 6 0.0000 0.0000 0.0000 -2.4495 0.0000 76.3883
#
#
#
# Elastic Compliance Matrix: (Units=1/GPa)
#
#
# Indices 1 2 3 4 5 6 
#
# 1 0.015258 0.002670 -0.009310 0.000000 -0.003388 0.000000
# 2 0.002670 0.025021 -0.004400 0.000000 -0.006704 0.000000
# 3 -0.009310 -0.004400 0.017161 0.000000 -0.004613 0.000000
# 4 0.000000 0.000000 0.000000 0.025133 0.000000 0.000806
# 5 -0.003388 -0.006704 -0.004613 0.000000 0.041405 0.000000
# 6 0.000000 0.000000 0.000000 0.000806 0.000000 0.013117
#
#
# Mechanical properties :
#
#
# Convention : Reuss Voigt Hill
#
# Bulk Modulus (GPa) = 28.28027 47.03212 37.65619
# Shear Modulus (GPa) = 29.24617 40.43749 34.84183
#
# Velocity S-wave (km/s) = 3.61055 4.24552 3.94084
# Velocity P-wave (km/s) = 5.47603 6.70794 6.12304
#
# Compressibility (1/GPa) = 0.03536034
#
# Stress axis : x y z
#
# Youngs Moduli (GPa) = 65.53833 39.96627 58.27146
#
# Poissons Ratio (x) = -0.10671 0.54253
# Poissons Ratio (y) = -0.17499 0.25638
# Poissons Ratio (z) = 0.61019 0.17584
#
# Static dielectric constant tensor:
#      x y z
#    x 1.877650 0.000000 0.049430 
#    y 0.000000 1.818260 0.000000 
#    z 0.049430 0.000000 1.907480 
# 
# From -- ./inp_files/38222.got.cif
#   From: 2010.05.17/outbox.cif.g08.bks.cpg/sg5_20_cif.got.tgz:38222.got - 2010.06.03 18:56:24.
