data_PCOD9128113
_publ_section_title
;
Structure prediction by ZEFSAII (Michael W. Deem and Ramdas Pophale) SiO2 
 PCOD9128113
Probable space group: C 2
;
_chemical_formula_sum "Si O2"
_cell_formula_units_Z 30
_cell_length_a 10.659280
_cell_length_b 8.915909
_cell_length_c 26.095834
_cell_angle_alpha 90.000000
_cell_angle_beta 149.837457
_cell_angle_gamma 90.000000
_cell_volume 1246.125251
_symmetry_space_group_name_H-M "C 2"
_symmetry_group_IT_number 5
_symmetry_cell_setting 'monoclinic'
loop_
_space_group_symop_operation_xyz
x,y,z
-x,y,-z
1/2+x,1/2+y,z
1/2-x,1/2+y,-z
loop_
_atom_site_type_symbol
_atom_site_label
_atom_site_fract_x
_atom_site_fract_y
_atom_site_fract_z
Si Si1 0.771797 0.662720 0.076433
Si Si2 0.948759 0.829790 0.625700
Si Si3 0.917427 0.983216 0.715530
Si Si4 0.128337 0.958740 0.939192
Si Si5 0.500000 0.990881 0.500000
Si Si6 0.300999 0.222594 0.888887
Si Si7 0.653235 0.023110 0.719967
Si Si8 0.917853 0.465901 0.744489
O O1 0.756356 0.839656 0.059444
O O2 0.976533 0.613737 0.190222
O O3 0.500000 0.614762 0.000000
O O4 0.802267 0.559492 0.036259
O O5 0.007570 0.656630 0.640869
O O6 0.132842 0.930438 0.656915
O O7 0.002049 0.858327 0.705244
O O8 0.711481 0.072295 0.607516
O O9 0.664214 0.883888 0.520852
O O10 0.768508 0.929114 0.713231
O O11 0.148079 0.088928 0.809449
O O12 0.961903 0.838413 0.911991
O O13 0.917781 0.066568 0.840399
O O14 0.078565 0.333361 0.828364
O O15 0.500000 0.165221 0.000000
O O16 0.485345 0.963673 0.707749
#
# Coordination Sequence:
#
# PCOD9128113 Si02
#       8
#     4   4   4   4   2   4   4   4
#     4  12  24  44  62  99 151 200 248 302 347 441
#     4  10  23  49  71  98 146 187 240 319 367 426
#     4  10  23  46  74 104 147 190 254 301 373 441
#     4  11  26  41  64 101 148 198 250 289 362 440
#     4   8  24  50  72 108 140 198 244 322 376 432
#     4  11  20  41  67 105 149 198 232 297 362 436
#     4  11  24  43  69 105 137 183 253 300 363 446
#     4  11  22  42  69 102 148 196 239 302 369 422
#
# _framework density 24.074627
#
# number of rings (size 3 to 8) (size 9 to 14) (size 15 to 20)
#    0.800    0.533    5.333    0.800    5.600    0.000 
#    4.800    2.667    0.000    0.000    0.000    0.000 
#    0.000    0.000    0.000    0.000    0.000    0.000 
#
# Total GULP energy -83626.516995 kJ/mol
# GULP energy per Si atom -5575.101133 kJ/mol
# Density = 2.401983 g / cm^3
# Si number density = 24.074627 Si / 1000 Ang^3
#
#
#
# Elastic Constant Matrix: (Units=GPa)
#
#
# Indices 1 2 3 4 5 6 
#
# 1 134.9164 21.1090 9.1087 0.0000 16.2253 0.0000
# 2 21.1090 71.6803 5.2148 0.0000 9.1666 0.0000
# 3 9.1087 5.2148 98.8308 0.0001 12.0486 0.0000
# 4 0.0000 0.0000 0.0001 16.4797 0.0000 13.9925
# 5 16.2253 9.1666 12.0486 0.0000 37.7982 0.0000
# 6 0.0000 0.0000 0.0000 13.9925 0.0000 25.4226
#
#
#
# Elastic Compliance Matrix: (Units=1/GPa)
#
#
# Indices 1 2 3 4 5 6 
#
# 1 0.008092 -0.001991 -0.000287 0.000000 -0.002899 0.000000
# 2 -0.001991 0.014899 -0.000277 0.000000 -0.002670 0.000000
# 3 -0.000287 -0.000277 0.010546 0.000000 -0.003171 0.000000
# 4 0.000000 0.000000 0.000000 0.113918 0.000000 -0.062700
# 5 -0.002899 -0.002670 -0.003171 0.000000 0.029359 0.000000
# 6 0.000000 0.000000 0.000000 -0.062700 0.000000 0.073845
#
#
# Mechanical properties :
#
#
# Convention : Reuss Voigt Hill
#
# Bulk Modulus (GPa) = 35.18011 41.81029 38.49520
# Shear Modulus (GPa) = 18.85055 33.93975 26.39515
#
# Velocity S-wave (km/s) = 2.80126 3.75877 3.31477
# Velocity P-wave (km/s) = 5.01073 6.02017 5.53849
#
# Compressibility (1/GPa) = 0.02842515
#
# Stress axis : x y z
#
# Youngs Moduli (GPa) = 123.58536 67.11924 94.82270
#
# Poissons Ratio (x) = 0.13365 0.02724
# Poissons Ratio (y) = 0.24609 0.02628
# Poissons Ratio (z) = 0.03550 0.01860
#
# Static dielectric constant tensor:
#      x y z
#    x 2.090880 0.000000 -0.032390 
#    y 0.000000 1.917950 0.000000 
#    z -0.032390 0.000000 1.906090 
# 
# From -- ./inp_files/71708.got.cif
#   From: 2010.05.17/outbox.cif.g08.bks.cpg/sg5_36_cif.got.tgz:71708.got - 2010.06.03 18:56:24.
