data_PCOD9128680
_publ_section_title
;
Structure prediction by ZEFSAII (Michael W. Deem and Ramdas Pophale) SiO2 
 PCOD9128680
Probable space group: C 2
;
_chemical_formula_sum "Si O2"
_cell_formula_units_Z 20
_cell_length_a 21.368661
_cell_length_b 5.640031
_cell_length_c 7.203468
_cell_angle_alpha 90.000000
_cell_angle_beta 63.889736
_cell_angle_gamma 90.000000
_cell_volume 779.564371
_symmetry_space_group_name_H-M "C 2"
_symmetry_group_IT_number 5
_symmetry_cell_setting 'monoclinic'
loop_
_space_group_symop_operation_xyz
x,y,z
-x,y,-z
1/2+x,1/2+y,z
1/2-x,1/2+y,-z
loop_
_atom_site_type_symbol
_atom_site_label
_atom_site_fract_x
_atom_site_fract_y
_atom_site_fract_z
Si Si1 0.933935 0.803180 0.948427
Si Si2 0.247008 0.795412 0.811850
Si Si3 0.416820 0.798211 0.105446
Si Si4 0.641218 0.430461 0.271783
Si Si5 0.175373 0.604211 0.540882
O O1 0.908606 0.528481 0.981759
O O2 0.891798 0.032395 0.088647
O O3 0.931832 0.891525 0.738942
O O4 0.000000 0.786147 0.000000
O O5 0.321994 0.684912 0.766514
O O6 0.214061 0.646868 0.684862
O O7 0.265559 0.035095 0.681984
O O8 0.196712 0.808280 0.053704
O O9 0.380462 0.899841 0.337467
O O10 0.500000 0.768483 0.000000
O O11 0.638454 0.317178 0.479469
#
# Coordination Sequence:
#
# PCOD9128680 Si02
#       5
#     4   4   4   4   4
#     4  10  24  47  76  99 143 195 244 306 355 422
#     4  12  26  42  67 109 148 188 242 300 366 446
#     4  10  24  47  76  99 143 195 244 306 355 422
#     4  12  26  43  72 105 148 193 243 300 372 436
#     4  12  26  43  72 105 148 193 243 300 372 436
#
# _framework density 25.655356999999999
#
# number of rings (size 3 to 8) (size 9 to 14) (size 15 to 20)
#    0.000    0.800    6.000    0.000   11.200    0.000 
#    0.000    4.000    0.000    0.000    0.000    0.000 
#    0.000    0.000    0.000    0.000    0.000    0.000 
#
# Total GULP energy -55668.501435 kJ/mol
# GULP energy per Si atom -5566.850143 kJ/mol
# Density = 2.559696 g / cm^3
# Si number density = 25.655357 Si / 1000 Ang^3
#
#
#
# Elastic Constant Matrix: (Units=GPa)
#
#
# Indices 1 2 3 4 5 6 
#
# 1 80.0786 -6.3223 25.7695 0.0000 17.1311 0.0000
# 2 -6.3223 100.0503 27.4824 0.0000 5.4057 0.0000
# 3 25.7695 27.4824 113.9962 0.0000 4.2662 0.0000
# 4 0.0000 0.0000 0.0000 52.1713 0.0000 1.9475
# 5 17.1311 5.4057 4.2662 0.0000 37.5242 0.0000
# 6 0.0000 0.0000 0.0000 1.9475 0.0000 25.2160
#
#
#
# Elastic Compliance Matrix: (Units=1/GPa)
#
#
# Indices 1 2 3 4 5 6 
#
# 1 0.015380 0.002388 -0.003793 0.000000 -0.006935 0.000000
# 2 0.002388 0.011134 -0.003137 0.000000 -0.002338 0.000000
# 3 -0.003793 -0.003137 0.010348 0.000000 0.001007 0.000000
# 4 0.000000 0.000000 0.000000 0.019223 0.000000 -0.001485
# 5 -0.006935 -0.002338 0.001007 0.000000 0.030038 0.000000
# 6 0.000000 0.000000 0.000000 -0.001485 0.000000 0.039772
#
#
# Mechanical properties :
#
#
# Convention : Reuss Voigt Hill
#
# Bulk Modulus (GPa) = 35.99724 43.10937 39.55330
# Shear Modulus (GPa) = 34.66502 39.46199 37.06350
#
# Velocity S-wave (km/s) = 3.67983 3.92619 3.80500
# Velocity P-wave (km/s) = 5.66713 6.11498 5.89531
#
# Compressibility (1/GPa) = 0.02777991
#
# Stress axis : x y z
#
# Youngs Moduli (GPa) = 65.01761 89.81673 96.63537
#
# Poissons Ratio (x) = -0.21453 0.36655
# Poissons Ratio (y) = -0.15529 0.30311
# Poissons Ratio (z) = 0.24662 0.28172
#
# Static dielectric constant tensor:
#      x y z
#    x 2.280790 0.000000 0.034040 
#    y 0.000000 2.132940 0.000000 
#    z 0.034040 0.000000 2.049440 
# 
# From -- ./inp_files/10574.got.cif
#   From: 2010.05.17/outbox.cif.g08.bks.cpg/sg5_6_cif.got.tgz:10574.got - 2010.06.03 18:56:24.
