data_PCOD9128601
_publ_section_title
;
Structure prediction by ZEFSAII (Michael W. Deem and Ramdas Pophale) SiO2 
 PCOD9128601
Probable space group: C 2
;
_chemical_formula_sum "Si O2"
_cell_formula_units_Z 24
_cell_length_a 10.222845
_cell_length_b 11.286740
_cell_length_c 9.058474
_cell_angle_alpha 90.000000
_cell_angle_beta 86.518996
_cell_angle_gamma 90.000000
_cell_volume 1043.261831
_symmetry_space_group_name_H-M "C 2"
_symmetry_group_IT_number 5
_symmetry_cell_setting 'monoclinic'
loop_
_space_group_symop_operation_xyz
x,y,z
-x,y,-z
1/2+x,1/2+y,z
1/2-x,1/2+y,-z
loop_
_atom_site_type_symbol
_atom_site_label
_atom_site_fract_x
_atom_site_fract_y
_atom_site_fract_z
Si Si1 0.409386 0.015590 0.719610
Si Si2 0.782156 0.265553 0.788208
Si Si3 0.464261 0.605293 0.163984
Si Si4 0.934173 0.907341 0.649946
Si Si5 0.312259 0.221285 0.884803
Si Si6 0.684830 0.068112 0.589410
O O1 0.391231 0.099009 0.861749
O O2 0.562068 0.001282 0.673104
O O3 0.349207 0.080383 0.579870
O O4 0.331175 0.894798 0.743181
O O5 0.702498 0.264617 0.946794
O O6 0.705001 0.193868 0.668042
O O7 0.914787 0.190211 0.804951
O O8 0.464263 0.497691 0.278488
O O9 0.333137 0.682549 0.160347
O O10 0.500000 0.555327 0.000000
O O11 0.879805 0.816151 0.773818
O O12 0.000000 0.853568 0.500000
O O13 0.812804 0.989036 0.606400
#
# Coordination Sequence:
#
# PCOD9128601 Si02
#       6
#     4   4   4   4   4   4
#     4  11  25  44  70 102 138 184 227 288 347 408
#     4  10  24  46  71 100 140 181 229 291 341 408
#     4   9  21  45  70  99 131 182 232 282 348 413
#     4  11  24  44  70  99 137 184 230 290 343 409
#     4  11  25  42  70 102 138 178 233 281 350 413
#     4  10  25  46  69 101 136 181 239 276 349 417
#
# _framework density 23.004770000000001
#
# number of rings (size 3 to 8) (size 9 to 14) (size 15 to 20)
#    0.000    1.667    0.000    2.000   11.667    2.000 
#   12.000    0.000    0.000    0.000    0.000    0.000 
#    0.000    0.000    0.000    0.000    0.000    0.000 
#
# Total GULP energy -67203.141112 kJ/mol
# GULP energy per Si atom -5600.261759 kJ/mol
# Density = 2.295241 g / cm^3
# Si number density = 23.004770 Si / 1000 Ang^3
#
#
#
# Elastic Constant Matrix: (Units=GPa)
#
#
# Indices 1 2 3 4 5 6 
#
# 1 92.4091 30.3117 57.1735 0.0000 -7.5012 0.0000
# 2 30.3117 112.8205 72.3116 0.0000 -16.7995 0.0000
# 3 57.1735 72.3116 138.2933 0.0000 -24.0384 0.0000
# 4 0.0000 0.0000 0.0000 35.8553 0.0000 -11.3866
# 5 -7.5012 -16.7995 -24.0384 0.0000 39.8356 0.0000
# 6 0.0000 0.0000 0.0000 -11.3866 0.0000 20.2956
#
#
#
# Elastic Compliance Matrix: (Units=1/GPa)
#
#
# Indices 1 2 3 4 5 6 
#
# 1 0.014577 -0.000138 -0.006130 0.000000 -0.001013 0.000000
# 2 -0.000138 0.013423 -0.006683 0.000000 0.001602 0.000000
# 3 -0.006130 -0.006683 0.014042 0.000000 0.004501 0.000000
# 4 0.000000 0.000000 0.000000 0.033936 0.000000 0.019040
# 5 -0.001013 0.001602 0.004501 0.000000 0.028304 0.000000
# 6 0.000000 0.000000 0.000000 0.019040 0.000000 0.059954
#
#
# Mechanical properties :
#
#
# Convention : Reuss Voigt Hill
#
# Bulk Modulus (GPa) = 61.96034 73.67961 67.81998
# Shear Modulus (GPa) = 25.57292 31.44570 28.50931
#
# Velocity S-wave (km/s) = 3.33774 3.70120 3.52416
# Velocity P-wave (km/s) = 6.46886 7.09667 6.79002
#
# Compressibility (1/GPa) = 0.01613935
#
# Stress axis : x y z
#
# Youngs Moduli (GPa) = 68.59910 74.50071 71.21341
#
# Poissons Ratio (x) = 0.01028 0.43657
# Poissons Ratio (y) = 0.00947 0.47592
# Poissons Ratio (z) = 0.42054 0.49789
#
# Static dielectric constant tensor:
#      x y z
#    x 1.877220 0.000000 0.002840 
#    y 0.000000 1.823870 0.000000 
#    z 0.002840 0.000000 1.835040 
# 
# From -- ./inp_files/35402.got.cif
#   From: 2010.05.17/outbox.cif.g08.bks.cpg/sg5_18_cif.got.tgz:35402.got - 2010.06.03 18:56:24.
