data_PCOD9128854
_publ_section_title
;
Structure prediction by ZEFSAII (Michael W. Deem and Ramdas Pophale) SiO2 
 PCOD9128854
Probable space group: C 2
;
_chemical_formula_sum "Si O2"
_cell_formula_units_Z 26
_cell_length_a 14.259821
_cell_length_b 9.027632
_cell_length_c 15.560279
_cell_angle_alpha 90.000000
_cell_angle_beta 35.522176
_cell_angle_gamma 90.000000
_cell_volume 1163.844333
_symmetry_space_group_name_H-M "C 2"
_symmetry_group_IT_number 5
_symmetry_cell_setting 'monoclinic'
loop_
_space_group_symop_operation_xyz
x,y,z
-x,y,-z
1/2+x,1/2+y,z
1/2-x,1/2+y,-z
loop_
_atom_site_type_symbol
_atom_site_label
_atom_site_fract_x
_atom_site_fract_y
_atom_site_fract_z
Si Si1 0.659494 0.328460 0.485020
Si Si2 0.941428 0.732673 0.909990
Si Si3 0.000000 0.468528 0.000000
Si Si4 0.178274 0.796749 0.185292
Si Si5 0.238578 0.160903 0.426495
Si Si6 0.219751 0.595315 0.291842
Si Si7 0.000000 0.326389 0.500000
Si Si8 0.000000 0.965740 0.000000
O O1 0.483970 0.372846 0.655805
O O2 0.736881 0.217925 0.496196
O O3 0.749438 0.484438 0.408371
O O4 0.669580 0.228586 0.391856
O O5 0.827233 0.769077 0.912887
O O6 0.119376 0.738617 0.734308
O O7 0.901262 0.853001 0.013230
O O8 0.961685 0.578711 0.947768
O O9 0.838118 0.367478 0.110061
O O10 0.158457 0.635491 0.242765
O O11 0.066239 0.219422 0.523617
O O12 0.141455 0.441309 0.375097
O O13 0.407427 0.566248 0.137631
#
# Coordination Sequence:
#
# PCOD9128854 Si02
#       8
#     4   4   2   4   4   4   2   2
#     4  11  25  45  74 109 149 193 256 311 376 449
#     4  10  25  45  69 103 154 191 257 306 373 460
#     4  11  25  48  68 106 150 204 248 320 376 462
#     4  11  25  44  72 104 148 197 251 309 382 443
#     4  11  25  43  72 108 146 200 246 311 377 449
#     4  12  24  45  71 104 144 190 245 308 367 451
#     4  12  24  42  72 106 146 196 246 300 378 440
#     4  11  25  46  70 102 146 202 236 312 374 452
#
# _framework density 22.339756999999999
#
# number of rings (size 3 to 8) (size 9 to 14) (size 15 to 20)
#    0.000    0.923    3.077    2.308   10.769    0.000 
#    0.000    3.077    0.000    0.000    0.000    0.000 
#    0.000    0.000    0.000    0.000    0.000    0.000 
#
# Total GULP energy -72386.497110 kJ/mol
# GULP energy per Si atom -5568.192085 kJ/mol
# Density = 2.228891 g / cm^3
# Si number density = 22.339757 Si / 1000 Ang^3
#
#
#
# Elastic Constant Matrix: (Units=GPa)
#
#
# Indices 1 2 3 4 5 6 
#
# 1 132.2162 50.9602 42.6031 0.0001 15.5453 0.0001
# 2 50.9602 116.6405 40.0196 0.0001 9.2293 0.0001
# 3 42.6031 40.0196 77.1539 0.0007 5.8744 0.0006
# 4 0.0001 0.0001 0.0007 1412.7254 -0.0005 1317.8020
# 5 15.5453 9.2293 5.8744 -0.0005 38.6469 -0.0005
# 6 0.0001 0.0001 0.0006 1317.8020 -0.0005 1275.4972
#
#
#
# Elastic Compliance Matrix: (Units=1/GPa)
#
#
# Indices 1 2 3 4 5 6 
#
# 1 0.010297 -0.002916 -0.003957 0.000000 -0.002844 0.000000
# 2 -0.002916 0.011365 -0.004216 0.000000 -0.000900 0.000000
# 3 -0.003957 -0.004216 0.017336 0.000000 -0.000037 0.000000
# 4 0.000000 0.000000 0.000000 0.019525 0.000000 -0.020173
# 5 -0.002844 -0.000900 -0.000037 0.000000 0.027240 0.000000
# 6 0.000000 0.000000 0.000000 -0.020173 0.000000 0.021626
#
#
# Mechanical properties :
#
#
# Convention : Reuss Voigt Hill
#
# Bulk Modulus (GPa) = 59.45460 65.90851 62.68155
# Shear Modulus (GPa) = 36.98958 558.20241 297.59600
#
# Velocity S-wave (km/s) = 4.07353 15.82441 11.55434
# Velocity P-wave (km/s) = 6.98545 19.06435 14.35698
#
# Compressibility (1/GPa) = 0.01681956
#
# Stress axis : x y z
#
# Youngs Moduli (GPa) = 97.11985 87.98735 57.68452
#
# Poissons Ratio (x) = 0.25658 0.22823
# Poissons Ratio (y) = 0.28321 0.24322
# Poissons Ratio (z) = 0.38426 0.37099
#
# Static dielectric constant tensor:
#      x y z
#    x -12.737370 0.000000 4.594070 
#    y 0.000000 1.862180 0.000000 
#    z 4.594070 0.000000 0.479040 
# 
# From -- ./inp_files/54307.got.cif
#   From: 2010.05.17/outbox.cif.g08.bks.cpg/sg5_28_cif.got.tgz:54307.got - 2010.06.03 18:56:24.
