data_PCOD9128994
_publ_section_title
;
Structure prediction by ZEFSAII (Michael W. Deem and Ramdas Pophale) SiO2 
 PCOD9128994
Probable space group: C 2
;
_chemical_formula_sum "Si O2"
_cell_formula_units_Z 24
_cell_length_a 17.279788
_cell_length_b 6.051683
_cell_length_c 11.049181
_cell_angle_alpha 90.000000
_cell_angle_beta 75.930788
_cell_angle_gamma 90.000000
_cell_volume 1120.772970
_symmetry_space_group_name_H-M "C 2"
_symmetry_group_IT_number 5
_symmetry_cell_setting 'monoclinic'
loop_
_space_group_symop_operation_xyz
x,y,z
-x,y,-z
1/2+x,1/2+y,z
1/2-x,1/2+y,-z
loop_
_atom_site_type_symbol
_atom_site_label
_atom_site_fract_x
_atom_site_fract_y
_atom_site_fract_z
Si Si1 0.500000 0.552680 0.500000
Si Si2 0.244874 0.523579 0.691488
Si Si3 0.108894 0.715383 0.891268
Si Si4 0.645637 0.835549 0.518593
Si Si5 0.457167 0.984445 0.851549
Si Si6 0.000000 0.099844 0.000000
Si Si7 0.383122 0.208682 0.658712
O O1 0.561714 0.707811 0.548535
O O2 0.450417 0.390519 0.605644
O O3 0.194137 0.674247 0.801281
O O4 0.295101 0.681091 0.582445
O O5 0.183591 0.381706 0.633737
O O6 0.306150 0.350003 0.727147
O O7 0.039901 0.620982 0.828115
O O8 0.097750 0.579097 0.019227
O O9 0.077206 0.956148 0.936831
O O10 0.635599 0.070500 0.455215
O O11 0.478694 0.743018 0.890269
O O12 0.413992 0.030711 0.743256
#
# Coordination Sequence:
#
# PCOD9128994 Si02
#       7
#     2   4   4   4   4   2   4
#     4  10  26  42  68  98 128 178 216 274 326 386
#     4  11  24  44  65  97 137 177 214 270 338 384
#     4   9  21  41  68  97 131 175 214 276 326 393
#     4  11  24  43  65  98 133 177 218 272 326 394
#     4   9  21  42  67  99 126 170 228 271 325 385
#     4   8  18  42  68 106 124 162 232 274 326 386
#     4  11  24  45  64 100 135 169 228 269 324 402
#
# _framework density 21.413789999999999
#
# number of rings (size 3 to 8) (size 9 to 14) (size 15 to 20)
#    0.000    2.333    1.667    0.500    4.667    8.000 
#    9.000    0.000    0.000    0.000    0.000    0.000 
#    0.000    0.000    0.000    0.000    0.000    0.000 
#
# Total GULP energy -67061.440184 kJ/mol
# GULP energy per Si atom -5588.453349 kJ/mol
# Density = 2.136505 g / cm^3
# Si number density = 21.413790 Si / 1000 Ang^3
#
#
#
# Elastic Constant Matrix: (Units=GPa)
#
#
# Indices 1 2 3 4 5 6 
#
# 1 97.7229 30.6471 37.7631 0.0000 -16.7508 0.0000
# 2 30.6471 93.9826 7.6109 0.0000 -15.3670 0.0000
# 3 37.7631 7.6109 40.5899 0.0000 -9.9193 0.0000
# 4 0.0000 0.0000 0.0000 -1.6998 0.0000 7.0798
# 5 -16.7508 -15.3670 -9.9193 0.0000 16.5978 0.0000
# 6 0.0000 0.0000 0.0000 7.0798 0.0000 11.2644
#
#
#
# Elastic Compliance Matrix: (Units=1/GPa)
#
#
# Indices 1 2 3 4 5 6 
#
# 1 0.018108 -0.003726 -0.014668 0.000000 0.006059 0.000000
# 2 -0.003726 0.013316 0.003588 0.000000 0.010712 0.000000
# 3 -0.014668 0.003588 0.040757 0.000000 0.012876 0.000000
# 4 0.000000 0.000000 0.000000 -0.162615 0.000000 0.102205
# 5 0.006059 0.010712 0.012876 0.000000 0.083977 0.000000
# 6 0.000000 0.000000 0.000000 0.102205 0.000000 0.024538
#
#
# Mechanical properties :
#
#
# Convention : Reuss Voigt Hill
#
# Bulk Modulus (GPa) = 23.49128 42.70418 33.09773
# Shear Modulus (GPa) = 80.79565 15.65078 48.22321
#
# Velocity S-wave (km/s) = 6.14919 2.70640 4.75064
# Velocity P-wave (km/s) = 7.83650 5.45452 6.75139
#
# Compressibility (1/GPa) = 0.04256898
#
# Stress axis : x y z
#
# Youngs Moduli (GPa) = 55.22303 75.09517 24.53570
#
# Poissons Ratio (x) = 0.27984 0.35988
# Poissons Ratio (y) = 0.20579 -0.08803
# Poissons Ratio (z) = 0.81000 -0.26943
#
# Static dielectric constant tensor:
#      x y z
#    x 1.777950 0.000000 -0.004160 
#    y 0.000000 1.791740 0.000000 
#    z -0.004160 0.000000 1.770700 
# 
# From -- ./inp_files/43728.got.cif
#   From: 2010.05.17/outbox.cif.g08.bks.cpg/sg5_22_cif.got.tgz:43728.got - 2010.06.03 18:56:24.
