data_PCOD9128103
_publ_section_title
;
Structure prediction by ZEFSAII (Michael W. Deem and Ramdas Pophale) SiO2 
 PCOD9128103
Probable space group: C 2
;
_chemical_formula_sum "Si O2"
_cell_formula_units_Z 32
_cell_length_a 11.442880
_cell_length_b 8.435017
_cell_length_c 28.956972
_cell_angle_alpha 90.000000
_cell_angle_beta 30.515159
_cell_angle_gamma 90.000000
_cell_volume 1419.182785
_symmetry_space_group_name_H-M "C 2"
_symmetry_group_IT_number 5
_symmetry_cell_setting 'monoclinic'
loop_
_space_group_symop_operation_xyz
x,y,z
-x,y,-z
1/2+x,1/2+y,z
1/2-x,1/2+y,-z
loop_
_atom_site_type_symbol
_atom_site_label
_atom_site_fract_x
_atom_site_fract_y
_atom_site_fract_z
Si Si1 0.645092 0.285170 0.020537
Si Si2 0.752267 0.462703 0.065532
Si Si3 0.010378 0.517906 0.550936
Si Si4 0.505673 0.559973 0.756253
Si Si5 0.636839 0.892751 0.735209
Si Si6 0.176837 0.055794 0.899056
Si Si7 0.935543 0.899414 0.468960
Si Si8 0.349652 0.831312 0.169369
O O1 0.879114 0.369230 0.923427
O O2 0.681780 0.110820 0.989519
O O3 0.646425 0.316260 0.074303
O O4 0.427682 0.381431 0.076937
O O5 0.579690 0.522277 0.163011
O O6 0.000000 0.418969 0.000000
O O7 0.755304 0.492054 0.658587
O O8 0.000000 0.464292 0.500000
O O9 0.056046 0.707492 0.534027
O O10 0.202560 0.448884 0.520903
O O11 0.527037 0.749074 0.742828
O O12 0.308288 0.474317 0.794050
O O13 0.718209 0.806247 0.754564
O O14 0.853068 0.959627 0.634494
O O15 0.447185 0.023109 0.812645
O O16 0.164961 0.182120 0.860865
O O17 0.000000 0.101432 0.000000
O O18 0.000000 0.948728 0.500000
#
# Coordination Sequence:
#
# PCOD9128103 Si02
#       8
#     4   4   4   4   4   4   4   4
#     4  12  23  40  61  87 131 172 220 262 316 374
#     4  12  24  41  62  89 129 177 212 265 316 377
#     4  10  23  46  72 102 135 170 220 280 343 403
#     4  11  23  42  69  93 128 173 217 265 331 393
#     4  11  24  47  65  94 134 169 217 270 332 391
#     4  12  25  41  62  94 132 174 221 265 317 385
#     4  10  24  44  74 103 134 172 221 281 340 406
#     4  12  25  40  62  93 128 175 220 267 320 386
#
# _framework density 22.548186999999999
#
# number of rings (size 3 to 8) (size 9 to 14) (size 15 to 20)
#    0.000    0.750    5.000    1.875    1.750    4.500 
#    0.000    1.250    0.000    0.000    0.000    0.000 
#    0.000    0.000    0.000    0.000    0.000    0.000 
#
# Total GULP energy -89314.600038 kJ/mol
# GULP energy per Si atom -5582.162502 kJ/mol
# Density = 2.249687 g / cm^3
# Si number density = 22.548187 Si / 1000 Ang^3
#
#
#
# Elastic Constant Matrix: (Units=GPa)
#
#
# Indices 1 2 3 4 5 6 
#
# 1 100.2086 24.6171 43.1104 -0.0070 3.2376 -0.0050
# 2 24.6171 51.9762 15.4074 -0.0075 0.6295 -0.0054
# 3 43.1104 15.4074 150.6324 -0.0190 2.2086 -0.0143
# 4 -0.0070 -0.0075 -0.0190 11.7877 0.0042 -20.4135
# 5 3.2376 0.6295 2.2086 0.0042 35.3189 0.0031
# 6 -0.0050 -0.0054 -0.0143 -20.4135 0.0031 1.3161
#
#
#
# Elastic Compliance Matrix: (Units=1/GPa)
#
#
# Indices 1 2 3 4 5 6 
#
# 1 0.012563 -0.005030 -0.003068 0.000000 -0.000870 0.000000
# 2 -0.005030 0.021857 -0.000798 -0.000004 0.000121 -0.000008
# 3 -0.003068 -0.000798 0.007601 -0.000005 -0.000180 -0.000009
# 4 0.000000 -0.000004 -0.000005 -0.003281 0.000005 -0.050882
# 5 -0.000870 0.000121 -0.000180 0.000005 0.028402 0.000009
# 6 0.000000 -0.000008 -0.000009 -0.050882 0.000009 -0.029381
#
#
# Mechanical properties :
#
#
# Convention : Reuss Voigt Hill
#
# Bulk Modulus (GPa) = 41.27328 52.12077 46.69703
# Shear Modulus (GPa) = 78.57969 24.33002 51.45486
#
# Velocity S-wave (km/s) = 5.90977 3.28841 4.78221
# Velocity P-wave (km/s) = 8.05676 6.13055 7.15874
#
# Compressibility (1/GPa) = 0.02422875
#
# Stress axis : x y z
#
# Youngs Moduli (GPa) = 79.59924 45.75201 131.56112
#
# Poissons Ratio (x) = 0.23013 0.40366
# Poissons Ratio (y) = 0.40039 0.10496
# Poissons Ratio (z) = 0.24423 0.03650
#
# Static dielectric constant tensor:
#      x y z
#    x 1.974210 0.000000 0.047420 
#    y 0.000000 1.854650 0.000000 
#    z 0.047420 0.000000 1.810370 
# 
# From -- ./inp_files/71754.got.cif
#   From: 2010.05.17/outbox.cif.g08.bks.cpg/sg5_36_cif.got.tgz:71754.got - 2010.06.03 18:56:24.
