data_PCOD9128188
_publ_section_title
;
Structure prediction by ZEFSAII (Michael W. Deem and Ramdas Pophale) SiO2 
 PCOD9128188
Probable space group: C 2
;
_chemical_formula_sum "Si O2"
_cell_formula_units_Z 28
_cell_length_a 9.619639
_cell_length_b 7.935836
_cell_length_c 27.798654
_cell_angle_alpha 90.000000
_cell_angle_beta 34.489861
_cell_angle_gamma 90.000000
_cell_volume 1201.687135
_symmetry_space_group_name_H-M "C 2"
_symmetry_group_IT_number 5
_symmetry_cell_setting 'monoclinic'
loop_
_space_group_symop_operation_xyz
x,y,z
-x,y,-z
1/2+x,1/2+y,z
1/2-x,1/2+y,-z
loop_
_atom_site_type_symbol
_atom_site_label
_atom_site_fract_x
_atom_site_fract_y
_atom_site_fract_z
Si Si1 0.205998 0.422790 0.478350
Si Si2 0.279388 0.035316 0.425508
Si Si3 0.465893 0.349473 0.206035
Si Si4 0.761560 0.532883 0.320980
Si Si5 0.482086 0.724719 0.198543
Si Si6 0.510142 0.230109 0.903267
Si Si7 0.008964 0.339673 0.907155
O O1 0.264878 0.231447 0.445400
O O2 0.109338 0.437375 0.560782
O O3 0.464523 0.521075 0.404474
O O4 0.000000 0.487338 0.500000
O O5 0.365907 0.024205 0.345816
O O6 0.000000 0.969903 0.500000
O O7 0.347713 0.204787 0.271690
O O8 0.417644 0.539896 0.236878
O O9 0.397671 0.326005 0.170117
O O10 0.761462 0.325680 0.122827
O O11 0.855105 0.373231 0.263947
O O12 0.424130 0.733547 0.158929
O O13 0.775993 0.747347 0.118589
O O14 0.491017 0.033388 0.896041
O O15 0.248140 0.289545 0.996610
#
# Coordination Sequence:
#
# PCOD9128188 Si02
#       7
#     4   4   4   4   4   4   4
#     4  10  23  49  74 103 137 181 228 279 348 430
#     4   9  22  47  70 102 140 178 225 277 352 427
#     4  11  26  45  67 105 143 180 242 289 349 408
#     4  11  25  48  73 102 146 181 226 296 351 411
#     4  11  26  45  67 106 140 183 241 286 354 408
#     4  11  24  43  68 101 140 192 240 289 347 416
#     4  11  24  43  69  99 143 189 241 290 345 417
#
# _framework density 23.300571999999999
#
# number of rings (size 3 to 8) (size 9 to 14) (size 15 to 20)
#    0.000    1.429    1.429    1.714    6.000    5.143 
#   20.571    0.000    0.000    0.000    0.000    0.000 
#    0.000    0.000    0.000    0.000    0.000    0.000 
#
# Total GULP energy -78357.240714 kJ/mol
# GULP energy per Si atom -5596.945765 kJ/mol
# Density = 2.324754 g / cm^3
# Si number density = 23.300572 Si / 1000 Ang^3
#
#
#
# Elastic Constant Matrix: (Units=GPa)
#
#
# Indices 1 2 3 4 5 6 
#
# 1 110.2710 16.8685 19.9106 0.0002 9.3071 0.0001
# 2 16.8685 116.8030 48.7871 -0.0004 0.9119 0.0004
# 3 19.9106 48.7871 103.6510 -0.0009 2.9264 -0.0005
# 4 0.0002 -0.0004 -0.0009 42.5642 0.0002 2.2573
# 5 9.3071 0.9119 2.9264 0.0002 46.7631 0.0002
# 6 0.0001 0.0004 -0.0005 2.2573 0.0002 26.4829
#
#
#
# Elastic Compliance Matrix: (Units=1/GPa)
#
#
# Indices 1 2 3 4 5 6 
#
# 1 0.009597 -0.000776 -0.001427 0.000000 -0.001806 0.000000
# 2 -0.000776 0.010720 -0.004904 0.000000 0.000252 0.000000
# 3 -0.001427 -0.004904 0.012241 0.000000 -0.000386 0.000000
# 4 0.000000 0.000000 0.000000 0.023601 0.000000 -0.002012
# 5 -0.001806 0.000252 -0.000386 0.000000 0.021763 0.000000
# 6 0.000000 0.000000 0.000000 -0.002012 0.000000 0.037932
#
#
# Mechanical properties :
#
#
# Convention : Reuss Voigt Hill
#
# Bulk Modulus (GPa) = 54.51305 55.76194 55.13749
# Shear Modulus (GPa) = 36.71559 39.50597 38.11078
#
# Velocity S-wave (km/s) = 3.97386 4.12210 4.04866
# Velocity P-wave (km/s) = 6.67097 6.82929 6.75059
#
# Compressibility (1/GPa) = 0.01834423
#
# Stress axis : x y z
#
# Youngs Moduli (GPa) = 104.19512 93.28622 81.69275
#
# Poissons Ratio (x) = 0.07236 0.11662
# Poissons Ratio (y) = 0.08082 0.40060
# Poissons Ratio (z) = 0.14874 0.45745
#
# Static dielectric constant tensor:
#      x y z
#    x 1.854820 0.000000 -0.010950 
#    y 0.000000 1.882960 0.000000 
#    z -0.010950 0.000000 1.898700 
# 
# From -- ./inp_files/70144.got.cif
#   From: 2010.05.17/outbox.cif.g08.bks.cpg/sg5_36_cif.got.tgz:70144.got - 2010.06.03 18:56:24.
