data_PCOD9128420
_publ_section_title
;
Structure prediction by ZEFSAII (Michael W. Deem and Ramdas Pophale) SiO2 
 PCOD9128420
Probable space group: C 2
;
_chemical_formula_sum "Si O2"
_cell_formula_units_Z 26
_cell_length_a 21.602133
_cell_length_b 8.584494
_cell_length_c 5.953706
_cell_angle_alpha 90.000000
_cell_angle_beta 82.644777
_cell_angle_gamma 90.000000
_cell_volume 1094.990502
_symmetry_space_group_name_H-M "C 2"
_symmetry_group_IT_number 5
_symmetry_cell_setting 'monoclinic'
loop_
_space_group_symop_operation_xyz
x,y,z
-x,y,-z
1/2+x,1/2+y,z
1/2-x,1/2+y,-z
loop_
_atom_site_type_symbol
_atom_site_label
_atom_site_fract_x
_atom_site_fract_y
_atom_site_fract_z
Si Si1 0.000000 0.928931 0.500000
Si Si2 0.000000 0.762897 0.000000
Si Si3 0.895057 0.109869 0.355602
Si Si4 0.500000 0.753682 0.000000
Si Si5 0.413246 0.002945 0.862781
Si Si6 0.296246 0.414121 0.127237
Si Si7 0.206856 0.574668 0.877610
Si Si8 0.329000 0.929613 0.535352
O O1 0.004933 0.843682 0.746400
O O2 0.063617 0.031325 0.466811
O O3 0.942150 0.647201 0.981607
O O4 0.858136 0.266000 0.441340
O O5 0.947484 0.157112 0.149279
O O6 0.848052 0.989046 0.260265
O O7 0.535815 0.867889 0.154446
O O8 0.386453 0.020460 0.626728
O O9 0.349093 0.959035 0.019554
O O10 0.311697 0.244157 0.027051
O O11 0.231705 0.387605 0.290843
O O12 0.273841 0.527714 0.939980
O O13 0.201220 0.554459 0.618387
#
# Coordination Sequence:
#
# PCOD9128420 Si02
#       8
#     2   2   4   2   4   4   4   4
#     4  12  28  48  72 116 156 206 254 326 392 466
#     4  11  27  48  72 114 156 200 260 322 394 466
#     4  12  25  47  76 111 153 198 258 316 390 468
#     4  11  23  46  76 108 148 206 244 320 380 472
#     4  10  24  43  76 102 149 200 250 313 392 462
#     4  11  26  44  73 107 146 197 249 323 390 459
#     4  11  23  46  68 105 148 191 256 315 389 462
#     4  11  24  45  73 108 141 198 254 319 384 465
#
# _framework density 23.744498
#
# number of rings (size 3 to 8) (size 9 to 14) (size 15 to 20)
#    0.000    0.923    1.538    4.154    6.462    1.231 
#    8.308    0.000    0.000    0.000    0.000    0.000 
#    0.000    0.000    0.000    0.000    0.000    0.000 
#
# Total GULP energy -72518.459465 kJ/mol
# GULP energy per Si atom -5578.343036 kJ/mol
# Density = 2.369045 g / cm^3
# Si number density = 23.744498 Si / 1000 Ang^3
#
#
#
# Elastic Constant Matrix: (Units=GPa)
#
#
# Indices 1 2 3 4 5 6 
#
# 1 159.5892 51.9167 41.0427 0.0000 36.8791 0.0000
# 2 51.9167 96.2519 49.5203 0.0000 39.5581 0.0000
# 3 41.0427 49.5203 78.2158 0.0000 31.7355 0.0000
# 4 0.0000 0.0000 0.0000 30.0701 0.0000 -9.6883
# 5 36.8791 39.5581 31.7355 0.0000 58.3622 0.0000
# 6 0.0000 0.0000 0.0000 -9.6883 0.0000 -2.1602
#
#
#
# Elastic Compliance Matrix: (Units=1/GPa)
#
#
# Indices 1 2 3 4 5 6 
#
# 1 0.008079 -0.002467 -0.001648 0.000000 -0.002537 0.000000
# 2 -0.002467 0.018431 -0.007619 0.000000 -0.006790 0.000000
# 3 -0.001648 -0.007619 0.020473 0.000000 -0.004927 0.000000
# 4 0.000000 0.000000 0.000000 0.013601 0.000000 -0.061002
# 5 -0.002537 -0.006790 -0.004927 0.000000 0.026019 0.000000
# 6 0.000000 0.000000 0.000000 -0.061002 0.000000 -0.189335
#
#
# Mechanical properties :
#
#
# Convention : Reuss Voigt Hill
#
# Bulk Modulus (GPa) = 42.52859 68.77958 55.65409
# Shear Modulus (GPa) = -70.00256 30.02626 -19.98815
#
# Velocity S-wave (km/s) = -5.43559 3.55992 -2.90453
# Velocity P-wave (km/s) = 4.63080 6.77693 3.49875
#
# Compressibility (1/GPa) = 0.02351360
#
# Stress axis : x y z
#
# Youngs Moduli (GPa) = 123.78261 54.25669 48.84525
#
# Poissons Ratio (x) = 0.13386 0.08050
# Poissons Ratio (y) = 0.30539 0.37217
# Poissons Ratio (z) = 0.20399 0.41340
#
# Static dielectric constant tensor:
#      x y z
#    x 1.885930 0.000000 -0.031390 
#    y 0.000000 2.017350 0.000000 
#    z -0.031390 0.000000 2.128610 
# 
# From -- ./inp_files/10183.got.cif
#   From: 2010.05.17/outbox.cif.g08.bks.cpg/sg5_6_cif.got.tgz:10183.got - 2010.06.03 18:56:24.
