data_PCOD9128762
_publ_section_title
;
Structure prediction by ZEFSAII (Michael W. Deem and Ramdas Pophale) SiO2 
 PCOD9128762
Probable space group: C 2
;
_chemical_formula_sum "Si O2"
_cell_formula_units_Z 20
_cell_length_a 12.376452
_cell_length_b 4.922045
_cell_length_c 17.046280
_cell_angle_alpha 90.000000
_cell_angle_beta 127.762885
_cell_angle_gamma 90.000000
_cell_volume 820.921694
_symmetry_space_group_name_H-M "C 2"
_symmetry_group_IT_number 5
_symmetry_cell_setting 'monoclinic'
loop_
_space_group_symop_operation_xyz
x,y,z
-x,y,-z
1/2+x,1/2+y,z
1/2-x,1/2+y,-z
loop_
_atom_site_type_symbol
_atom_site_label
_atom_site_fract_x
_atom_site_fract_y
_atom_site_fract_z
Si Si1 0.500000 0.421031 0.500000
Si Si2 0.735042 0.070806 0.684365
Si Si3 0.308673 0.126450 0.157545
Si Si4 0.038464 0.122473 0.840737
Si Si5 0.000000 0.118846 0.000000
Si Si6 0.294568 0.763509 0.476079
O O1 0.618119 0.246068 0.591268
O O2 0.439392 0.617646 0.539049
O O3 0.692735 0.015353 0.754471
O O4 0.884616 0.207586 0.750002
O O5 0.747941 0.815488 0.632065
O O6 0.407227 0.380121 0.188744
O O7 0.153338 0.240066 0.075959
O O8 0.359527 0.879715 0.123922
O O9 0.021653 0.998747 0.921844
O O10 0.199882 0.545837 0.476385
#
# Coordination Sequence:
#
# PCOD9128762 Si02
#       6
#     2   4   4   4   2   4
#     4  12  28  48  72 106 144 204 248 314 352 434
#     4  11  29  46  72 107 147 191 253 296 360 433
#     4  11  27  47  76 108 145 186 235 300 365 432
#     4  11  27  45  76 107 148 186 235 298 364 433
#     4  10  24  50  76 112 140 186 236 288 366 452
#     4  12  28  46  71 102 141 199 250 306 365 421
#
# _framework density 24.362857999999999
#
# number of rings (size 3 to 8) (size 9 to 14) (size 15 to 20)
#    0.000    0.800    2.000    1.800    8.400    8.000 
#    0.000    0.000    0.000    0.000    0.000    0.000 
#    0.000    0.000    0.000    0.000    0.000    0.000 
#
# Total GULP energy -55833.442258 kJ/mol
# GULP energy per Si atom -5583.344226 kJ/mol
# Density = 2.430741 g / cm^3
# Si number density = 24.362858 Si / 1000 Ang^3
#
#
#
# Elastic Constant Matrix: (Units=GPa)
#
#
# Indices 1 2 3 4 5 6 
#
# 1 156.6673 41.1075 63.3714 0.0000 -5.8405 0.0000
# 2 41.1075 89.9358 21.7901 0.0000 -8.5090 0.0000
# 3 63.3714 21.7901 116.9699 0.0000 3.3662 0.0000
# 4 0.0000 0.0000 0.0000 9.2178 0.0000 22.7692
# 5 -5.8405 -8.5090 3.3662 0.0000 50.0353 0.0000
# 6 0.0000 0.0000 0.0000 22.7692 0.0000 331.0777
#
#
#
# Elastic Compliance Matrix: (Units=1/GPa)
#
#
# Indices 1 2 3 4 5 6 
#
# 1 0.008935 -0.002961 -0.004313 0.000000 0.000830 0.000000
# 2 -0.002961 0.012857 -0.000846 0.000000 0.001898 0.000000
# 3 -0.004313 -0.000846 0.011084 0.000000 -0.001393 0.000000
# 4 0.000000 0.000000 0.000000 0.130686 0.000000 -0.008988
# 5 0.000830 0.001898 -0.001393 0.000000 0.020499 0.000000
# 6 0.000000 0.000000 0.000000 -0.008988 0.000000 0.003639
#
#
# Mechanical properties :
#
#
# Convention : Reuss Voigt Hill
#
# Bulk Modulus (GPa) = 60.10857 68.45678 64.28267
# Shear Modulus (GPa) = 23.86807 93.88642 58.87724
#
# Velocity S-wave (km/s) = 3.13340 6.21453 4.92131
# Velocity P-wave (km/s) = 6.14953 8.92489 7.66389
#
# Compressibility (1/GPa) = 0.01663656
#
# Stress axis : x y z
#
# Youngs Moduli (GPa) = 111.91373 77.78041 90.22256
#
# Poissons Ratio (x) = 0.23028 0.38916
# Poissons Ratio (y) = 0.33133 0.07630
# Poissons Ratio (z) = 0.48272 0.06578
#
# Static dielectric constant tensor:
#      x y z
#    x 0.740590 0.000000 -0.133850 
#    y 0.000000 1.922540 0.000000 
#    z -0.133850 0.000000 1.961960 
# 
# From -- ./inp_files/60105.got.cif
#   From: 2010.05.17/outbox.cif.g08.bks.cpg/sg5_31_cif.got.tgz:60105.got - 2010.06.03 18:56:24.
