data_PCOD9128159
_publ_section_title
;
Structure prediction by ZEFSAII (Michael W. Deem and Ramdas Pophale) SiO2 
 PCOD9128159
Probable space group: C 2
;
_chemical_formula_sum "Si O2"
_cell_formula_units_Z 18
_cell_length_a 24.524358
_cell_length_b 4.699147
_cell_length_c 12.473775
_cell_angle_alpha 90.000000
_cell_angle_beta 31.665797
_cell_angle_gamma 90.000000
_cell_volume 754.646959
_symmetry_space_group_name_H-M "C 2"
_symmetry_group_IT_number 5
_symmetry_cell_setting 'monoclinic'
loop_
_space_group_symop_operation_xyz
x,y,z
-x,y,-z
1/2+x,1/2+y,z
1/2-x,1/2+y,-z
loop_
_atom_site_type_symbol
_atom_site_label
_atom_site_fract_x
_atom_site_fract_y
_atom_site_fract_z
Si Si1 0.160427 0.817680 0.419231
Si Si2 0.240534 0.108726 0.086913
Si Si3 0.500000 0.537946 0.000000
Si Si4 0.637524 0.141942 0.922478
Si Si5 0.940460 0.299288 0.304214
O O1 0.139358 0.504929 0.500038
O O2 0.067755 0.999264 0.624804
O O3 0.165119 0.911376 0.286710
O O4 0.269019 0.948842 0.281305
O O5 0.308335 0.275820 0.063237
O O6 0.299538 0.864846 0.919845
O O7 0.577327 0.344196 0.941502
O O8 0.429296 0.729831 0.196744
O O9 0.553069 0.934221 0.115535
#
# Coordination Sequence:
#
# PCOD9128159 Si02
#       5
#     4   4   2   4   4
#     4  10  26  45  78 102 154 194 254 299 375 455
#     4  10  23  47  80 106 146 196 247 311 378 434
#     4  12  26  50  76 112 164 202 240 322 374 446
#     4  10  27  49  74 108 157 193 249 317 366 448
#     4  12  24  49  70 113 147 198 255 298 376 450
#
# _framework density 23.852215999999999
#
# number of rings (size 3 to 8) (size 9 to 14) (size 15 to 20)
#    1.333    0.000    2.222    2.000    6.222    0.000 
#    8.000    6.667    0.000    0.000    0.000    0.000 
#    0.000    0.000    0.000    0.000    0.000    0.000 
#
# Total GULP energy -50138.468170 kJ/mol
# GULP energy per Si atom -5570.940908 kJ/mol
# Density = 2.379793 g / cm^3
# Si number density = 23.852216 Si / 1000 Ang^3
#
#
#
# Elastic Constant Matrix: (Units=GPa)
#
#
# Indices 1 2 3 4 5 6 
#
# 1 62.8117 25.8928 0.5627 -0.0003 23.4055 0.0004
# 2 25.8928 113.1399 26.6864 -0.0048 15.5197 -0.0002
# 3 0.5627 26.6864 89.4746 -0.0019 21.3052 0.0006
# 4 -0.0003 -0.0048 -0.0019 61.6696 0.0004 6.7850
# 5 23.4055 15.5197 21.3052 0.0004 34.3498 -0.0001
# 6 0.0004 -0.0002 0.0006 6.7850 -0.0001 56.3025
#
#
#
# Elastic Compliance Matrix: (Units=1/GPa)
#
#
# Indices 1 2 3 4 5 6 
#
# 1 0.024398 -0.004397 0.005448 0.000000 -0.018017 0.000000
# 2 -0.004397 0.010567 -0.003169 0.000001 0.000187 0.000000
# 3 0.005448 -0.003169 0.014819 0.000000 -0.011472 0.000000
# 4 0.000000 0.000001 0.000000 0.016433 -0.000001 -0.001980
# 5 -0.018017 0.000187 -0.011472 -0.000001 0.048419 0.000000
# 6 0.000000 0.000000 0.000000 -0.001980 0.000000 0.018000
#
#
# Mechanical properties :
#
#
# Convention : Reuss Voigt Hill
#
# Bulk Modulus (GPa) = 21.95472 41.30110 31.62791
# Shear Modulus (GPa) = 32.88299 44.61667 38.74983
#
# Velocity S-wave (km/s) = 3.71700 4.32967 4.03498
# Velocity P-wave (km/s) = 5.25794 6.50752 5.91581
#
# Compressibility (1/GPa) = 0.04554829
#
# Stress axis : x y z
#
# Youngs Moduli (GPa) = 40.98670 94.63755 67.48195
#
# Poissons Ratio (x) = 0.41615 -0.36766
# Poissons Ratio (y) = 0.18023 0.21382
# Poissons Ratio (z) = -0.22330 0.29986
#
# Static dielectric constant tensor:
#      x y z
#    x 1.939540 0.000000 0.024100 
#    y 0.000000 1.922010 0.000000 
#    z 0.024100 0.000000 1.910100 
# 
# From -- ./inp_files/46870.got.cif
#   From: 2010.05.17/outbox.cif.g08.bks.cpg/sg5_24_cif.got.tgz:46870.got - 2010.06.03 18:56:24.
