data_PCOD9128280
_publ_section_title
;
Structure prediction by ZEFSAII (Michael W. Deem and Ramdas Pophale) SiO2 
 PCOD9128280
Probable space group: C 2
;
_chemical_formula_sum "Si O2"
_cell_formula_units_Z 20
_cell_length_a 5.331694
_cell_length_b 9.035479
_cell_length_c 18.871006
_cell_angle_alpha 90.000000
_cell_angle_beta 89.765634
_cell_angle_gamma 90.000000
_cell_volume 909.091959
_symmetry_space_group_name_H-M "C 2"
_symmetry_group_IT_number 5
_symmetry_cell_setting 'monoclinic'
loop_
_space_group_symop_operation_xyz
x,y,z
-x,y,-z
1/2+x,1/2+y,z
1/2-x,1/2+y,-z
loop_
_atom_site_type_symbol
_atom_site_label
_atom_site_fract_x
_atom_site_fract_y
_atom_site_fract_z
Si Si1 0.837212 0.730850 0.435975
Si Si2 0.837951 0.395284 0.935751
Si Si3 0.002200 0.383073 0.776779
Si Si4 0.500000 0.180415 0.000000
Si Si5 0.998027 0.719405 0.276867
Si Si6 0.000000 0.445974 0.500000
O O1 0.977173 0.729845 0.361842
O O2 0.807674 0.562391 0.463489
O O3 0.597955 0.836522 0.438615
O O4 0.000000 0.796349 0.500000
O O5 0.978648 0.393173 0.861732
O O6 0.598400 0.289864 0.938705
O O7 0.808977 0.563972 0.962874
O O8 0.000000 0.329979 0.000000
O O9 0.755922 0.294665 0.751717
O O10 0.995811 0.548482 0.745913
O O11 0.255328 0.301676 0.752128
#
# Coordination Sequence:
#
# PCOD9128280 Si02
#       6
#     4   4   4   2   4   2
#     4  10  26  42  72  96 138 177 235 276 343 408
#     4  10  26  42  72  96 138 177 235 276 343 408
#     4  12  28  47  72 104 145 184 231 289 354 412
#     4  10  24  40  70  98 134 170 240 276 338 398
#     4  12  28  47  72 104 145 184 231 289 354 412
#     4  10  24  40  70  98 134 170 240 276 338 398
#
# _framework density 21.999972
#
# number of rings (size 3 to 8) (size 9 to 14) (size 15 to 20)
#    1.200    0.000    0.000    3.600   14.000    0.000 
#    0.000    0.000    0.000    0.000    0.000    0.000 
#    0.000    0.000    0.000    0.000    0.000    0.000 
#
# Total GULP energy -55776.360130 kJ/mol
# GULP energy per Si atom -5577.636013 kJ/mol
# Density = 2.194990 g / cm^3
# Si number density = 21.999972 Si / 1000 Ang^3
#
#
#
# Elastic Constant Matrix: (Units=GPa)
#
#
# Indices 1 2 3 4 5 6 
#
# 1 79.0059 36.7618 2.9434 0.0000 -20.2930 0.0000
# 2 36.7618 135.8080 -2.5795 0.0000 -34.0263 0.0000
# 3 2.9434 -2.5795 129.0204 0.0000 -26.4559 0.0000
# 4 0.0000 0.0000 0.0000 41.2646 0.0000 -9.8838
# 5 -20.2930 -34.0263 -26.4559 0.0000 42.6963 0.0000
# 6 0.0000 0.0000 0.0000 -9.8838 0.0000 49.4375
#
#
#
# Elastic Compliance Matrix: (Units=1/GPa)
#
#
# Indices 1 2 3 4 5 6 
#
# 1 0.015334 -0.002745 0.000735 0.000000 0.005556 0.000000
# 2 -0.002745 0.010133 0.001894 0.000000 0.007944 0.000000
# 3 0.000735 0.001894 0.009340 0.000000 0.007646 0.000000
# 4 0.000000 0.000000 0.000000 0.025453 0.000000 0.005089
# 5 0.005556 0.007944 0.007646 0.000000 0.037130 0.000000
# 6 0.000000 0.000000 0.000000 0.005089 0.000000 0.021245
#
#
# Mechanical properties :
#
#
# Convention : Reuss Voigt Hill
#
# Bulk Modulus (GPa) = 28.92335 46.45399 37.68867
# Shear Modulus (GPa) = 38.34604 47.12690 42.73647
#
# Velocity S-wave (km/s) = 4.17946 4.63334 4.41224
# Velocity P-wave (km/s) = 6.03871 7.05586 6.56701
#
# Compressibility (1/GPa) = 0.03457414
#
# Stress axis : x y z
#
# Youngs Moduli (GPa) = 65.21397 98.69003 107.07090
#
# Poissons Ratio (x) = 0.27089 -0.07864
# Poissons Ratio (y) = 0.17900 -0.20281
# Poissons Ratio (z) = -0.04790 -0.18694
#
# Static dielectric constant tensor:
#      x y z
#    x 1.745800 0.000000 -0.085660 
#    y 0.000000 1.775060 0.000000 
#    z -0.085660 0.000000 1.762510 
# 
# From -- ./inp_files/63838.got.cif
#   From: 2010.05.17/outbox.cif.g08.bks.cpg/sg5_32_cif.got.tgz:63838.got - 2010.06.03 18:56:24.
