data_PCOD9128317
_publ_section_title
;
Structure prediction by ZEFSAII (Michael W. Deem and Ramdas Pophale) SiO2 
 PCOD9128317
Probable space group: C 2
;
_chemical_formula_sum "Si O2"
_cell_formula_units_Z 24
_cell_length_a 7.451046
_cell_length_b 20.756548
_cell_length_c 8.623173
_cell_angle_alpha 90.000000
_cell_angle_beta 64.779569
_cell_angle_gamma 90.000000
_cell_volume 1206.513376
_symmetry_space_group_name_H-M "C 2"
_symmetry_group_IT_number 5
_symmetry_cell_setting 'monoclinic'
loop_
_space_group_symop_operation_xyz
x,y,z
-x,y,-z
1/2+x,1/2+y,z
1/2-x,1/2+y,-z
loop_
_atom_site_type_symbol
_atom_site_label
_atom_site_fract_x
_atom_site_fract_y
_atom_site_fract_z
Si Si1 0.631136 0.928250 0.307773
Si Si2 0.955900 0.936268 0.672981
Si Si3 0.226370 0.205308 0.870831
Si Si4 0.000000 0.645068 0.500000
Si Si5 0.847455 0.542238 0.316879
Si Si6 0.792454 0.844424 0.983873
Si Si7 0.000000 0.627270 0.000000
O O1 0.500000 0.904448 0.500000
O O2 0.842498 0.947509 0.305174
O O3 0.526821 0.992078 0.280343
O O4 0.652543 0.873967 0.168788
O O5 0.000000 0.895570 0.500000
O O6 0.820194 0.899460 0.845221
O O7 0.160876 0.996719 0.354676
O O8 0.341507 0.185660 0.666137
O O9 0.235077 0.280705 0.911694
O O10 0.364681 0.170221 0.942968
O O11 0.000000 0.184818 0.000000
O O12 0.132925 0.596179 0.556355
O O13 0.869005 0.581763 0.153345
O O14 0.000000 0.833153 0.000000
#
# Coordination Sequence:
#
# PCOD9128317 Si02
#       7
#     4   4   4   2   4   4   2
#     4  11  22  41  61 100 133 164 215 277 336 396
#     4  11  22  37  65  98 126 171 209 268 345 396
#     4  11  25  46  67  97 130 187 226 272 334 392
#     4  10  24  46  70  96 144 170 226 286 314 410
#     4  11  21  41  66  95 133 171 212 276 333 398
#     4  10  24  43  65  92 139 169 219 278 326 402
#     4  10  24  42  64  94 134 170 230 274 314 406
#
# _framework density 19.892029999999998
#
# number of rings (size 3 to 8) (size 9 to 14) (size 15 to 20)
#    0.000    1.333    3.333    1.000    3.500    4.000 
#    3.000    3.333    0.000    0.000    0.000    0.000 
#    0.000    0.000    0.000    0.000    0.000    0.000 
#
# Total GULP energy -66859.228844 kJ/mol
# GULP energy per Si atom -5571.602404 kJ/mol
# Density = 1.984676 g / cm^3
# Si number density = 19.892030 Si / 1000 Ang^3
#
#
#
# Elastic Constant Matrix: (Units=GPa)
#
#
# Indices 1 2 3 4 5 6 
#
# 1 58.1309 18.1474 -1.7882 0.0000 -0.0036 0.0000
# 2 18.1474 93.7913 49.1435 0.0000 2.3838 0.0000
# 3 -1.7882 49.1435 113.8460 0.0000 12.7681 0.0000
# 4 0.0000 0.0000 0.0000 87.2299 0.0000 29.3180
# 5 -0.0036 2.3838 12.7681 0.0000 25.9714 0.0000
# 6 0.0000 0.0000 0.0000 29.3180 0.0000 32.9326
#
#
#
# Elastic Compliance Matrix: (Units=1/GPa)
#
#
# Indices 1 2 3 4 5 6 
#
# 1 0.018822 -0.004940 0.002516 0.000000 -0.000781 0.000000
# 2 -0.004940 0.015151 -0.006839 0.000000 0.001971 0.000000
# 3 0.002516 -0.006839 0.012388 0.000000 -0.005462 0.000000
# 4 0.000000 0.000000 0.000000 0.016359 0.000000 -0.014563
# 5 -0.000781 0.001971 -0.005462 0.000000 0.041008 0.000000
# 6 0.000000 0.000000 0.000000 -0.014563 0.000000 0.043330
#
#
# Mechanical properties :
#
#
# Convention : Reuss Voigt Hill
#
# Bulk Modulus (GPa) = 35.92644 44.08594 40.00619
# Shear Modulus (GPa) = 28.59386 42.57781 35.58584
#
# Velocity S-wave (km/s) = 3.79549 4.63151 4.23419
# Velocity P-wave (km/s) = 6.10799 7.12825 6.63775
#
# Compressibility (1/GPa) = 0.02783465
#
# Stress axis : x y z
#
# Youngs Moduli (GPa) = 53.12894 66.00198 80.72327
#
# Poissons Ratio (x) = 0.32606 -0.20308
# Poissons Ratio (y) = 0.26246 0.55205
# Poissons Ratio (z) = -0.13366 0.45138
#
# Static dielectric constant tensor:
#      x y z
#    x 1.713940 0.000000 -0.027740 
#    y 0.000000 1.726540 0.000000 
#    z -0.027740 0.000000 1.711700 
# 
# From -- ./inp_files/16585.got.cif
#   From: 2010.05.17/outbox.cif.g08.bks.cpg/sg5_9_cif.got.tgz:16585.got - 2010.06.03 18:56:24.
