data_PCOD9128674
_publ_section_title
;
Structure prediction by ZEFSAII (Michael W. Deem and Ramdas Pophale) SiO2 
 PCOD9128674
Probable space group: C 2
;
_chemical_formula_sum "Si O2"
_cell_formula_units_Z 26
_cell_length_a 11.167217
_cell_length_b 10.864652
_cell_length_c 10.744538
_cell_angle_alpha 90.000000
_cell_angle_beta 124.339179
_cell_angle_gamma 90.000000
_cell_volume 1076.409490
_symmetry_space_group_name_H-M "C 2"
_symmetry_group_IT_number 5
_symmetry_cell_setting 'monoclinic'
loop_
_space_group_symop_operation_xyz
x,y,z
-x,y,-z
1/2+x,1/2+y,z
1/2-x,1/2+y,-z
loop_
_atom_site_type_symbol
_atom_site_label
_atom_site_fract_x
_atom_site_fract_y
_atom_site_fract_z
Si Si1 0.500000 0.272610 0.500000
Si Si2 0.398701 0.044036 0.844173
Si Si3 0.739310 0.175292 0.463978
Si Si4 0.852924 0.391428 0.356018
Si Si5 0.655005 0.395744 0.824739
Si Si6 0.090027 0.054155 0.236469
Si Si7 0.580322 0.800294 0.877147
O O1 0.637835 0.206354 0.520318
O O2 0.570735 0.342720 0.657684
O O3 0.358685 0.111309 0.696052
O O4 0.253155 0.007001 0.830194
O O5 0.486439 0.920357 0.859500
O O6 0.500000 0.116349 0.000000
O O7 0.799247 0.297217 0.431914
O O8 0.861635 0.085200 0.591842
O O9 0.732174 0.494555 0.258686
O O10 0.884933 0.316475 0.248730
O O11 0.000000 0.446260 0.500000
O O12 0.534366 0.451907 0.843487
O O13 0.769066 0.305576 0.958590
O O14 0.018493 0.182148 0.153433
#
# Coordination Sequence:
#
# PCOD9128674 Si02
#       7
#     2   4   4   4   4   4   4
#     4  12  26  46  72 112 146 198 266 320 386 476
#     4  10  24  47  74 107 153 203 258 320 395 468
#     4  12  26  45  79 106 153 205 260 329 394 466
#     4  12  26  50  75 118 155 204 269 320 393 479
#     4  11  25  49  74 107 153 202 262 310 401 469
#     4  12  26  49  77 111 156 209 248 332 392 458
#     4  11  26  50  77 113 156 204 260 329 389 479
#
# _framework density 24.154377
#
# number of rings (size 3 to 8) (size 9 to 14) (size 15 to 20)
#    0.000    0.615    3.077    3.692    3.231    4.308 
#   11.077    0.000    0.000    0.000    0.000    0.000 
#    0.000    0.000    0.000    0.000    0.000    0.000 
#
# Total GULP energy -72811.325065 kJ/mol
# GULP energy per Si atom -5600.871159 kJ/mol
# Density = 2.409940 g / cm^3
# Si number density = 24.154377 Si / 1000 Ang^3
#
#
#
# Elastic Constant Matrix: (Units=GPa)
#
#
# Indices 1 2 3 4 5 6 
#
# 1 116.3407 35.1532 14.1390 0.0000 12.0473 0.0000
# 2 35.1532 80.0503 55.7049 0.0000 18.7794 0.0000
# 3 14.1390 55.7049 124.7891 0.0000 25.6446 0.0000
# 4 0.0000 0.0000 0.0000 32.1747 0.0000 9.1281
# 5 12.0473 18.7794 25.6446 0.0000 44.5628 0.0000
# 6 0.0000 0.0000 0.0000 9.1281 0.0000 28.0294
#
#
#
# Elastic Compliance Matrix: (Units=1/GPa)
#
#
# Indices 1 2 3 4 5 6 
#
# 1 0.010108 -0.005097 0.001418 0.000000 -0.001401 0.000000
# 2 -0.005097 0.021152 -0.008297 0.000000 -0.002761 0.000000
# 3 0.001418 -0.008297 0.012381 0.000000 -0.004012 0.000000
# 4 0.000000 0.000000 0.000000 0.034244 0.000000 -0.011152
# 5 -0.001401 -0.002761 -0.004012 0.000000 0.026291 0.000000
# 6 0.000000 0.000000 0.000000 -0.011152 0.000000 0.039309
#
#
# Mechanical properties :
#
#
# Convention : Reuss Voigt Hill
#
# Bulk Modulus (GPa) = 50.79074 59.01938 54.90506
# Shear Modulus (GPa) = 28.73554 35.36557 32.05056
#
# Velocity S-wave (km/s) = 3.45289 3.83057 3.64662
# Velocity P-wave (km/s) = 6.08028 6.63714 6.36480
#
# Compressibility (1/GPa) = 0.01968863
#
# Stress axis : x y z
#
# Youngs Moduli (GPa) = 98.92901 47.27705 80.76833
#
# Poissons Ratio (x) = 0.24097 -0.11451
# Poissons Ratio (y) = 0.50423 0.67015
# Poissons Ratio (z) = -0.14026 0.39227
#
# Static dielectric constant tensor:
#      x y z
#    x 1.936440 0.000000 0.039310 
#    y 0.000000 1.947820 0.000000 
#    z 0.039310 0.000000 1.971370 
# 
# From -- ./inp_files/39291.got.cif
#   From: 2010.05.17/outbox.cif.g08.bks.cpg/sg5_20_cif.got.tgz:39291.got - 2010.06.03 18:56:24.
