data_PCOD9128379
_publ_section_title
;
Structure prediction by ZEFSAII (Michael W. Deem and Ramdas Pophale) SiO2 
 PCOD9128379
Probable space group: C 2
;
_chemical_formula_sum "Si O2"
_cell_formula_units_Z 28
_cell_length_a 8.483206
_cell_length_b 12.063141
_cell_length_c 13.315095
_cell_angle_alpha 90.000000
_cell_angle_beta 58.092527
_cell_angle_gamma 90.000000
_cell_volume 1156.705048
_symmetry_space_group_name_H-M "C 2"
_symmetry_group_IT_number 5
_symmetry_cell_setting 'monoclinic'
loop_
_space_group_symop_operation_xyz
x,y,z
-x,y,-z
1/2+x,1/2+y,z
1/2-x,1/2+y,-z
loop_
_atom_site_type_symbol
_atom_site_label
_atom_site_fract_x
_atom_site_fract_y
_atom_site_fract_z
Si Si1 0.578523 0.457590 0.181265
Si Si2 0.192835 0.177009 0.062869
Si Si3 0.060877 0.718566 0.826296
Si Si4 0.811071 0.709154 0.619375
Si Si5 0.475739 0.046366 0.321855
Si Si6 0.422716 0.873942 0.171168
Si Si7 0.877053 0.046869 0.443348
O O1 0.574998 0.564925 0.111216
O O2 0.482236 0.348125 0.171061
O O3 0.797813 0.437540 0.131711
O O4 0.479677 0.483327 0.320029
O O5 0.286888 0.197046 0.140248
O O6 0.069172 0.284402 0.083623
O O7 0.363055 0.168795 0.929154
O O8 0.109547 0.653036 0.708709
O O9 0.729771 0.801713 0.717408
O O10 0.663764 0.668828 0.587244
O O11 0.000000 0.742825 0.500000
O O12 0.859056 0.599917 0.669848
O O13 0.323376 0.002716 0.452246
O O14 0.510971 0.956449 0.223867
O O15 0.000000 0.047072 0.500000
#
# Coordination Sequence:
#
# PCOD9128379 Si02
#       7
#     4   4   4   4   4   4   4
#     4  12  25  47  74 100 145 187 235 297 358 425
#     4  11  27  47  70 108 134 191 245 292 361 423
#     4  11  26  48  72 101 148 184 238 304 352 418
#     4  10  24  43  64 102 148 182 239 286 350 427
#     4  11  24  43  68 103 141 184 232 292 353 420
#     4  12  24  42  73  98 138 186 237 288 353 421
#     4  11  22  43  72 102 142 190 230 290 357 424
#
# _framework density 24.206689000000001
#
# number of rings (size 3 to 8) (size 9 to 14) (size 15 to 20)
#    0.000    0.857    5.714    0.000    6.000    0.571 
#    0.000    2.143    0.000    0.000    0.000    0.000 
#    0.000    0.000    0.000    0.000    0.000    0.000 
#
# Total GULP energy -78434.542144 kJ/mol
# GULP energy per Si atom -5602.467296 kJ/mol
# Density = 2.415159 g / cm^3
# Si number density = 24.206689 Si / 1000 Ang^3
#
#
#
# Elastic Constant Matrix: (Units=GPa)
#
#
# Indices 1 2 3 4 5 6 
#
# 1 52.0231 29.0469 16.8883 0.0000 -1.9931 0.0000
# 2 29.0469 111.7974 35.6720 0.0000 0.7357 0.0000
# 3 16.8883 35.6720 82.5908 0.0000 -9.2624 0.0000
# 4 0.0000 0.0000 0.0000 31.4531 0.0000 -0.8652
# 5 -1.9931 0.7357 -9.2624 0.0000 27.2752 0.0000
# 6 0.0000 0.0000 0.0000 -0.8652 0.0000 20.1122
#
#
#
# Elastic Compliance Matrix: (Units=1/GPa)
#
#
# Indices 1 2 3 4 5 6 
#
# 1 0.022931 -0.005226 -0.002317 0.000000 0.001030 0.000000
# 2 -0.005226 0.011658 -0.004205 0.000000 -0.002124 0.000000
# 3 -0.002317 -0.004205 0.014961 0.000000 0.005025 0.000000
# 4 0.000000 0.000000 0.000000 0.031831 0.000000 0.001369
# 5 0.001030 -0.002124 0.005025 0.000000 0.038502 0.000000
# 6 0.000000 0.000000 0.000000 0.001369 0.000000 0.049780
#
#
# Mechanical properties :
#
#
# Convention : Reuss Voigt Hill
#
# Bulk Modulus (GPa) = 38.37806 45.51397 41.94601
# Shear Modulus (GPa) = 24.77160 26.75503 25.76332
#
# Velocity S-wave (km/s) = 3.20243 3.32817 3.26591
# Velocity P-wave (km/s) = 5.43717 5.79759 5.62027
#
# Compressibility (1/GPa) = 0.02605656
#
# Stress axis : x y z
#
# Youngs Moduli (GPa) = 43.60834 85.77688 66.83914
#
# Poissons Ratio (x) = 0.44823 0.15484
# Poissons Ratio (y) = 0.22788 0.28106
# Poissons Ratio (z) = 0.10102 0.36069
#
# Static dielectric constant tensor:
#      x y z
#    x 1.960660 0.000000 -0.003050 
#    y 0.000000 1.921060 0.000000 
#    z -0.003050 0.000000 1.916410 
# 
# From -- ./inp_files/50407.got.cif
#   From: 2010.05.17/outbox.cif.g08.bks.cpg/sg5_26_cif.got.tgz:50407.got - 2010.06.03 18:56:24.
