data_PCOD9128374
_publ_section_title
;
Structure prediction by ZEFSAII (Michael W. Deem and Ramdas Pophale) SiO2 
 PCOD9128374
Probable space group: C 2
;
_chemical_formula_sum "Si O2"
_cell_formula_units_Z 14
_cell_length_a 11.722622
_cell_length_b 7.437970
_cell_length_c 14.227221
_cell_angle_alpha 90.000000
_cell_angle_beta 149.640970
_cell_angle_gamma 90.000000
_cell_volume 626.973244
_symmetry_space_group_name_H-M "C 2"
_symmetry_group_IT_number 5
_symmetry_cell_setting 'monoclinic'
loop_
_space_group_symop_operation_xyz
x,y,z
-x,y,-z
1/2+x,1/2+y,z
1/2-x,1/2+y,-z
loop_
_atom_site_type_symbol
_atom_site_label
_atom_site_fract_x
_atom_site_fract_y
_atom_site_fract_z
Si Si1 0.500000 0.176040 0.000000
Si Si2 0.939621 0.931432 0.716442
Si Si3 0.144306 0.558638 0.898713
Si Si4 0.986961 0.281315 0.342804
O O1 0.272666 0.281016 0.810615
O O2 0.566650 0.072058 0.952218
O O3 0.680583 0.872031 0.542204
O O4 0.074566 0.743749 0.798840
O O5 0.950730 0.076073 0.639680
O O6 0.087186 0.022227 0.904293
O O7 0.024425 0.395979 0.761229
#
# Coordination Sequence:
#
# PCOD9128374 Si02
#       4
#     2   4   4   4
#     4  10  24  42  72  96 138 178 220 270 344 390
#     4  11  21  40  72  94 137 176 216 278 336 381
#     4  11  22  43  65 101 137 170 220 280 326 396
#     4  11  23  43  69  99 134 179 218 278 330 396
#
# _framework density 22.329501
#
# number of rings (size 3 to 8) (size 9 to 14) (size 15 to 20)
#    0.000    1.143    8.571    0.000    0.000    1.143 
#    0.000   12.857   12.571    0.000    0.000    0.000 
#    0.000    0.000    0.000    0.000    0.000    0.000 
#
# Total GULP energy -39014.853472 kJ/mol
# GULP energy per Si atom -5573.550496 kJ/mol
# Density = 2.227868 g / cm^3
# Si number density = 22.329501 Si / 1000 Ang^3
#
#
#
# Elastic Constant Matrix: (Units=GPa)
#
#
# Indices 1 2 3 4 5 6 
#
# 1 88.0788 39.4342 58.4002 0.0005 1.3514 0.0002
# 2 39.4342 130.3738 51.8420 0.0007 10.2719 0.0005
# 3 58.4002 51.8420 226.7089 0.0005 34.5731 0.0006
# 4 0.0005 0.0007 0.0005 61.0572 0.0006 1.4681
# 5 1.3514 10.2719 34.5731 0.0006 44.4003 0.0004
# 6 0.0002 0.0005 0.0006 1.4681 0.0004 20.9578
#
#
#
# Elastic Compliance Matrix: (Units=1/GPa)
#
#
# Indices 1 2 3 4 5 6 
#
# 1 0.015238 -0.003416 -0.003624 0.000000 0.003149 0.000000
# 2 -0.003416 0.009213 -0.001041 0.000000 -0.001217 0.000000
# 3 -0.003624 -0.001041 0.006274 0.000000 -0.004534 0.000000
# 4 0.000000 0.000000 0.000000 0.016406 0.000000 -0.001149
# 5 0.003149 -0.001217 -0.004534 0.000000 0.026239 0.000000
# 6 0.000000 0.000000 0.000000 -0.001149 0.000000 0.047795
#
#
# Mechanical properties :
#
#
# Convention : Reuss Voigt Hill
#
# Bulk Modulus (GPa) = 68.67107 82.72381 75.69744
# Shear Modulus (GPa) = 35.16623 44.98206 40.07415
#
# Velocity S-wave (km/s) = 3.97278 4.49315 4.24095
# Velocity P-wave (km/s) = 7.20168 8.00282 7.61280
#
# Compressibility (1/GPa) = 0.01456217
#
# Stress axis : x y z
#
# Youngs Moduli (GPa) = 65.62755 108.53766 159.38400
#
# Poissons Ratio (x) = 0.37074 0.57764
# Poissons Ratio (y) = 0.22417 0.16598
# Poissons Ratio (z) = 0.23785 0.11303
#
# Static dielectric constant tensor:
#      x y z
#    x 1.844750 0.000000 0.009660 
#    y 0.000000 1.880500 0.000000 
#    z 0.009660 0.000000 1.864650 
# 
# From -- ./inp_files/37843.got.cif
#   From: 2010.05.17/outbox.cif.g08.bks.cpg/sg5_19_cif.got.tgz:37843.got - 2010.06.03 18:56:24.
