data_PCOD9128643
_publ_section_title
;
Structure prediction by ZEFSAII (Michael W. Deem and Ramdas Pophale) SiO2 
 PCOD9128643
Probable space group: C 2
;
_chemical_formula_sum "Si O2"
_cell_formula_units_Z 20
_cell_length_a 18.535143
_cell_length_b 5.226155
_cell_length_c 9.126112
_cell_angle_alpha 90.000000
_cell_angle_beta 119.494346
_cell_angle_gamma 90.000000
_cell_volume 769.458217
_symmetry_space_group_name_H-M "C 2"
_symmetry_group_IT_number 5
_symmetry_cell_setting 'monoclinic'
loop_
_space_group_symop_operation_xyz
x,y,z
-x,y,-z
1/2+x,1/2+y,z
1/2-x,1/2+y,-z
loop_
_atom_site_type_symbol
_atom_site_label
_atom_site_fract_x
_atom_site_fract_y
_atom_site_fract_z
Si Si1 0.249998 0.613170 0.600325
Si Si2 0.579965 0.917892 0.501408
Si Si3 0.348321 0.116432 0.002363
Si Si4 0.420038 0.808247 0.841471
Si Si5 0.848323 0.109719 0.194264
O O1 0.256825 0.363246 0.506761
O O2 0.335115 0.079202 0.397161
O O3 0.335115 0.646952 0.773073
O O4 0.500000 0.032196 0.500000
O O5 0.566711 0.863055 0.316719
O O6 0.600577 0.654496 0.607064
O O7 0.399421 0.071662 0.905881
O O8 0.249999 0.113074 0.869518
O O9 0.364860 0.863072 0.114847
O O10 0.368178 0.363070 0.118172
O O11 0.500000 0.693961 0.000000
#
# Coordination Sequence:
#
# PCOD9128643 Si02
#       5
#     4   4   4   4   4
#     4  10  26  50  84 116 164 224 272 336 420 500
#     4  11  26  50  83 124 167 218 282 345 415 498
#     4  10  24  46  77 112 157 212 268 333 409 486
#     4  11  26  50  83 124 167 218 282 345 415 498
#     4  10  24  46  77 112 157 212 268 333 409 486
#
# _framework density 25.992315000000001
#
# number of rings (size 3 to 8) (size 9 to 14) (size 15 to 20)
#    0.000    1.600    0.000    1.200   19.600    0.000 
#    0.000   32.000    0.000    0.000    0.000    0.000 
#    0.000    0.000    0.000    0.000    0.000    0.000 
#
# Total GULP energy -56125.887745 kJ/mol
# GULP energy per Si atom -5612.588774 kJ/mol
# Density = 2.593315 g / cm^3
# Si number density = 25.992315 Si / 1000 Ang^3
#
#
#
# Elastic Constant Matrix: (Units=GPa)
#
#
# Indices 1 2 3 4 5 6 
#
# 1 213.3826 54.6628 94.7982 0.0000 19.6666 0.0000
# 2 54.6628 168.4317 65.6176 0.0000 -5.4739 0.0000
# 3 94.7982 65.6176 197.2963 0.0000 -11.2787 0.0000
# 4 0.0000 0.0000 0.0000 38.5274 0.0000 -2.3465
# 5 19.6666 -5.4739 -11.2787 0.0000 56.2273 0.0000
# 6 0.0000 0.0000 0.0000 -2.3465 0.0000 33.9723
#
#
#
# Elastic Compliance Matrix: (Units=1/GPa)
#
#
# Indices 1 2 3 4 5 6 
#
# 1 0.006553 -0.001069 -0.002964 0.000000 -0.002991 0.000000
# 2 -0.001069 0.006998 -0.001774 0.000000 0.000699 0.000000
# 3 -0.002964 -0.001774 0.007215 0.000000 0.002311 0.000000
# 4 0.000000 0.000000 0.000000 0.026065 0.000000 0.001800
# 5 -0.002991 0.000699 0.002311 0.000000 0.019363 0.000000
# 6 0.000000 0.000000 0.000000 0.001800 0.000000 0.029560
#
#
# Mechanical properties :
#
#
# Convention : Reuss Voigt Hill
#
# Bulk Modulus (GPa) = 109.26820 112.14088 110.70454
# Shear Modulus (GPa) = 45.28290 50.01419 47.64854
#
# Velocity S-wave (km/s) = 4.17845 4.39132 4.28621
# Velocity P-wave (km/s) = 8.08760 8.30356 8.19629
#
# Compressibility (1/GPa) = 0.00915179
#
# Stress axis : x y z
#
# Youngs Moduli (GPa) = 152.60993 142.90159 138.60744
#
# Poissons Ratio (x) = 0.15278 0.41081
# Poissons Ratio (y) = 0.16316 0.24584
# Poissons Ratio (z) = 0.45231 0.25346
#
# Static dielectric constant tensor:
#      x y z
#    x 2.078960 0.000000 0.004380 
#    y 0.000000 2.057760 0.000000 
#    z 0.004380 0.000000 2.070390 
# 
# From -- ./inp_files/28372.got.cif
#   From: 2010.05.17/outbox.cif.g08.bks.cpg/sg5_15_cif.got.tgz:28372.got - 2010.06.03 18:56:24.
