data_PCOD9128789
_publ_section_title
;
Structure prediction by ZEFSAII (Michael W. Deem and Ramdas Pophale) SiO2 
 PCOD9128789
Probable space group: C 2
;
_chemical_formula_sum "Si O2"
_cell_formula_units_Z 20
_cell_length_a 5.097832
_cell_length_b 9.148332
_cell_length_c 17.615762
_cell_angle_alpha 90.000000
_cell_angle_beta 90.146309
_cell_angle_gamma 90.000000
_cell_volume 821.537618
_symmetry_space_group_name_H-M "C 2"
_symmetry_group_IT_number 5
_symmetry_cell_setting 'monoclinic'
loop_
_space_group_symop_operation_xyz
x,y,z
-x,y,-z
1/2+x,1/2+y,z
1/2-x,1/2+y,-z
loop_
_atom_site_type_symbol
_atom_site_label
_atom_site_fract_x
_atom_site_fract_y
_atom_site_fract_z
Si Si1 0.770621 0.942540 0.222702
Si Si2 0.949979 0.438926 0.088323
Si Si3 0.108798 0.770624 0.585126
Si Si4 0.385841 0.939730 0.359002
Si Si5 0.602856 0.662684 0.171685
O O1 0.701435 0.991165 0.136355
O O2 0.860744 0.601387 0.393104
O O3 0.519798 0.950066 0.276263
O O4 0.981637 0.065783 0.239277
O O5 0.917948 0.281537 0.129115
O O6 0.733844 0.555966 0.110905
O O7 0.000000 0.425592 0.000000
O O8 0.386503 0.851356 0.595418
O O9 0.000000 0.783234 0.500000
O O10 0.886960 0.851814 0.635995
O O11 0.319611 0.270835 0.210911
#
# Coordination Sequence:
#
# PCOD9128789 Si02
#       5
#     4   4   4   4   4
#     4  10  26  41  67  97 133 174 227 273 339 399
#     4  10  26  40  67  92 134 172 224 274 335 394
#     4  12  26  47  72 105 141 184 231 284 351 418
#     4  12  27  44  77 102 145 184 231 289 345 413
#     4  10  25  39  65  89 135 166 229 272 333 400
#
# _framework density 24.344597
#
# number of rings (size 3 to 8) (size 9 to 14) (size 15 to 20)
#    1.200    0.000    0.000    4.200   11.200    0.000 
#    0.000    0.000    0.000    0.000    0.000    0.000 
#    0.000    0.000    0.000    0.000    0.000    0.000 
#
# Total GULP energy -55846.836427 kJ/mol
# GULP energy per Si atom -5584.683643 kJ/mol
# Density = 2.428919 g / cm^3
# Si number density = 24.344597 Si / 1000 Ang^3
#
#
#
# Elastic Constant Matrix: (Units=GPa)
#
#
# Indices 1 2 3 4 5 6 
#
# 1 47.9825 26.2765 -1.0360 0.0000 -22.5617 0.0000
# 2 26.2765 188.2768 35.0857 0.0000 -28.8647 0.0000
# 3 -1.0360 35.0857 102.3459 0.0000 4.1345 0.0000
# 4 0.0000 0.0000 0.0000 31.8726 0.0000 -12.1347
# 5 -22.5617 -28.8647 4.1345 0.0000 34.1613 0.0000
# 6 0.0000 0.0000 0.0000 -12.1347 0.0000 22.6630
#
#
#
# Elastic Compliance Matrix: (Units=1/GPa)
#
#
# Indices 1 2 3 4 5 6 
#
# 1 0.030521 -0.001344 0.000001 0.000000 0.019022 0.000000
# 2 -0.001344 0.006758 -0.002538 0.000000 0.005130 0.000000
# 3 0.000001 -0.002538 0.010780 0.000000 -0.003448 0.000000
# 4 0.000000 0.000000 0.000000 0.039409 0.000000 0.021101
# 5 0.019022 0.005130 -0.003448 0.000000 0.046588 0.000000
# 6 0.000000 0.000000 0.000000 0.021101 0.000000 0.055423
#
#
# Mechanical properties :
#
#
# Convention : Reuss Voigt Hill
#
# Bulk Modulus (GPa) = 24.81441 51.02863 37.92152
# Shear Modulus (GPa) = 23.73351 36.29132 30.01241
#
# Velocity S-wave (km/s) = 3.12572 3.86519 3.51496
# Velocity P-wave (km/s) = 4.82099 6.39735 5.66428
#
# Compressibility (1/GPa) = 0.04029916
#
# Stress axis : x y z
#
# Youngs Moduli (GPa) = 32.76422 147.96735 92.76397
#
# Poissons Ratio (x) = 0.19880 -0.00010
# Poissons Ratio (y) = 0.04402 0.23540
# Poissons Ratio (z) = -0.00004 0.37549
#
# Static dielectric constant tensor:
#      x y z
#    x 2.037840 0.000000 0.071000 
#    y 0.000000 1.973610 0.000000 
#    z 0.071000 0.000000 1.965840 
# 
# From -- ./inp_files/48634.got.cif
#   From: 2010.05.17/outbox.cif.g08.bks.cpg/sg5_25_cif.got.tgz:48634.got - 2010.06.03 18:56:24.
