data_PCOD9128004
_publ_section_title
;
Structure prediction by ZEFSAII (Michael W. Deem and Ramdas Pophale) SiO2 
 PCOD9128004
Probable space group: C 2
;
_chemical_formula_sum "Si O2"
_cell_formula_units_Z 32
_cell_length_a 29.670837
_cell_length_b 9.232458
_cell_length_c 5.055304
_cell_angle_alpha 90.000000
_cell_angle_beta 107.913383
_cell_angle_gamma 90.000000
_cell_volume 1317.690810
_symmetry_space_group_name_H-M "C 2"
_symmetry_group_IT_number 5
_symmetry_cell_setting 'monoclinic'
loop_
_space_group_symop_operation_xyz
x,y,z
-x,y,-z
1/2+x,1/2+y,z
1/2-x,1/2+y,-z
loop_
_atom_site_type_symbol
_atom_site_label
_atom_site_fract_x
_atom_site_fract_y
_atom_site_fract_z
Si Si1 0.031647 0.202410 0.813219
Si Si2 0.210945 0.331701 0.580202
Si Si3 0.795213 0.001758 0.521128
Si Si4 0.942175 0.928701 0.403503
Si Si5 0.360266 0.066157 0.378768
Si Si6 0.455703 0.017764 0.221376
Si Si7 0.586780 0.259282 0.140990
Si Si8 0.694461 0.325833 0.967515
O O1 0.048782 0.360370 0.924299
O O2 0.000000 0.235614 0.500000
O O3 0.066293 0.085825 0.743889
O O4 0.000000 0.142535 0.000000
O O5 0.240881 0.444958 0.453773
O O6 0.165638 0.417734 0.596451
O O7 0.201184 0.173722 0.441730
O O8 0.249213 0.302852 0.882405
O O9 0.821020 0.908445 0.794010
O O10 0.813362 0.941782 0.277432
O O11 0.952732 0.636643 0.986942
O O12 0.926938 0.880968 0.668161
O O13 0.000000 0.910729 0.500000
O O14 0.408798 0.033806 0.315721
O O15 0.371974 0.161865 0.658946
O O16 0.326833 0.171499 0.146152
O O17 0.500000 0.037175 0.500000
O O18 0.586296 0.327757 0.849209
#
# Coordination Sequence:
#
# PCOD9128004 Si02
#       8
#     4   4   4   4   4   4   4   4
#     4  10  23  45  76 103 142 197 257 315 385 452
#     4  10  24  46  81 111 156 196 259 312 401 464
#     4  10  23  44  78 111 147 199 243 316 395 465
#     4  11  23  44  74 104 142 196 257 316 386 444
#     4  12  27  49  74 116 153 204 261 321 379 469
#     4  11  28  49  77 109 159 210 262 319 385 451
#     4  12  26  43  69 108 146 193 251 318 374 444
#     4  10  25  46  76 107 154 196 250 317 390 460
#
# _framework density 24.284911000000001
#
# number of rings (size 3 to 8) (size 9 to 14) (size 15 to 20)
#    0.750    0.500    1.250    3.750    8.750    1.000 
#    2.250    0.000    0.000    0.000    0.000    0.000 
#    0.000    0.000    0.000    0.000    0.000    0.000 
#
# Total GULP energy -89373.711053 kJ/mol
# GULP energy per Si atom -5585.856941 kJ/mol
# Density = 2.422964 g / cm^3
# Si number density = 24.284911 Si / 1000 Ang^3
#
#
#
# Elastic Constant Matrix: (Units=GPa)
#
#
# Indices 1 2 3 4 5 6 
#
# 1 95.7016 26.9270 22.1229 0.0000 0.1960 0.0000
# 2 26.9270 163.1190 20.0230 0.0000 -7.2468 0.0000
# 3 22.1229 20.0230 124.2401 0.0000 -9.8086 0.0000
# 4 0.0000 0.0000 0.0000 -16.5359 0.0000 -35.5978
# 5 0.1960 -7.2468 -9.8086 0.0000 39.6690 0.0000
# 6 0.0000 0.0000 0.0000 -35.5978 0.0000 97.9255
#
#
#
# Elastic Compliance Matrix: (Units=1/GPa)
#
#
# Indices 1 2 3 4 5 6 
#
# 1 0.011344 -0.001686 -0.001812 0.000000 -0.000812 0.000000
# 2 -0.001686 0.006537 -0.000671 0.000000 0.001037 0.000000
# 3 -0.001812 -0.000671 0.008640 0.000000 0.002023 0.000000
# 4 0.000000 0.000000 0.000000 -0.033925 0.000000 -0.012333
# 5 -0.000812 0.001037 0.002023 0.000000 0.025902 0.000000
# 6 0.000000 0.000000 0.000000 -0.012333 0.000000 0.005729
#
#
# Mechanical properties :
#
#
# Convention : Reuss Voigt Hill
#
# Bulk Modulus (GPa) = 55.00293 57.91183 56.45738
# Shear Modulus (GPa) = 129.44326 45.14425 87.29376
#
# Velocity S-wave (km/s) = 7.30874 4.31622 6.00198
# Velocity P-wave (km/s) = 9.69132 6.98128 8.44571
#
# Compressibility (1/GPa) = 0.01818085
#
# Stress axis : x y z
#
# Youngs Moduli (GPa) = 88.15063 152.96759 115.74686
#
# Poissons Ratio (x) = 0.25794 0.20978
# Poissons Ratio (y) = 0.14865 0.07772
# Poissons Ratio (z) = 0.15976 0.10271
#
# Static dielectric constant tensor:
#      x y z
#    x 2.071000 0.000000 -0.047480 
#    y 0.000000 1.989070 0.000000 
#    z -0.047480 0.000000 1.876690 
# 
# From -- ./inp_files/11256.got.cif
#   From: 2010.05.17/outbox.cif.g08.bks.cpg/sg5_6_cif.got.tgz:11256.got - 2010.06.03 18:56:24.
