data_PCOD9128020
_publ_section_title
;
Structure prediction by ZEFSAII (Michael W. Deem and Ramdas Pophale) SiO2 
 PCOD9128020
Probable space group: C 2
;
_chemical_formula_sum "Si O2"
_cell_formula_units_Z 28
_cell_length_a 8.357545
_cell_length_b 11.403235
_cell_length_c 14.174988
_cell_angle_alpha 90.000000
_cell_angle_beta 60.763959
_cell_angle_gamma 90.000000
_cell_volume 1178.832727
_symmetry_space_group_name_H-M "C 2"
_symmetry_group_IT_number 5
_symmetry_cell_setting 'monoclinic'
loop_
_space_group_symop_operation_xyz
x,y,z
-x,y,-z
1/2+x,1/2+y,z
1/2-x,1/2+y,-z
loop_
_atom_site_type_symbol
_atom_site_label
_atom_site_fract_x
_atom_site_fract_y
_atom_site_fract_z
Si Si1 0.956215 0.575400 0.173355
Si Si2 0.709277 0.365763 0.199367
Si Si3 0.172996 0.518889 0.291057
Si Si4 0.822547 0.252878 0.653218
Si Si5 0.446978 0.249049 0.411396
Si Si6 0.015334 0.187900 0.778491
Si Si7 0.170013 0.755392 0.005308
O O1 0.080951 0.511261 0.214639
O O2 0.094878 0.629337 0.059803
O O3 0.797890 0.492713 0.180777
O O4 0.854194 0.686983 0.248931
O O5 0.526129 0.343777 0.312948
O O6 0.712200 0.323208 0.090162
O O7 0.841722 0.281216 0.221381
O O8 0.158520 0.391901 0.340084
O O9 0.052866 0.623555 0.372746
O O10 0.382518 0.565354 0.228320
O O11 0.765646 0.232423 0.559972
O O12 0.977836 0.200103 0.677866
O O13 0.500000 0.292685 0.500000
O O14 0.834614 0.225817 0.888018
O O15 0.000000 0.815099 0.000000
#
# Coordination Sequence:
#
# PCOD9128020 Si02
#       7
#     4   4   4   4   4   4   4
#     4  11  23  43  65  91 139 176 217 279 334 386
#     4  11  23  44  69  94 139 177 219 288 331 394
#     4  10  23  45  68  95 137 175 216 287 335 392
#     4  11  22  44  66  97 132 175 222 272 338 394
#     4  10  23  48  71  98 134 172 223 283 343 402
#     4  11  22  41  68  96 133 177 232 265 333 401
#     4  12  23  42  63 102 135 184 231 270 333 396
#
# _framework density 23.752310000000001
#
# number of rings (size 3 to 8) (size 9 to 14) (size 15 to 20)
#    0.000    1.143    7.143    0.429    2.000    1.143 
#    7.714    4.286    0.000    0.857    0.000    0.000 
#    0.000    0.000    0.000    0.000    0.000    0.000 
#
# Total GULP energy -78137.407859 kJ/mol
# GULP energy per Si atom -5581.243419 kJ/mol
# Density = 2.369825 g / cm^3
# Si number density = 23.752310 Si / 1000 Ang^3
#
#
#
# Elastic Constant Matrix: (Units=GPa)
#
#
# Indices 1 2 3 4 5 6 
#
# 1 143.1658 23.7365 49.3300 0.0000 54.5889 0.0000
# 2 23.7365 113.8761 24.7265 0.0000 7.3111 0.0000
# 3 49.3300 24.7265 114.0060 0.0000 30.3667 0.0000
# 4 0.0000 0.0000 0.0000 7.4407 0.0000 6.6505
# 5 54.5889 7.3111 30.3667 0.0000 37.3197 0.0000
# 6 0.0000 0.0000 0.0000 6.6505 0.0000 46.7020
#
#
#
# Elastic Compliance Matrix: (Units=1/GPa)
#
#
# Indices 1 2 3 4 5 6 
#
# 1 0.016203 -0.001794 -0.000514 0.000000 -0.022931 0.000000
# 2 -0.001794 0.009416 -0.001881 0.000000 0.002310 0.000000
# 3 -0.000514 -0.001881 0.011622 0.000000 -0.008337 0.000000
# 4 0.000000 0.000000 0.000000 0.153996 0.000000 -0.021929
# 5 -0.022931 0.002310 -0.008337 0.000000 0.066668 0.000000
# 6 0.000000 0.000000 0.000000 -0.021929 0.000000 0.024535
#
#
# Mechanical properties :
#
#
# Convention : Reuss Voigt Hill
#
# Bulk Modulus (GPa) = 34.64616 62.95934 48.80275
# Shear Modulus (GPa) = 16.64231 36.50949 26.57590
#
# Velocity S-wave (km/s) = 2.64987 3.92483 3.34859
# Velocity P-wave (km/s) = 4.89699 6.86318 5.96170
#
# Compressibility (1/GPa) = 0.02886323
#
# Stress axis : x y z
#
# Youngs Moduli (GPa) = 61.71709 106.20760 86.04033
#
# Poissons Ratio (x) = 0.19049 0.04423
# Poissons Ratio (y) = 0.11069 0.16186
# Poissons Ratio (z) = 0.03173 0.19981
#
# Static dielectric constant tensor:
#      x y z
#    x 2.051790 0.000000 0.007860 
#    y 0.000000 1.903300 0.000000 
#    z 0.007860 0.000000 1.943780 
# 
# From -- ./inp_files/50265.got.cif
#   From: 2010.05.17/outbox.cif.g08.bks.cpg/sg5_26_cif.got.tgz:50265.got - 2010.06.03 18:56:24.
