data_PCOD9128216
_publ_section_title
;
Structure prediction by ZEFSAII (Michael W. Deem and Ramdas Pophale) SiO2 
 PCOD9128216
Probable space group: C 2
;
_chemical_formula_sum "Si O2"
_cell_formula_units_Z 24
_cell_length_a 16.980382
_cell_length_b 8.135596
_cell_length_c 10.491876
_cell_angle_alpha 90.000000
_cell_angle_beta 47.941596
_cell_angle_gamma 90.000000
_cell_volume 1076.129222
_symmetry_space_group_name_H-M "C 2"
_symmetry_group_IT_number 5
_symmetry_cell_setting 'monoclinic'
loop_
_space_group_symop_operation_xyz
x,y,z
-x,y,-z
1/2+x,1/2+y,z
1/2-x,1/2+y,-z
loop_
_atom_site_type_symbol
_atom_site_label
_atom_site_fract_x
_atom_site_fract_y
_atom_site_fract_z
Si Si1 0.606389 0.407500 0.351996
Si Si2 0.810279 0.728111 0.492557
Si Si3 0.372363 0.651236 0.132568
Si Si4 0.372121 0.292598 0.138453
Si Si5 0.815191 0.473083 0.037362
Si Si6 0.018395 0.556516 0.346412
O O1 0.500000 0.504758 0.500000
O O2 0.657912 0.363631 0.434072
O O3 0.688674 0.484878 0.165658
O O4 0.568713 0.235622 0.328292
O O5 0.693018 0.673486 0.663776
O O6 0.823832 0.782263 0.332872
O O7 0.903397 0.590688 0.409139
O O8 0.339827 0.470401 0.119181
O O9 0.335190 0.800386 0.085596
O O10 0.500000 0.659186 0.000000
O O11 0.343237 0.131538 0.091741
O O12 0.500000 0.294225 0.000000
O O13 0.894158 0.474517 0.834567
O O14 0.000000 0.468468 0.500000
#
# Coordination Sequence:
#
# PCOD9128216 Si02
#       6
#     4   4   4   4   4   4
#     4   8  19  40  63  89 125 169 207 265 307 367
#     4   9  19  38  62  90 128 166 206 252 320 374
#     4  10  24  38  59  98 131 159 211 260 303 390
#     4  11  22  38  63  97 129 171 199 259 333 377
#     4  11  21  41  70  90 125 168 215 263 320 373
#     4   9  19  40  67  88 122 172 213 260 317 364
#
# _framework density 22.302154999999999
#
# number of rings (size 3 to 8) (size 9 to 14) (size 15 to 20)
#    0.000    2.667    1.667    0.500    4.667    0.000 
#    9.000    0.000    3.667    2.000    0.000    0.000 
#    0.000    0.000    0.000    0.000    0.000    0.000 
#
# Total GULP energy -66921.384899 kJ/mol
# GULP energy per Si atom -5576.782075 kJ/mol
# Density = 2.225139 g / cm^3
# Si number density = 22.302155 Si / 1000 Ang^3
#
#
#
# Elastic Constant Matrix: (Units=GPa)
#
#
# Indices 1 2 3 4 5 6 
#
# 1 29.4127 20.7676 54.0877 0.0000 -7.0431 0.0000
# 2 20.7676 104.5767 46.3722 0.0000 6.7995 0.0000
# 3 54.0877 46.3722 264.6681 0.0000 -17.4828 0.0000
# 4 0.0000 0.0000 0.0000 34.6024 0.0000 -16.5796
# 5 -7.0431 6.7995 -17.4828 0.0000 38.4233 0.0000
# 6 0.0000 0.0000 0.0000 -16.5796 0.0000 40.1037
#
#
#
# Elastic Compliance Matrix: (Units=1/GPa)
#
#
# Indices 1 2 3 4 5 6 
#
# 1 0.060799 -0.007910 -0.010527 0.000000 0.007755 0.000000
# 2 -0.007910 0.011685 -0.000684 0.000000 -0.003829 0.000000
# 3 -0.010527 -0.000684 0.006114 0.000000 0.000973 0.000000
# 4 0.000000 0.000000 0.000000 0.036039 0.000000 0.014899
# 5 0.007755 -0.003829 0.000973 0.000000 0.028568 0.000000
# 6 0.000000 0.000000 0.000000 0.014899 0.000000 0.031095
#
#
# Mechanical properties :
#
#
# Convention : Reuss Voigt Hill
#
# Bulk Modulus (GPa) = 24.77913 71.23472 48.00693
# Shear Modulus (GPa) = 22.12459 41.12121 31.62290
#
# Velocity S-wave (km/s) = 3.15308 4.29863 3.76963
# Velocity P-wave (km/s) = 4.93869 7.52647 6.36547
#
# Compressibility (1/GPa) = 0.04035655
#
# Stress axis : x y z
#
# Youngs Moduli (GPa) = 16.44763 85.57693 163.56850
#
# Poissons Ratio (x) = 0.67694 1.72184
# Poissons Ratio (y) = 0.13011 0.11184
# Poissons Ratio (z) = 0.17314 0.05851
#
# Static dielectric constant tensor:
#      x y z
#    x 1.873440 0.000000 -0.026780 
#    y 0.000000 1.849340 0.000000 
#    z -0.026780 0.000000 1.850820 
# 
# From -- ./inp_files/45956.got.cif
#   From: 2010.05.17/outbox.cif.g08.bks.cpg/sg5_23_cif.got.tgz:45956.got - 2010.06.03 18:56:24.
