data_PCOD9128175
_publ_section_title
;
Structure prediction by ZEFSAII (Michael W. Deem and Ramdas Pophale) SiO2 
 PCOD9128175
Probable space group: C 2
;
_chemical_formula_sum "Si O2"
_cell_formula_units_Z 20
_cell_length_a 18.769860
_cell_length_b 9.615478
_cell_length_c 11.534096
_cell_angle_alpha 90.000000
_cell_angle_beta 158.088867
_cell_angle_gamma 90.000000
_cell_volume 776.819180
_symmetry_space_group_name_H-M "C 2"
_symmetry_group_IT_number 5
_symmetry_cell_setting 'monoclinic'
loop_
_space_group_symop_operation_xyz
x,y,z
-x,y,-z
1/2+x,1/2+y,z
1/2-x,1/2+y,-z
loop_
_atom_site_type_symbol
_atom_site_label
_atom_site_fract_x
_atom_site_fract_y
_atom_site_fract_z
Si Si1 0.274390 0.860960 0.163237
Si Si2 0.711751 0.287009 0.767260
Si Si3 0.304758 0.571486 0.156540
Si Si4 0.780360 0.119235 0.637002
Si Si5 0.643504 0.821862 0.455699
O O1 0.500000 0.899767 0.500000
O O2 0.193950 0.715799 0.990546
O O3 0.243445 0.839334 0.253008
O O4 0.425462 0.766399 0.147860
O O5 0.500000 0.258974 0.500000
O O6 0.727061 0.454794 0.793321
O O7 0.723346 0.208427 0.663707
O O8 0.500000 0.631923 0.500000
O O9 0.307613 0.485196 0.041032
O O10 0.655946 0.981054 0.430281
O O11 0.775297 0.217596 0.517052
O O12 0.000000 0.079287 0.000000
#
# Coordination Sequence:
#
# PCOD9128175 Si02
#       5
#     4   4   4   4   4
#     4  11  24  44  70 111 146 190 251 316 378 452
#     4  10  23  48  80 114 153 202 254 330 390 451
#     4  10  24  41  68 107 151 184 241 314 383 444
#     4  10  26  50  74 110 160 208 259 319 387 466
#     4  11  25  50  79 111 160 208 262 313 390 469
#
# _framework density 25.746017999999999
#
# number of rings (size 3 to 8) (size 9 to 14) (size 15 to 20)
#    0.000    1.600    2.000    0.000    5.600    6.400 
#   10.800    0.000    0.000    0.000    0.000    0.000 
#    0.000    0.000    0.000    0.000    0.000    0.000 
#
# Total GULP energy -55727.802922 kJ/mol
# GULP energy per Si atom -5572.780292 kJ/mol
# Density = 2.568742 g / cm^3
# Si number density = 25.746018 Si / 1000 Ang^3
#
#
#
# Elastic Constant Matrix: (Units=GPa)
#
#
# Indices 1 2 3 4 5 6 
#
# 1 141.9567 74.4923 63.5936 0.0000 -6.6856 0.0000
# 2 74.4923 195.8879 56.4211 0.0000 -27.1530 0.0000
# 3 63.5936 56.4211 170.2544 0.0000 -13.6367 0.0000
# 4 0.0000 0.0000 0.0000 46.6854 0.0000 -12.6906
# 5 -6.6856 -27.1530 -13.6367 0.0000 40.2124 0.0000
# 6 0.0000 0.0000 0.0000 -12.6906 0.0000 37.6829
#
#
#
# Elastic Compliance Matrix: (Units=1/GPa)
#
#
# Indices 1 2 3 4 5 6 
#
# 1 0.009867 -0.003157 -0.002754 0.000000 -0.001425 0.000000
# 2 -0.003157 0.007104 -0.000856 0.000000 0.003982 0.000000
# 3 -0.002754 -0.000856 0.007301 0.000000 0.001440 0.000000
# 4 0.000000 0.000000 0.000000 0.023579 0.000000 0.007941
# 5 -0.001425 0.003982 0.001440 0.000000 0.027808 0.000000
# 6 0.000000 0.000000 0.000000 0.007941 0.000000 0.029211
#
#
# Mechanical properties :
#
#
# Convention : Reuss Voigt Hill
#
# Bulk Modulus (GPa) = 93.11567 99.67922 96.39744
# Shear Modulus (GPa) = 40.98918 45.82227 43.40572
#
# Velocity S-wave (km/s) = 3.99439 4.22332 4.11045
# Velocity P-wave (km/s) = 7.58413 7.91090 7.74924
#
# Compressibility (1/GPa) = 0.01073933
#
# Stress axis : x y z
#
# Youngs Moduli (GPa) = 101.34378 140.76712 136.96402
#
# Poissons Ratio (x) = 0.44437 0.37716
# Poissons Ratio (y) = 0.31992 0.11726
# Poissons Ratio (z) = 0.27907 0.12052
#
# Static dielectric constant tensor:
#      x y z
#    x 2.248220 0.000000 0.019660 
#    y 0.000000 2.054490 0.000000 
#    z 0.019660 0.000000 2.153010 
# 
# From -- ./inp_files/27338.got.cif
#   From: 2010.05.17/outbox.cif.g08.bks.cpg/sg5_14_cif.got.tgz:27338.got - 2010.06.03 18:56:24.
