data_PCOD9128386
_publ_section_title
;
Structure prediction by ZEFSAII (Michael W. Deem and Ramdas Pophale) SiO2 
 PCOD9128386
Probable space group: C 2
;
_chemical_formula_sum "Si O2"
_cell_formula_units_Z 32
_cell_length_a 26.152241
_cell_length_b 9.588554
_cell_length_c 10.054964
_cell_angle_alpha 90.000000
_cell_angle_beta 142.706577
_cell_angle_gamma 90.000000
_cell_volume 1527.711720
_symmetry_space_group_name_H-M "C 2"
_symmetry_group_IT_number 5
_symmetry_cell_setting 'monoclinic'
loop_
_space_group_symop_operation_xyz
x,y,z
-x,y,-z
1/2+x,1/2+y,z
1/2-x,1/2+y,-z
loop_
_atom_site_type_symbol
_atom_site_label
_atom_site_fract_x
_atom_site_fract_y
_atom_site_fract_z
Si Si1 0.560175 0.329390 0.242596
Si Si2 0.686017 0.133765 0.625234
Si Si3 0.598485 0.310197 0.901743
Si Si4 0.808904 0.301168 0.078280
Si Si5 0.553092 0.596444 0.728439
Si Si6 0.440333 0.655461 0.752481
Si Si7 0.725201 0.822711 0.676040
Si Si8 0.406215 0.061227 0.309466
O O1 0.641716 0.236064 0.430581
O O2 0.494823 0.315684 0.229734
O O3 0.582034 0.492323 0.269582
O O4 0.500000 0.281935 0.000000
O O5 0.615180 0.081340 0.581542
O O6 0.719713 0.988734 0.635972
O O7 0.746259 0.227094 0.845069
O O8 0.614179 0.472070 0.899344
O O9 0.595084 0.205434 0.772037
O O10 0.679753 0.270852 0.159807
O O11 0.894749 0.216739 0.234369
O O12 0.781837 0.298613 0.177091
O O13 0.833812 0.460736 0.100834
O O14 0.500000 0.529104 0.500000
O O15 0.497308 0.651894 0.735703
O O16 0.355072 0.744223 0.554606
O O17 0.500000 0.700294 0.000000
O O18 0.500000 0.999907 0.500000
#
# Coordination Sequence:
#
# PCOD9128386 Si02
#       8
#     4   4   4   4   4   4   4   4
#     4  10  24  45  63  84 121 170 214 253 310 375
#     4  11  23  39  61  89 127 162 199 261 313 367
#     4  11  22  38  62  92 123 158 206 255 314 373
#     4  11  23  36  59  96 132 153 202 260 320 360
#     4  11  21  38  66  92 125 166 206 255 314 373
#     4  10  24  43  66  88 126 171 212 252 314 377
#     4  11  23  39  62  94 128 159 206 260 308 374
#     4  11  22  36  59  93 126 159 199 249 319 374
#
# _framework density 20.946359999999999
#
# number of rings (size 3 to 8) (size 9 to 14) (size 15 to 20)
#    0.000    1.250    5.000    0.750    5.250    0.500 
#    2.250    0.000    0.000    0.000    0.000    0.000 
#    0.000    0.000    0.000    0.000    0.000    0.000 
#
# Total GULP energy -89233.454211 kJ/mol
# GULP energy per Si atom -5577.090888 kJ/mol
# Density = 2.089869 g / cm^3
# Si number density = 20.946360 Si / 1000 Ang^3
#
#
#
# Elastic Constant Matrix: (Units=GPa)
#
#
# Indices 1 2 3 4 5 6 
#
# 1 12.3140 -6.0975 0.8405 0.0000 -4.2362 0.0000
# 2 -6.0975 70.7503 38.9915 0.0000 1.4827 0.0000
# 3 0.8405 38.9915 145.9658 0.0000 -0.4439 0.0000
# 4 0.0000 0.0000 0.0000 40.3967 0.0000 4.3590
# 5 -4.2362 1.4827 -0.4439 0.0000 24.9397 0.0000
# 6 0.0000 0.0000 0.0000 4.3590 0.0000 18.5286
#
#
#
# Elastic Compliance Matrix: (Units=1/GPa)
#
#
# Indices 1 2 3 4 5 6 
#
# 1 0.091052 0.009146 -0.002922 0.000000 0.014870 0.000000
# 2 0.009146 0.017521 -0.004732 0.000000 0.000428 0.000000
# 3 -0.002922 -0.004732 0.008132 0.000000 -0.000070 0.000000
# 4 0.000000 0.000000 0.000000 0.025399 0.000000 -0.005975
# 5 0.014870 0.000428 -0.000070 0.000000 0.042596 0.000000
# 6 0.000000 0.000000 0.000000 -0.005975 0.000000 0.055376
#
#
# Mechanical properties :
#
#
# Convention : Reuss Voigt Hill
#
# Bulk Modulus (GPa) = 8.35498 32.94435 20.64967
# Shear Modulus (GPa) = 18.05128 29.79271 23.92199
#
# Velocity S-wave (km/s) = 2.93880 3.77547 3.38310
# Velocity P-wave (km/s) = 3.93863 5.89642 5.01401
#
# Compressibility (1/GPa) = 0.11968903
#
# Stress axis : x y z
#
# Youngs Moduli (GPa) = 10.98271 57.07361 122.97828
#
# Poissons Ratio (x) = -0.52200 0.35937
# Poissons Ratio (y) = -0.10045 0.58190
# Poissons Ratio (z) = 0.03209 0.27006
#
# Static dielectric constant tensor:
#      x y z
#    x 1.804660 0.000000 0.035950 
#    y 0.000000 1.761720 0.000000 
#    z 0.035950 0.000000 1.799010 
# 
# From -- ./inp_files/44190.got.cif
#   From: 2010.05.17/outbox.cif.g08.bks.cpg/sg5_23_cif.got.tgz:44190.got - 2010.06.03 18:56:24.
