data_PCOD9128497
_publ_section_title
;
Structure prediction by ZEFSAII (Michael W. Deem and Ramdas Pophale) SiO2 
 PCOD9128497
Probable space group: C 2
;
_chemical_formula_sum "Si O2"
_cell_formula_units_Z 18
_cell_length_a 13.225055
_cell_length_b 9.388581
_cell_length_c 5.451199
_cell_angle_alpha 90.000000
_cell_angle_beta 86.541288
_cell_angle_gamma 90.000000
_cell_volume 675.612546
_symmetry_space_group_name_H-M "C 2"
_symmetry_group_IT_number 5
_symmetry_cell_setting 'monoclinic'
loop_
_space_group_symop_operation_xyz
x,y,z
-x,y,-z
1/2+x,1/2+y,z
1/2-x,1/2+y,-z
loop_
_atom_site_type_symbol
_atom_site_label
_atom_site_fract_x
_atom_site_fract_y
_atom_site_fract_z
Si Si1 0.170926 0.548680 0.046705
Si Si2 0.387041 0.194265 0.461719
Si Si3 0.299270 0.466192 0.644251
Si Si4 0.000000 0.320525 0.000000
Si Si5 0.385282 0.757500 0.434333
O O1 0.142400 0.643803 0.808015
O O2 0.272104 0.469286 0.938016
O O3 0.082141 0.433852 0.093930
O O4 0.177989 0.638342 0.292906
O O5 0.500000 0.145283 0.500000
O O6 0.379435 0.361981 0.509003
O O7 0.339297 0.624579 0.581162
O O8 0.193638 0.389300 0.559912
O O9 0.080310 0.221918 0.846739
O O10 0.500000 0.796087 0.500000
#
# Coordination Sequence:
#
# PCOD9128497 Si02
#       5
#     4   4   4   2   4
#     4  11  25  44  76 110 150 207 254 318 396 469
#     4  12  24  48  74 111 150 200 263 318 390 474
#     4  11  26  49  75 116 153 208 266 326 399 477
#     4  10  24  44  76 110 150 210 258 320 400 472
#     4  11  26  50  74 114 160 206 266 330 399 475
#
# _framework density 26.642489999999999
#
# number of rings (size 3 to 8) (size 9 to 14) (size 15 to 20)
#    0.000    0.889    4.444    0.667    6.222    5.333 
#    8.000    0.000    0.000    0.000    0.000    0.000 
#    0.000    0.000    0.000    0.000    0.000    0.000 
#
# Total GULP energy -50162.586866 kJ/mol
# GULP energy per Si atom -5573.620763 kJ/mol
# Density = 2.658185 g / cm^3
# Si number density = 26.642490 Si / 1000 Ang^3
#
#
#
# Elastic Constant Matrix: (Units=GPa)
#
#
# Indices 1 2 3 4 5 6 
#
# 1 118.8615 20.5963 42.4154 0.0000 -28.7722 0.0000
# 2 20.5963 113.3503 57.7961 0.0000 -28.1758 0.0000
# 3 42.4154 57.7961 136.6231 0.0000 -22.4664 0.0000
# 4 0.0000 0.0000 0.0000 40.3317 0.0000 -23.0128
# 5 -28.7722 -28.1758 -22.4664 0.0000 46.5624 0.0000
# 6 0.0000 0.0000 0.0000 -23.0128 0.0000 38.3744
#
#
#
# Elastic Compliance Matrix: (Units=1/GPa)
#
#
# Indices 1 2 3 4 5 6 
#
# 1 0.010635 0.000901 -0.002729 0.000000 0.005800 0.000000
# 2 0.000901 0.012457 -0.004582 0.000000 0.005884 0.000000
# 3 -0.002729 -0.004582 0.010179 0.000000 0.000453 0.000000
# 4 0.000000 0.000000 0.000000 0.037692 0.000000 0.022603
# 5 0.005800 0.005884 0.000453 0.000000 0.028839 0.000000
# 6 0.000000 0.000000 0.000000 0.022603 0.000000 0.039614
#
#
# Mechanical properties :
#
#
# Convention : Reuss Voigt Hill
#
# Bulk Modulus (GPa) = 48.89660 67.82782 58.36221
# Shear Modulus (GPa) = 31.43582 41.58884 36.51233
#
# Velocity S-wave (km/s) = 3.43871 3.95523 3.70598
# Velocity P-wave (km/s) = 5.84457 6.80972 6.34552
#
# Compressibility (1/GPa) = 0.02045132
#
# Stress axis : x y z
#
# Youngs Moduli (GPa) = 94.03055 80.27324 98.23781
#
# Poissons Ratio (x) = -0.07231 0.26809
# Poissons Ratio (y) = -0.08470 0.45012
# Poissons Ratio (z) = 0.25661 0.36781
#
# Static dielectric constant tensor:
#      x y z
#    x 2.157730 0.000000 0.234370 
#    y 0.000000 2.142170 0.000000 
#    z 0.234370 0.000000 3.060200 
# 
# From -- ./inp_files/8008.got.cif
#   From: 2010.05.17/outbox.cif.g08.bks.cpg/sg5_5_cif.got.tgz:8008.got - 2010.06.03 18:56:24.
