data_PCOD9128142
_publ_section_title
;
Structure prediction by ZEFSAII (Michael W. Deem and Ramdas Pophale) SiO2 
 PCOD9128142
Probable space group: C 2
;
_chemical_formula_sum "Si O2"
_cell_formula_units_Z 20
_cell_length_a 18.455962
_cell_length_b 7.074884
_cell_length_c 7.395190
_cell_angle_alpha 90.000000
_cell_angle_beta 118.791822
_cell_angle_gamma 90.000000
_cell_volume 846.243883
_symmetry_space_group_name_H-M "C 2"
_symmetry_group_IT_number 5
_symmetry_cell_setting 'monoclinic'
loop_
_space_group_symop_operation_xyz
x,y,z
-x,y,-z
1/2+x,1/2+y,z
1/2-x,1/2+y,-z
loop_
_atom_site_type_symbol
_atom_site_label
_atom_site_fract_x
_atom_site_fract_y
_atom_site_fract_z
Si Si1 0.907585 0.689670 0.351256
Si Si2 0.837870 0.340233 0.408189
Si Si3 0.130000 0.065641 0.835842
Si Si4 0.592984 0.765124 0.137984
Si Si5 0.301792 0.094979 0.892811
O O1 0.849584 0.566076 0.414231
O O2 0.879409 0.270434 0.269672
O O3 0.000000 0.624350 0.500000
O O4 0.874807 0.668241 0.106622
O O5 0.905575 0.916287 0.350077
O O6 0.887108 0.239382 0.628434
O O7 0.746002 0.250533 0.285762
O O8 0.228590 0.029023 0.940805
O O9 0.100836 0.091725 0.005679
O O10 0.662739 0.918467 0.170701
O O11 0.500000 0.839584 0.000000
#
# Coordination Sequence:
#
# PCOD9128142 Si02
#       5
#     4   4   4   4   4
#     4  12  23  42  77 108 148 197 252 307 386 446
#     4  10  26  45  77 103 154 196 260 305 380 453
#     4  10  25  47  75 102 154 207 243 297 396 464
#     4  12  25  47  79 117 152 193 257 331 379 445
#     4  10  23  47  73 101 146 209 245 294 383 465
#
# _framework density 23.633846999999999
#
# number of rings (size 3 to 8) (size 9 to 14) (size 15 to 20)
#    1.200    0.000    2.000    3.600    2.800    4.800 
#    3.600    1.000    0.000    0.000    0.000    0.000 
#    0.000    0.000    0.000    0.000    0.000    0.000 
#
# Total GULP energy -55726.620656 kJ/mol
# GULP energy per Si atom -5572.662066 kJ/mol
# Density = 2.358006 g / cm^3
# Si number density = 23.633847 Si / 1000 Ang^3
#
#
#
# Elastic Constant Matrix: (Units=GPa)
#
#
# Indices 1 2 3 4 5 6 
#
# 1 64.2688 30.1277 40.0305 0.0000 13.6728 0.0000
# 2 30.1277 100.3258 24.6390 0.0000 1.3433 0.0000
# 3 40.0305 24.6390 155.6814 0.0000 17.4147 0.0000
# 4 0.0000 0.0000 0.0000 19.2882 0.0000 -1.1770
# 5 13.6728 1.3433 17.4147 0.0000 44.7780 0.0000
# 6 0.0000 0.0000 0.0000 -1.1770 0.0000 31.3175
#
#
#
# Elastic Compliance Matrix: (Units=1/GPa)
#
#
# Indices 1 2 3 4 5 6 
#
# 1 0.021750 -0.005438 -0.004190 0.000000 -0.004849 0.000000
# 2 -0.005438 0.011735 -0.000633 0.000000 0.001554 0.000000
# 3 -0.004190 -0.000633 0.007795 0.000000 -0.001733 0.000000
# 4 0.000000 0.000000 0.000000 0.051964 0.000000 0.001953
# 5 -0.004849 0.001554 -0.001733 0.000000 0.024440 0.000000
# 6 0.000000 0.000000 0.000000 0.001953 0.000000 0.032004
#
#
# Mechanical properties :
#
#
# Convention : Reuss Voigt Hill
#
# Bulk Modulus (GPa) = 48.17130 56.65229 52.41179
# Shear Modulus (GPa) = 28.22808 34.10866 31.16837
#
# Velocity S-wave (km/s) = 3.45975 3.80308 3.63547
# Velocity P-wave (km/s) = 6.03211 6.58084 6.31244
#
# Compressibility (1/GPa) = 0.02075925
#
# Stress axis : x y z
#
# Youngs Moduli (GPa) = 45.97764 85.21475 128.29238
#
# Poissons Ratio (x) = 0.46336 0.53749
# Poissons Ratio (y) = 0.25001 0.08121
# Poissons Ratio (z) = 0.19263 0.05394
#
# Static dielectric constant tensor:
#      x y z
#    x 1.908470 0.000000 0.015240 
#    y 0.000000 2.059920 0.000000 
#    z 0.015240 0.000000 1.928880 
# 
# From -- ./inp_files/18769.got.cif
#   From: 2010.05.17/outbox.cif.g08.bks.cpg/sg5_10_cif.got.tgz:18769.got - 2010.06.03 18:56:24.
