data_PCOD9128172
_publ_section_title
;
Structure prediction by ZEFSAII (Michael W. Deem and Ramdas Pophale) SiO2 
 PCOD9128172
Probable space group: C 2
;
_chemical_formula_sum "Si O2"
_cell_formula_units_Z 20
_cell_length_a 13.844890
_cell_length_b 5.611295
_cell_length_c 19.323263
_cell_angle_alpha 90.000000
_cell_angle_beta 33.676846
_cell_angle_gamma 90.000000
_cell_volume 832.417173
_symmetry_space_group_name_H-M "C 2"
_symmetry_group_IT_number 5
_symmetry_cell_setting 'monoclinic'
loop_
_space_group_symop_operation_xyz
x,y,z
-x,y,-z
1/2+x,1/2+y,z
1/2-x,1/2+y,-z
loop_
_atom_site_type_symbol
_atom_site_label
_atom_site_fract_x
_atom_site_fract_y
_atom_site_fract_z
Si Si1 0.417347 0.123510 0.462252
Si Si2 0.795448 0.186539 0.194321
Si Si3 0.240043 0.628356 0.598231
Si Si4 0.834912 0.982562 0.019224
Si Si5 0.996878 0.549495 0.129498
O O1 0.626009 0.114466 0.336266
O O2 0.343585 0.373536 0.537691
O O3 0.358392 0.127832 0.416932
O O4 0.347948 0.874244 0.533642
O O5 0.787494 0.100334 0.120477
O O6 0.828226 0.463417 0.185270
O O7 0.986958 0.118665 0.111460
O O8 0.104703 0.641104 0.741643
O O9 0.675670 0.962190 0.061807
O O10 0.910236 0.721074 0.980716
#
# Coordination Sequence:
#
# PCOD9128172 Si02
#       5
#     4   4   4   4   4
#     4  10  23  48  76 114 152 207 260 329 391 463
#     4  11  26  48  74 112 149 204 261 319 393 466
#     4  10  24  46  79 110 158 205 259 326 397 460
#     4  11  26  48  74 112 149 202 260 316 396 463
#     4  12  25  49  78 111 159 206 258 329 391 481
#
# _framework density 24.026413999999999
#
# number of rings (size 3 to 8) (size 9 to 14) (size 15 to 20)
#    0.000    1.200    4.000    0.000    5.600    4.000 
#    3.600    0.000    0.000    0.000    0.000    0.000 
#    0.000    0.000    0.000    0.000    0.000    0.000 
#
# Total GULP energy -55693.157847 kJ/mol
# GULP energy per Si atom -5569.315785 kJ/mol
# Density = 2.397173 g / cm^3
# Si number density = 24.026414 Si / 1000 Ang^3
#
#
#
# Elastic Constant Matrix: (Units=GPa)
#
#
# Indices 1 2 3 4 5 6 
#
# 1 165.4455 97.8286 26.1568 -0.0004 -13.3348 0.0002
# 2 97.8286 162.3915 59.8815 0.0003 -9.3322 0.0004
# 3 26.1568 59.8815 123.9687 -0.0001 -31.5650 0.0001
# 4 -0.0004 0.0003 -0.0001 -65.6687 -0.0002 28.1023
# 5 -13.3348 -9.3322 -31.5650 -0.0002 38.7826 0.0000
# 6 0.0002 0.0004 0.0001 28.1023 0.0000 17.7319
#
#
#
# Elastic Compliance Matrix: (Units=1/GPa)
#
#
# Indices 1 2 3 4 5 6 
#
# 1 0.009807 -0.006409 0.001883 0.000000 0.003362 0.000000
# 2 -0.006409 0.011745 -0.005251 0.000000 -0.003651 0.000000
# 3 0.001883 -0.005251 0.012676 0.000000 0.009700 0.000000
# 4 0.000000 0.000000 0.000000 -0.009074 0.000000 0.014381
# 5 0.003362 -0.003651 0.009700 0.000000 0.033957 0.000000
# 6 0.000000 0.000000 0.000000 0.014381 0.000000 0.033604
#
#
# Mechanical properties :
#
#
# Convention : Reuss Voigt Hill
#
# Bulk Modulus (GPa) = 68.14911 91.05996 79.60454
# Shear Modulus (GPa) = 42.67577 16.03173 29.35375
#
# Velocity S-wave (km/s) = 4.21907 2.58593 3.49911
# Velocity P-wave (km/s) = 7.22218 6.84823 7.03769
#
# Compressibility (1/GPa) = 0.01467371
#
# Stress axis : x y z
#
# Youngs Moduli (GPa) = 101.96332 85.13929 78.89182
#
# Poissons Ratio (x) = 0.54568 -0.14853
# Poissons Ratio (y) = 0.65351 0.41424
# Poissons Ratio (z) = -0.19196 0.44705
#
# Static dielectric constant tensor:
#      x y z
#    x 1.938720 0.000000 -0.027040 
#    y 0.000000 0.679880 0.000000 
#    z -0.027040 0.000000 1.845020 
# 
# From -- ./inp_files/65609.got.cif
#   From: 2010.05.17/outbox.cif.g08.bks.cpg/sg5_33_cif.got.tgz:65609.got - 2010.06.03 18:56:24.
