data_PCOD9128534
_publ_section_title
;
Structure prediction by ZEFSAII (Michael W. Deem and Ramdas Pophale) SiO2 
 PCOD9128534
Probable space group: C 2
;
_chemical_formula_sum "Si O2"
_cell_formula_units_Z 18
_cell_length_a 5.275137
_cell_length_b 20.112753
_cell_length_c 9.202409
_cell_angle_alpha 90.000000
_cell_angle_beta 120.992508
_cell_angle_gamma 90.000000
_cell_volume 836.963477
_symmetry_space_group_name_H-M "C 2"
_symmetry_group_IT_number 5
_symmetry_cell_setting 'monoclinic'
loop_
_space_group_symop_operation_xyz
x,y,z
-x,y,-z
1/2+x,1/2+y,z
1/2-x,1/2+y,-z
loop_
_atom_site_type_symbol
_atom_site_label
_atom_site_fract_x
_atom_site_fract_y
_atom_site_fract_z
Si Si1 0.165301 0.643820 0.398335
Si Si2 0.000000 0.828777 0.000000
Si Si3 0.227255 0.431214 0.697665
Si Si4 0.697504 0.202026 0.936300
Si Si5 0.820474 0.512118 0.796631
O O1 0.500000 0.668305 0.500000
O O2 0.183683 0.579417 0.299475
O O3 0.000000 0.627318 0.500000
O O4 0.974745 0.700512 0.263631
O O5 0.891032 0.871788 0.832242
O O6 0.243101 0.775163 0.016768
O O7 0.490239 0.481931 0.724814
O O8 0.000000 0.413677 0.500000
O O9 0.016467 0.463134 0.756779
O O10 0.500000 0.168053 0.000000
O O11 0.000000 0.164884 0.000000
O O12 0.000000 0.518681 0.000000
#
# Coordination Sequence:
#
# PCOD9128534 Si02
#       5
#     4   2   4   4   4
#     4  12  25  43  69 103 141 172 230 290 345 412
#     4  10  26  46  70 100 142 182 240 280 332 412
#     4  12  25  44  71 103 140 180 229 281 344 407
#     4  10  24  45  70  91 137 180 235 273 342 400
#     4  12  24  44  70 101 139 182 222 283 352 416
#
# _framework density 21.506316000000002
#
# number of rings (size 3 to 8) (size 9 to 14) (size 15 to 20)
#    0.667    0.000    2.222    6.000    3.111    2.667 
#    0.000    0.000    0.000    0.000    0.000    0.000 
#    0.000    0.000    0.000    0.000    0.000    0.000 
#
# Total GULP energy -50201.129741 kJ/mol
# GULP energy per Si atom -5577.903305 kJ/mol
# Density = 2.145737 g / cm^3
# Si number density = 21.506316 Si / 1000 Ang^3
#
#
#
# Elastic Constant Matrix: (Units=GPa)
#
#
# Indices 1 2 3 4 5 6 
#
# 1 169.4440 8.0445 66.3375 0.0000 -3.3040 0.0000
# 2 8.0445 49.5163 25.8948 0.0000 -15.8246 0.0000
# 3 66.3375 25.8948 141.9272 0.0000 -11.0869 0.0000
# 4 0.0000 0.0000 0.0000 -17.8836 0.0000 4.5882
# 5 -3.3040 -15.8246 -11.0869 0.0000 39.1926 0.0000
# 6 0.0000 0.0000 0.0000 4.5882 0.0000 51.6841
#
#
#
# Elastic Compliance Matrix: (Units=1/GPa)
#
#
# Indices 1 2 3 4 5 6 
#
# 1 0.007243 0.000615 -0.003508 0.000000 -0.000133 0.000000
# 2 0.000615 0.025164 -0.004173 0.000000 0.009032 0.000000
# 3 -0.003508 -0.004173 0.009502 0.000000 0.000707 0.000000
# 4 0.000000 0.000000 0.000000 -0.054672 0.000000 0.004853
# 5 -0.000133 0.009032 0.000707 0.000000 0.029350 0.000000
# 6 0.000000 0.000000 0.000000 0.004853 0.000000 0.018917
#
#
# Mechanical properties :
#
#
# Convention : Reuss Voigt Hill
#
# Bulk Modulus (GPa) = 36.00062 62.38236 49.19149
# Shear Modulus (GPa) = 84.89331 31.97267 58.43299
#
# Velocity S-wave (km/s) = 6.28962 3.85991 5.21815
# Velocity P-wave (km/s) = 8.33797 6.99534 7.69599
#
# Compressibility (1/GPa) = 0.02777730
#
# Stress axis : x y z
#
# Youngs Moduli (GPa) = 138.05822 39.73897 105.23759
#
# Poissons Ratio (x) = -0.02445 0.36920
# Poissons Ratio (y) = -0.08494 0.43919
# Poissons Ratio (z) = 0.48434 0.16584
#
# Static dielectric constant tensor:
#      x y z
#    x 1.843840 0.000000 0.040800 
#    y 0.000000 1.786610 0.000000 
#    z 0.040800 0.000000 1.843190 
# 
# From -- ./inp_files/12398.got.cif
#   From: 2010.05.17/outbox.cif.g08.bks.cpg/sg5_7_cif.got.tgz:12398.got - 2010.06.03 18:56:24.
