data_PCOD9128471
_publ_section_title
;
Structure prediction by ZEFSAII (Michael W. Deem and Ramdas Pophale) SiO2 
 PCOD9128471
Probable space group: C 2
;
_chemical_formula_sum "Si O2"
_cell_formula_units_Z 24
_cell_length_a 20.967120
_cell_length_b 8.097053
_cell_length_c 9.281850
_cell_angle_alpha 90.000000
_cell_angle_beta 46.744610
_cell_angle_gamma 90.000000
_cell_volume 1147.663316
_symmetry_space_group_name_H-M "C 2"
_symmetry_group_IT_number 5
_symmetry_cell_setting 'monoclinic'
loop_
_space_group_symop_operation_xyz
x,y,z
-x,y,-z
1/2+x,1/2+y,z
1/2-x,1/2+y,-z
loop_
_atom_site_type_symbol
_atom_site_label
_atom_site_fract_x
_atom_site_fract_y
_atom_site_fract_z
Si Si1 0.327020 0.583200 0.355716
Si Si2 0.000000 0.451658 0.500000
Si Si3 0.325912 0.221411 0.220166
Si Si4 0.329431 0.082230 0.911654
Si Si5 0.512307 0.740565 0.741216
Si Si6 0.500000 0.019503 0.000000
Si Si7 0.682791 0.720927 0.936959
O O1 0.322332 0.403494 0.292305
O O2 0.254130 0.619849 0.587486
O O3 0.419940 0.620284 0.286697
O O4 0.312544 0.705715 0.242550
O O5 0.074636 0.559635 0.307666
O O6 0.044772 0.326568 0.544855
O O7 0.414765 0.132053 0.130829
O O8 0.324804 0.214650 0.048253
O O9 0.258564 0.120900 0.899313
O O10 0.309798 0.907960 0.019160
O O11 0.415960 0.664267 0.868740
O O12 0.498720 0.896741 0.867254
#
# Coordination Sequence:
#
# PCOD9128471 Si02
#       7
#     4   2   4   4   4   2   4
#     4  12  26  45  73 103 142 187 241 293 350 417
#     4  10  24  44  72 100 140 188 222 288 356 414
#     4  12  27  44  71 106 139 190 238 294 349 418
#     4  11  24  46  70 101 143 185 237 282 357 420
#     4  11  23  46  71 101 141 186 229 291 355 417
#     4  12  22  46  72  98 140 180 240 292 348 412
#     4  11  23  43  69 101 139 187 227 292 345 417
#
# _framework density 20.912057999999998
#
# number of rings (size 3 to 8) (size 9 to 14) (size 15 to 20)
#    0.000    0.667    5.000    3.000   11.667    0.000 
#    0.000    0.000    0.000    2.000    0.000    0.000 
#    0.000    0.000    0.000    0.000    0.000    0.000 
#
# Total GULP energy -67118.609457 kJ/mol
# GULP energy per Si atom -5593.217455 kJ/mol
# Density = 2.086446 g / cm^3
# Si number density = 20.912058 Si / 1000 Ang^3
#
#
#
# Elastic Constant Matrix: (Units=GPa)
#
#
# Indices 1 2 3 4 5 6 
#
# 1 136.9100 31.7324 41.6188 0.0000 -5.6296 0.0000
# 2 31.7324 71.8647 28.7999 0.0000 2.1153 0.0000
# 3 41.6188 28.7999 118.2438 0.0000 7.1970 0.0000
# 4 0.0000 0.0000 0.0000 25.1764 0.0000 5.3510
# 5 -5.6296 2.1153 7.1970 0.0000 36.2942 0.0000
# 6 0.0000 0.0000 0.0000 5.3510 0.0000 36.6782
#
#
#
# Elastic Compliance Matrix: (Units=1/GPa)
#
#
# Indices 1 2 3 4 5 6 
#
# 1 0.008837 -0.002954 -0.002515 0.000000 0.002042 0.000000
# 2 -0.002954 0.016409 -0.002906 0.000000 -0.000838 0.000000
# 3 -0.002515 -0.002906 0.010187 0.000000 -0.002241 0.000000
# 4 0.000000 0.000000 0.000000 0.040991 0.000000 -0.005980
# 5 0.002042 -0.000838 -0.002241 0.000000 0.028363 0.000000
# 6 0.000000 0.000000 0.000000 -0.005980 0.000000 0.028137
#
#
# Mechanical properties :
#
#
# Convention : Reuss Voigt Hill
#
# Bulk Modulus (GPa) = 53.52724 59.03561 56.28142
# Shear Modulus (GPa) = 32.07181 34.62093 33.34637
#
# Velocity S-wave (km/s) = 3.92043 4.07326 3.99758
# Velocity P-wave (km/s) = 6.79301 7.10025 6.94833
#
# Compressibility (1/GPa) = 0.01868208
#
# Stress axis : x y z
#
# Youngs Moduli (GPa) = 113.15605 60.94340 98.16908
#
# Poissons Ratio (x) = 0.18005 0.24692
# Poissons Ratio (y) = 0.33430 0.28525
# Poissons Ratio (z) = 0.28461 0.17708
#
# Static dielectric constant tensor:
#      x y z
#    x 1.762490 0.000000 0.020690 
#    y 0.000000 1.745680 0.000000 
#    z 0.020690 0.000000 1.775640 
# 
# From -- ./inp_files/28895.got.cif
#   From: 2010.05.17/outbox.cif.g08.bks.cpg/sg5_15_cif.got.tgz:28895.got - 2010.06.03 18:56:24.
