data_PCOD9128208
_publ_section_title
;
Structure prediction by ZEFSAII (Michael W. Deem and Ramdas Pophale) SiO2 
 PCOD9128208
Probable space group: C 2
;
_chemical_formula_sum "Si O2"
_cell_formula_units_Z 30
_cell_length_a 9.561796
_cell_length_b 10.885947
_cell_length_c 14.053218
_cell_angle_alpha 90.000000
_cell_angle_beta 107.035262
_cell_angle_gamma 90.000000
_cell_volume 1398.607917
_symmetry_space_group_name_H-M "C 2"
_symmetry_group_IT_number 5
_symmetry_cell_setting 'monoclinic'
loop_
_space_group_symop_operation_xyz
x,y,z
-x,y,-z
1/2+x,1/2+y,z
1/2-x,1/2+y,-z
loop_
_atom_site_type_symbol
_atom_site_label
_atom_site_fract_x
_atom_site_fract_y
_atom_site_fract_z
Si Si1 0.758211 0.110890 0.061278
Si Si2 0.604705 0.642531 0.706893
Si Si3 0.418461 0.875089 0.687990
Si Si4 0.000000 0.980526 0.000000
Si Si5 0.085379 0.770588 0.892519
Si Si6 0.572258 0.150161 0.305206
Si Si7 0.431597 0.381650 0.383515
Si Si8 0.889078 0.366010 0.899863
O O1 0.851827 0.144897 0.172593
O O2 0.858764 0.061878 0.994607
O O3 0.655705 0.998743 0.070260
O O4 0.657526 0.218650 0.002753
O O5 0.499704 0.756556 0.662835
O O6 0.753553 0.655568 0.675714
O O7 0.544753 0.506082 0.673075
O O8 0.243385 0.863482 0.642806
O O9 0.452659 0.873651 0.807918
O O10 0.463067 0.012872 0.664875
O O11 0.001916 0.892576 0.093725
O O12 0.230791 0.802186 0.861323
O O13 0.993955 0.675455 0.813143
O O14 0.508124 0.261618 0.353966
O O15 0.500000 0.403396 0.500000
O O16 0.000000 0.312347 0.000000
#
# Coordination Sequence:
#
# PCOD9128208 Si02
#       8
#     4   4   4   2   4   4   4   4
#     4  11  22  37  59  91 132 184 227 277 331 396
#     4  11  25  44  70 102 140 175 229 289 346 415
#     4  11  24  44  68 101 134 177 226 281 343 414
#     4  10  24  34  50  88 122 170 242 268 316 396
#     4  11  22  36  60  88 131 183 228 273 329 397
#     4  11  23  45  68 101 138 178 227 286 348 414
#     4  11  25  49  75  99 136 180 227 290 354 410
#     4  11  21  38  57  92 136 178 227 277 329 398
#
# _framework density 21.449898999999998
#
# number of rings (size 3 to 8) (size 9 to 14) (size 15 to 20)
#    0.000    1.067    4.000    3.200    3.733    6.400 
#    0.000    0.667    0.000    0.000    0.000    0.000 
#    0.000    0.000    0.000    0.000    0.000    0.000 
#
# Total GULP energy -83814.617103 kJ/mol
# GULP energy per Si atom -5587.641140 kJ/mol
# Density = 2.140108 g / cm^3
# Si number density = 21.449899 Si / 1000 Ang^3
#
#
#
# Elastic Constant Matrix: (Units=GPa)
#
#
# Indices 1 2 3 4 5 6 
#
# 1 81.0514 67.7105 9.8744 0.0000 5.8280 0.0000
# 2 67.7105 164.7144 20.5778 0.0000 3.5601 0.0000
# 3 9.8744 20.5778 82.0759 0.0000 10.8854 0.0000
# 4 0.0000 0.0000 0.0000 13.5140 0.0000 2.3738
# 5 5.8280 3.5601 10.8854 0.0000 15.0922 0.0000
# 6 0.0000 0.0000 0.0000 2.3738 0.0000 41.3901
#
#
#
# Elastic Compliance Matrix: (Units=1/GPa)
#
#
# Indices 1 2 3 4 5 6 
#
# 1 0.019263 -0.007845 0.000432 0.000000 -0.005900 0.000000
# 2 -0.007845 0.009464 -0.001697 0.000000 0.002021 0.000000
# 3 0.000432 -0.001697 0.013851 0.000000 -0.009757 0.000000
# 4 0.000000 0.000000 0.000000 0.074750 0.000000 -0.004287
# 5 -0.005900 0.002021 -0.009757 0.000000 0.075098 0.000000
# 6 0.000000 0.000000 0.000000 -0.004287 0.000000 0.024406
#
#
# Mechanical properties :
#
#
# Convention : Reuss Voigt Hill
#
# Bulk Modulus (GPa) = 41.05380 58.24078 49.64729
# Shear Modulus (GPa) = 20.56138 29.31119 24.93628
#
# Velocity S-wave (km/s) = 3.09945 3.70062 3.41330
# Velocity P-wave (km/s) = 5.65594 6.74318 6.22335
#
# Compressibility (1/GPa) = 0.02435828
#
# Stress axis : x y z
#
# Youngs Moduli (GPa) = 51.91220 105.65890 72.19494
#
# Poissons Ratio (x) = 0.82891 -0.03118
# Poissons Ratio (y) = 0.40726 0.12252
# Poissons Ratio (z) = -0.02242 0.17931
#
# Static dielectric constant tensor:
#      x y z
#    x 1.815000 0.000000 -0.013230 
#    y 0.000000 1.794970 0.000000 
#    z -0.013230 0.000000 1.781830 
# 
# From -- ./inp_files/50524.got.cif
#   From: 2010.05.17/outbox.cif.g08.bks.cpg/sg5_26_cif.got.tgz:50524.got - 2010.06.03 18:56:24.
