data_PCOD9128666
_publ_section_title
;
Structure prediction by ZEFSAII (Michael W. Deem and Ramdas Pophale) SiO2 
 PCOD9128666
Probable space group: C 2
;
_chemical_formula_sum "Si O2"
_cell_formula_units_Z 20
_cell_length_a 23.498774
_cell_length_b 5.273695
_cell_length_c 12.122567
_cell_angle_alpha 90.000000
_cell_angle_beta 31.182855
_cell_angle_gamma 90.000000
_cell_volume 777.844086
_symmetry_space_group_name_H-M "C 2"
_symmetry_group_IT_number 5
_symmetry_cell_setting 'monoclinic'
loop_
_space_group_symop_operation_xyz
x,y,z
-x,y,-z
1/2+x,1/2+y,z
1/2-x,1/2+y,-z
loop_
_atom_site_type_symbol
_atom_site_label
_atom_site_fract_x
_atom_site_fract_y
_atom_site_fract_z
Si Si1 0.000000 0.989240 0.500000
Si Si2 0.116477 0.602743 0.160289
Si Si3 0.561938 0.808402 0.656135
Si Si4 0.306712 0.869590 0.751600
Si Si5 0.500000 0.008450 0.000000
Si Si6 0.243591 0.547039 0.578936
O O1 0.031159 0.806703 0.347714
O O2 0.101205 0.162652 0.367993
O O3 0.189474 0.552851 0.148935
O O4 0.050992 0.358820 0.224061
O O5 0.191276 0.730033 0.944241
O O6 0.649562 0.974495 0.436916
O O7 0.645363 0.571983 0.532580
O O8 0.524704 0.874574 0.841653
O O9 0.379176 0.128788 0.177920
O O10 0.236932 0.259995 0.547582
#
# Coordination Sequence:
#
# PCOD9128666 Si02
#       6
#     2   4   4   4   2   4
#     4  12  22  42  68 100 144 186 236 298 352 436
#     4  12  24  43  68 104 142 187 238 293 365 428
#     4  11  23  46  73 104 145 190 245 299 367 436
#     4  12  24  42  69 104 142 188 238 293 363 430
#     4  10  24  48  72 106 146 190 244 304 366 436
#     4  10  24  47  72 105 146 191 247 304 361 430
#
# _framework density 25.712092999999999
#
# number of rings (size 3 to 8) (size 9 to 14) (size 15 to 20)
#    0.000    0.800    6.000    1.200    0.000    6.400 
#    0.000   14.000    0.000    0.000    0.000    0.000 
#    0.000    0.000    0.000    0.000    0.000    0.000 
#
# Total GULP energy -55687.069049 kJ/mol
# GULP energy per Si atom -5568.706905 kJ/mol
# Density = 2.565357 g / cm^3
# Si number density = 25.712093 Si / 1000 Ang^3
#
#
#
# Elastic Constant Matrix: (Units=GPa)
#
#
# Indices 1 2 3 4 5 6 
#
# 1 105.3745 30.8817 50.7167 0.0006 10.2190 0.0004
# 2 30.8817 62.8293 5.0929 -0.0033 3.3444 0.0000
# 3 50.7167 5.0929 170.5318 -0.0010 -4.4183 0.0002
# 4 0.0006 -0.0033 -0.0010 17.2386 -0.0003 -22.1741
# 5 10.2190 3.3444 -4.4183 -0.0003 49.2205 0.0001
# 6 0.0004 0.0000 0.0002 -22.1741 0.0001 32.9540
#
#
#
# Elastic Compliance Matrix: (Units=1/GPa)
#
#
# Indices 1 2 3 4 5 6 
#
# 1 0.013418 -0.006136 -0.003878 -0.000015 -0.002717 -0.000010
# 2 -0.006136 0.018824 0.001266 0.000029 0.000109 0.000020
# 3 -0.003878 0.001266 0.007014 0.000006 0.001349 0.000004
# 4 -0.000015 0.000029 0.000006 0.431398 0.000004 0.290279
# 5 -0.002717 0.000109 0.001349 0.000004 0.020995 0.000002
# 6 -0.000010 0.000020 0.000004 0.290279 0.000002 0.225669
#
#
# Mechanical properties :
#
#
# Convention : Reuss Voigt Hill
#
# Bulk Modulus (GPa) = 45.95684 56.90203 51.42944
# Shear Modulus (GPa) = 6.73793 36.68559 21.71176
#
# Velocity S-wave (km/s) = 1.62056 3.78138 2.90904
# Velocity P-wave (km/s) = 4.62753 6.42212 5.59721
#
# Compressibility (1/GPa) = 0.02175955
#
# Stress axis : x y z
#
# Youngs Moduli (GPa) = 74.52597 53.12400 142.56375
#
# Poissons Ratio (x) = 0.32599 0.55282
# Poissons Ratio (y) = 0.45731 -0.18043
# Poissons Ratio (z) = 0.28899 -0.06723
#
# Static dielectric constant tensor:
#      x y z
#    x 2.226670 0.000000 0.075780 
#    y 0.000000 2.069530 0.000000 
#    z 0.075780 0.000000 2.023910 
# 
# From -- ./inp_files/41036.got.cif
#   From: 2010.05.17/outbox.cif.g08.bks.cpg/sg5_21_cif.got.tgz:41036.got - 2010.06.03 18:56:24.
