data_PCOD9128931
_publ_section_title
;
Structure prediction by ZEFSAII (Michael W. Deem and Ramdas Pophale) SiO2 
 PCOD9128931
Probable space group: C 2
;
_chemical_formula_sum "Si O2"
_cell_formula_units_Z 24
_cell_length_a 8.909683
_cell_length_b 4.666844
_cell_length_c 27.335652
_cell_angle_alpha 90.000000
_cell_angle_beta 49.869583
_cell_angle_gamma 90.000000
_cell_volume 869.035532
_symmetry_space_group_name_H-M "C 2"
_symmetry_group_IT_number 5
_symmetry_cell_setting 'monoclinic'
loop_
_space_group_symop_operation_xyz
x,y,z
-x,y,-z
1/2+x,1/2+y,z
1/2-x,1/2+y,-z
loop_
_atom_site_type_symbol
_atom_site_label
_atom_site_fract_x
_atom_site_fract_y
_atom_site_fract_z
Si Si1 0.366727 0.326990 0.956074
Si Si2 0.663569 0.618343 0.544336
Si Si3 0.794926 0.160822 0.795299
Si Si4 0.754581 0.800417 0.629090
Si Si5 0.844781 0.628885 0.717529
Si Si6 0.722854 0.131557 0.131002
O O1 0.624931 0.207638 0.100568
O O2 0.571747 0.476519 0.924213
O O3 0.299867 0.069817 0.004711
O O4 0.810859 0.442121 0.478798
O O5 0.728812 0.604834 0.586752
O O6 0.553143 0.497324 0.417031
O O7 0.707349 0.411001 0.777653
O O8 0.894957 0.396391 0.811690
O O9 0.059025 0.489132 0.672948
O O10 0.862478 0.937276 0.739188
O O11 0.775835 0.645950 0.676526
O O12 0.732734 0.918347 0.847889
#
# Coordination Sequence:
#
# PCOD9128931 Si02
#       6
#     4   4   4   4   4   4
#     4  12  26  46  77 110 152 199 254 310 377 448
#     4  12  30  52  79 114 154 202 252 311 379 452
#     4  10  25  48  77 109 152 198 252 310 380 448
#     4  12  29  52  79 114 154 199 254 314 376 452
#     4  11  27  48  79 113 151 200 254 313 379 452
#     4  11  25  48  74 112 152 200 250 314 375 450
#
# _framework density 27.616824000000001
#
# number of rings (size 3 to 8) (size 9 to 14) (size 15 to 20)
#    0.000    0.667    0.000    5.000    0.000   22.667 
#    0.000    0.000    0.000    0.000    0.000    0.000 
#    0.000    0.000    0.000    0.000    0.000    0.000 
#
# Total GULP energy -67289.919411 kJ/mol
# GULP energy per Si atom -5607.493284 kJ/mol
# Density = 2.755397 g / cm^3
# Si number density = 27.616824 Si / 1000 Ang^3
#
#
#
# Elastic Constant Matrix: (Units=GPa)
#
#
# Indices 1 2 3 4 5 6 
#
# 1 140.1381 52.7388 59.4602 0.0042 -3.3206 0.0040
# 2 52.7388 183.6395 46.4200 0.0147 11.9683 0.0130
# 3 59.4602 46.4200 108.0241 0.0070 22.7943 0.0059
# 4 0.0042 0.0147 0.0070 62.4899 0.0037 2.2667
# 5 -3.3206 11.9683 22.7943 0.0037 40.5489 0.0033
# 6 0.0040 0.0130 0.0059 2.2667 0.0033 39.5360
#
#
#
# Elastic Compliance Matrix: (Units=1/GPa)
#
#
# Indices 1 2 3 4 5 6 
#
# 1 0.010469 -0.001802 -0.005992 0.000000 0.004758 0.000000
# 2 -0.001802 0.006424 -0.001517 -0.000001 -0.001191 -0.000002
# 3 -0.005992 -0.001517 0.014995 0.000000 -0.008472 0.000000
# 4 0.000000 -0.000001 0.000000 0.016036 -0.000001 -0.000919
# 5 0.004758 -0.001191 -0.008472 -0.000001 0.030165 -0.000001
# 6 0.000000 -0.000002 0.000000 -0.000919 -0.000001 0.025346
#
#
# Mechanical properties :
#
#
# Convention : Reuss Voigt Hill
#
# Bulk Modulus (GPa) = 75.38396 83.22661 79.30528
# Shear Modulus (GPa) = 39.53166 46.72714 43.12940
#
# Velocity S-wave (km/s) = 3.78753 4.11783 3.95613
# Velocity P-wave (km/s) = 6.81783 7.26707 7.04603
#
# Compressibility (1/GPa) = 0.01326542
#
# Stress axis : x y z
#
# Youngs Moduli (GPa) = 95.51869 155.66297 66.68752
#
# Poissons Ratio (x) = 0.28050 0.39960
# Poissons Ratio (y) = 0.17212 0.10120
# Poissons Ratio (z) = 0.57236 0.23621
#
# Static dielectric constant tensor:
#      x y z
#    x 2.160210 0.000000 -0.145130 
#    y 0.000000 2.041910 0.000000 
#    z -0.145130 0.000000 2.277300 
# 
# From -- ./inp_files/71622.got.cif
#   From: 2010.05.17/outbox.cif.g08.bks.cpg/sg5_36_cif.got.tgz:71622.got - 2010.06.03 18:56:24.
