data_PCOD9128377
_publ_section_title
;
Structure prediction by ZEFSAII (Michael W. Deem and Ramdas Pophale) SiO2 
 PCOD9128377
Probable space group: C 2
;
_chemical_formula_sum "Si O2"
_cell_formula_units_Z 22
_cell_length_a 18.748976
_cell_length_b 4.936905
_cell_length_c 9.903807
_cell_angle_alpha 90.000000
_cell_angle_beta 105.727052
_cell_angle_gamma 90.000000
_cell_volume 882.397057
_symmetry_space_group_name_H-M "C 2"
_symmetry_group_IT_number 5
_symmetry_cell_setting 'monoclinic'
loop_
_space_group_symop_operation_xyz
x,y,z
-x,y,-z
1/2+x,1/2+y,z
1/2-x,1/2+y,-z
loop_
_atom_site_type_symbol
_atom_site_label
_atom_site_fract_x
_atom_site_fract_y
_atom_site_fract_z
Si Si1 0.500000 0.052720 0.500000
Si Si2 0.370426 0.024147 0.029337
Si Si3 0.506125 0.316534 0.777250
Si Si4 0.751281 0.726918 0.585313
Si Si5 0.625410 0.718597 0.715976
Si Si6 0.138684 0.012339 0.155170
O O1 0.473864 0.222267 0.616674
O O2 0.567567 0.879479 0.592648
O O3 0.344317 0.309145 0.959377
O O4 0.357527 0.811749 0.902791
O O5 0.456310 0.072962 0.119023
O O6 0.337856 0.912707 0.152464
O O7 0.575212 0.503101 0.768811
O O8 0.444625 0.460079 0.834541
O O9 0.716679 0.962471 0.472218
O O10 0.809632 0.906166 0.698766
O O11 0.689017 0.608061 0.653157
#
# Coordination Sequence:
#
# PCOD9128377 Si02
#       6
#     2   4   4   4   4   4
#     4  10  24  42  74 110 142 202 246 310 362 430
#     4  11  26  45  74 109 146 194 248 304 367 446
#     4  11  25  43  76 109 153 189 256 305 369 438
#     4  12  30  51  76 107 153 195 252 305 380 445
#     4  11  26  46  75 108 150 196 252 309 366 446
#     4  12  27  46  75 109 150 198 241 310 376 436
#
# _framework density 24.932086000000002
#
# number of rings (size 3 to 8) (size 9 to 14) (size 15 to 20)
#    0.000    0.727    1.818    3.273   17.818    1.455 
#    0.000    0.000    0.000    0.000    0.000    0.000 
#    0.000    0.000    0.000    0.000    0.000    0.000 
#
# Total GULP energy -61579.088937 kJ/mol
# GULP energy per Si atom -5598.098994 kJ/mol
# Density = 2.487534 g / cm^3
# Si number density = 24.932086 Si / 1000 Ang^3
#
#
#
# Elastic Constant Matrix: (Units=GPa)
#
#
# Indices 1 2 3 4 5 6 
#
# 1 87.3234 7.9097 3.9904 0.0000 -7.6461 0.0000
# 2 7.9097 95.8020 17.9426 0.0000 3.9106 0.0000
# 3 3.9904 17.9426 94.8421 0.0000 11.7542 0.0000
# 4 0.0000 0.0000 0.0000 55.2775 0.0000 -0.2432
# 5 -7.6461 3.9106 11.7542 0.0000 21.1199 0.0000
# 6 0.0000 0.0000 0.0000 -0.2432 0.0000 14.5467
#
#
#
# Elastic Compliance Matrix: (Units=1/GPa)
#
#
# Indices 1 2 3 4 5 6 
#
# 1 0.012031 -0.001024 -0.000941 0.000000 0.005069 0.000000
# 2 -0.001024 0.010926 -0.001855 0.000000 -0.001361 0.000000
# 3 -0.000941 -0.001855 0.011744 0.000000 -0.006533 0.000000
# 4 0.000000 0.000000 0.000000 0.018092 0.000000 0.000302
# 5 0.005069 -0.001361 -0.006533 0.000000 0.053072 0.000000
# 6 0.000000 0.000000 0.000000 0.000302 0.000000 0.068749
#
#
# Mechanical properties :
#
#
# Convention : Reuss Voigt Hill
#
# Bulk Modulus (GPa) = 36.95320 37.51698 37.23509
# Shear Modulus (GPa) = 26.14051 34.73049 30.43550
#
# Velocity S-wave (km/s) = 3.24152 3.73635 3.49769
# Velocity P-wave (km/s) = 5.37249 5.80466 5.59275
#
# Compressibility (1/GPa) = 0.02706126
#
# Stress axis : x y z
#
# Youngs Moduli (GPa) = 83.11679 91.52670 85.14928
#
# Poissons Ratio (x) = 0.09373 0.08010
# Poissons Ratio (y) = 0.08512 0.15797
# Poissons Ratio (z) = 0.07819 0.16980
#
# Static dielectric constant tensor:
#      x y z
#    x 1.963920 0.000000 0.038490 
#    y 0.000000 1.983090 0.000000 
#    z 0.038490 0.000000 2.047850 
# 
# From -- ./inp_files/28382.got.cif
#   From: 2010.05.17/outbox.cif.g08.bks.cpg/sg5_15_cif.got.tgz:28382.got - 2010.06.03 18:56:24.
