data_PCOD9128738
_publ_section_title
;
Structure prediction by ZEFSAII (Michael W. Deem and Ramdas Pophale) SiO2 
 PCOD9128738
Probable space group: C 2
;
_chemical_formula_sum "Si O2"
_cell_formula_units_Z 28
_cell_length_a 12.344461
_cell_length_b 19.398045
_cell_length_c 11.890347
_cell_angle_alpha 90.000000
_cell_angle_beta 153.807276
_cell_angle_gamma 90.000000
_cell_volume 1256.750274
_symmetry_space_group_name_H-M "C 2"
_symmetry_group_IT_number 5
_symmetry_cell_setting 'monoclinic'
loop_
_space_group_symop_operation_xyz
x,y,z
-x,y,-z
1/2+x,1/2+y,z
1/2-x,1/2+y,-z
loop_
_atom_site_type_symbol
_atom_site_label
_atom_site_fract_x
_atom_site_fract_y
_atom_site_fract_z
Si Si1 0.000000 0.428110 0.500000
Si Si2 0.348091 0.084803 0.962046
Si Si3 0.984394 0.481400 0.724493
Si Si4 0.000000 0.823891 0.500000
Si Si5 0.109770 0.816918 0.216349
Si Si6 0.818668 0.109718 0.513132
Si Si7 0.707445 0.852773 0.021891
Si Si8 0.661952 0.743072 0.358272
O O1 0.955081 0.473096 0.348552
O O2 0.221801 0.377809 0.674432
O O3 0.565627 0.132773 0.214266
O O4 0.311787 0.025713 0.020663
O O5 0.500000 0.052987 0.000000
O O6 0.080006 0.115115 0.693738
O O7 0.748242 0.530053 0.522970
O O8 0.992810 0.406303 0.789092
O O9 0.826708 0.866788 0.254056
O O10 0.848846 0.775546 0.443864
O O11 0.267860 0.770674 0.450692
O O12 0.903053 0.851451 0.103211
O O13 0.000000 0.782719 0.000000
O O14 0.841022 0.161017 0.638526
O O15 0.596010 0.776184 0.916607
#
# Coordination Sequence:
#
# PCOD9128738 Si02
#       8
#     2   4   4   2   4   4   4   4
#     4  12  22  45  66 108 139 186 240 298 380 427
#     4  10  24  49  68 101 143 193 244 301 366 442
#     4  10  25  42  70 104 149 189 244 305 369 448
#     4  10  26  41  76 102 145 194 240 324 366 463
#     4  11  22  39  69 102 143 181 233 306 360 445
#     4  10  26  45  73 106 144 194 247 300 369 447
#     4  11  23  45  68 106 144 189 251 305 384 437
#     4  11  24  46  68 107 144 191 251 299 379 438
#
# _framework density 22.279684
#
# number of rings (size 3 to 8) (size 9 to 14) (size 15 to 20)
#    0.857    0.571    2.857    0.857    6.000    2.286 
#    7.714    0.000    0.000    0.000    0.000    0.000 
#    0.000    0.000    0.000    0.000    0.000    0.000 
#
# Total GULP energy -78033.292016 kJ/mol
# GULP energy per Si atom -5573.806573 kJ/mol
# Density = 2.222897 g / cm^3
# Si number density = 22.279684 Si / 1000 Ang^3
#
#
#
# Elastic Constant Matrix: (Units=GPa)
#
#
# Indices 1 2 3 4 5 6 
#
# 1 124.1494 22.9871 57.5361 0.0000 -8.8665 0.0000
# 2 22.9871 66.0356 36.9501 0.0000 -0.5957 0.0000
# 3 57.5361 36.9501 86.1274 0.0003 7.0970 0.0001
# 4 0.0000 0.0000 0.0003 10.6284 0.0001 -0.4379
# 5 -8.8665 -0.5957 7.0970 0.0001 54.9110 0.0001
# 6 0.0000 0.0000 0.0001 -0.4379 0.0001 12.8147
#
#
#
# Elastic Compliance Matrix: (Units=1/GPa)
#
#
# Indices 1 2 3 4 5 6 
#
# 1 0.012170 0.000636 -0.008657 0.000000 0.003091 0.000000
# 2 0.000636 0.020057 -0.009154 0.000000 0.001503 0.000000
# 3 -0.008657 -0.009154 0.021675 0.000000 -0.004299 0.000000
# 4 0.000000 0.000000 0.000000 0.094220 0.000000 0.003219
# 5 0.003091 0.001503 -0.004299 0.000000 0.019282 0.000000
# 6 0.000000 0.000000 0.000000 0.003219 0.000000 0.078145
#
#
# Mechanical properties :
#
#
# Convention : Reuss Voigt Hill
#
# Bulk Modulus (GPa) = 51.14462 56.80657 53.97560
# Shear Modulus (GPa) = 17.45697 26.26011 21.85854
#
# Velocity S-wave (km/s) = 2.80221 3.43688 3.13565
# Velocity P-wave (km/s) = 5.78579 6.42666 6.11463
#
# Compressibility (1/GPa) = 0.01955240
#
# Stress axis : x y z
#
# Youngs Moduli (GPa) = 82.16861 49.85672 46.13511
#
# Poissons Ratio (x) = -0.03170 0.39941
# Poissons Ratio (y) = -0.05224 0.42230
# Poissons Ratio (z) = 0.71137 0.45637
#
# Static dielectric constant tensor:
#      x y z
#    x 1.835830 0.000000 -0.030300 
#    y 0.000000 1.841020 0.000000 
#    z -0.030300 0.000000 1.924510 
# 
# From -- ./inp_files/40688.got.cif
#   From: 2010.05.17/outbox.cif.g08.bks.cpg/sg5_21_cif.got.tgz:40688.got - 2010.06.03 18:56:24.
