data_PCOD9128871
_publ_section_title
;
Structure prediction by ZEFSAII (Michael W. Deem and Ramdas Pophale) SiO2 
 PCOD9128871
Probable space group: C 2
;
_chemical_formula_sum "Si O2"
_cell_formula_units_Z 22
_cell_length_a 8.794434
_cell_length_b 16.897686
_cell_length_c 9.268905
_cell_angle_alpha 90.000000
_cell_angle_beta 45.448899
_cell_angle_gamma 90.000000
_cell_volume 981.577597
_symmetry_space_group_name_H-M "C 2"
_symmetry_group_IT_number 5
_symmetry_cell_setting 'monoclinic'
loop_
_space_group_symop_operation_xyz
x,y,z
-x,y,-z
1/2+x,1/2+y,z
1/2-x,1/2+y,-z
loop_
_atom_site_type_symbol
_atom_site_label
_atom_site_fract_x
_atom_site_fract_y
_atom_site_fract_z
Si Si1 0.706218 0.823810 0.260268
Si Si2 0.434389 0.164939 0.199911
Si Si3 0.316750 0.016079 0.414123
Si Si4 0.000000 0.883492 0.500000
Si Si5 0.280924 0.500101 0.198625
Si Si6 0.263631 0.773952 0.095468
O O1 0.500000 0.831876 0.500000
O O2 0.826858 0.749217 0.244660
O O3 0.818946 0.907275 0.204192
O O4 0.697110 0.807640 0.094009
O O5 0.277822 0.099319 0.364239
O O6 0.637313 0.190456 0.161295
O O7 0.500000 0.134114 0.000000
O O8 0.179074 0.942610 0.448463
O O9 0.573488 0.002106 0.233796
O O10 0.274107 0.032550 0.609106
O O11 0.120394 0.829847 0.297843
O O12 0.500000 0.536304 0.000000
O O13 0.500000 0.764301 0.000000
#
# Coordination Sequence:
#
# PCOD9128871 Si02
#       6
#     4   4   4   2   4   4
#     4  11  22  45  74  99 132 187 238 280 340 419
#     4  10  25  46  68  98 139 187 230 282 352 416
#     4  11  25  44  65 108 140 183 225 291 355 417
#     4  12  26  44  74 110 144 178 236 298 358 410
#     4  11  23  45  73  97 138 186 240 280 347 414
#     4  11  26  45  75 107 139 183 240 302 343 410
#
# _framework density 22.412898999999999
#
# number of rings (size 3 to 8) (size 9 to 14) (size 15 to 20)
#    0.000    1.091    1.818    4.909    3.818    5.818 
#    3.273    0.000    0.000    0.000    0.000    0.000 
#    0.000    0.000    0.000    0.000    0.000    0.000 
#
# Total GULP energy -61418.674669 kJ/mol
# GULP energy per Si atom -5583.515879 kJ/mol
# Density = 2.236189 g / cm^3
# Si number density = 22.412899 Si / 1000 Ang^3
#
#
#
# Elastic Constant Matrix: (Units=GPa)
#
#
# Indices 1 2 3 4 5 6 
#
# 1 119.9338 30.2103 54.7073 0.0000 -14.4876 0.0000
# 2 30.2103 72.3291 21.3375 0.0000 7.1732 0.0000
# 3 54.7073 21.3375 132.8878 0.0000 -15.2752 0.0000
# 4 0.0000 0.0000 0.0000 30.8916 0.0000 -12.8526
# 5 -14.4876 7.1732 -15.2752 0.0000 32.2651 0.0000
# 6 0.0000 0.0000 0.0000 -12.8526 0.0000 17.7179
#
#
#
# Elastic Compliance Matrix: (Units=1/GPa)
#
#
# Indices 1 2 3 4 5 6 
#
# 1 0.011567 -0.004217 -0.003574 0.000000 0.004439 0.000000
# 2 -0.004217 0.016720 -0.001685 0.000000 -0.006408 0.000000
# 3 -0.003574 -0.001685 0.009651 0.000000 0.003339 0.000000
# 4 0.000000 0.000000 0.000000 0.046364 0.000000 0.033633
# 5 0.004439 -0.006408 0.003339 0.000000 0.035992 0.000000
# 6 0.000000 0.000000 0.000000 0.033633 0.000000 0.080837
#
#
# Mechanical properties :
#
#
# Convention : Reuss Voigt Hill
#
# Bulk Modulus (GPa) = 52.67519 59.74008 56.20764
# Shear Modulus (GPa) = 22.08363 30.76797 26.42580
#
# Velocity S-wave (km/s) = 3.14237 3.70912 3.43745
# Velocity P-wave (km/s) = 6.05963 6.71235 6.39433
#
# Compressibility (1/GPa) = 0.01898427
#
# Stress axis : x y z
#
# Youngs Moduli (GPa) = 86.45390 59.80959 103.61544
#
# Poissons Ratio (x) = 0.25221 0.37037
# Poissons Ratio (y) = 0.36457 0.17462
# Poissons Ratio (z) = 0.30903 0.10079
#
# Static dielectric constant tensor:
#      x y z
#    x 1.813760 0.000000 -0.248050 
#    y 0.000000 1.819370 0.000000 
#    z -0.248050 0.000000 1.512710 
# 
# From -- ./inp_files/16033.got.cif
#   From: 2010.05.17/outbox.cif.g08.bks.cpg/sg5_9_cif.got.tgz:16033.got - 2010.06.03 18:56:24.
