data_PCOD9128198
_publ_section_title
;
Structure prediction by ZEFSAII (Michael W. Deem and Ramdas Pophale) SiO2 
 PCOD9128198
Probable space group: C 2
;
_chemical_formula_sum "Si O2"
_cell_formula_units_Z 18
_cell_length_a 12.622755
_cell_length_b 6.973857
_cell_length_c 9.628439
_cell_angle_alpha 90.000000
_cell_angle_beta 58.367749
_cell_angle_gamma 90.000000
_cell_volume 721.660556
_symmetry_space_group_name_H-M "C 2"
_symmetry_group_IT_number 5
_symmetry_cell_setting 'monoclinic'
loop_
_space_group_symop_operation_xyz
x,y,z
-x,y,-z
1/2+x,1/2+y,z
1/2-x,1/2+y,-z
loop_
_atom_site_type_symbol
_atom_site_label
_atom_site_fract_x
_atom_site_fract_y
_atom_site_fract_z
Si Si1 0.341411 0.807390 0.502127
Si Si2 0.769616 0.068824 0.803060
Si Si3 0.965690 0.209217 0.870059
Si Si4 0.141370 0.746833 0.425946
Si Si5 0.000000 0.580427 0.000000
O O1 0.346154 0.667859 0.627967
O O2 0.571147 0.720326 0.679192
O O3 0.223872 0.843964 0.245676
O O4 0.364034 0.018252 0.548338
O O5 0.843063 0.112439 0.892501
O O6 0.706964 0.317431 0.521166
O O7 0.633549 0.166448 0.877426
O O8 0.954467 0.437246 0.908770
O O9 0.000000 0.129271 0.000000
O O10 0.000000 0.807362 0.500000
#
# Coordination Sequence:
#
# PCOD9128198 Si02
#       5
#     4   4   4   4   2
#     4  12  24  49  77 117 152 196 267 319 364 468
#     4  12  25  50  83 106 159 210 252 318 383 451
#     4  10  23  50  74 111 164 193 247 329 376 445
#     4  12  24  42  77 115 145 196 257 309 379 443
#     4  10  24  52  70 114 158 194 260 312 378 454
#
# _framework density 24.942473
#
# number of rings (size 3 to 8) (size 9 to 14) (size 15 to 20)
#    0.667    0.000    4.444    3.333    0.000    0.000 
#   24.000    1.111    0.000    2.667    0.000    0.000 
#    0.000    0.000    0.000    0.000    0.000    0.000 
#
# Total GULP energy -50226.493486 kJ/mol
# GULP energy per Si atom -5580.721498 kJ/mol
# Density = 2.488570 g / cm^3
# Si number density = 24.942473 Si / 1000 Ang^3
#
#
#
# Elastic Constant Matrix: (Units=GPa)
#
#
# Indices 1 2 3 4 5 6 
#
# 1 189.4097 42.2288 54.5167 0.0000 23.2244 0.0000
# 2 42.2288 89.8638 35.0551 0.0000 3.9801 0.0000
# 3 54.5167 35.0551 135.7737 0.0000 12.7153 0.0000
# 4 0.0000 0.0000 0.0000 36.0264 0.0000 -1.4424
# 5 23.2244 3.9801 12.7153 0.0000 48.5118 0.0000
# 6 0.0000 0.0000 0.0000 -1.4424 0.0000 68.1089
#
#
#
# Elastic Compliance Matrix: (Units=1/GPa)
#
#
# Indices 1 2 3 4 5 6 
#
# 1 0.006624 -0.002286 -0.001835 0.000000 -0.002503 0.000000
# 2 -0.002286 0.013165 -0.002545 0.000000 0.000681 0.000000
# 3 -0.001835 -0.002545 0.008875 0.000000 -0.001239 0.000000
# 4 0.000000 0.000000 0.000000 0.027781 0.000000 0.000588
# 5 -0.002503 0.000681 -0.001239 0.000000 0.022081 0.000000
# 6 0.000000 0.000000 0.000000 0.000588 0.000000 0.014695
#
#
# Mechanical properties :
#
#
# Convention : Reuss Voigt Hill
#
# Bulk Modulus (GPa) = 65.22363 75.40536 70.31449
# Shear Modulus (GPa) = 44.77730 49.41252 47.09491
#
# Velocity S-wave (km/s) = 4.24160 4.45574 4.34999
# Velocity P-wave (km/s) = 7.08482 7.53451 7.31312
#
# Compressibility (1/GPa) = 0.01533187
#
# Stress axis : x y z
#
# Youngs Moduli (GPa) = 150.95819 75.96005 112.67408
#
# Poissons Ratio (x) = 0.17366 0.20678
# Poissons Ratio (y) = 0.34512 0.28674
# Poissons Ratio (z) = 0.27704 0.19331
#
# Static dielectric constant tensor:
#      x y z
#    x 2.022340 0.000000 -0.120300 
#    y 0.000000 2.108720 0.000000 
#    z -0.120300 0.000000 2.035020 
# 
# From -- ./inp_files/18501.got.cif
#   From: 2010.05.17/outbox.cif.g08.bks.cpg/sg5_10_cif.got.tgz:18501.got - 2010.06.03 18:56:24.
