data_PCOD9128008
_publ_section_title
;
Structure prediction by ZEFSAII (Michael W. Deem and Ramdas Pophale) SiO2 
 PCOD9128008
Probable space group: C 2
;
_chemical_formula_sum "Si O2"
_cell_formula_units_Z 28
_cell_length_a 19.036759
_cell_length_b 14.819348
_cell_length_c 5.309869
_cell_angle_alpha 90.000000
_cell_angle_beta 120.134895
_cell_angle_gamma 90.000000
_cell_volume 1295.521449
_symmetry_space_group_name_H-M "C 2"
_symmetry_group_IT_number 5
_symmetry_cell_setting 'monoclinic'
loop_
_space_group_symop_operation_xyz
x,y,z
-x,y,-z
1/2+x,1/2+y,z
1/2-x,1/2+y,-z
loop_
_atom_site_type_symbol
_atom_site_label
_atom_site_fract_x
_atom_site_fract_y
_atom_site_fract_z
Si Si1 0.749150 0.102670 0.220662
Si Si2 0.794246 0.404088 0.054573
Si Si3 0.204507 0.992629 0.300790
Si Si4 0.153760 0.764822 0.831078
Si Si5 0.589559 0.349812 0.236409
Si Si6 0.947992 0.297755 0.151263
Si Si7 0.590131 0.607318 0.767149
O O1 0.754515 0.085176 0.528998
O O2 0.840808 0.132166 0.313763
O O3 0.685928 0.167072 0.970255
O O4 0.725993 0.001019 0.099128
O O5 0.774451 0.428555 0.312085
O O6 0.878456 0.368410 0.099396
O O7 0.732569 0.322575 0.895355
O O8 0.148500 0.934933 0.389837
O O9 0.134641 0.023491 0.979329
O O10 0.094454 0.783221 0.486948
O O11 0.121064 0.804040 0.035925
O O12 0.500000 0.380152 0.000000
O O13 0.916965 0.194519 0.064888
O O14 0.000000 0.291482 0.500000
O O15 0.000000 0.323000 0.000000
O O16 0.500000 0.586577 0.500000
#
# Coordination Sequence:
#
# PCOD9128008 Si02
#       7
#     4   4   4   4   4   4   4
#     4  11  23  42  71  99 137 188 239 288 352 431
#     4  10  23  45  64 102 138 181 245 282 353 428
#     4  10  24  39  72 101 140 189 237 303 359 438
#     4  11  24  44  70 100 138 188 231 294 350 429
#     4  11  25  44  69 100 142 181 233 296 362 417
#     4  11  26  43  68 100 143 192 230 294 360 426
#     4  10  24  39  64 106 145 181 232 296 373 435
#
# _framework density 21.612921
#
# number of rings (size 3 to 8) (size 9 to 14) (size 15 to 20)
#    0.000    1.429    2.857    0.429   12.000    0.000 
#    0.000    2.143    0.000    0.000    0.000    0.000 
#    0.000    0.000    0.000    0.000    0.000    0.000 
#
# Total GULP energy -77976.995039 kJ/mol
# GULP energy per Si atom -5569.785360 kJ/mol
# Density = 2.156373 g / cm^3
# Si number density = 21.612921 Si / 1000 Ang^3
#
#
#
# Elastic Constant Matrix: (Units=GPa)
#
#
# Indices 1 2 3 4 5 6 
#
# 1 92.8976 33.5657 14.4392 0.0000 -4.2760 0.0000
# 2 33.5657 97.6365 31.0053 0.0000 8.0522 0.0000
# 3 14.4392 31.0053 81.6077 0.0000 -12.3957 0.0000
# 4 0.0000 0.0000 0.0000 12.7944 0.0000 -12.1419
# 5 -4.2760 8.0522 -12.3957 0.0000 12.4695 0.0000
# 6 0.0000 0.0000 0.0000 -12.1419 0.0000 13.0255
#
#
#
# Elastic Compliance Matrix: (Units=1/GPa)
#
#
# Indices 1 2 3 4 5 6 
#
# 1 0.013046 -0.005663 0.001270 0.000000 0.009393 0.000000
# 2 -0.005663 0.016648 -0.008541 0.000000 -0.021182 0.000000
# 3 0.001270 -0.008541 0.019055 0.000000 0.024893 0.000000
# 4 0.000000 0.000000 0.000000 0.677392 0.000000 0.631437
# 5 0.009393 -0.021182 0.024893 0.000000 0.121841 0.000000
# 6 0.000000 0.000000 0.000000 0.631437 0.000000 0.665373
#
#
# Mechanical properties :
#
#
# Convention : Reuss Voigt Hill
#
# Bulk Modulus (GPa) = 43.70317 47.79578 45.74948
# Shear Modulus (GPa) = 3.23238 20.53334 11.88286
#
# Velocity S-wave (km/s) = 1.22426 3.08563 2.34733
# Velocity P-wave (km/s) = 4.71839 5.90401 5.34418
#
# Compressibility (1/GPa) = 0.02288163
#
# Stress axis : x y z
#
# Youngs Moduli (GPa) = 76.65446 60.06756 52.47977
#
# Poissons Ratio (x) = 0.34015 -0.06665
# Poissons Ratio (y) = 0.43408 0.44821
# Poissons Ratio (z) = -0.09735 0.51301
#
# Static dielectric constant tensor:
#      x y z
#    x 1.866980 0.000000 -0.141330 
#    y 0.000000 1.805310 0.000000 
#    z -0.141330 0.000000 2.048220 
# 
# From -- ./inp_files/8696.got.cif
#   From: 2010.05.17/outbox.cif.g08.bks.cpg/sg5_5_cif.got.tgz:8696.got - 2010.06.03 18:56:24.
