data_PCOD9128741
_publ_section_title
;
Structure prediction by ZEFSAII (Michael W. Deem and Ramdas Pophale) SiO2 
 PCOD9128741
Probable space group: C 2
;
_chemical_formula_sum "Si O2"
_cell_formula_units_Z 16
_cell_length_a 10.650675
_cell_length_b 9.924878
_cell_length_c 10.861855
_cell_angle_alpha 90.000000
_cell_angle_beta 34.619264
_cell_angle_gamma 90.000000
_cell_volume 652.299051
_symmetry_space_group_name_H-M "C 2"
_symmetry_group_IT_number 5
_symmetry_cell_setting 'monoclinic'
loop_
_space_group_symop_operation_xyz
x,y,z
-x,y,-z
1/2+x,1/2+y,z
1/2-x,1/2+y,-z
loop_
_atom_site_type_symbol
_atom_site_label
_atom_site_fract_x
_atom_site_fract_y
_atom_site_fract_z
Si Si1 0.243903 0.012350 0.401363
Si Si2 0.000000 0.125708 0.000000
Si Si3 0.804976 0.428756 0.864466
Si Si4 0.314246 0.350963 0.778872
Si Si5 0.000000 0.256225 0.500000
O O1 0.130093 0.157391 0.488094
O O2 0.465880 0.007729 0.298830
O O3 0.280524 0.973053 0.228124
O O4 0.070383 0.894156 0.578606
O O5 0.789658 0.219251 0.201678
O O6 0.902654 0.027978 0.975115
O O7 0.836180 0.345478 0.714500
O O8 0.774755 0.341363 0.011179
#
# Coordination Sequence:
#
# PCOD9128741 Si02
#       5
#     4   2   4   4   2
#     4  10  25  51  77 100 143 196 241 293 364 420
#     4  12  28  42  74 110 148 184 242 294 368 420
#     4  12  27  45  71 110 145 188 234 301 361 424
#     4  10  24  49  72 106 139 192 236 299 357 423
#     4  10  28  46  70 108 140 190 242 288 356 434
#
# _framework density 24.528625000000002
#
# number of rings (size 3 to 8) (size 9 to 14) (size 15 to 20)
#    0.000    1.500    2.500    0.000   14.000    2.000 
#    0.000    0.000    0.000    0.000    0.000    0.000 
#    0.000    0.000    0.000    0.000    0.000    0.000 
#
# Total GULP energy -44668.661749 kJ/mol
# GULP energy per Si atom -5583.582719 kJ/mol
# Density = 2.447280 g / cm^3
# Si number density = 24.528625 Si / 1000 Ang^3
#
#
#
# Elastic Constant Matrix: (Units=GPa)
#
#
# Indices 1 2 3 4 5 6 
#
# 1 112.9453 48.7357 26.9355 -0.0008 -40.6962 0.0002
# 2 48.7357 94.6707 34.7254 -0.0006 -7.1515 0.0003
# 3 26.9355 34.7254 117.6533 -0.0011 -0.2041 0.0002
# 4 -0.0008 -0.0006 -0.0011 34.8227 0.0010 -2.2089
# 5 -40.6962 -7.1515 -0.2041 0.0010 43.4148 -0.0004
# 6 0.0002 0.0003 0.0002 -2.2089 -0.0004 28.5880
#
#
#
# Elastic Compliance Matrix: (Units=1/GPa)
#
#
# Indices 1 2 3 4 5 6 
#
# 1 0.018277 -0.007495 -0.001944 0.000000 0.015888 0.000000
# 2 -0.007495 0.015084 -0.002744 0.000000 -0.004554 0.000000
# 3 -0.001944 -0.002744 0.009751 0.000000 -0.002229 0.000000
# 4 0.000000 0.000000 0.000000 0.028858 -0.000001 0.002230
# 5 0.015888 -0.004554 -0.002229 -0.000001 0.037166 0.000000
# 6 0.000000 0.000000 0.000000 0.002230 0.000000 0.035152
#
#
# Mechanical properties :
#
#
# Convention : Reuss Voigt Hill
#
# Bulk Modulus (GPa) = 53.35058 60.67362 57.01210
# Shear Modulus (GPa) = 28.58725 35.68993 32.13859
#
# Velocity S-wave (km/s) = 3.41759 3.81863 3.62366
# Velocity P-wave (km/s) = 6.11317 6.65072 6.38760
#
# Compressibility (1/GPa) = 0.01874394
#
# Stress axis : x y z
#
# Youngs Moduli (GPa) = 54.71486 66.29596 102.55639
#
# Poissons Ratio (x) = 0.49690 0.19942
# Poissons Ratio (y) = 0.41010 0.28141
# Poissons Ratio (z) = 0.10639 0.18191
#
# Static dielectric constant tensor:
#      x y z
#    x 1.910120 0.000000 -0.004170 
#    y 0.000000 1.948280 0.000000 
#    z -0.004170 0.000000 2.037450 
# 
# From -- ./inp_files/37980.got.cif
#   From: 2010.05.17/outbox.cif.g08.bks.cpg/sg5_19_cif.got.tgz:37980.got - 2010.06.03 18:56:24.
