data_PCOD9128443
_publ_section_title
;
Structure prediction by ZEFSAII (Michael W. Deem and Ramdas Pophale) SiO2 
 PCOD9128443
Probable space group: C 2
;
_chemical_formula_sum "Si O2"
_cell_formula_units_Z 30
_cell_length_a 11.771276
_cell_length_b 9.589379
_cell_length_c 28.935302
_cell_angle_alpha 90.000000
_cell_angle_beta 156.127719
_cell_angle_gamma 90.000000
_cell_volume 1321.826422
_symmetry_space_group_name_H-M "C 2"
_symmetry_group_IT_number 5
_symmetry_cell_setting 'monoclinic'
loop_
_space_group_symop_operation_xyz
x,y,z
-x,y,-z
1/2+x,1/2+y,z
1/2-x,1/2+y,-z
loop_
_atom_site_type_symbol
_atom_site_label
_atom_site_fract_x
_atom_site_fract_y
_atom_site_fract_z
Si Si1 0.314728 0.180480 0.289654
Si Si2 0.000000 0.007833 0.000000
Si Si3 0.662488 0.428879 0.376958
Si Si4 0.334923 0.547547 0.166050
Si Si5 0.082832 0.374717 0.698754
Si Si6 0.632811 0.265012 0.871218
Si Si7 0.339058 0.178423 0.488014
Si Si8 0.505610 0.281864 0.078942
O O1 0.439419 0.306827 0.306085
O O2 0.495448 0.179483 0.403630
O O3 0.999026 0.152576 0.191625
O O4 0.371325 0.037196 0.284041
O O5 0.251949 0.117763 0.102954
O O6 0.928318 0.904014 0.015314
O O7 0.543801 0.504220 0.286266
O O8 0.640339 0.542852 0.410107
O O9 0.000000 0.381907 0.500000
O O10 0.263457 0.399740 0.117046
O O11 0.057026 0.629131 0.078114
O O12 0.792736 0.327984 0.570661
O O13 0.299823 0.292998 0.745784
O O14 0.179731 0.317631 0.784290
O O15 0.684049 0.275252 0.945777
O O16 0.500000 0.153730 0.500000
#
# Coordination Sequence:
#
# PCOD9128443 Si02
#       8
#     4   2   4   4   4   4   4   4
#     4  11  22  36  63  95 132 175 217 259 300 372
#     4  12  26  46  70 100 118 164 216 276 340 386
#     4  11  22  37  60  93 132 175 222 255 305 373
#     4  11  22  44  65  92 131 177 205 260 327 377
#     4   9  21  43  57  92 135 164 208 266 310 373
#     4   9  25  43  69  91 130 161 211 271 322 396
#     4  11  19  36  62  91 137 173 217 257 303 370
#     4  10  24  44  68  96 127 161 216 269 324 397
#
# _framework density 22.695868000000001
#
# number of rings (size 3 to 8) (size 9 to 14) (size 15 to 20)
#    0.800    0.800    4.000    0.800    3.733    5.333 
#    0.000    2.667    0.000    0.000    0.000    0.000 
#    0.000    0.000    0.000    0.000    0.000    0.000 
#
# Total GULP energy -83520.887014 kJ/mol
# GULP energy per Si atom -5568.059134 kJ/mol
# Density = 2.264421 g / cm^3
# Si number density = 22.695868 Si / 1000 Ang^3
#
#
#
# Elastic Constant Matrix: (Units=GPa)
#
#
# Indices 1 2 3 4 5 6 
#
# 1 61.4307 47.6865 8.0989 -0.0001 -3.5715 0.0001
# 2 47.6865 114.1275 13.9792 0.0006 7.6998 -0.0003
# 3 8.0989 13.9792 56.9380 -0.0030 -3.4981 0.0012
# 4 -0.0001 0.0006 -0.0030 15.4687 -0.0004 -5.2723
# 5 -3.5715 7.6998 -3.4981 -0.0004 13.7882 0.0001
# 6 0.0001 -0.0003 0.0012 -5.2723 0.0001 38.2587
#
#
#
# Elastic Compliance Matrix: (Units=1/GPa)
#
#
# Indices 1 2 3 4 5 6 
#
# 1 0.026293 -0.011895 0.000007 0.000001 0.013455 0.000000
# 2 -0.011895 0.014878 -0.002703 -0.000001 -0.012075 0.000000
# 3 0.000007 -0.002703 0.018608 0.000004 0.006232 0.000000
# 4 0.000001 -0.000001 0.000004 0.067833 0.000004 0.009348
# 5 0.013455 -0.012075 0.006232 0.000004 0.084335 0.000000
# 6 0.000000 0.000000 0.000000 0.009348 0.000000 0.027426
#
#
# Mechanical properties :
#
#
# Convention : Reuss Voigt Hill
#
# Bulk Modulus (GPa) = 32.68123 41.33617 37.00870
# Shear Modulus (GPa) = 17.93690 24.35189 21.14440
#
# Velocity S-wave (km/s) = 2.81431 3.27917 3.05559
# Velocity P-wave (km/s) = 4.99913 5.70876 5.36569
#
# Compressibility (1/GPa) = 0.03059860
#
# Stress axis : x y z
#
# Youngs Moduli (GPa) = 38.03225 67.21336 53.73919
#
# Poissons Ratio (x) = 0.79950 -0.00038
# Poissons Ratio (y) = 0.45239 0.14524
# Poissons Ratio (z) = -0.00027 0.18166
#
# Static dielectric constant tensor:
#      x y z
#    x 1.873760 0.000000 0.062640 
#    y 0.000000 1.866740 0.000000 
#    z 0.062640 0.000000 1.958530 
# 
# From -- ./inp_files/71709.got.cif
#   From: 2010.05.17/outbox.cif.g08.bks.cpg/sg5_36_cif.got.tgz:71709.got - 2010.06.03 18:56:24.
