data_PCOD9128306
_publ_section_title
;
Structure prediction by ZEFSAII (Michael W. Deem and Ramdas Pophale) SiO2 
 PCOD9128306
Probable space group: C 2
;
_chemical_formula_sum "Si O2"
_cell_formula_units_Z 18
_cell_length_a 11.917198
_cell_length_b 7.634670
_cell_length_c 21.188472
_cell_angle_alpha 90.000000
_cell_angle_beta 152.397587
_cell_angle_gamma 90.000000
_cell_volume 893.218340
_symmetry_space_group_name_H-M "C 2"
_symmetry_group_IT_number 5
_symmetry_cell_setting 'monoclinic'
loop_
_space_group_symop_operation_xyz
x,y,z
-x,y,-z
1/2+x,1/2+y,z
1/2-x,1/2+y,-z
loop_
_atom_site_type_symbol
_atom_site_label
_atom_site_fract_x
_atom_site_fract_y
_atom_site_fract_z
Si Si1 0.510913 0.221510 0.717858
Si Si2 0.262730 0.552908 0.205441
Si Si3 0.225696 0.436294 0.736913
Si Si4 0.722964 0.458087 0.923600
Si Si5 0.500000 0.839682 0.500000
O O1 0.555393 0.391072 0.694564
O O2 0.664260 0.276573 0.856908
O O3 0.230740 0.223725 0.595929
O O4 0.610536 0.052404 0.733764
O O5 0.298244 0.730901 0.259589
O O6 0.288158 0.588950 0.142418
O O7 0.993152 0.477215 0.083161
O O8 0.507480 0.482385 0.865213
O O9 0.088409 0.458352 0.602137
#
# Coordination Sequence:
#
# PCOD9128306 Si02
#       5
#     4   4   4   4   2
#     4   9  21  42  59  86 124 159 199 251 293 351
#     4   9  20  41  58  92 123 148 204 246 296 365
#     4  11  22  40  65  85 122 169 190 248 310 338
#     4   8  20  41  54  94 125 138 204 252 277 382
#     4  10  24  42  56  94 124 148 226 242 266 384
#
# _framework density 20.151848999999999
#
# number of rings (size 3 to 8) (size 9 to 14) (size 15 to 20)
#    1.333    1.333    0.000    0.000    6.222    0.000 
#   16.000    2.222    0.000    0.000    0.000    0.000 
#    0.000    0.000    0.000    0.000    0.000    0.000 
#
# Total GULP energy -50111.650826 kJ/mol
# GULP energy per Si atom -5567.961203 kJ/mol
# Density = 2.010598 g / cm^3
# Si number density = 20.151849 Si / 1000 Ang^3
#
#
#
# Elastic Constant Matrix: (Units=GPa)
#
#
# Indices 1 2 3 4 5 6 
#
# 1 59.1789 35.5876 47.1767 -0.0001 19.4984 0.0000
# 2 35.5876 81.2313 52.1160 0.0001 16.4433 0.0001
# 3 47.1767 52.1160 82.1323 0.0015 24.2525 0.0000
# 4 -0.0001 0.0001 0.0015 7.4921 0.0000 2.6566
# 5 19.4984 16.4433 24.2525 0.0000 26.5333 -0.0001
# 6 0.0000 0.0001 0.0000 2.6566 -0.0001 33.7758
#
#
#
# Elastic Compliance Matrix: (Units=1/GPa)
#
#
# Indices 1 2 3 4 5 6 
#
# 1 0.033461 -0.003721 -0.014079 0.000003 -0.009415 0.000000
# 2 -0.003721 0.021202 -0.011291 0.000002 -0.000084 0.000000
# 3 -0.014079 -0.011291 0.030552 -0.000006 -0.010582 0.000000
# 4 0.000003 0.000002 -0.000006 0.137303 0.000002 -0.010800
# 5 -0.009415 -0.000084 -0.010582 0.000002 0.054332 0.000000
# 6 0.000000 0.000000 0.000000 -0.010800 0.000000 0.030456
#
#
# Mechanical properties :
#
#
# Convention : Reuss Voigt Hill
#
# Bulk Modulus (GPa) = 36.99227 54.70034 45.84631
# Shear Modulus (GPa) = 13.35118 19.40440 16.37779
#
# Velocity S-wave (km/s) = 2.57676 3.10644 2.85392
# Velocity P-wave (km/s) = 5.22011 6.33006 5.80169
#
# Compressibility (1/GPa) = 0.02703267
#
# Stress axis : x y z
#
# Youngs Moduli (GPa) = 29.88562 47.16562 32.73132
#
# Poissons Ratio (x) = 0.17550 0.46082
# Poissons Ratio (y) = 0.11120 0.36958
# Poissons Ratio (z) = 0.42075 0.53256
#
# Static dielectric constant tensor:
#      x y z
#    x 1.748820 0.000000 -0.014880 
#    y 0.000000 1.687740 0.000000 
#    z -0.014880 0.000000 1.733830 
# 
# From -- ./inp_files/37865.got.cif
#   From: 2010.05.17/outbox.cif.g08.bks.cpg/sg5_19_cif.got.tgz:37865.got - 2010.06.03 18:56:24.
