data_PCOD9128261
_publ_section_title
;
Structure prediction by ZEFSAII (Michael W. Deem and Ramdas Pophale) SiO2 
 PCOD9128261
Probable space group: C 2
;
_chemical_formula_sum "Si O2"
_cell_formula_units_Z 22
_cell_length_a 5.049315
_cell_length_b 9.089748
_cell_length_c 21.343931
_cell_angle_alpha 90.000000
_cell_angle_beta 90.223522
_cell_angle_gamma 90.000000
_cell_volume 979.614966
_symmetry_space_group_name_H-M "C 2"
_symmetry_group_IT_number 5
_symmetry_cell_setting 'monoclinic'
loop_
_space_group_symop_operation_xyz
x,y,z
-x,y,-z
1/2+x,1/2+y,z
1/2-x,1/2+y,-z
loop_
_atom_site_type_symbol
_atom_site_label
_atom_site_fract_x
_atom_site_fract_y
_atom_site_fract_z
Si Si1 0.601681 0.422440 0.928967
Si Si2 0.895611 0.931645 0.692092
Si Si3 0.500000 0.705726 0.500000
Si Si4 0.166157 0.923548 0.557859
Si Si5 0.605763 0.762665 0.260468
Si Si6 0.100395 0.253155 0.881658
O O1 0.369550 0.344889 0.889006
O O2 0.647087 0.587398 0.904756
O O3 0.870107 0.329879 0.922166
O O4 0.500000 0.425540 0.000000
O O5 0.123837 0.854286 0.733670
O O6 0.623332 0.845178 0.701064
O O7 0.009534 0.926598 0.621906
O O8 0.853914 0.099337 0.712950
O O9 0.702803 0.589323 0.532590
O O10 0.411641 0.814381 0.555648
O O11 0.000000 0.857746 0.500000
O O12 0.504345 0.753566 0.189322
#
# Coordination Sequence:
#
# PCOD9128261 Si02
#       6
#     4   4   2   4   4   4
#     4  12  25  44  72 105 136 178 223 276 331 394
#     4  12  27  44  71  97 137 171 239 272 335 406
#     4  10  24  40  66  90 128 162 216 256 364 388
#     4  10  26  41  68  93 130 168 215 281 342 392
#     4  12  26  47  68 102 131 187 221 278 329 396
#     4  12  25  45  70  97 145 176 225 274 333 392
#
# _framework density 22.457802000000001
#
# number of rings (size 3 to 8) (size 9 to 14) (size 15 to 20)
#    0.545    0.000    0.000    8.182    6.364    0.000 
#    0.000    0.000    0.000    0.000    0.000    0.000 
#    0.000    0.000    0.000    0.000    0.000    0.000 
#
# Total GULP energy -61562.723469 kJ/mol
# GULP energy per Si atom -5596.611224 kJ/mol
# Density = 2.240669 g / cm^3
# Si number density = 22.457802 Si / 1000 Ang^3
#
#
#
# Elastic Constant Matrix: (Units=GPa)
#
#
# Indices 1 2 3 4 5 6 
#
# 1 71.4459 21.7177 -23.7763 0.0000 -5.9985 0.0000
# 2 21.7177 150.9338 9.5842 0.0000 -13.2249 0.0000
# 3 -23.7763 9.5842 97.4199 0.0000 -2.5592 0.0000
# 4 0.0000 0.0000 0.0000 10.6353 0.0000 -4.0453
# 5 -5.9985 -13.2249 -2.5592 0.0000 35.1285 0.0000
# 6 0.0000 0.0000 0.0000 -4.0453 0.0000 -35.1371
#
#
#
# Elastic Compliance Matrix: (Units=1/GPa)
#
#
# Indices 1 2 3 4 5 6 
#
# 1 0.016346 -0.002433 0.004286 0.000000 0.002188 0.000000
# 2 -0.002433 0.007249 -0.001248 0.000000 0.002223 0.000000
# 3 0.004286 -0.001248 0.011463 0.000000 0.001097 0.000000
# 4 0.000000 0.000000 0.000000 0.090082 0.000000 -0.010371
# 5 0.002188 0.002223 0.001097 0.000000 0.029757 0.000000
# 6 0.000000 0.000000 0.000000 -0.010371 0.000000 -0.027266
#
#
# Mechanical properties :
#
#
# Convention : Reuss Voigt Hill
#
# Bulk Modulus (GPa) = 27.57206 37.20564 32.38885
# Shear Modulus (GPa) = 36.09842 22.94361 29.52102
#
# Velocity S-wave (km/s) = 4.01357 3.19977 3.62955
# Velocity P-wave (km/s) = 5.81225 5.50038 5.65847
#
# Compressibility (1/GPa) = 0.03626860
#
# Stress axis : x y z
#
# Youngs Moduli (GPa) = 61.17665 137.94089 87.24043
#
# Poissons Ratio (x) = 0.33554 -0.37393
# Poissons Ratio (y) = 0.14881 0.10892
# Poissons Ratio (z) = -0.26222 0.17222
#
# Static dielectric constant tensor:
#      x y z
#    x 2.209060 0.000000 0.053760 
#    y 0.000000 1.764180 0.000000 
#    z 0.053760 0.000000 1.839790 
# 
# From -- ./inp_files/63857.got.cif
#   From: 2010.05.17/outbox.cif.g08.bks.cpg/sg5_32_cif.got.tgz:63857.got - 2010.06.03 18:56:24.
