data_PCOD9128582
_publ_section_title
;
Structure prediction by ZEFSAII (Michael W. Deem and Ramdas Pophale) SiO2 
 PCOD9128582
Probable space group: C 2
;
_chemical_formula_sum "Si O2"
_cell_formula_units_Z 20
_cell_length_a 15.998608
_cell_length_b 8.118811
_cell_length_c 20.559866
_cell_angle_alpha 90.000000
_cell_angle_beta 20.830522
_cell_angle_gamma 90.000000
_cell_volume 949.647979
_symmetry_space_group_name_H-M "C 2"
_symmetry_group_IT_number 5
_symmetry_cell_setting 'monoclinic'
loop_
_space_group_symop_operation_xyz
x,y,z
-x,y,-z
1/2+x,1/2+y,z
1/2-x,1/2+y,-z
loop_
_atom_site_type_symbol
_atom_site_label
_atom_site_fract_x
_atom_site_fract_y
_atom_site_fract_z
Si Si1 0.680227 0.782700 0.620305
Si Si2 0.000000 0.464850 0.000000
Si Si3 0.581889 0.483970 0.771039
Si Si4 0.496593 0.597930 0.376803
Si Si5 0.500000 0.795103 0.500000
Si Si6 0.661217 0.799808 0.016595
O O1 0.742785 0.609164 0.610573
O O2 0.560935 0.715345 0.641824
O O3 0.502078 0.857850 0.803699
O O4 0.874131 0.918310 0.462952
O O5 0.773156 0.571428 0.180384
O O6 0.070863 0.365403 0.013420
O O7 0.765825 0.399565 0.685018
O O8 0.392162 0.605222 0.942277
O O9 0.423420 0.361668 0.842413
O O10 0.420707 0.685613 0.497646
#
# Coordination Sequence:
#
# PCOD9128582 Si02
#       6
#     4   2   4   4   2   4
#     4  10  25  46  73  99 142 189 229 285 361 410
#     4  12  24  44  72 102 134 184 242 284 352 402
#     4  10  25  46  71  99 146 181 238 282 360 409
#     4  12  26  44  75 101 145 184 240 289 352 418
#     4  12  28  44  72 108 142 186 240 290 342 428
#     4  10  24  46  69 100 141 183 234 291 346 417
#
# _framework density 21.060435999999999
#
# number of rings (size 3 to 8) (size 9 to 14) (size 15 to 20)
#    1.200    0.000    2.000    2.400   11.200    0.000 
#    3.600    0.000    0.000    0.000    0.000    0.000 
#    0.000    0.000    0.000    0.000    0.000    0.000 
#
# Total GULP energy -55713.821791 kJ/mol
# GULP energy per Si atom -5571.382179 kJ/mol
# Density = 2.101250 g / cm^3
# Si number density = 21.060436 Si / 1000 Ang^3
#
#
#
# Elastic Constant Matrix: (Units=GPa)
#
#
# Indices 1 2 3 4 5 6 
#
# 1 96.5740 27.8189 12.8299 -0.0044 -5.1836 -0.0050
# 2 27.8189 85.4202 45.0314 -0.0190 -23.3486 -0.0156
# 3 12.8299 45.0314 97.8570 -0.0295 -19.9344 -0.0108
# 4 -0.0044 -0.0190 -0.0295 19.8215 -0.0003 -7.2567
# 5 -5.1836 -23.3486 -19.9344 -0.0003 37.8264 0.0022
# 6 -0.0050 -0.0156 -0.0108 -7.2567 0.0022 23.2413
#
#
#
# Elastic Compliance Matrix: (Units=1/GPa)
#
#
# Indices 1 2 3 4 5 6 
#
# 1 0.011454 -0.004062 0.000198 -0.000001 -0.000834 0.000000
# 2 -0.004062 0.018463 -0.006448 0.000011 0.007442 0.000011
# 3 0.000198 -0.006448 0.013841 0.000017 0.003341 0.000007
# 4 -0.000001 0.000011 0.000017 0.056962 0.000015 0.017785
# 5 -0.000834 0.007442 0.003341 0.000015 0.032677 0.000008
# 6 0.000000 0.000011 0.000007 0.017785 0.000008 0.048580
#
#
# Mechanical properties :
#
#
# Convention : Reuss Voigt Hill
#
# Bulk Modulus (GPa) = 43.22756 50.13463 46.68110
# Shear Modulus (GPa) = 23.77428 29.12258 26.44843
#
# Velocity S-wave (km/s) = 3.36350 3.72265 3.54762
# Velocity P-wave (km/s) = 5.97111 6.50648 6.24454
#
# Compressibility (1/GPa) = 0.02313339
#
# Stress axis : x y z
#
# Youngs Moduli (GPa) = 87.30636 54.16242 72.25043
#
# Poissons Ratio (x) = 0.22003 -0.01430
# Poissons Ratio (y) = 0.35467 0.46584
# Poissons Ratio (z) = -0.01728 0.34922
#
# Static dielectric constant tensor:
#      x y z
#    x 1.754930 0.000000 0.069190 
#    y 0.000000 1.781750 0.000000 
#    z 0.069190 0.000000 1.790550 
# 
# From -- ./inp_files/26201.got.cif
#   From: 2010.05.17/outbox.cif.g08.bks.cpg/sg5_14_cif.got.tgz:26201.got - 2010.06.03 18:56:24.
