data_PCOD9128611
_publ_section_title
;
Structure prediction by ZEFSAII (Michael W. Deem and Ramdas Pophale) SiO2 
 PCOD9128611
Probable space group: C 2
;
_chemical_formula_sum "Si O2"
_cell_formula_units_Z 22
_cell_length_a 5.509295
_cell_length_b 13.512343
_cell_length_c 14.711538
_cell_angle_alpha 90.000000
_cell_angle_beta 55.966116
_cell_angle_gamma 90.000000
_cell_volume 907.581493
_symmetry_space_group_name_H-M "C 2"
_symmetry_group_IT_number 5
_symmetry_cell_setting 'monoclinic'
loop_
_space_group_symop_operation_xyz
x,y,z
-x,y,-z
1/2+x,1/2+y,z
1/2-x,1/2+y,-z
loop_
_atom_site_type_symbol
_atom_site_label
_atom_site_fract_x
_atom_site_fract_y
_atom_site_fract_z
Si Si1 0.856474 0.252990 0.933619
Si Si2 0.675639 0.974257 0.107854
Si Si3 0.188971 0.113774 0.214293
Si Si4 0.500000 0.132451 0.500000
Si Si5 0.344882 0.983069 0.670508
Si Si6 0.044528 0.253324 0.385377
O O1 0.943937 0.365913 0.892638
O O2 0.956011 0.178291 0.834671
O O3 0.500000 0.254166 0.000000
O O4 0.000000 0.228229 0.000000
O O5 0.658852 0.985972 0.220032
O O6 0.468159 0.059530 0.114813
O O7 0.000000 0.982311 0.000000
O O8 0.270053 0.189132 0.278698
O O9 0.971623 0.026705 0.292944
O O10 0.741908 0.207921 0.410674
O O11 0.563880 0.055636 0.569472
O O12 0.400163 0.869128 0.634822
O O13 0.000000 0.230001 0.500000
#
# Coordination Sequence:
#
# PCOD9128611 Si02
#       6
#     4   4   4   2   4   4
#     4  11  28  49  74 109 153 204 260 316 379 455
#     4  11  27  48  73 109 157 201 259 317 382 463
#     4  11  27  46  74 107 149 203 253 319 381 463
#     4  10  24  46  72 108 144 192 246 316 384 456
#     4  11  24  46  72 110 146 191 257 311 382 459
#     4  11  23  48  75 106 149 193 249 318 390 452
#
# _framework density 24.240245999999999
#
# number of rings (size 3 to 8) (size 9 to 14) (size 15 to 20)
#    0.000    1.091    2.727    1.091   10.182    1.455 
#    1.636    0.000    0.000    0.000    0.000    0.000 
#    0.000    0.000    0.000    0.000    0.000    0.000 
#
# Total GULP energy -61505.441873 kJ/mol
# GULP energy per Si atom -5591.403807 kJ/mol
# Density = 2.418507 g / cm^3
# Si number density = 24.240246 Si / 1000 Ang^3
#
#
#
# Elastic Constant Matrix: (Units=GPa)
#
#
# Indices 1 2 3 4 5 6 
#
# 1 59.8437 56.1183 42.2432 0.0000 13.5812 0.0000
# 2 56.1183 231.2655 73.4032 0.0000 -3.3005 0.0000
# 3 42.2432 73.4032 150.0684 0.0000 27.9159 0.0000
# 4 0.0000 0.0000 0.0000 53.1717 0.0000 -5.8351
# 5 13.5812 -3.3005 27.9159 0.0000 45.2169 0.0000
# 6 0.0000 0.0000 0.0000 -5.8351 0.0000 27.6029
#
#
#
# Elastic Compliance Matrix: (Units=1/GPa)
#
#
# Indices 1 2 3 4 5 6 
#
# 1 0.025311 -0.005095 -0.003558 0.000000 -0.005778 0.000000
# 2 -0.005095 0.006340 -0.002302 0.000000 0.003414 0.000000
# 3 -0.003558 -0.002302 0.009742 0.000000 -0.005114 0.000000
# 4 0.000000 0.000000 0.000000 0.019254 0.000000 0.004070
# 5 -0.005778 0.003414 -0.005114 0.000000 0.027258 0.000000
# 6 0.000000 0.000000 0.000000 0.004070 0.000000 0.037088
#
#
# Mechanical properties :
#
#
# Convention : Reuss Voigt Hill
#
# Bulk Modulus (GPa) = 51.32603 87.18965 69.25784
# Shear Modulus (GPa) = 32.59528 43.15915 37.87722
#
# Velocity S-wave (km/s) = 3.67096 4.22415 3.95723
# Velocity P-wave (km/s) = 6.26002 7.73552 7.03655
#
# Compressibility (1/GPa) = 0.01948329
#
# Stress axis : x y z
#
# Youngs Moduli (GPa) = 39.50891 157.73591 102.64418
#
# Poissons Ratio (x) = 0.80367 0.36520
# Poissons Ratio (y) = 0.20130 0.23627
# Poissons Ratio (z) = 0.14057 0.36308
#
# Static dielectric constant tensor:
#      x y z
#    x 2.053640 0.000000 -0.063620 
#    y 0.000000 1.876780 0.000000 
#    z -0.063620 0.000000 2.034730 
# 
# From -- ./inp_files/48876.got.cif
#   From: 2010.05.17/outbox.cif.g08.bks.cpg/sg5_25_cif.got.tgz:48876.got - 2010.06.03 18:56:24.
