data_PCOD9128193
_publ_section_title
;
Structure prediction by ZEFSAII (Michael W. Deem and Ramdas Pophale) SiO2 
 PCOD9128193
Probable space group: C 2
;
_chemical_formula_sum "Si O2"
_cell_formula_units_Z 20
_cell_length_a 9.616126
_cell_length_b 11.359568
_cell_length_c 11.332788
_cell_angle_alpha 90.000000
_cell_angle_beta 142.622298
_cell_angle_gamma 90.000000
_cell_volume 751.510556
_symmetry_space_group_name_H-M "C 2"
_symmetry_group_IT_number 5
_symmetry_cell_setting 'monoclinic'
loop_
_space_group_symop_operation_xyz
x,y,z
-x,y,-z
1/2+x,1/2+y,z
1/2-x,1/2+y,-z
loop_
_atom_site_type_symbol
_atom_site_label
_atom_site_fract_x
_atom_site_fract_y
_atom_site_fract_z
Si Si1 0.231783 0.600180 0.733272
Si Si2 0.729035 0.644516 0.730229
Si Si3 0.076435 0.879842 0.265010
Si Si4 0.082035 0.477868 0.309460
Si Si5 0.360398 0.752006 0.085069
O O1 0.373166 0.482997 0.794628
O O2 0.418777 0.698653 0.831604
O O3 0.000000 0.616545 0.500000
O O4 0.103046 0.574861 0.768935
O O5 0.500000 0.629194 0.500000
O O6 0.818474 0.764001 0.727286
O O7 0.855055 0.525689 0.775379
O O8 0.719397 0.662501 0.864267
O O9 0.199201 0.943201 0.460171
O O10 0.825055 0.825492 0.116641
O O11 0.954152 0.356374 0.228949
#
# Coordination Sequence:
#
# PCOD9128193 Si02
#       5
#     4   4   4   4   4
#     4  10  23  49  79 106 159 211 259 326 409 472
#     4  12  23  48  81 106 153 209 261 320 404 475
#     4  11  24  47  78 112 154 206 263 323 402 476
#     4  11  26  49  77 110 154 208 263 325 397 482
#     4  12  26  49  78 112 155 208 263 328 396 477
#
# _framework density 26.613066
#
# number of rings (size 3 to 8) (size 9 to 14) (size 15 to 20)
#    0.000    0.800    4.000    3.600    2.800    0.800 
#    7.200    0.000    0.000    0.000    0.000    0.000 
#    0.000    0.000    0.000    0.000    0.000    0.000 
#
# Total GULP energy -55777.314408 kJ/mol
# GULP energy per Si atom -5577.731441 kJ/mol
# Density = 2.655249 g / cm^3
# Si number density = 26.613066 Si / 1000 Ang^3
#
#
#
# Elastic Constant Matrix: (Units=GPa)
#
#
# Indices 1 2 3 4 5 6 
#
# 1 139.0068 59.0019 78.8180 0.0007 -1.5728 0.0003
# 2 59.0019 69.7411 49.1080 0.0008 12.5865 0.0007
# 3 78.8180 49.1080 152.1712 0.0020 20.0096 0.0015
# 4 0.0007 0.0008 0.0020 36.5858 0.0015 22.9869
# 5 -1.5728 12.5865 20.0096 0.0015 46.2487 0.0009
# 6 0.0003 0.0007 0.0015 22.9869 0.0009 47.8236
#
#
#
# Elastic Compliance Matrix: (Units=1/GPa)
#
#
# Indices 1 2 3 4 5 6 
#
# 1 0.013987 -0.009295 -0.004920 0.000000 0.005134 0.000000
# 2 -0.009295 0.025034 -0.002467 0.000000 -0.006062 0.000000
# 3 -0.004920 -0.002467 0.010444 0.000000 -0.004015 0.000000
# 4 0.000000 0.000000 0.000000 0.039159 -0.000001 -0.018822
# 5 0.005134 -0.006062 -0.004015 -0.000001 0.025183 0.000000
# 6 0.000000 0.000000 0.000000 -0.018822 0.000000 0.029957
#
#
# Mechanical properties :
#
#
# Convention : Reuss Voigt Hill
#
# Bulk Modulus (GPa) = 62.11235 81.64165 71.87700
# Shear Modulus (GPa) = 27.39772 37.73102 32.56437
#
# Velocity S-wave (km/s) = 3.21204 3.76940 3.50183
# Velocity P-wave (km/s) = 6.09475 7.04900 6.58917
#
# Compressibility (1/GPa) = 0.01609986
#
# Stress axis : x y z
#
# Youngs Moduli (GPa) = 71.49400 39.94560 95.74880
#
# Poissons Ratio (x) = 0.37131 0.47109
# Poissons Ratio (y) = 0.66457 0.23623
# Poissons Ratio (z) = 0.35175 0.09855
#
# Static dielectric constant tensor:
#      x y z
#    x 2.092540 0.000000 -0.005110 
#    y 0.000000 2.027030 0.000000 
#    z -0.005110 0.000000 2.132620 
# 
# From -- ./inp_files/52814.got.cif
#   From: 2010.05.17/outbox.cif.g08.bks.cpg/sg5_27_cif.got.tgz:52814.got - 2010.06.03 18:56:24.
