data_PCOD9128015
_publ_section_title
;
Structure prediction by ZEFSAII (Michael W. Deem and Ramdas Pophale) SiO2 
 PCOD9128015
Probable space group: C 2
;
_chemical_formula_sum "Si O2"
_cell_formula_units_Z 26
_cell_length_a 17.478756
_cell_length_b 5.465986
_cell_length_c 26.645334
_cell_angle_alpha 90.000000
_cell_angle_beta 154.798455
_cell_angle_gamma 90.000000
_cell_volume 1083.950935
_symmetry_space_group_name_H-M "C 2"
_symmetry_group_IT_number 5
_symmetry_cell_setting 'monoclinic'
loop_
_space_group_symop_operation_xyz
x,y,z
-x,y,-z
1/2+x,1/2+y,z
1/2-x,1/2+y,-z
loop_
_atom_site_type_symbol
_atom_site_label
_atom_site_fract_x
_atom_site_fract_y
_atom_site_fract_z
Si Si1 0.185780 0.844320 0.298119
Si Si2 0.000000 0.019613 0.500000
Si Si3 0.049905 0.204477 0.715906
Si Si4 0.208951 0.644727 0.947476
Si Si5 0.208814 0.699119 0.841025
Si Si6 0.174262 0.654535 0.525760
Si Si7 0.281915 0.017640 0.255640
O O1 0.356954 0.680944 0.385711
O O2 0.179018 0.030925 0.246955
O O3 0.000996 0.700472 0.188508
O O4 0.247228 0.958205 0.387539
O O5 0.881842 0.869506 0.469423
O O6 0.081134 0.457038 0.764667
O O7 0.179409 0.248167 0.745072
O O8 0.835700 0.191043 0.582319
O O9 0.115955 0.963120 0.783228
O O10 0.306472 0.674860 0.951763
O O11 0.233009 0.372449 0.983069
O O12 0.297609 0.663156 0.839030
O O13 0.987567 0.602001 0.387393
#
# Coordination Sequence:
#
# PCOD9128015 Si02
#       7
#     4   2   4   4   4   4   4
#     4  12  25  46  70 111 149 190 249 301 360 447
#     4  12  24  38  74 106 154 190 234 302 372 432
#     4  10  24  38  67  98 150 185 231 281 361 433
#     4  12  28  50  81 103 136 201 261 305 357 427
#     4  10  23  45  68 100 142 178 245 300 349 435
#     4  12  23  39  65 109 152 195 233 284 366 447
#     4  10  25  39  67 107 148 188 227 303 369 439
#
# _framework density 23.986325000000001
#
# number of rings (size 3 to 8) (size 9 to 14) (size 15 to 20)
#    0.923    0.000    4.615    1.846    6.462    0.000 
#    0.000    0.769    0.000    0.000    0.000    0.000 
#    0.000    0.000    0.000    0.000    0.000    0.000 
#
# Total GULP energy -72480.397193 kJ/mol
# GULP energy per Si atom -5575.415169 kJ/mol
# Density = 2.393173 g / cm^3
# Si number density = 23.986325 Si / 1000 Ang^3
#
#
#
# Elastic Constant Matrix: (Units=GPa)
#
#
# Indices 1 2 3 4 5 6 
#
# 1 54.3516 -7.8198 12.0483 -0.0128 -19.3795 -0.0109
# 2 -7.8198 86.9861 0.5347 0.0134 -4.6500 0.0103
# 3 12.0483 0.5347 54.2730 0.0042 0.5105 -0.0014
# 4 -0.0128 0.0134 0.0042 73.4287 -0.0041 15.3014
# 5 -19.3795 -4.6500 0.5105 -0.0041 47.3426 -0.0035
# 6 -0.0109 0.0103 -0.0014 15.3014 -0.0035 29.5705
#
#
#
# Elastic Compliance Matrix: (Units=1/GPa)
#
#
# Indices 1 2 3 4 5 6 
#
# 1 0.023514 0.002678 -0.005340 0.000003 0.009946 0.000007
# 2 0.002678 0.011863 -0.000733 -0.000001 0.002269 -0.000002
# 3 -0.005340 -0.000733 0.019641 -0.000002 -0.002470 0.000000
# 4 0.000003 -0.000001 -0.000002 0.015265 0.000002 -0.007899
# 5 0.009946 0.002269 -0.002470 0.000002 0.025444 0.000005
# 6 0.000007 -0.000002 0.000000 -0.007899 0.000005 0.037905
#
#
# Mechanical properties :
#
#
# Convention : Reuss Voigt Hill
#
# Bulk Modulus (GPa) = 20.73426 22.79300 21.76363
# Shear Modulus (GPa) = 31.94965 42.79152 37.37059
#
# Velocity S-wave (km/s) = 3.65361 4.22832 3.95143
# Velocity P-wave (km/s) = 5.14407 5.77593 5.46913
#
# Compressibility (1/GPa) = 0.04822935
#
# Stress axis : x y z
#
# Youngs Moduli (GPa) = 42.52757 84.29791 50.91324
#
# Poissons Ratio (x) = -0.22578 0.27187
# Poissons Ratio (y) = -0.11390 0.03731
# Poissons Ratio (z) = 0.22710 0.06177
#
# Static dielectric constant tensor:
#      x y z
#    x 1.874100 0.000000 0.113180 
#    y 0.000000 1.973810 0.000000 
#    z 0.113180 0.000000 1.759990 
# 
# From -- ./inp_files/72204.got.cif
#   From: 2010.05.17/outbox.cif.g08.bks.cpg/sg5_37_cif.got.tgz:72204.got - 2010.06.03 18:56:24.
