data_PCOD9128788
_publ_section_title
;
Structure prediction by ZEFSAII (Michael W. Deem and Ramdas Pophale) SiO2 
 PCOD9128788
Probable space group: C 2
;
_chemical_formula_sum "Si O2"
_cell_formula_units_Z 28
_cell_length_a 4.917637
_cell_length_b 9.105606
_cell_length_c 26.956416
_cell_angle_alpha 90.000000
_cell_angle_beta 69.801127
_cell_angle_gamma 90.000000
_cell_volume 1132.821970
_symmetry_space_group_name_H-M "C 2"
_symmetry_group_IT_number 5
_symmetry_cell_setting 'monoclinic'
loop_
_space_group_symop_operation_xyz
x,y,z
-x,y,-z
1/2+x,1/2+y,z
1/2-x,1/2+y,-z
loop_
_atom_site_type_symbol
_atom_site_label
_atom_site_fract_x
_atom_site_fract_y
_atom_site_fract_z
Si Si1 0.315499 0.619160 0.250217
Si Si2 0.184779 0.443153 0.597552
Si Si3 0.413305 0.119132 0.155897
Si Si4 0.220305 0.628009 0.941379
Si Si5 0.304656 0.842525 0.113426
Si Si6 0.238598 0.270420 0.441808
Si Si7 0.755066 0.949155 0.710993
O O1 0.589443 0.621494 0.196137
O O2 0.232684 0.781606 0.272500
O O3 0.033252 0.530580 0.249471
O O4 0.461295 0.533900 0.287904
O O5 0.483252 0.366452 0.561870
O O6 0.162754 0.605424 0.576281
O O7 0.919261 0.343575 0.595724
O O8 0.212246 0.454809 0.654909
O O9 0.622745 0.242675 0.163826
O O10 0.434322 0.185601 0.098546
O O11 0.485106 0.950480 0.140326
O O12 0.480115 0.740145 0.931476
O O13 0.322360 0.468962 0.914901
O O14 0.000000 0.615722 0.000000
O O15 0.000000 0.270514 0.500000
#
# Coordination Sequence:
#
# PCOD9128788 Si02
#       7
#     4   4   4   4   4   4   4
#     4  12  26  43  72  98 138 174 240 278 353 404
#     4  12  25  45  69  99 145 179 236 282 340 404
#     4  10  26  40  66  92 128 166 213 280 326 403
#     4  10  26  40  66  90 128 164 213 260 337 399
#     4  10  25  39  64  87 126 158 212 254 341 381
#     4  12  24  42  69 101 138 182 228 282 340 404
#     4  12  26  46  70 102 135 188 226 289 340 404
#
# _framework density 24.717032
#
# number of rings (size 3 to 8) (size 9 to 14) (size 15 to 20)
#    0.857    0.000    0.000    6.429    8.000    0.000 
#    0.000    0.000    0.000    0.000    0.000    0.000 
#    0.000    0.000    0.000    0.000    0.000    0.000 
#
# Total GULP energy -78302.110999 kJ/mol
# GULP energy per Si atom -5593.007928 kJ/mol
# Density = 2.466078 g / cm^3
# Si number density = 24.717032 Si / 1000 Ang^3
#
#
#
# Elastic Constant Matrix: (Units=GPa)
#
#
# Indices 1 2 3 4 5 6 
#
# 1 68.0358 11.7686 -25.8797 0.0000 -13.7734 0.0000
# 2 11.7686 171.3436 8.7481 0.0000 -18.7222 0.0000
# 3 -25.8797 8.7481 83.4479 0.0000 -5.9321 0.0000
# 4 0.0000 0.0000 0.0000 28.1519 0.0000 -9.9783
# 5 -13.7734 -18.7222 -5.9321 0.0000 34.6562 0.0000
# 6 0.0000 0.0000 0.0000 -9.9783 0.0000 -15.3124
#
#
#
# Elastic Compliance Matrix: (Units=1/GPa)
#
#
# Indices 1 2 3 4 5 6 
#
# 1 0.018994 -0.000735 0.006556 0.000000 0.008274 0.000000
# 2 -0.000735 0.006245 -0.000672 0.000000 0.002967 0.000000
# 3 0.006556 -0.000672 0.014422 0.000000 0.004711 0.000000
# 4 0.000000 0.000000 0.000000 0.028856 0.000000 -0.018804
# 5 0.008274 0.002967 0.004711 0.000000 0.034552 0.000000
# 6 0.000000 0.000000 0.000000 -0.018804 0.000000 -0.053053
#
#
# Mechanical properties :
#
#
# Convention : Reuss Voigt Hill
#
# Bulk Modulus (GPa) = 20.01648 34.67791 27.34720
# Shear Modulus (GPa) = 88.69577 31.37850 60.03713
#
# Velocity S-wave (km/s) = 5.99686 3.56688 4.93381
# Velocity P-wave (km/s) = 7.48770 5.56992 6.59885
#
# Compressibility (1/GPa) = 0.04995884
#
# Stress axis : x y z
#
# Youngs Moduli (GPa) = 52.64805 160.12355 69.33828
#
# Poissons Ratio (x) = 0.11773 -0.45457
# Poissons Ratio (y) = 0.03871 0.04658
# Poissons Ratio (z) = -0.34515 0.10758
#
# Static dielectric constant tensor:
#      x y z
#    x 2.163270 0.000000 0.069560 
#    y 0.000000 1.976890 0.000000 
#    z 0.069560 0.000000 2.019330 
# 
# From -- ./inp_files/71487.got.cif
#   From: 2010.05.17/outbox.cif.g08.bks.cpg/sg5_36_cif.got.tgz:71487.got - 2010.06.03 18:56:24.
