data_PCOD9128070
_publ_section_title
;
Structure prediction by ZEFSAII (Michael W. Deem and Ramdas Pophale) SiO2 
 PCOD9128070
Probable space group: C 2
;
_chemical_formula_sum "Si O2"
_cell_formula_units_Z 32
_cell_length_a 14.263726
_cell_length_b 17.482490
_cell_length_c 7.210516
_cell_angle_alpha 90.000000
_cell_angle_beta 142.437394
_cell_angle_gamma 90.000000
_cell_volume 1096.143693
_symmetry_space_group_name_H-M "C 2"
_symmetry_group_IT_number 5
_symmetry_cell_setting 'monoclinic'
loop_
_space_group_symop_operation_xyz
x,y,z
-x,y,-z
1/2+x,1/2+y,z
1/2-x,1/2+y,-z
loop_
_atom_site_type_symbol
_atom_site_label
_atom_site_fract_x
_atom_site_fract_y
_atom_site_fract_z
Si Si1 0.739952 0.353260 0.434252
Si Si2 0.682442 0.023543 0.545792
Si Si3 0.545518 0.832981 0.787189
Si Si4 0.774356 0.180008 0.930255
Si Si5 0.727361 0.977676 0.048051
Si Si6 0.434593 0.561856 0.664867
Si Si7 0.033178 0.890243 0.780125
Si Si8 0.991225 0.654776 0.199383
O O1 0.792080 0.441681 0.505210
O O2 0.620859 0.344858 0.411985
O O3 0.895726 0.307767 0.668458
O O4 0.649413 0.345879 0.099755
O O5 0.519671 0.062717 0.243475
O O6 0.817912 0.073565 0.654414
O O7 0.639527 0.173137 0.561732
O O8 0.500000 0.841823 0.500000
O O9 0.661989 0.764524 0.979565
O O10 0.603756 0.917459 0.930636
O O11 0.667722 0.173228 0.947967
O O12 0.931049 0.124910 0.165520
O O13 0.687605 0.010754 0.778841
O O14 0.863081 0.912302 0.230910
O O15 0.508224 0.477684 0.813723
O O16 0.318011 0.539720 0.313584
O O17 0.000000 0.681150 0.000000
#
# Coordination Sequence:
#
# PCOD9128070 Si02
#       8
#     4   4   4   4   4   4   4   4
#     4   9  19  39  72 116 153 204 264 341 409 491
#     4  10  23  45  82 120 162 205 275 351 430 495
#     4  12  25  49  80 115 169 233 288 348 427 526
#     4  11  29  53  82 122 168 231 290 347 437 535
#     4  11  24  46  79 123 167 217 276 353 428 501
#     4  11  25  46  81 126 168 214 280 354 429 514
#     4   9  18  37  69 112 153 201 262 337 415 483
#     4  11  28  54  85 119 170 219 280 364 437 522
#
# _framework density 29.193252000000001
#
# number of rings (size 3 to 8) (size 9 to 14) (size 15 to 20)
#    0.000    1.500    2.500    2.625    0.000   16.500 
#    4.500    5.625   13.750    0.000    0.000    0.000 
#    0.000    0.000    0.000    0.000    0.000    0.000 
#
# Total GULP energy -89468.519588 kJ/mol
# GULP energy per Si atom -5591.782474 kJ/mol
# Density = 2.912681 g / cm^3
# Si number density = 29.193252 Si / 1000 Ang^3
#
#
#
# Elastic Constant Matrix: (Units=GPa)
#
#
# Indices 1 2 3 4 5 6 
#
# 1 185.5653 46.7343 94.9240 0.0000 21.4759 0.0000
# 2 46.7343 155.6946 81.1347 0.0000 10.3995 0.0000
# 3 94.9240 81.1347 196.0288 0.0000 25.7814 0.0000
# 4 0.0000 0.0000 0.0000 40.4670 0.0000 12.0680
# 5 21.4759 10.3995 25.7814 0.0000 78.5731 0.0000
# 6 0.0000 0.0000 0.0000 12.0680 0.0000 27.9993
#
#
#
# Elastic Compliance Matrix: (Units=1/GPa)
#
#
# Indices 1 2 3 4 5 6 
#
# 1 0.007243 -0.000444 -0.003210 0.000000 -0.000868 0.000000
# 2 -0.000444 0.008216 -0.003197 0.000000 0.000083 0.000000
# 3 -0.003210 -0.003197 0.008160 0.000000 -0.001377 0.000000
# 4 0.000000 0.000000 0.000000 0.028356 0.000000 -0.012222
# 5 -0.000868 0.000083 -0.001377 0.000000 0.013405 0.000000
# 6 0.000000 0.000000 0.000000 -0.012222 0.000000 0.040983
#
#
# Mechanical properties :
#
#
# Convention : Reuss Voigt Hill
#
# Bulk Modulus (GPa) = 100.81488 109.20832 105.01160
# Shear Modulus (GPa) = 40.52869 50.37423 45.45146
#
# Velocity S-wave (km/s) = 3.73002 4.15847 3.95006
# Velocity P-wave (km/s) = 7.29104 7.78121 7.54011
#
# Compressibility (1/GPa) = 0.00991917
#
# Stress axis : x y z
#
# Youngs Moduli (GPa) = 138.06638 121.70884 122.55392
#
# Poissons Ratio (x) = 0.05399 0.39334
# Poissons Ratio (y) = 0.06124 0.39177
# Poissons Ratio (z) = 0.44313 0.38907
#
# Static dielectric constant tensor:
#      x y z
#    x 2.435760 0.000000 -0.071850 
#    y 0.000000 2.267630 0.000000 
#    z -0.071850 0.000000 2.590140 
# 
# From -- ./inp_files/45096.got.cif
#   From: 2010.05.17/outbox.cif.g08.bks.cpg/sg5_23_cif.got.tgz:45096.got - 2010.06.03 18:56:24.
