data_PCOD9128758
_publ_section_title
;
Structure prediction by ZEFSAII (Michael W. Deem and Ramdas Pophale) SiO2 
 PCOD9128758
Probable space group: C 2
;
_chemical_formula_sum "Si O2"
_cell_formula_units_Z 28
_cell_length_a 18.463839
_cell_length_b 5.168128
_cell_length_c 20.976745
_cell_angle_alpha 90.000000
_cell_angle_beta 143.593155
_cell_angle_gamma 90.000000
_cell_volume 1188.023672
_symmetry_space_group_name_H-M "C 2"
_symmetry_group_IT_number 5
_symmetry_cell_setting 'monoclinic'
loop_
_space_group_symop_operation_xyz
x,y,z
-x,y,-z
1/2+x,1/2+y,z
1/2-x,1/2+y,-z
loop_
_atom_site_type_symbol
_atom_site_label
_atom_site_fract_x
_atom_site_fract_y
_atom_site_fract_z
Si Si1 0.451290 0.068520 0.226073
Si Si2 0.746933 0.849776 0.829026
Si Si3 0.030439 0.967587 0.646069
Si Si4 0.764777 0.006693 0.708196
Si Si5 0.500000 0.070061 0.000000
Si Si6 0.329717 0.785039 0.553674
Si Si7 0.923630 0.488870 0.809347
Si Si8 0.000000 0.619141 0.500000
O O1 0.473284 0.312622 0.288868
O O2 0.468772 0.073043 0.162886
O O3 0.321961 0.958655 0.158101
O O4 0.564483 0.882621 0.324432
O O5 0.653625 0.633729 0.735675
O O6 0.881006 0.739732 0.932299
O O7 0.754278 0.055319 0.777077
O O8 0.017874 0.786373 0.576487
O O9 0.913774 0.155501 0.559655
O O10 0.838283 0.246182 0.730849
O O11 0.628391 0.975009 0.586226
O O12 0.839659 0.743604 0.753219
O O13 0.473025 0.924615 0.915036
O O14 0.245798 0.544112 0.516614
#
# Coordination Sequence:
#
# PCOD9128758 Si02
#       8
#     4   4   4   4   2   4   4   2
#     4  11  25  47  72 108 155 185 243 318 362 425
#     4  10  24  50  74 105 150 190 244 314 369 440
#     4  11  25  45  69 107 151 194 246 304 355 436
#     4  11  26  47  71 108 150 194 245 294 366 436
#     4  10  24  54  76 106 138 194 244 302 380 448
#     4  11  24  42  67 100 144 198 238 288 357 427
#     4  11  28  47  76 108 144 189 244 313 364 442
#     4  12  24  42  70 106 142 210 238 290 354 442
#
# _framework density 23.568556000000001
#
# number of rings (size 3 to 8) (size 9 to 14) (size 15 to 20)
#    0.000    1.143    2.857    1.714    6.000    5.714 
#    5.143    0.000    0.000    0.000    0.000    0.000 
#    0.000    0.000    0.000    0.000    0.000    0.000 
#
# Total GULP energy -78245.329288 kJ/mol
# GULP energy per Si atom -5588.952092 kJ/mol
# Density = 2.351491 g / cm^3
# Si number density = 23.568556 Si / 1000 Ang^3
#
#
#
# Elastic Constant Matrix: (Units=GPa)
#
#
# Indices 1 2 3 4 5 6 
#
# 1 152.3749 39.4582 48.4909 0.0002 6.5631 -0.0049
# 2 39.4582 94.0299 15.9691 -0.0008 4.2025 0.0028
# 3 48.4909 15.9691 73.2249 -0.0003 19.5462 -0.0025
# 4 0.0002 -0.0008 -0.0003 27.2282 -0.0003 -3.5432
# 5 6.5631 4.2025 19.5462 -0.0003 46.8757 -0.0003
# 6 -0.0049 0.0028 -0.0025 -3.5432 -0.0003 18.8740
#
#
#
# Elastic Compliance Matrix: (Units=1/GPa)
#
#
# Indices 1 2 3 4 5 6 
#
# 1 0.009084 -0.002897 -0.005754 0.000000 0.001387 0.000002
# 2 -0.002897 0.011968 -0.000578 0.000000 -0.000426 -0.000003
# 3 -0.005754 -0.000578 0.019539 0.000000 -0.007290 0.000001
# 4 0.000000 0.000000 0.000000 0.037646 0.000000 0.007067
# 5 0.001387 -0.000426 -0.007290 0.000000 0.024217 0.000000
# 6 0.000002 -0.000003 0.000001 0.007067 0.000000 0.054310
#
#
# Mechanical properties :
#
#
# Convention : Reuss Voigt Hill
#
# Bulk Modulus (GPa) = 45.18099 58.60734 51.89416
# Shear Modulus (GPa) = 27.38223 32.97633 30.17928
#
# Velocity S-wave (km/s) = 3.41223 3.74460 3.58227
# Velocity P-wave (km/s) = 5.89373 6.60430 6.25911
#
# Compressibility (1/GPa) = 0.02213320
#
# Stress axis : x y z
#
# Youngs Moduli (GPa) = 110.07853 83.55806 51.17921
#
# Poissons Ratio (x) = 0.24206 0.29451
# Poissons Ratio (y) = 0.31888 0.02957
# Poissons Ratio (z) = 0.63344 0.04828
#
# Static dielectric constant tensor:
#      x y z
#    x 1.969670 0.000000 -0.047130 
#    y 0.000000 1.932410 0.000000 
#    z -0.047130 0.000000 1.884330 
# 
# From -- ./inp_files/66476.got.cif
#   From: 2010.05.17/outbox.cif.g08.bks.cpg/sg5_34_cif.got.tgz:66476.got - 2010.06.03 18:56:24.
