data_PCOD9128289
_publ_section_title
;
Structure prediction by ZEFSAII (Michael W. Deem and Ramdas Pophale) SiO2 
 PCOD9128289
Probable space group: C 2
;
_chemical_formula_sum "Si O2"
_cell_formula_units_Z 26
_cell_length_a 5.370649
_cell_length_b 9.086055
_cell_length_c 23.496176
_cell_angle_alpha 90.000000
_cell_angle_beta 78.408766
_cell_angle_gamma 90.000000
_cell_volume 1123.183605
_symmetry_space_group_name_H-M "C 2"
_symmetry_group_IT_number 5
_symmetry_cell_setting 'monoclinic'
loop_
_space_group_symop_operation_xyz
x,y,z
-x,y,-z
1/2+x,1/2+y,z
1/2-x,1/2+y,-z
loop_
_atom_site_type_symbol
_atom_site_label
_atom_site_fract_x
_atom_site_fract_y
_atom_site_fract_z
Si Si1 0.668278 0.141190 0.819392
Si Si2 0.408068 0.372765 0.752865
Si Si3 0.500000 0.819427 0.000000
Si Si4 0.617105 0.104563 0.052498
Si Si5 0.574379 0.660383 0.722928
Si Si6 0.879513 0.177767 0.611904
Si Si7 0.417712 0.341145 0.569465
O O1 0.497648 0.266012 0.798644
O O2 0.575797 0.112482 0.886721
O O3 0.953649 0.192402 0.790926
O O4 0.689662 0.986986 0.784200
O O5 0.626723 0.486653 0.722943
O O6 0.303291 0.271194 0.707876
O O7 0.642428 0.709169 0.950395
O O8 0.339062 0.935863 0.968955
O O9 0.500000 0.169208 0.000000
O O10 0.377982 0.683555 0.681001
O O11 0.650549 0.261494 0.591555
O O12 0.153853 0.249622 0.584481
O O13 0.876592 0.006364 0.594694
O O14 0.500000 0.352310 0.500000
#
# Coordination Sequence:
#
# PCOD9128289 Si02
#       7
#     4   4   2   4   4   4   4
#     4  10  24  42  67  94 131 170 217 276 337 404
#     4  10  24  41  65  94 135 166 221 270 340 400
#     4  10  24  42  62  92 124 164 218 264 332 394
#     4  10  24  44  65  93 128 169 219 271 334 402
#     4  10  26  43  68 100 134 174 226 275 344 401
#     4  12  27  44  79 102 150 187 241 293 352 419
#     4  12  26  48  72 108 145 191 239 292 350 416
#
# _framework density 23.148485999999998
#
# number of rings (size 3 to 8) (size 9 to 14) (size 15 to 20)
#    1.385    0.000    0.000    4.154    7.538    2.462 
#    0.000    0.000    0.000    0.000    0.000    0.000 
#    0.000    0.000    0.000    0.000    0.000    0.000 
#
# Total GULP energy -72471.397702 kJ/mol
# GULP energy per Si atom -5574.722900 kJ/mol
# Density = 2.309580 g / cm^3
# Si number density = 23.148486 Si / 1000 Ang^3
#
#
#
# Elastic Constant Matrix: (Units=GPa)
#
#
# Indices 1 2 3 4 5 6 
#
# 1 91.9158 65.3428 14.3155 0.0000 -0.6411 0.0000
# 2 65.3428 197.8027 23.8214 0.0000 6.4405 0.0000
# 3 14.3155 23.8214 82.4517 0.0000 -16.7732 0.0000
# 4 0.0000 0.0000 0.0000 32.7193 0.0000 10.3601
# 5 -0.6411 6.4405 -16.7732 0.0000 35.6053 0.0000
# 6 0.0000 0.0000 0.0000 10.3601 0.0000 40.6914
#
#
#
# Elastic Compliance Matrix: (Units=1/GPa)
#
#
# Indices 1 2 3 4 5 6 
#
# 1 0.014337 -0.004632 -0.001026 0.000000 0.000613 0.000000
# 2 -0.004632 0.006845 -0.001595 0.000000 -0.002073 0.000000
# 3 -0.001026 -0.001595 0.014181 0.000000 0.006951 0.000000
# 4 0.000000 0.000000 0.000000 0.033243 0.000000 -0.008464
# 5 0.000613 -0.002073 0.006951 0.000000 0.031746 0.000000
# 6 0.000000 0.000000 0.000000 -0.008464 0.000000 0.026730
#
#
# Mechanical properties :
#
#
# Convention : Reuss Voigt Hill
#
# Bulk Modulus (GPa) = 47.94786 64.34773 56.14779
# Shear Modulus (GPa) = 33.66043 39.71589 36.68816
#
# Velocity S-wave (km/s) = 3.81742 4.14660 3.98541
# Velocity P-wave (km/s) = 6.33943 7.12628 6.74434
#
# Compressibility (1/GPa) = 0.02085599
#
# Stress axis : x y z
#
# Youngs Moduli (GPa) = 69.75047 146.08249 70.51515
#
# Poissons Ratio (x) = 0.67672 0.07236
# Poissons Ratio (y) = 0.32311 0.11248
# Poissons Ratio (z) = 0.07158 0.23303
#
# Static dielectric constant tensor:
#      x y z
#    x 1.845010 0.000000 -0.061200 
#    y 0.000000 1.884650 0.000000 
#    z -0.061200 0.000000 1.836380 
# 
# From -- ./inp_files/67750.got.cif
#   From: 2010.05.17/outbox.cif.g08.bks.cpg/sg5_34_cif.got.tgz:67750.got - 2010.06.03 18:56:24.
