data_PCOD9128856
_publ_section_title
;
Structure prediction by ZEFSAII (Michael W. Deem and Ramdas Pophale) SiO2 
 PCOD9128856
Probable space group: C 2
;
_chemical_formula_sum "Si O2"
_cell_formula_units_Z 28
_cell_length_a 11.578169
_cell_length_b 21.661023
_cell_length_c 10.896615
_cell_angle_alpha 90.000000
_cell_angle_beta 26.464425
_cell_angle_gamma 90.000000
_cell_volume 1217.857932
_symmetry_space_group_name_H-M "C 2"
_symmetry_group_IT_number 5
_symmetry_cell_setting 'monoclinic'
loop_
_space_group_symop_operation_xyz
x,y,z
-x,y,-z
1/2+x,1/2+y,z
1/2-x,1/2+y,-z
loop_
_atom_site_type_symbol
_atom_site_label
_atom_site_fract_x
_atom_site_fract_y
_atom_site_fract_z
Si Si1 0.500000 0.848620 0.500000
Si Si2 0.024927 0.033339 0.831985
Si Si3 0.388300 0.354472 0.739287
Si Si4 0.383469 0.989681 0.983430
Si Si5 0.859616 0.164645 0.269527
Si Si6 0.362214 0.225522 0.865567
Si Si7 0.290000 0.920567 0.504927
Si Si8 0.000000 0.764765 0.000000
O O1 0.520805 0.891828 0.360995
O O2 0.751678 0.807350 0.259455
O O3 0.199273 0.093446 0.636404
O O4 0.127219 0.963902 0.746420
O O5 0.000000 0.048857 0.000000
O O6 0.802132 0.026256 0.936917
O O7 0.260822 0.292752 0.913474
O O8 0.628619 0.366452 0.599918
O O9 0.243952 0.421078 0.870201
O O10 0.464525 0.228910 0.906761
O O11 0.633713 0.969590 0.669624
O O12 0.500000 0.016272 0.000000
O O13 0.597423 0.202247 0.552491
O O14 0.107016 0.184092 0.113556
O O15 0.000000 0.173723 0.000000
O O16 0.500000 0.341189 0.500000
#
# Coordination Sequence:
#
# PCOD9128856 Si02
#       8
#     2   4   4   4   4   4   4   2
#     4  12  24  42  70 106 142 182 228 280 354 432
#     4  10  25  45  69  98 134 181 236 292 345 411
#     4  11  22  39  64  98 135 176 222 282 348 411
#     4  11  23  40  67 102 142 177 228 285 355 422
#     4  11  26  49  73 101 134 183 244 294 338 409
#     4  12  26  46  72 103 139 186 234 288 352 415
#     4  11  23  39  67  98 135 180 219 280 347 417
#     4  12  26  46  68 102 150 178 226 288 350 438
#
# _framework density 22.991187
#
# number of rings (size 3 to 8) (size 9 to 14) (size 15 to 20)
#    0.000    0.857    2.857    3.857    7.000    0.571 
#    1.286    1.429    0.000    0.000    0.000    0.000 
#    0.000    0.000    0.000    0.000    0.000    0.000 
#
# Total GULP energy -77975.140109 kJ/mol
# GULP energy per Si atom -5569.652865 kJ/mol
# Density = 2.293886 g / cm^3
# Si number density = 22.991187 Si / 1000 Ang^3
#
#
#
# Elastic Constant Matrix: (Units=GPa)
#
#
# Indices 1 2 3 4 5 6 
#
# 1 113.6655 30.2640 12.4020 0.0186 -0.8073 0.0442
# 2 30.2640 66.0922 1.4828 0.0095 -1.9756 0.0295
# 3 12.4020 1.4828 66.5234 0.0064 -3.5308 -0.0342
# 4 0.0186 0.0095 0.0064 13.2038 -0.0129 30.9429
# 5 -0.8073 -1.9756 -3.5308 -0.0129 34.9521 -0.0549
# 6 0.0442 0.0295 -0.0342 30.9429 -0.0549 451.9135
#
#
#
# Elastic Compliance Matrix: (Units=1/GPa)
#
#
# Indices 1 2 3 4 5 6 
#
# 1 0.010233 -0.004651 -0.001815 -0.000010 -0.000210 0.000000
# 2 -0.004651 0.017276 0.000531 -0.000005 0.000923 0.000000
# 3 -0.001815 0.000531 0.015441 -0.000009 0.001548 0.000002
# 4 -0.000010 -0.000005 -0.000009 0.090211 0.000022 -0.006177
# 5 -0.000210 0.000923 0.001548 0.000022 0.028814 0.000002
# 6 0.000000 0.000000 0.000002 -0.006177 0.000002 0.002636
#
#
# Mechanical properties :
#
#
# Convention : Reuss Voigt Hill
#
# Bulk Modulus (GPa) = 32.17610 37.17542 34.67576
# Shear Modulus (GPa) = 26.76075 113.48936 70.12506
#
# Velocity S-wave (km/s) = 3.41538 7.03344 5.52875
# Velocity P-wave (km/s) = 5.43861 9.06441 7.47469
#
# Compressibility (1/GPa) = 0.03107897
#
# Stress axis : x y z
#
# Youngs Moduli (GPa) = 97.72583 57.88429 64.76246
#
# Poissons Ratio (x) = 0.26923 0.11755
# Poissons Ratio (y) = 0.45454 -0.03439
# Poissons Ratio (z) = 0.17739 -0.03074
#
# Static dielectric constant tensor:
#      x y z
#    x 1.391910 0.000040 -0.371200 
#    y 0.000040 1.842650 0.000040 
#    z -0.371200 0.000040 1.483180 
# 
# From -- ./inp_files/40666.got.cif
#   From: 2010.05.17/outbox.cif.g08.bks.cpg/sg5_21_cif.got.tgz:40666.got - 2010.06.03 18:56:24.
