data_PCOD9128430
_publ_section_title
;
Structure prediction by ZEFSAII (Michael W. Deem and Ramdas Pophale) SiO2 
 PCOD9128430
Probable space group: C 2
;
_chemical_formula_sum "Si O2"
_cell_formula_units_Z 30
_cell_length_a 23.730265
_cell_length_b 14.117366
_cell_length_c 8.778025
_cell_angle_alpha 90.000000
_cell_angle_beta 149.217132
_cell_angle_gamma 90.000000
_cell_volume 1505.017262
_symmetry_space_group_name_H-M "C 2"
_symmetry_group_IT_number 5
_symmetry_cell_setting 'monoclinic'
loop_
_space_group_symop_operation_xyz
x,y,z
-x,y,-z
1/2+x,1/2+y,z
1/2-x,1/2+y,-z
loop_
_atom_site_type_symbol
_atom_site_label
_atom_site_fract_x
_atom_site_fract_y
_atom_site_fract_z
Si Si1 0.255571 0.102040 0.534495
Si Si2 0.468786 0.054251 0.199694
Si Si3 0.000000 0.723226 0.500000
Si Si4 0.703455 0.975450 0.636771
Si Si5 0.100092 0.358098 0.836747
Si Si6 0.676404 0.374244 0.813245
Si Si7 0.113603 0.949298 0.354124
Si Si8 0.795109 0.319492 0.616201
O O1 0.233703 0.212548 0.490211
O O2 0.236672 0.055398 0.325544
O O3 0.178845 0.046565 0.475424
O O4 0.381667 0.074498 0.864411
O O5 0.482992 0.152474 0.320080
O O6 0.586631 0.014524 0.423295
O O7 0.413540 0.972048 0.175023
O O8 0.104077 0.790441 0.714247
O O9 0.681478 0.885356 0.474905
O O10 0.779761 0.942727 0.952805
O O11 0.000000 0.324008 0.500000
O O12 0.213132 0.336856 0.012616
O O13 0.110171 0.322282 0.033926
O O14 0.607692 0.425323 0.518909
O O15 0.190499 0.869366 0.454492
O O16 0.000000 0.951395 0.000000
#
# Coordination Sequence:
#
# PCOD9128430 Si02
#       8
#     4   4   2   4   4   4   4   4
#     4  11  24  43  67 102 132 179 232 277 342 408
#     4  12  22  42  71 101 130 173 237 287 337 398
#     4  12  28  38  72 108 132 178 238 282 348 398
#     4  11  23  41  70 100 139 171 222 295 346 398
#     4  11  21  46  69  95 140 181 221 286 350 396
#     4  11  24  43  66 101 138 178 221 288 350 406
#     4  10  24  45  63  90 140 184 216 278 347 406
#     4  10  24  44  66 100 136 178 230 278 345 412
#
# _framework density 19.933325
#
# number of rings (size 3 to 8) (size 9 to 14) (size 15 to 20)
#    0.000    1.067    6.000    1.200    9.333    0.000 
#    2.400    1.333    0.000    0.000    0.000    0.000 
#    0.000    0.000    0.000    0.000    0.000    0.000 
#
# Total GULP energy -83806.664532 kJ/mol
# GULP energy per Si atom -5587.110969 kJ/mol
# Density = 1.988796 g / cm^3
# Si number density = 19.933325 Si / 1000 Ang^3
#
#
#
# Elastic Constant Matrix: (Units=GPa)
#
#
# Indices 1 2 3 4 5 6 
#
# 1 91.7119 54.9644 38.6533 0.0000 -8.8821 0.0000
# 2 54.9644 147.4004 40.9585 0.0000 2.5388 0.0000
# 3 38.6533 40.9585 125.9345 0.0000 -17.4541 0.0000
# 4 0.0000 0.0000 0.0000 29.1315 0.0000 -1.3278
# 5 -8.8821 2.5388 -17.4541 0.0000 34.7729 0.0000
# 6 0.0000 0.0000 0.0000 -1.3278 0.0000 9.1304
#
#
#
# Elastic Compliance Matrix: (Units=1/GPa)
#
#
# Indices 1 2 3 4 5 6 
#
# 1 0.015322 -0.005025 -0.002660 0.000000 0.002945 0.000000
# 2 -0.005025 0.009224 -0.001858 0.000000 -0.002890 0.000000
# 3 -0.002660 -0.001858 0.009980 0.000000 0.004466 0.000000
# 4 0.000000 0.000000 0.000000 0.034556 0.000000 0.005025
# 5 0.002945 -0.002890 0.004466 0.000000 0.031963 0.000000
# 6 0.000000 0.000000 0.000000 0.005025 0.000000 0.110255
#
#
# Mechanical properties :
#
#
# Convention : Reuss Voigt Hill
#
# Bulk Modulus (GPa) = 64.76869 70.46658 67.61764
# Shear Modulus (GPa) = 21.22846 29.97167 25.60007
#
# Velocity S-wave (km/s) = 3.26693 3.88183 3.58758
# Velocity P-wave (km/s) = 6.84059 7.45113 7.15238
#
# Compressibility (1/GPa) = 0.01543956
#
# Stress axis : x y z
#
# Youngs Moduli (GPa) = 65.26737 108.41192 100.19574
#
# Poissons Ratio (x) = 0.54475 0.26654
# Poissons Ratio (y) = 0.32796 0.18619
# Poissons Ratio (z) = 0.17363 0.20145
#
# Static dielectric constant tensor:
#      x y z
#    x 1.733770 0.000000 -0.032940 
#    y 0.000000 1.667110 0.000000 
#    z -0.032940 0.000000 1.733900 
# 
# From -- ./inp_files/31026.got.cif
#   From: 2010.05.17/outbox.cif.g08.bks.cpg/sg5_16_cif.got.tgz:31026.got - 2010.06.03 18:56:24.
