data_PCOD9128217
_publ_section_title
;
Structure prediction by ZEFSAII (Michael W. Deem and Ramdas Pophale) SiO2 
 PCOD9128217
Probable space group: C 2
;
_chemical_formula_sum "Si O2"
_cell_formula_units_Z 24
_cell_length_a 7.786424
_cell_length_b 12.424023
_cell_length_c 10.550616
_cell_angle_alpha 90.000000
_cell_angle_beta 70.553394
_cell_angle_gamma 90.000000
_cell_volume 962.426939
_symmetry_space_group_name_H-M "C 2"
_symmetry_group_IT_number 5
_symmetry_cell_setting 'monoclinic'
loop_
_space_group_symop_operation_xyz
x,y,z
-x,y,-z
1/2+x,1/2+y,z
1/2-x,1/2+y,-z
loop_
_atom_site_type_symbol
_atom_site_label
_atom_site_fract_x
_atom_site_fract_y
_atom_site_fract_z
Si Si1 0.500000 0.118981 0.000000
Si Si2 0.000000 0.929427 0.500000
Si Si3 0.122458 0.415348 0.852913
Si Si4 0.615639 0.575838 0.675702
Si Si5 0.606012 0.892173 0.344533
Si Si6 0.311995 0.228913 0.426594
Si Si7 0.319792 0.212925 0.803536
O O1 0.377412 0.180135 0.929550
O O2 0.634062 0.039571 0.888956
O O3 0.848695 0.841762 0.493651
O O4 0.032373 0.010609 0.373388
O O5 0.296273 0.340496 0.806700
O O6 0.016123 0.404712 0.748238
O O7 0.000000 0.370594 0.000000
O O8 0.731924 0.477102 0.704599
O O9 0.718720 0.643534 0.540038
O O10 0.637636 0.659496 0.788010
O O11 0.500000 0.918228 0.500000
O O12 0.683225 0.771024 0.344774
O O13 0.504218 0.187108 0.327224
#
# Coordination Sequence:
#
# PCOD9128217 Si02
#       7
#     2   2   4   4   4   4   4
#     4  10  26  46  68  94 130 182 228 282 338 398
#     4  10  24  38  60 108 142 168 218 264 342 410
#     4  10  25  46  68  96 129 178 231 278 336 405
#     4  11  22  40  67 101 138 178 212 276 342 400
#     4  11  23  41  69  98 139 179 221 280 340 397
#     4  11  24  40  65 104 138 170 224 274 334 406
#     4  12  23  44  72  93 133 180 227 275 339 398
#
# _framework density 24.936955999999999
#
# number of rings (size 3 to 8) (size 9 to 14) (size 15 to 20)
#    0.500    0.667    3.333    2.000    8.167    0.000 
#    0.000    3.333    0.000    0.000    0.000    0.000 
#    0.000    0.000    0.000    0.000    0.000    0.000 
#
# Total GULP energy -67001.686167 kJ/mol
# GULP energy per Si atom -5583.473847 kJ/mol
# Density = 2.488020 g / cm^3
# Si number density = 24.936956 Si / 1000 Ang^3
#
#
#
# Elastic Constant Matrix: (Units=GPa)
#
#
# Indices 1 2 3 4 5 6 
#
# 1 42.1576 30.0459 44.5340 0.0000 37.2871 0.0000
# 2 30.0459 115.7645 43.8005 0.0000 32.9436 0.0000
# 3 44.5340 43.8005 138.6272 0.0000 50.8327 0.0000
# 4 0.0000 0.0000 0.0000 39.7938 0.0000 6.7876
# 5 37.2871 32.9436 50.8327 0.0000 53.6212 0.0000
# 6 0.0000 0.0000 0.0000 6.7876 0.0000 34.7740
#
#
#
# Elastic Compliance Matrix: (Units=1/GPa)
#
#
# Indices 1 2 3 4 5 6 
#
# 1 0.066981 -0.004186 -0.006222 0.000000 -0.038107 0.000000
# 2 -0.004186 0.010925 -0.001093 0.000000 -0.002765 0.000000
# 3 -0.006222 -0.001093 0.011841 0.000000 -0.006227 0.000000
# 4 0.000000 0.000000 0.000000 0.025995 0.000000 -0.005074
# 5 -0.038107 -0.002765 -0.006227 0.000000 0.052751 0.000000
# 6 0.000000 0.000000 0.000000 -0.005074 0.000000 0.029748
#
#
# Mechanical properties :
#
#
# Convention : Reuss Voigt Hill
#
# Bulk Modulus (GPa) = 14.98230 59.25666 37.11948
# Shear Modulus (GPa) = 20.53464 37.51572 29.02518
#
# Velocity S-wave (km/s) = 2.87272 3.88290 3.41536
# Velocity P-wave (km/s) = 4.12607 6.62697 5.52002
#
# Compressibility (1/GPa) = 0.06674543
#
# Stress axis : x y z
#
# Youngs Moduli (GPa) = 14.92959 91.53192 84.45090
#
# Poissons Ratio (x) = 0.38316 0.52542
# Poissons Ratio (y) = 0.06250 0.09233
# Poissons Ratio (z) = 0.09289 0.10007
#
# Static dielectric constant tensor:
#      x y z
#    x 2.055830 0.000000 0.007690 
#    y 0.000000 1.983780 0.000000 
#    z 0.007690 0.000000 2.010350 
# 
# From -- ./inp_files/35442.got.cif
#   From: 2010.05.17/outbox.cif.g08.bks.cpg/sg5_18_cif.got.tgz:35442.got - 2010.06.03 18:56:24.
