data_PCOD9128252
_publ_section_title
;
Structure prediction by ZEFSAII (Michael W. Deem and Ramdas Pophale) SiO2 
 PCOD9128252
Probable space group: C 2
;
_chemical_formula_sum "Si O2"
_cell_formula_units_Z 24
_cell_length_a 18.061320
_cell_length_b 16.243491
_cell_length_c 8.410352
_cell_angle_alpha 90.000000
_cell_angle_beta 149.108880
_cell_angle_gamma 90.000000
_cell_volume 1266.793664
_symmetry_space_group_name_H-M "C 2"
_symmetry_group_IT_number 5
_symmetry_cell_setting 'monoclinic'
loop_
_space_group_symop_operation_xyz
x,y,z
-x,y,-z
1/2+x,1/2+y,z
1/2-x,1/2+y,-z
loop_
_atom_site_type_symbol
_atom_site_label
_atom_site_fract_x
_atom_site_fract_y
_atom_site_fract_z
Si Si1 0.142004 0.394700 0.662695
Si Si2 0.597792 0.024864 0.316329
Si Si3 0.388333 0.121674 0.160326
Si Si4 0.664219 0.477527 0.752095
Si Si5 0.389647 0.708410 0.442879
Si Si6 0.876543 0.057184 0.649337
O O1 0.161059 0.459619 0.556980
O O2 0.106691 0.305890 0.522688
O O3 0.000000 0.419261 0.500000
O O4 0.270464 0.400433 0.030060
O O5 0.487581 0.084972 0.204007
O O6 0.730435 0.070788 0.478326
O O7 0.500000 0.983101 0.000000
O O8 0.500000 0.146451 0.500000
O O9 0.277197 0.191535 0.907167
O O10 0.276196 0.049918 0.007543
O O11 0.500000 0.491317 0.500000
O O12 0.658443 0.488159 0.549976
O O13 0.500000 0.692873 0.500000
O O14 0.420681 0.640745 0.636488
O O15 0.000000 0.032661 0.000000
#
# Coordination Sequence:
#
# PCOD9128252 Si02
#       6
#     4   4   4   4   4   4
#     4  11  21  41  63  91 123 166 210 261 303 366
#     4  12  20  36  66  89 121 159 209 253 304 376
#     4  11  20  37  63  90 114 165 210 252 296 374
#     4  11  20  37  62  87 123 156 214 254 293 371
#     4  10  24  40  61  91 128 162 210 255 312 362
#     4  11  23  37  61  94 122 162 201 259 315 372
#
# _framework density 18.94547
#
# number of rings (size 3 to 8) (size 9 to 14) (size 15 to 20)
#    0.000    1.000    6.667    3.000    2.333    1.333 
#    0.000    0.000   11.000    0.000    0.000    0.000 
#    0.000    0.000    0.000    0.000    0.000    0.000 
#
# Total GULP energy -66845.743192 kJ/mol
# GULP energy per Si atom -5570.478599 kJ/mol
# Density = 1.890235 g / cm^3
# Si number density = 18.945470 Si / 1000 Ang^3
#
#
#
# Elastic Constant Matrix: (Units=GPa)
#
#
# Indices 1 2 3 4 5 6 
#
# 1 111.8768 36.0737 28.7319 0.0000 14.5640 0.0000
# 2 36.0737 50.6677 0.9985 0.0000 -4.7819 0.0000
# 3 28.7319 0.9985 110.5499 0.0000 -8.7489 0.0000
# 4 0.0000 0.0000 0.0000 17.1248 0.0000 0.5250
# 5 14.5640 -4.7819 -8.7489 0.0000 52.6659 0.0000
# 6 0.0000 0.0000 0.0000 0.5250 0.0000 15.1664
#
#
#
# Elastic Compliance Matrix: (Units=1/GPa)
#
#
# Indices 1 2 3 4 5 6 
#
# 1 0.014045 -0.010439 -0.003991 0.000000 -0.005495 0.000000
# 2 -0.010439 0.027667 0.002929 0.000000 0.005885 0.000000
# 3 -0.003991 0.002929 0.010300 0.000000 0.003081 0.000000
# 4 0.000000 0.000000 0.000000 0.058457 0.000000 -0.002024
# 5 -0.005495 0.005885 0.003081 0.000000 0.021553 0.000000
# 6 0.000000 0.000000 0.000000 -0.002024 0.000000 0.066005
#
#
# Mechanical properties :
#
#
# Convention : Reuss Voigt Hill
#
# Bulk Modulus (GPa) = 34.47146 44.96695 39.71921
# Shear Modulus (GPa) = 21.67330 30.81077 26.24204
#
# Velocity S-wave (km/s) = 3.38595 4.03710 3.72578
# Velocity P-wave (km/s) = 5.78972 6.74666 6.28642
#
# Compressibility (1/GPa) = 0.02900951
#
# Stress axis : x y z
#
# Youngs Moduli (GPa) = 71.20162 36.14476 97.08526
#
# Poissons Ratio (x) = 0.37732 0.38744
# Poissons Ratio (y) = 0.74329 -0.28437
# Poissons Ratio (z) = 0.28415 -0.10587
#
# Static dielectric constant tensor:
#      x y z
#    x 1.685880 0.000000 -0.044580 
#    y 0.000000 1.675650 0.000000 
#    z -0.044580 0.000000 1.696220 
# 
# From -- ./inp_files/27900.got.cif
#   From: 2010.05.17/outbox.cif.g08.bks.cpg/sg5_14_cif.got.tgz:27900.got - 2010.06.03 18:56:24.
