data_PCOD9128224
_publ_section_title
;
Structure prediction by ZEFSAII (Michael W. Deem and Ramdas Pophale) SiO2 
 PCOD9128224
Probable space group: C 2
;
_chemical_formula_sum "Si O2"
_cell_formula_units_Z 32
_cell_length_a 26.828033
_cell_length_b 5.441579
_cell_length_c 11.082474
_cell_angle_alpha 90.000000
_cell_angle_beta 63.851157
_cell_angle_gamma 90.000000
_cell_volume 1452.307560
_symmetry_space_group_name_H-M "C 2"
_symmetry_group_IT_number 5
_symmetry_cell_setting 'monoclinic'
loop_
_space_group_symop_operation_xyz
x,y,z
-x,y,-z
1/2+x,1/2+y,z
1/2-x,1/2+y,-z
loop_
_atom_site_type_symbol
_atom_site_label
_atom_site_fract_x
_atom_site_fract_y
_atom_site_fract_z
Si Si1 0.805789 0.252400 0.104359
Si Si2 0.891557 0.508329 0.834581
Si Si3 0.010640 0.222945 0.188257
Si Si4 0.248820 0.630591 0.674461
Si Si5 0.904913 0.912423 0.022405
Si Si6 0.822352 0.774942 0.475477
Si Si7 0.441660 0.225290 0.238676
Si Si8 0.302022 0.024159 0.747326
O O1 0.794151 0.424405 0.231446
O O2 0.743646 0.182743 0.133022
O O3 0.842994 0.017801 0.101935
O O4 0.842390 0.379759 0.963704
O O5 0.943422 0.323808 0.765534
O O6 0.861772 0.560927 0.740788
O O7 0.907806 0.743043 0.899503
O O8 0.972525 0.462701 0.211516
O O9 0.976587 0.969409 0.241869
O O10 0.053009 0.143028 0.035716
O O11 0.214273 0.757204 0.605606
O O12 0.304864 0.532914 0.551435
O O13 0.272629 0.761386 0.768196
O O14 0.924654 0.766336 0.117563
O O15 0.885625 0.729051 0.375597
O O16 0.803985 0.597033 0.604075
#
# Coordination Sequence:
#
# PCOD9128224 Si02
#       8
#     4   4   4   4   4   4   4   4
#     4  10  24  38  70 106 142 187 227 289 356 441
#     4  11  25  45  68 103 145 188 232 291 362 429
#     4  11  27  45  72 103 144 185 238 300 346 422
#     4  11  23  45  66 108 139 184 234 298 352 427
#     4  11  25  43  73 106 146 180 236 298 364 428
#     4  11  25  42  74 100 141 182 241 290 354 425
#     4  12  27  44  77 108 138 189 240 297 364 405
#     4  11  25  43  71 100 144 187 233 291 357 434
#
# _framework density 22.033901
#
# number of rings (size 3 to 8) (size 9 to 14) (size 15 to 20)
#    0.000    1.000    2.500    2.625   14.000    3.000 
#    0.000    0.625    2.750    0.000    0.000    0.000 
#    0.000    0.000    0.000    0.000    0.000    0.000 
#
# Total GULP energy -89261.419747 kJ/mol
# GULP energy per Si atom -5578.838734 kJ/mol
# Density = 2.198375 g / cm^3
# Si number density = 22.033901 Si / 1000 Ang^3
#
#
#
# Elastic Constant Matrix: (Units=GPa)
#
#
# Indices 1 2 3 4 5 6 
#
# 1 111.4375 39.3458 17.7623 0.0000 -7.7207 0.0000
# 2 39.3458 101.8188 12.3250 0.0000 -3.7713 0.0000
# 3 17.7623 12.3250 41.0144 0.0000 -7.4395 0.0000
# 4 0.0000 0.0000 0.0000 23.4593 0.0000 -11.8100
# 5 -7.7207 -3.7713 -7.4395 0.0000 32.6226 0.0000
# 6 0.0000 0.0000 0.0000 -11.8100 0.0000 36.8120
#
#
#
# Elastic Compliance Matrix: (Units=1/GPa)
#
#
# Indices 1 2 3 4 5 6 
#
# 1 0.010934 -0.003768 -0.003351 0.000000 0.001388 0.000000
# 2 -0.003768 0.011499 -0.001819 0.000000 0.000023 0.000000
# 3 -0.003351 -0.001819 0.027328 0.000000 0.005229 0.000000
# 4 0.000000 0.000000 0.000000 0.050838 0.000000 0.016310
# 5 0.001388 0.000023 0.005229 0.000000 0.032177 0.000000
# 6 0.000000 0.000000 0.000000 0.016310 0.000000 0.032397
#
#
# Mechanical properties :
#
#
# Convention : Reuss Voigt Hill
#
# Bulk Modulus (GPa) = 31.36431 43.68189 37.52310
# Shear Modulus (GPa) = 25.81588 30.90128 28.35858
#
# Velocity S-wave (km/s) = 3.42664 3.74898 3.59143
# Velocity P-wave (km/s) = 5.47004 6.21351 5.85359
#
# Compressibility (1/GPa) = 0.03188337
#
# Stress axis : x y z
#
# Youngs Moduli (GPa) = 91.45384 86.96685 36.59227
#
# Poissons Ratio (x) = 0.32772 0.12263
# Poissons Ratio (y) = 0.34463 0.06657
# Poissons Ratio (z) = 0.30649 0.15822
#
# Static dielectric constant tensor:
#      x y z
#    x 1.836730 0.000000 0.018950 
#    y 0.000000 1.970320 0.000000 
#    z 0.018950 0.000000 1.784270 
# 
# From -- ./inp_files/47030.got.cif
#   From: 2010.05.17/outbox.cif.g08.bks.cpg/sg5_24_cif.got.tgz:47030.got - 2010.06.03 18:56:24.
