data_PCOD9128984
_publ_section_title
;
Structure prediction by ZEFSAII (Michael W. Deem and Ramdas Pophale) SiO2 
 PCOD9128984
Probable space group: C 2
;
_chemical_formula_sum "Si O2"
_cell_formula_units_Z 18
_cell_length_a 17.126845
_cell_length_b 8.502002
_cell_length_c 5.164244
_cell_angle_alpha 90.000000
_cell_angle_beta 75.632192
_cell_angle_gamma 90.000000
_cell_volume 728.458502
_symmetry_space_group_name_H-M "C 2"
_symmetry_group_IT_number 5
_symmetry_cell_setting 'monoclinic'
loop_
_space_group_symop_operation_xyz
x,y,z
-x,y,-z
1/2+x,1/2+y,z
1/2-x,1/2+y,-z
loop_
_atom_site_type_symbol
_atom_site_label
_atom_site_fract_x
_atom_site_fract_y
_atom_site_fract_z
Si Si1 0.671480 0.628190 0.605672
Si Si2 0.135963 0.303055 0.118724
Si Si3 0.972136 0.822631 0.776134
Si Si4 0.699058 0.319783 0.268245
Si Si5 0.000000 0.526838 0.000000
O O1 0.632136 0.656776 0.918685
O O2 0.674147 0.458568 0.480280
O O3 0.763602 0.681355 0.589536
O O4 0.635025 0.745058 0.415246
O O5 0.225409 0.369696 0.975563
O O6 0.067900 0.421409 0.076407
O O7 0.878945 0.780556 0.834772
O O8 0.000000 0.909281 0.500000
O O9 0.023488 0.659132 0.764501
O O10 0.000000 0.916298 0.000000
#
# Coordination Sequence:
#
# PCOD9128984 Si02
#       5
#     4   4   4   4   2
#     4  10  26  40  72  95 137 175 225 271 331 399
#     4  10  26  40  72  95 137 175 225 271 331 399
#     4  10  26  40  72  95 137 175 225 271 331 399
#     4  10  26  44  70 100 138 174 228 270 342 394
#     4  10  26  44  70 100 138 174 228 270 342 394
#
# _framework density 24.709712
#
# number of rings (size 3 to 8) (size 9 to 14) (size 15 to 20)
#    2.000    0.000    0.000    0.000   18.667    0.000 
#    6.000    0.000    0.000    0.000    0.000    0.000 
#    0.000    0.000    0.000    0.000    0.000    0.000 
#
# Total GULP energy -50208.497923 kJ/mol
# GULP energy per Si atom -5578.721991 kJ/mol
# Density = 2.465347 g / cm^3
# Si number density = 24.709712 Si / 1000 Ang^3
#
#
#
# Elastic Constant Matrix: (Units=GPa)
#
#
# Indices 1 2 3 4 5 6 
#
# 1 175.8410 30.4952 32.1786 0.0000 36.7024 0.0000
# 2 30.4952 57.0568 -14.6332 0.0000 12.7676 0.0000
# 3 32.1786 -14.6332 103.6374 0.0000 39.3459 0.0000
# 4 0.0000 0.0000 0.0000 4.0192 0.0000 -0.6743
# 5 36.7024 12.7676 39.3459 0.0000 38.3336 0.0000
# 6 0.0000 0.0000 0.0000 -0.6743 0.0000 34.2329
#
#
#
# Elastic Compliance Matrix: (Units=1/GPa)
#
#
# Indices 1 2 3 4 5 6 
#
# 1 0.007461 -0.002912 -0.000629 0.000000 -0.005528 0.000000
# 2 -0.002912 0.025742 0.011036 0.000000 -0.017113 0.000000
# 3 -0.000629 0.011036 0.020595 0.000000 -0.024212 0.000000
# 4 0.000000 0.000000 0.000000 0.249631 0.000000 0.004917
# 5 -0.005528 -0.017113 -0.024212 0.000000 0.061930 0.000000
# 6 0.000000 0.000000 0.000000 0.004917 0.000000 0.029309
#
#
# Mechanical properties :
#
#
# Convention : Reuss Voigt Hill
#
# Bulk Modulus (GPa) = 14.53753 48.06850 31.30301
# Shear Modulus (GPa) = 12.41906 34.55012 23.48459
#
# Velocity S-wave (km/s) = 2.24430 3.74336 3.08623
# Velocity P-wave (km/s) = 3.55133 6.17893 5.03940
#
# Compressibility (1/GPa) = 0.06878749
#
# Stress axis : x y z
#
# Youngs Moduli (GPa) = 134.03234 38.84629 48.55663
#
# Poissons Ratio (x) = 0.11312 0.03055
# Poissons Ratio (y) = 0.39030 -0.53586
# Poissons Ratio (z) = 0.08432 -0.42870
#
# Static dielectric constant tensor:
#      x y z
#    x 1.986780 0.000000 -0.005240 
#    y 0.000000 1.947960 0.000000 
#    z -0.005240 0.000000 2.104680 
# 
# From -- ./inp_files/7885.got.cif
#   From: 2010.05.17/outbox.cif.g08.bks.cpg/sg5_4_cif.got.tgz:7885.got - 2010.06.03 18:56:24.
