data_PCOD9128885
_publ_section_title
;
Structure prediction by ZEFSAII (Michael W. Deem and Ramdas Pophale) SiO2 
 PCOD9128885
Probable space group: C 2
;
_chemical_formula_sum "Si O2"
_cell_formula_units_Z 20
_cell_length_a 11.211263
_cell_length_b 9.240637
_cell_length_c 18.245739
_cell_angle_alpha 90.000000
_cell_angle_beta 153.400155
_cell_angle_gamma 90.000000
_cell_volume 846.369436
_symmetry_space_group_name_H-M "C 2"
_symmetry_group_IT_number 5
_symmetry_cell_setting 'monoclinic'
loop_
_space_group_symop_operation_xyz
x,y,z
-x,y,-z
1/2+x,1/2+y,z
1/2-x,1/2+y,-z
loop_
_atom_site_type_symbol
_atom_site_label
_atom_site_fract_x
_atom_site_fract_y
_atom_site_fract_z
Si Si1 0.338570 0.926460 0.604238
Si Si2 0.999933 0.001728 0.227138
Si Si3 0.000000 0.719157 0.500000
Si Si4 0.331113 0.425729 0.974273
Si Si5 0.000000 0.647875 0.000000
Si Si6 0.681614 0.739233 0.532681
O O1 0.076600 0.831811 0.477426
O O2 0.529648 0.925166 0.779564
O O3 0.470318 0.839419 0.609676
O O4 0.287775 0.091625 0.556121
O O5 0.244747 0.114261 0.354354
O O6 0.767502 0.056750 0.153346
O O7 0.105401 0.849214 0.315422
O O8 0.875009 0.987525 0.077865
O O9 0.500000 0.497749 0.000000
O O10 0.435415 0.260228 0.029767
O O11 0.500000 0.690533 0.500000
#
# Coordination Sequence:
#
# PCOD9128885 Si02
#       6
#     4   4   2   4   2   4
#     4  12  27  46  78 111 152 200 257 306 384 448
#     4  12  26  48  81 107 157 196 258 309 387 436
#     4  12  24  50  82 118 144 206 254 318 370 462
#     4  10  25  46  74 106 157 196 242 315 375 448
#     4  10  26  48  70 110 156 194 244 318 368 454
#     4  12  28  47  74 112 149 198 253 320 370 450
#
# _framework density 23.630343
#
# number of rings (size 3 to 8) (size 9 to 14) (size 15 to 20)
#    0.600    0.000    4.000    2.400    5.600    1.600 
#    1.800    0.000    0.000    0.000    0.000    0.000 
#    0.000    0.000    0.000    0.000    0.000    0.000 
#
# Total GULP energy -55910.377046 kJ/mol
# GULP energy per Si atom -5591.037705 kJ/mol
# Density = 2.357656 g / cm^3
# Si number density = 23.630343 Si / 1000 Ang^3
#
#
#
# Elastic Constant Matrix: (Units=GPa)
#
#
# Indices 1 2 3 4 5 6 
#
# 1 36.9299 38.4861 28.9659 0.0007 2.4310 0.0003
# 2 38.4861 165.9443 58.3405 0.0010 1.2441 0.0004
# 3 28.9659 58.3405 126.4725 0.0032 -3.9643 0.0012
# 4 0.0007 0.0010 0.0032 11.8423 0.0012 -2.0084
# 5 2.4310 1.2441 -3.9643 0.0012 49.6271 0.0002
# 6 0.0003 0.0004 0.0012 -2.0084 0.0002 25.7208
#
#
#
# Elastic Compliance Matrix: (Units=1/GPa)
#
#
# Indices 1 2 3 4 5 6 
#
# 1 0.039064 -0.007011 -0.005782 0.000000 -0.002200 0.000000
# 2 -0.007011 0.008461 -0.002299 0.000000 -0.000052 0.000000
# 3 -0.005782 -0.002299 0.010328 -0.000002 0.001166 -0.000001
# 4 0.000000 0.000000 -0.000002 0.085576 -0.000002 0.006682
# 5 -0.002200 -0.000052 0.001166 -0.000002 0.020352 0.000000
# 6 0.000000 0.000000 -0.000001 0.006682 0.000000 0.039401
#
#
# Mechanical properties :
#
#
# Convention : Reuss Voigt Hill
#
# Bulk Modulus (GPa) = 36.13993 64.54796 50.34395
# Shear Modulus (GPa) = 20.61104 31.00831 25.80967
#
# Velocity S-wave (km/s) = 2.95655 3.62639 3.30847
# Velocity P-wave (km/s) = 5.19442 6.70144 5.99547
#
# Compressibility (1/GPa) = 0.02767022
#
# Stress axis : x y z
#
# Youngs Moduli (GPa) = 25.59895 118.19482 96.82390
#
# Poissons Ratio (x) = 0.82862 0.55982
# Poissons Ratio (y) = 0.17946 0.22258
# Poissons Ratio (z) = 0.14801 0.27171
#
# Static dielectric constant tensor:
#      x y z
#    x 1.938370 0.000000 -0.002480 
#    y 0.000000 1.870250 0.000000 
#    z -0.002480 0.000000 1.911930 
# 
# From -- ./inp_files/60332.got.cif
#   From: 2010.05.17/outbox.cif.g08.bks.cpg/sg5_31_cif.got.tgz:60332.got - 2010.06.03 18:56:24.
