data_PCOD9128669
_publ_section_title
;
Structure prediction by ZEFSAII (Michael W. Deem and Ramdas Pophale) SiO2 
 PCOD9128669
Probable space group: C 2
;
_chemical_formula_sum "Si O2"
_cell_formula_units_Z 16
_cell_length_a 18.740256
_cell_length_b 5.256744
_cell_length_c 7.291668
_cell_angle_alpha 90.000000
_cell_angle_beta 122.808605
_cell_angle_gamma 90.000000
_cell_volume 603.739128
_symmetry_space_group_name_H-M "C 2"
_symmetry_group_IT_number 5
_symmetry_cell_setting 'monoclinic'
loop_
_space_group_symop_operation_xyz
x,y,z
-x,y,-z
1/2+x,1/2+y,z
1/2-x,1/2+y,-z
loop_
_atom_site_type_symbol
_atom_site_label
_atom_site_fract_x
_atom_site_fract_y
_atom_site_fract_z
Si Si1 0.153982 0.954490 0.682791
Si Si2 0.579534 0.425996 0.220224
Si Si3 0.964043 0.550308 0.266646
Si Si4 0.820308 0.194581 0.916933
O O1 0.109469 0.071095 0.443400
O O2 0.088140 0.783558 0.709231
O O3 0.232597 0.794416 0.714676
O O4 0.195295 0.133952 0.891236
O O5 0.540437 0.167135 0.251507
O O6 0.651626 0.455993 0.168387
O O7 0.500000 0.536233 0.000000
O O8 0.000000 0.412078 0.500000
O O9 0.897649 0.394816 0.050686
#
# Coordination Sequence:
#
# PCOD9128669 Si02
#       4
#     4   4   4   4
#     4  11  25  48  72 107 144 188 240 290 358 426
#     4  11  26  46  71 110 145 181 242 296 354 424
#     4  10  24  47  73 103 146 190 235 292 353 427
#     4  12  25  47  75 104 145 190 237 294 358 421
#
# _framework density 26.501511000000001
#
# number of rings (size 3 to 8) (size 9 to 14) (size 15 to 20)
#    0.000    1.000    5.000    0.000    3.500    5.000 
#    4.500    0.000    0.000    0.000    0.000    0.000 
#    0.000    0.000    0.000    0.000    0.000    0.000 
#
# Total GULP energy -44688.904958 kJ/mol
# GULP energy per Si atom -5586.113120 kJ/mol
# Density = 2.644119 g / cm^3
# Si number density = 26.501511 Si / 1000 Ang^3
#
#
#
# Elastic Constant Matrix: (Units=GPa)
#
#
# Indices 1 2 3 4 5 6 
#
# 1 129.2321 50.0423 47.3655 0.0000 -14.9488 0.0000
# 2 50.0423 45.7781 31.6046 0.0000 -1.9211 0.0000
# 3 47.3655 31.6046 177.4994 0.0000 -20.9953 0.0000
# 4 0.0000 0.0000 0.0000 0.9550 0.0000 -14.4663
# 5 -14.9488 -1.9211 -20.9953 0.0000 38.1933 0.0000
# 6 0.0000 0.0000 0.0000 -14.4663 0.0000 52.4271
#
#
#
# Elastic Compliance Matrix: (Units=1/GPa)
#
#
# Indices 1 2 3 4 5 6 
#
# 1 0.014299 -0.015022 -0.000608 0.000000 0.004507 0.000000
# 2 -0.015022 0.040746 -0.003957 0.000000 -0.006005 0.000000
# 3 -0.000608 -0.003957 0.006897 0.000000 0.003355 0.000000
# 4 0.000000 0.000000 0.000000 -0.329305 0.000000 -0.090866
# 5 0.004507 -0.006005 0.003355 0.000000 0.029489 0.000000
# 6 0.000000 0.000000 0.000000 -0.090866 0.000000 -0.005999
#
#
# Mechanical properties :
#
#
# Convention : Reuss Voigt Hill
#
# Bulk Modulus (GPa) = 43.92000 67.83717 55.87859
# Shear Modulus (GPa) = -25.36660 33.21491 3.92415
#
# Velocity S-wave (km/s) = -3.09718 3.54407 1.21817
# Velocity P-wave (km/s) = 1.95412 6.51155 4.80723
#
# Compressibility (1/GPa) = 0.02276867
#
# Stress axis : x y z
#
# Youngs Moduli (GPa) = 69.93381 24.54240 144.98416
#
# Poissons Ratio (x) = 0.36869 0.08812
# Poissons Ratio (y) = 1.05058 0.57364
# Poissons Ratio (z) = 0.04251 0.09710
#
# Static dielectric constant tensor:
#      x y z
#    x 2.069490 0.000000 0.015690 
#    y 0.000000 2.134520 0.000000 
#    z 0.015690 0.000000 2.045710 
# 
# From -- ./inp_files/8077.got.cif
#   From: 2010.05.17/outbox.cif.g08.bks.cpg/sg5_5_cif.got.tgz:8077.got - 2010.06.03 18:56:24.
