data_PCOD9128166
_publ_section_title
;
Structure prediction by ZEFSAII (Michael W. Deem and Ramdas Pophale) SiO2 
 PCOD9128166
Probable space group: C 2
;
_chemical_formula_sum "Si O2"
_cell_formula_units_Z 16
_cell_length_a 11.383008
_cell_length_b 9.287716
_cell_length_c 12.454896
_cell_angle_alpha 90.000000
_cell_angle_beta 144.483110
_cell_angle_gamma 90.000000
_cell_volume 764.961428
_symmetry_space_group_name_H-M "C 2"
_symmetry_group_IT_number 5
_symmetry_cell_setting 'monoclinic'
loop_
_space_group_symop_operation_xyz
x,y,z
-x,y,-z
1/2+x,1/2+y,z
1/2-x,1/2+y,-z
loop_
_atom_site_type_symbol
_atom_site_label
_atom_site_fract_x
_atom_site_fract_y
_atom_site_fract_z
Si Si1 0.202505 0.199780 0.207824
Si Si2 0.593950 0.149420 0.863400
Si Si3 0.316143 0.472400 0.431039
Si Si4 0.509668 0.469783 0.808236
O O1 0.357644 0.167077 0.227872
O O2 0.274615 0.317686 0.345864
O O3 0.131072 0.055120 0.213444
O O4 0.000000 0.260130 0.000000
O O5 0.572796 0.310795 0.892149
O O6 0.387729 0.063794 0.726285
O O7 0.786163 0.063864 0.053127
O O8 0.500000 0.540413 0.500000
O O9 0.391719 0.457442 0.608669
#
# Coordination Sequence:
#
# PCOD9128166 Si02
#       4
#     4   4   4   4
#     4  10  23  48  71  97 133 181 221 276 338 390
#     4  11  24  47  66 100 139 172 225 278 331 397
#     4  12  25  43  70 100 136 180 221 272 336 397
#     4  11  24  44  73  99 131 181 220 278 335 393
#
# _framework density 20.916087999999998
#
# number of rings (size 3 to 8) (size 9 to 14) (size 15 to 20)
#    0.000    1.000    2.500    4.500    0.000    0.000 
#   22.500    0.000    0.000    0.000    0.000    0.000 
#    0.000    0.000    0.000    0.000    0.000    0.000 
#
# Total GULP energy -44763.495880 kJ/mol
# GULP energy per Si atom -5595.436985 kJ/mol
# Density = 2.086848 g / cm^3
# Si number density = 20.916088 Si / 1000 Ang^3
#
#
#
# Elastic Constant Matrix: (Units=GPa)
#
#
# Indices 1 2 3 4 5 6 
#
# 1 124.6988 54.4787 25.1171 0.0000 24.0219 0.0000
# 2 54.4787 149.8290 51.5884 0.0000 13.4056 0.0000
# 3 25.1171 51.5884 99.0464 0.0000 -13.0350 0.0000
# 4 0.0000 0.0000 0.0000 39.3725 0.0000 -0.4716
# 5 24.0219 13.4056 -13.0350 0.0000 28.1121 0.0000
# 6 0.0000 0.0000 0.0000 -0.4716 0.0000 36.3675
#
#
#
# Elastic Compliance Matrix: (Units=1/GPa)
#
#
# Indices 1 2 3 4 5 6 
#
# 1 0.011610 -0.002213 -0.003151 0.000000 -0.010327 0.000000
# 2 -0.002213 0.009723 -0.005181 0.000000 -0.005148 0.000000
# 3 -0.003151 -0.005181 0.015201 0.000000 0.012211 0.000000
# 4 0.000000 0.000000 0.000000 0.025402 0.000000 0.000329
# 5 -0.010327 -0.005148 0.012211 0.000000 0.052513 0.000000
# 6 0.000000 0.000000 0.000000 0.000329 0.000000 0.027501
#
#
# Mechanical properties :
#
#
# Convention : Reuss Voigt Hill
#
# Bulk Modulus (GPa) = 64.74339 70.66029 67.70184
# Shear Modulus (GPa) = 29.72877 36.92975 33.32926
#
# Velocity S-wave (km/s) = 3.77415 4.20648 3.99617
# Velocity P-wave (km/s) = 7.07201 7.57949 7.33015
#
# Compressibility (1/GPa) = 0.01544559
#
# Stress axis : x y z
#
# Youngs Moduli (GPa) = 86.13330 102.84638 65.78647
#
# Poissons Ratio (x) = 0.22756 0.20727
# Poissons Ratio (y) = 0.19058 0.34082
# Poissons Ratio (z) = 0.27138 0.53282
#
# Static dielectric constant tensor:
#      x y z
#    x 1.748150 0.000000 -0.001050 
#    y 0.000000 1.733140 0.000000 
#    z -0.001050 0.000000 1.761620 
# 
# From -- ./inp_files/18080.got.cif
#   From: 2010.05.17/outbox.cif.g08.bks.cpg/sg5_10_cif.got.tgz:18080.got - 2010.06.03 18:56:24.
