data_PCOD9128034
_publ_section_title
;
Structure prediction by ZEFSAII (Michael W. Deem and Ramdas Pophale) SiO2 
 PCOD9128034
Probable space group: C 2
;
_chemical_formula_sum "Si O2"
_cell_formula_units_Z 18
_cell_length_a 11.417356
_cell_length_b 14.694296
_cell_length_c 5.551167
_cell_angle_alpha 90.000000
_cell_angle_beta 116.240234
_cell_angle_gamma 90.000000
_cell_volume 835.345123
_symmetry_space_group_name_H-M "C 2"
_symmetry_group_IT_number 5
_symmetry_cell_setting 'monoclinic'
loop_
_space_group_symop_operation_xyz
x,y,z
-x,y,-z
1/2+x,1/2+y,z
1/2-x,1/2+y,-z
loop_
_atom_site_type_symbol
_atom_site_label
_atom_site_fract_x
_atom_site_fract_y
_atom_site_fract_z
Si Si1 0.660997 0.941620 0.905786
Si Si2 0.753158 0.391443 0.510682
Si Si3 0.366071 0.200287 0.530006
Si Si4 0.151121 0.063211 0.170058
Si Si5 0.500000 0.080522 0.000000
O O1 0.661387 0.886134 0.657709
O O2 0.791355 0.003709 0.998292
O O3 0.670271 0.890797 0.167560
O O4 0.545757 0.014346 0.828502
O O5 0.659922 0.304955 0.435968
O O6 0.679677 0.488276 0.407077
O O7 0.500000 0.192982 0.500000
O O8 0.244104 0.150235 0.292544
O O9 0.388653 0.144638 0.796312
O O10 0.000000 0.084543 0.000000
#
# Coordination Sequence:
#
# PCOD9128034 Si02
#       5
#     4   4   4   4   2
#     4  10  23  45  70 103 141 188 230 293 355 421
#     4  10  25  42  69 105 141 183 241 289 353 418
#     4  12  25  43  74 110 138 187 244 299 344 429
#     4  10  24  46  68 103 146 188 227 293 361 421
#     4  12  22  46  76 100 148 182 248 288 362 412
#
# _framework density 21.547979999999999
#
# number of rings (size 3 to 8) (size 9 to 14) (size 15 to 20)
#    1.333    0.000    4.444    0.000    7.778    0.000 
#    2.000    0.000    4.889    0.000    0.000    0.000 
#    0.000    0.000    0.000    0.000    0.000    0.000 
#
# Total GULP energy -50149.647739 kJ/mol
# GULP energy per Si atom -5572.183082 kJ/mol
# Density = 2.149894 g / cm^3
# Si number density = 21.547980 Si / 1000 Ang^3
#
#
#
# Elastic Constant Matrix: (Units=GPa)
#
#
# Indices 1 2 3 4 5 6 
#
# 1 90.0376 46.4230 30.6091 0.0000 2.8189 0.0000
# 2 46.4230 96.1250 25.8043 0.0000 -1.8466 0.0000
# 3 30.6091 25.8043 104.8323 0.0000 -24.3935 0.0000
# 4 0.0000 0.0000 0.0000 21.6572 0.0000 12.4031
# 5 2.8189 -1.8466 -24.3935 0.0000 41.8908 0.0000
# 6 0.0000 0.0000 0.0000 12.4031 0.0000 37.3738
#
#
#
# Elastic Compliance Matrix: (Units=1/GPa)
#
#
# Indices 1 2 3 4 5 6 
#
# 1 0.016022 -0.006773 -0.003853 0.000000 -0.003621 0.000000
# 2 -0.006773 0.014062 -0.001427 0.000000 0.000245 0.000000
# 3 -0.003853 -0.001427 0.012795 0.000000 0.007647 0.000000
# 4 0.000000 0.000000 0.000000 0.057009 0.000000 -0.018919
# 5 -0.003621 0.000245 0.007647 0.000000 0.028579 0.000000
# 6 0.000000 0.000000 0.000000 -0.018919 0.000000 0.033035
#
#
# Mechanical properties :
#
#
# Convention : Reuss Voigt Hill
#
# Bulk Modulus (GPa) = 53.26999 55.18530 54.22765
# Shear Modulus (GPa) = 26.05997 32.72828 29.39412
#
# Velocity S-wave (km/s) = 3.48141 3.90148 3.69741
# Velocity P-wave (km/s) = 6.39808 6.77948 6.59154
#
# Compressibility (1/GPa) = 0.01877229
#
# Stress axis : x y z
#
# Youngs Moduli (GPa) = 62.41475 71.11510 78.15700
#
# Poissons Ratio (x) = 0.48165 0.30118
# Poissons Ratio (y) = 0.42272 0.11151
# Poissons Ratio (z) = 0.24051 0.10147
#
# Static dielectric constant tensor:
#      x y z
#    x 1.836040 0.000000 -0.027260 
#    y 0.000000 1.753810 0.000000 
#    z -0.027260 0.000000 1.822650 
# 
# From -- ./inp_files/4981.got.cif
#   From: 2010.05.17/outbox.cif.g08.bks.cpg/sg5_3_cif.got.tgz:4981.got - 2010.06.03 18:56:24.
