data_PCOD9128042
_publ_section_title
;
Structure prediction by ZEFSAII (Michael W. Deem and Ramdas Pophale) SiO2 
 PCOD9128042
Probable space group: C 2
;
_chemical_formula_sum "Si O2"
_cell_formula_units_Z 32
_cell_length_a 18.191912
_cell_length_b 15.157133
_cell_length_c 11.461390
_cell_angle_alpha 90.000000
_cell_angle_beta 150.082266
_cell_angle_gamma 90.000000
_cell_volume 1576.234621
_symmetry_space_group_name_H-M "C 2"
_symmetry_group_IT_number 5
_symmetry_cell_setting 'monoclinic'
loop_
_space_group_symop_operation_xyz
x,y,z
-x,y,-z
1/2+x,1/2+y,z
1/2-x,1/2+y,-z
loop_
_atom_site_type_symbol
_atom_site_label
_atom_site_fract_x
_atom_site_fract_y
_atom_site_fract_z
Si Si1 0.914141 0.725270 0.143037
Si Si2 0.619917 0.107883 0.575760
Si Si3 0.967975 0.053851 0.592816
Si Si4 0.132000 0.559270 0.088606
Si Si5 0.348370 0.708739 0.049895
Si Si6 0.511992 0.877848 0.876148
Si Si7 0.046341 0.916524 0.886487
Si Si8 0.256653 0.452661 0.631649
O O1 0.974374 0.813624 0.167967
O O2 0.033374 0.688313 0.397743
O O3 0.877272 0.645464 0.004463
O O4 0.765155 0.743827 0.009258
O O5 0.500000 0.065320 0.500000
O O6 0.677290 0.044462 0.552789
O O7 0.755360 0.145215 0.836179
O O8 0.791857 0.051457 0.367184
O O9 0.000000 0.045578 0.500000
O O10 0.030080 0.146684 0.723895
O O11 0.049563 0.975589 0.775035
O O12 0.000000 0.565367 0.000000
O O13 0.104791 0.467686 0.982553
O O14 0.414206 0.790704 0.071922
O O15 0.357195 0.893336 0.597349
O O16 0.500000 0.870279 0.000000
O O17 0.906511 0.955934 0.763854
O O18 0.189201 0.921503 0.165970
#
# Coordination Sequence:
#
# PCOD9128042 Si02
#       8
#     4   4   4   4   4   4   4   4
#     4  11  25  44  70 101 140 185 234 292 358 421
#     4  10  23  45  71  98 137 184 234 292 355 423
#     4  12  26  45  73 105 150 185 242 296 356 426
#     4  11  25  45  70 101 140 190 235 293 359 423
#     4  11  26  45  68 106 139 185 238 292 359 421
#     4  11  26  45  71 102 141 186 241 290 362 424
#     4  11  27  43  70 106 141 185 239 289 362 417
#     4  11  24  48  68 100 139 184 238 290 353 427
#
# _framework density 20.301545999999998
#
# number of rings (size 3 to 8) (size 9 to 14) (size 15 to 20)
#    0.000    1.000    3.750    1.500    8.750    2.500 
#    0.000    0.000    0.000    0.000    0.000    0.000 
#    0.000    0.000    0.000    0.000    0.000    0.000 
#
# Total GULP energy -89412.754653 kJ/mol
# GULP energy per Si atom -5588.297166 kJ/mol
# Density = 2.025534 g / cm^3
# Si number density = 20.301546 Si / 1000 Ang^3
#
#
#
# Elastic Constant Matrix: (Units=GPa)
#
#
# Indices 1 2 3 4 5 6 
#
# 1 83.1800 62.8151 49.2495 0.0000 -11.6071 0.0000
# 2 62.8151 112.5091 30.8846 0.0000 -7.4776 0.0000
# 3 49.2495 30.8846 142.3365 0.0000 -5.5172 0.0000
# 4 0.0000 0.0000 0.0000 11.8596 0.0000 1.1037
# 5 -11.6071 -7.4776 -5.5172 0.0000 32.3589 0.0000
# 6 0.0000 0.0000 0.0000 1.1037 0.0000 19.7659
#
#
#
# Elastic Compliance Matrix: (Units=1/GPa)
#
#
# Indices 1 2 3 4 5 6 
#
# 1 0.025586 -0.012290 -0.005980 0.000000 0.005318 0.000000
# 2 -0.012290 0.015465 0.000870 0.000000 -0.000686 0.000000
# 3 -0.005980 0.000870 0.008889 0.000000 -0.000428 0.000000
# 4 0.000000 0.000000 0.000000 0.084760 0.000000 -0.004733
# 5 0.005318 -0.000686 -0.000428 0.000000 0.032579 0.000000
# 6 0.000000 0.000000 0.000000 -0.004733 0.000000 0.050856
#
#
# Mechanical properties :
#
#
# Convention : Reuss Voigt Hill
#
# Bulk Modulus (GPa) = 66.04670 69.32489 67.68580
# Shear Modulus (GPa) = 19.38111 25.80197 22.59154
#
# Velocity S-wave (km/s) = 3.09311 3.56889 3.33948
# Velocity P-wave (km/s) = 6.73498 7.15572 6.94853
#
# Compressibility (1/GPa) = 0.01514080
#
# Stress axis : x y z
#
# Youngs Moduli (GPa) = 39.08412 64.66101 112.49397
#
# Poissons Ratio (x) = 0.79467 0.67272
# Poissons Ratio (y) = 0.48034 -0.09788
# Poissons Ratio (z) = 0.23373 -0.05626
#
# Static dielectric constant tensor:
#      x y z
#    x 1.735500 0.000000 -0.011250 
#    y 0.000000 1.681240 0.000000 
#    z -0.011250 0.000000 1.738990 
# 
# From -- ./inp_files/44993.got.cif
#   From: 2010.05.17/outbox.cif.g08.bks.cpg/sg5_23_cif.got.tgz:44993.got - 2010.06.03 18:56:24.
