data_PCOD9128009
_publ_section_title
;
Structure prediction by ZEFSAII (Michael W. Deem and Ramdas Pophale) SiO2 
 PCOD9128009
Probable space group: C 2
;
_chemical_formula_sum "Si O2"
_cell_formula_units_Z 20
_cell_length_a 27.559400
_cell_length_b 6.614391
_cell_length_c 11.051335
_cell_angle_alpha 90.000000
_cell_angle_beta 152.929146
_cell_angle_gamma 90.000000
_cell_volume 916.797816
_symmetry_space_group_name_H-M "C 2"
_symmetry_group_IT_number 5
_symmetry_cell_setting 'monoclinic'
loop_
_space_group_symop_operation_xyz
x,y,z
-x,y,-z
1/2+x,1/2+y,z
1/2-x,1/2+y,-z
loop_
_atom_site_type_symbol
_atom_site_label
_atom_site_fract_x
_atom_site_fract_y
_atom_site_fract_z
Si Si1 0.196580 0.373270 0.710662
Si Si2 0.098779 0.779177 0.483561
Si Si3 0.220504 0.035682 0.567691
Si Si4 0.413864 0.271089 0.906954
Si Si5 0.379877 0.568183 0.255492
O O1 0.105119 0.539849 0.499577
O O2 0.193935 0.239808 0.583631
O O3 0.177507 0.228994 0.783847
O O4 0.305007 0.499345 0.978554
O O5 0.107538 0.868479 0.635086
O O6 0.193836 0.866189 0.609634
O O7 0.987438 0.848992 0.178818
O O8 0.336993 0.090440 0.777215
O O9 0.151527 0.953318 0.301671
O O10 0.500000 0.197561 0.000000
O O11 0.500000 0.642251 0.500000
#
# Coordination Sequence:
#
# PCOD9128009 Si02
#       5
#     4   4   4   4   4
#     4  11  23  44  70 102 137 179 223 275 343 398
#     4  10  23  45  65 100 137 176 227 277 329 403
#     4  10  24  43  68  97 134 177 221 283 328 400
#     4  10  23  46  65  98 134 174 227 276 331 398
#     4  11  23  42  70 101 138 176 223 275 333 404
#
# _framework density 21.815061
#
# number of rings (size 3 to 8) (size 9 to 14) (size 15 to 20)
#    0.000    1.600    2.000    1.200    5.600    2.400 
#   14.400    0.000    0.000    0.000    0.000    0.000 
#    0.000    0.000    0.000    0.000    0.000    0.000 
#
# Total GULP energy -55775.130017 kJ/mol
# GULP energy per Si atom -5577.513002 kJ/mol
# Density = 2.176541 g / cm^3
# Si number density = 21.815061 Si / 1000 Ang^3
#
#
#
# Elastic Constant Matrix: (Units=GPa)
#
#
# Indices 1 2 3 4 5 6 
#
# 1 53.6046 15.1711 39.2982 0.0000 14.0661 0.0000
# 2 15.1711 71.0710 23.2661 0.0000 -1.7334 0.0000
# 3 39.2982 23.2661 110.7892 0.0000 2.9370 0.0000
# 4 0.0000 0.0000 0.0000 28.6651 0.0000 6.5902
# 5 14.0661 -1.7334 2.9370 0.0000 41.7968 0.0000
# 6 0.0000 0.0000 0.0000 6.5902 0.0000 15.5023
#
#
#
# Elastic Compliance Matrix: (Units=1/GPa)
#
#
# Indices 1 2 3 4 5 6 
#
# 1 0.028808 -0.003337 -0.009274 0.000000 -0.009182 0.000000
# 2 -0.003337 0.015526 -0.002128 0.000000 0.001917 0.000000
# 3 -0.009274 -0.002128 0.012706 0.000000 0.002140 0.000000
# 4 0.000000 0.000000 0.000000 0.038665 0.000000 -0.016437
# 5 -0.009182 0.001917 0.002140 0.000000 0.026944 0.000000
# 6 0.000000 0.000000 0.000000 -0.016437 0.000000 0.071494
#
#
# Mechanical properties :
#
#
# Convention : Reuss Voigt Hill
#
# Bulk Modulus (GPa) = 36.28229 43.43731 39.85980
# Shear Modulus (GPa) = 21.47689 27.70812 24.59251
#
# Velocity S-wave (km/s) = 3.14108 3.56776 3.36120
# Velocity P-wave (km/s) = 5.46104 6.07674 5.77710
#
# Compressibility (1/GPa) = 0.02756165
#
# Stress axis : x y z
#
# Youngs Moduli (GPa) = 34.71246 64.40783 78.70355
#
# Poissons Ratio (x) = 0.21495 0.72992
# Poissons Ratio (y) = 0.11585 0.16744
# Poissons Ratio (z) = 0.32193 0.13703
#
# Static dielectric constant tensor:
#      x y z
#    x 1.834310 0.000000 -0.005770 
#    y 0.000000 1.745270 0.000000 
#    z -0.005770 0.000000 1.833290 
# 
# From -- ./inp_files/41066.got.cif
#   From: 2010.05.17/outbox.cif.g08.bks.cpg/sg5_21_cif.got.tgz:41066.got - 2010.06.03 18:56:24.
