data_PCOD9128057
_publ_section_title
;
Structure prediction by ZEFSAII (Michael W. Deem and Ramdas Pophale) SiO2 
 PCOD9128057
Probable space group: C 2
;
_chemical_formula_sum "Si O2"
_cell_formula_units_Z 26
_cell_length_a 20.705009
_cell_length_b 10.885665
_cell_length_c 14.799724
_cell_angle_alpha 90.000000
_cell_angle_beta 19.373091
_cell_angle_gamma 90.000000
_cell_volume 1106.504507
_symmetry_space_group_name_H-M "C 2"
_symmetry_group_IT_number 5
_symmetry_cell_setting 'monoclinic'
loop_
_space_group_symop_operation_xyz
x,y,z
-x,y,-z
1/2+x,1/2+y,z
1/2-x,1/2+y,-z
loop_
_atom_site_type_symbol
_atom_site_label
_atom_site_fract_x
_atom_site_fract_y
_atom_site_fract_z
Si Si1 0.000000 0.462850 0.000000
Si Si2 0.670747 0.638884 0.206982
Si Si3 0.036181 0.284800 0.781939
Si Si4 0.311980 0.609526 0.185563
Si Si5 0.180457 0.902886 0.965172
Si Si6 0.014857 0.487109 0.290103
Si Si7 0.879761 0.077410 0.442546
O O1 0.948935 0.374834 0.151938
O O2 0.807712 0.547675 0.250186
O O3 0.500000 0.609201 0.500000
O O4 0.787573 0.759016 0.082147
O O5 0.552106 0.648389 0.269061
O O6 0.822968 0.531886 0.993861
O O7 0.076330 0.374093 0.643672
O O8 0.163954 0.164163 0.586245
O O9 0.833678 0.212299 0.078283
O O10 0.316914 0.476333 0.131615
O O11 0.122632 0.598831 0.497616
O O12 0.500000 0.625069 0.000000
O O13 0.366543 0.945662 0.778269
O O14 0.986185 0.951833 0.270773
#
# Coordination Sequence:
#
# PCOD9128057 Si02
#       7
#     2   4   4   4   4   4   4
#     4  12  26  46  70 106 154 194 244 302 378 434
#     4  11  22  44  71 106 140 185 251 305 364 431
#     4  11  25  46  69 103 150 187 251 294 364 444
#     4  11  25  47  72 105 145 194 244 299 372 439
#     4  10  23  45  74 102 146 189 247 303 367 438
#     4  11  24  45  73 101 144 196 242 309 365 430
#     4  10  25  47  68 109 142 193 245 306 366 440
#
# _framework density 23.497419000000001
#
# number of rings (size 3 to 8) (size 9 to 14) (size 15 to 20)
#    0.000    1.231    2.308    2.308    6.462    0.000 
#    4.154    3.077    0.000    0.000    0.000    0.000 
#    0.000    0.000    0.000    0.000    0.000    0.000 
#
# Total GULP energy -72502.052944 kJ/mol
# GULP energy per Si atom -5577.080996 kJ/mol
# Density = 2.344394 g / cm^3
# Si number density = 23.497419 Si / 1000 Ang^3
#
#
#
# Elastic Constant Matrix: (Units=GPa)
#
#
# Indices 1 2 3 4 5 6 
#
# 1 63.1729 -7.0098 1.5512 -0.0003 9.7241 0.0001
# 2 -7.0098 47.7335 2.2883 0.0000 -3.9845 0.0001
# 3 1.5512 2.2883 97.2482 -0.0001 13.9834 0.0002
# 4 -0.0003 0.0000 -0.0001 15.2735 0.0002 10.4785
# 5 9.7241 -3.9845 13.9834 0.0002 28.5921 -0.0001
# 6 0.0001 0.0001 0.0002 10.4785 -0.0001 45.8345
#
#
#
# Elastic Compliance Matrix: (Units=1/GPa)
#
#
# Indices 1 2 3 4 5 6 
#
# 1 0.016918 0.001982 0.000507 0.000001 -0.005726 0.000000
# 2 0.001982 0.021518 -0.000938 0.000000 0.002783 0.000000
# 3 0.000507 -0.000938 0.011123 0.000000 -0.005743 0.000000
# 4 0.000001 0.000000 0.000000 0.077652 -0.000001 -0.017752
# 5 -0.005726 0.002783 -0.005743 -0.000001 0.040118 0.000000
# 6 0.000000 0.000000 0.000000 -0.017752 0.000000 0.025876
#
#
# Mechanical properties :
#
#
# Convention : Reuss Voigt Hill
#
# Bulk Modulus (GPa) = 18.98940 22.42378 20.70659
# Shear Modulus (GPa) = 24.07811 32.02834 28.05322
#
# Velocity S-wave (km/s) = 3.20459 3.69597 3.45901
# Velocity P-wave (km/s) = 4.66814 5.27042 4.97840
#
# Compressibility (1/GPa) = 0.05266095
#
# Stress axis : x y z
#
# Youngs Moduli (GPa) = 59.10720 46.47261 89.90602
#
# Poissons Ratio (x) = -0.09212 -0.04556
# Poissons Ratio (y) = -0.11717 0.08435
# Poissons Ratio (z) = -0.02995 0.04360
#
# Static dielectric constant tensor:
#      x y z
#    x 2.048630 0.000000 0.027790 
#    y 0.000000 1.907390 0.000000 
#    z 0.027790 0.000000 1.891760 
# 
# From -- ./inp_files/57042.got.cif
#   From: 2010.05.17/outbox.cif.g08.bks.cpg/sg5_29_cif.got.tgz:57042.got - 2010.06.03 18:56:24.
