data_PCOD9128031
_publ_section_title
;
Structure prediction by ZEFSAII (Michael W. Deem and Ramdas Pophale) SiO2 
 PCOD9128031
Probable space group: C 2
;
_chemical_formula_sum "Si O2"
_cell_formula_units_Z 22
_cell_length_a 10.851733
_cell_length_b 11.423841
_cell_length_c 10.780047
_cell_angle_alpha 90.000000
_cell_angle_beta 44.493287
_cell_angle_gamma 90.000000
_cell_volume 936.573615
_symmetry_space_group_name_H-M "C 2"
_symmetry_group_IT_number 5
_symmetry_cell_setting 'monoclinic'
loop_
_space_group_symop_operation_xyz
x,y,z
-x,y,-z
1/2+x,1/2+y,z
1/2-x,1/2+y,-z
loop_
_atom_site_type_symbol
_atom_site_label
_atom_site_fract_x
_atom_site_fract_y
_atom_site_fract_z
Si Si1 0.684476 0.542270 0.294603
Si Si2 0.000000 0.388467 0.000000
Si Si3 0.262294 0.701057 0.092799
Si Si4 0.100581 0.746526 0.746762
Si Si5 0.509355 0.506893 0.158905
Si Si6 0.824306 0.666440 0.579714
O O1 0.500000 0.521639 0.500000
O O2 0.863021 0.466185 0.177232
O O3 0.759449 0.671529 0.275754
O O4 0.627847 0.510808 0.196580
O O5 0.904061 0.302259 0.968896
O O6 0.202127 0.738073 0.274533
O O7 0.097712 0.694140 0.120095
O O8 0.360462 0.576708 0.027148
O O9 0.157951 0.737361 0.560280
O O10 0.062914 0.878256 0.816343
O O11 0.340843 0.583769 0.314864
O O12 0.000000 0.598245 0.500000
#
# Coordination Sequence:
#
# PCOD9128031 Si02
#       6
#     4   2   4   4   4   4
#     4  12  27  48  76 113 154 201 267 324 398 467
#     4  12  24  46  76 108 150 206 258 322 386 478
#     4  11  24  46  72 105 146 204 257 316 398 466
#     4  11  26  46  76 107 150 199 259 327 386 476
#     4  12  24  46  71 111 152 197 253 326 395 467
#     4  10  23  45  70 101 142 197 260 309 394 467
#
# _framework density 23.489878000000001
#
# number of rings (size 3 to 8) (size 9 to 14) (size 15 to 20)
#    0.000    0.727    5.455    1.091    2.545    0.727 
#    9.818    0.000    0.000    0.000    0.000    0.000 
#    0.000    0.000    0.000    0.000    0.000    0.000 
#
# Total GULP energy -61311.842802 kJ/mol
# GULP energy per Si atom -5573.803891 kJ/mol
# Density = 2.343641 g / cm^3
# Si number density = 23.489878 Si / 1000 Ang^3
#
#
#
# Elastic Constant Matrix: (Units=GPa)
#
#
# Indices 1 2 3 4 5 6 
#
# 1 51.9496 7.6662 14.6389 0.0000 -16.8548 0.0000
# 2 7.6662 123.7943 52.4190 0.0000 -14.9559 0.0000
# 3 14.6389 52.4190 114.4530 0.0000 -11.1650 0.0000
# 4 0.0000 0.0000 0.0000 23.5620 0.0000 -4.3582
# 5 -16.8548 -14.9559 -11.1650 0.0000 51.4103 0.0000
# 6 0.0000 0.0000 0.0000 -4.3582 0.0000 22.9865
#
#
#
# Elastic Compliance Matrix: (Units=1/GPa)
#
#
# Indices 1 2 3 4 5 6 
#
# 1 0.022073 0.000464 -0.002367 0.000000 0.006857 0.000000
# 2 0.000464 0.010228 -0.004535 0.000000 0.002143 0.000000
# 3 -0.002367 -0.004535 0.011149 0.000000 0.000326 0.000000
# 4 0.000000 0.000000 0.000000 0.043984 0.000000 0.008339
# 5 0.006857 0.002143 0.000326 0.000000 0.022394 0.000000
# 6 0.000000 0.000000 0.000000 0.008339 0.000000 0.045085
#
#
# Mechanical properties :
#
#
# Convention : Reuss Voigt Hill
#
# Bulk Modulus (GPa) = 32.70726 48.84945 40.77835
# Shear Modulus (GPa) = 28.09325 33.95661 31.02493
#
# Velocity S-wave (km/s) = 3.46204 3.80621 3.63819
# Velocity P-wave (km/s) = 5.47130 6.33699 5.91999
#
# Compressibility (1/GPa) = 0.03057426
#
# Stress axis : x y z
#
# Youngs Moduli (GPa) = 45.30472 97.76826 89.69710
#
# Poissons Ratio (x) = -0.04533 0.21228
# Poissons Ratio (y) = -0.02101 0.40676
# Poissons Ratio (z) = 0.10722 0.44336
#
# Static dielectric constant tensor:
#      x y z
#    x 1.986950 0.000000 -0.000400 
#    y 0.000000 1.914530 0.000000 
#    z -0.000400 0.000000 2.032340 
# 
# From -- ./inp_files/19268.got.cif
#   From: 2010.05.17/outbox.cif.g08.bks.cpg/sg5_10_cif.got.tgz:19268.got - 2010.06.03 18:56:24.
