data_PCOD9128025
_publ_section_title
;
Structure prediction by ZEFSAII (Michael W. Deem and Ramdas Pophale) SiO2 
 PCOD9128025
Probable space group: C 2
;
_chemical_formula_sum "Si O2"
_cell_formula_units_Z 18
_cell_length_a 10.166447
_cell_length_b 10.764333
_cell_length_c 12.476428
_cell_angle_alpha 90.000000
_cell_angle_beta 146.095228
_cell_angle_gamma 90.000000
_cell_volume 761.616219
_symmetry_space_group_name_H-M "C 2"
_symmetry_group_IT_number 5
_symmetry_cell_setting 'monoclinic'
loop_
_space_group_symop_operation_xyz
x,y,z
-x,y,-z
1/2+x,1/2+y,z
1/2-x,1/2+y,-z
loop_
_atom_site_type_symbol
_atom_site_label
_atom_site_fract_x
_atom_site_fract_y
_atom_site_fract_z
Si Si1 0.741419 0.612210 0.822526
Si Si2 0.622006 0.741642 0.299496
Si Si3 0.766667 0.485555 0.282748
Si Si4 0.232814 0.927305 0.013305
Si Si5 0.000000 0.929433 0.500000
O O1 0.508441 0.695564 0.681047
O O2 0.755817 0.531463 0.940095
O O3 0.678503 0.516762 0.685904
O O4 0.000000 0.673656 0.000000
O O5 0.706389 0.624903 0.285243
O O6 0.404988 0.815768 0.098821
O O7 0.836619 0.837219 0.459707
O O8 0.545268 0.401768 0.167077
O O9 0.000000 0.445321 0.500000
O O10 0.796576 0.478256 0.175096
#
# Coordination Sequence:
#
# PCOD9128025 Si02
#       5
#     4   4   4   4   2
#     4  11  26  47  67 104 140 174 235 280 331 419
#     4  11  25  46  73  99 137 184 222 283 348 390
#     4  10  23  45  69 103 135 176 234 275 331 417
#     4  10  24  44  70  99 140 177 223 284 340 394
#     4  12  26  48  66 104 138 184 226 280 338 402
#
# _framework density 23.633951
#
# number of rings (size 3 to 8) (size 9 to 14) (size 15 to 20)
#    0.000    1.333    3.333    0.000    9.333    7.111 
#    6.000    0.000    0.000    0.000    0.000    0.000 
#    0.000    0.000    0.000    0.000    0.000    0.000 
#
# Total GULP energy -50280.841201 kJ/mol
# GULP energy per Si atom -5586.760133 kJ/mol
# Density = 2.358016 g / cm^3
# Si number density = 23.633951 Si / 1000 Ang^3
#
#
#
# Elastic Constant Matrix: (Units=GPa)
#
#
# Indices 1 2 3 4 5 6 
#
# 1 67.0009 20.4755 35.9308 0.0003 9.4728 0.0000
# 2 20.4755 86.7168 22.8810 0.0005 15.2484 0.0002
# 3 35.9308 22.8810 141.1356 0.0008 18.4784 0.0006
# 4 0.0003 0.0005 0.0008 20.7746 0.0003 9.9632
# 5 9.4728 15.2484 18.4784 0.0003 29.0639 0.0001
# 6 0.0000 0.0002 0.0006 9.9632 0.0001 40.1602
#
#
#
# Elastic Compliance Matrix: (Units=1/GPa)
#
#
# Indices 1 2 3 4 5 6 
#
# 1 0.018184 -0.002928 -0.003905 0.000000 -0.001908 0.000000
# 2 -0.002928 0.013396 -0.000688 0.000000 -0.005636 0.000000
# 3 -0.003905 -0.000688 0.008702 0.000000 -0.003898 0.000000
# 4 0.000000 0.000000 0.000000 0.054636 0.000000 -0.013555
# 5 -0.001908 -0.005636 -0.003898 0.000000 0.040464 0.000000
# 6 0.000000 0.000000 0.000000 -0.013555 0.000000 0.028263
#
#
# Mechanical properties :
#
#
# Convention : Reuss Voigt Hill
#
# Bulk Modulus (GPa) = 39.62118 50.38088 45.00103
# Shear Modulus (GPa) = 26.72373 32.37081 29.54727
#
# Velocity S-wave (km/s) = 3.36629 3.70493 3.53966
# Velocity P-wave (km/s) = 5.64890 6.29805 5.98229
#
# Compressibility (1/GPa) = 0.02523902
#
# Stress axis : x y z
#
# Youngs Moduli (GPa) = 54.99436 74.65020 114.92268
#
# Poissons Ratio (x) = 0.21855 0.44875
# Poissons Ratio (y) = 0.16101 0.07912
# Poissons Ratio (z) = 0.21474 0.05139
#
# Static dielectric constant tensor:
#      x y z
#    x 1.932410 0.000000 0.066430 
#    y 0.000000 1.981940 0.000000 
#    z 0.066430 0.000000 1.863030 
# 
# From -- ./inp_files/38630.got.cif
#   From: 2010.05.17/outbox.cif.g08.bks.cpg/sg5_20_cif.got.tgz:38630.got - 2010.06.03 18:56:24.
