data_PCOD9128297
_publ_section_title
;
Structure prediction by ZEFSAII (Michael W. Deem and Ramdas Pophale) SiO2 
 PCOD9128297
Probable space group: C 2
;
_chemical_formula_sum "Si O2"
_cell_formula_units_Z 20
_cell_length_a 5.069061
_cell_length_b 9.417298
_cell_length_c 21.332294
_cell_angle_alpha 90.000000
_cell_angle_beta 122.462849
_cell_angle_gamma 90.000000
_cell_volume 859.211050
_symmetry_space_group_name_H-M "C 2"
_symmetry_group_IT_number 5
_symmetry_cell_setting 'monoclinic'
loop_
_space_group_symop_operation_xyz
x,y,z
-x,y,-z
1/2+x,1/2+y,z
1/2-x,1/2+y,-z
loop_
_atom_site_type_symbol
_atom_site_label
_atom_site_fract_x
_atom_site_fract_y
_atom_site_fract_z
Si Si1 0.041521 0.913540 0.212968
Si Si2 0.274555 0.644248 0.586157
Si Si3 0.100459 0.816847 0.358769
Si Si4 0.283318 0.690795 0.166671
Si Si5 0.398674 0.745471 0.915819
O O1 0.742759 0.891864 0.128953
O O2 0.018344 0.829521 0.274479
O O3 0.311314 0.841431 0.206220
O O4 0.031155 0.078940 0.223592
O O5 0.577957 0.726555 0.598764
O O6 0.353828 0.480651 0.613407
O O7 0.000000 0.642328 0.500000
O O8 0.141657 0.736147 0.627376
O O9 0.337765 0.704947 0.099703
O O10 0.918944 0.653031 0.132847
O O11 0.500000 0.749266 0.000000
#
# Coordination Sequence:
#
# PCOD9128297 Si02
#       5
#     4   4   4   4   4
#     4  10  26  42  70  99 138 178 236 281 348 407
#     4  12  26  48  72 107 144 186 232 286 352 423
#     4  12  27  44  78 103 146 186 234 289 350 414
#     4  10  24  41  67  93 139 171 236 282 348 402
#     4  10  24  42  67  97 135 183 228 288 343 405
#
# _framework density 23.277169000000001
#
# number of rings (size 3 to 8) (size 9 to 14) (size 15 to 20)
#    1.200    0.000    0.000    4.800    8.400    1.600 
#    0.000    0.000    0.000    0.000    0.000    0.000 
#    0.000    0.000    0.000    0.000    0.000    0.000 
#
# Total GULP energy -55812.174280 kJ/mol
# GULP energy per Si atom -5581.217428 kJ/mol
# Density = 2.322419 g / cm^3
# Si number density = 23.277169 Si / 1000 Ang^3
#
#
#
# Elastic Constant Matrix: (Units=GPa)
#
#
# Indices 1 2 3 4 5 6 
#
# 1 77.4055 34.0001 -5.5901 0.0000 -17.5289 0.0000
# 2 34.0001 157.5335 27.4708 0.0000 -3.1125 0.0000
# 3 -5.5901 27.4708 108.9527 0.0000 -17.5714 0.0000
# 4 0.0000 0.0000 0.0000 20.0295 0.0000 5.8493
# 5 -17.5289 -3.1125 -17.5714 0.0000 34.5857 0.0000
# 6 0.0000 0.0000 0.0000 5.8493 0.0000 40.0818
#
#
#
# Elastic Compliance Matrix: (Units=1/GPa)
#
#
# Indices 1 2 3 4 5 6 
#
# 1 0.017322 -0.004162 0.003588 0.000000 0.010228 0.000000
# 2 -0.004162 0.007642 -0.002581 0.000000 -0.002733 0.000000
# 3 0.003588 -0.002581 0.011185 0.000000 0.007269 0.000000
# 4 0.000000 0.000000 0.000000 0.052149 0.000000 -0.007610
# 5 0.010228 -0.002733 0.007269 0.000000 0.037544 0.000000
# 6 0.000000 0.000000 0.000000 -0.007610 0.000000 0.026060
#
#
# Mechanical properties :
#
#
# Convention : Reuss Voigt Hill
#
# Bulk Modulus (GPa) = 33.51361 50.62817 42.07089
# Shear Modulus (GPa) = 29.73349 38.14013 33.93681
#
# Velocity S-wave (km/s) = 3.57790 4.05226 3.82245
# Velocity P-wave (km/s) = 5.61226 6.60997 6.13144
#
# Compressibility (1/GPa) = 0.02983862
#
# Stress axis : x y z
#
# Youngs Moduli (GPa) = 57.72872 130.85078 89.40166
#
# Poissons Ratio (x) = 0.54463 -0.32074
# Poissons Ratio (y) = 0.24028 0.23077
# Poissons Ratio (z) = -0.20711 0.33776
#
# Static dielectric constant tensor:
#      x y z
#    x 1.886880 0.000000 0.031210 
#    y 0.000000 1.941180 0.000000 
#    z 0.031210 0.000000 1.862050 
# 
# From -- ./inp_files/63834.got.cif
#   From: 2010.05.17/outbox.cif.g08.bks.cpg/sg5_32_cif.got.tgz:63834.got - 2010.06.03 18:56:24.
