data_PCOD9128813
_publ_section_title
;
Structure prediction by ZEFSAII (Michael W. Deem and Ramdas Pophale) SiO2 
 PCOD9128813
Probable space group: C 2
;
_chemical_formula_sum "Si O2"
_cell_formula_units_Z 32
_cell_length_a 8.238450
_cell_length_b 11.289793
_cell_length_c 28.277864
_cell_angle_alpha 90.000000
_cell_angle_beta 146.815558
_cell_angle_gamma 90.000000
_cell_volume 1439.567710
_symmetry_space_group_name_H-M "C 2"
_symmetry_group_IT_number 5
_symmetry_cell_setting 'monoclinic'
loop_
_space_group_symop_operation_xyz
x,y,z
-x,y,-z
1/2+x,1/2+y,z
1/2-x,1/2+y,-z
loop_
_atom_site_type_symbol
_atom_site_label
_atom_site_fract_x
_atom_site_fract_y
_atom_site_fract_z
Si Si1 0.705881 0.605650 0.142915
Si Si2 0.569729 0.541464 0.265706
Si Si3 0.178414 0.858708 0.863497
Si Si4 0.303274 0.096674 0.545070
Si Si5 0.147027 0.897351 0.968118
Si Si6 0.242791 0.441168 0.275811
Si Si7 0.138167 0.225953 0.855691
Si Si8 0.280651 0.357148 0.533932
O O1 0.832504 0.719391 0.147425
O O2 0.520663 0.519830 0.063374
O O3 0.492050 0.652490 0.132321
O O4 0.981573 0.528533 0.228858
O O5 0.542008 0.427946 0.224630
O O6 0.449768 0.507544 0.288162
O O7 0.370087 0.640280 0.191554
O O8 0.903173 0.588899 0.351219
O O9 0.139265 0.887266 0.908986
O O10 0.516389 0.896304 0.933143
O O11 0.320393 0.224319 0.522196
O O12 0.000000 0.100069 0.500000
O O13 0.288278 0.971953 0.514220
O O14 0.956435 0.786408 0.939271
O O15 0.433280 0.389984 0.365046
O O16 0.084693 0.333715 0.209765
O O17 0.000000 0.347454 0.500000
#
# Coordination Sequence:
#
# PCOD9128813 Si02
#       8
#     4   4   4   4   4   4   4   4
#     4  11  24  43  66  99 133 180 224 283 337 414
#     4  12  23  44  69  99 134 183 223 286 345 403
#     4  11  24  42  68 100 134 179 231 282 338 418
#     4  11  27  44  71 103 139 181 231 285 348 413
#     4  10  25  43  64  99 136 179 225 282 345 399
#     4  11  24  43  69  97 132 179 227 272 346 407
#     4  11  23  43  69  96 136 175 223 283 334 410
#     4  11  24  46  69  99 137 178 225 286 340 414
#
# _framework density 22.228894
#
# number of rings (size 3 to 8) (size 9 to 14) (size 15 to 20)
#    0.000    1.000    5.000    0.750    3.500    2.000 
#    2.250    0.000    0.000    0.000    0.000    0.000 
#    0.000    0.000    0.000    0.000    0.000    0.000 
#
# Total GULP energy -89495.147785 kJ/mol
# GULP energy per Si atom -5593.446737 kJ/mol
# Density = 2.217830 g / cm^3
# Si number density = 22.228894 Si / 1000 Ang^3
#
#
#
# Elastic Constant Matrix: (Units=GPa)
#
#
# Indices 1 2 3 4 5 6 
#
# 1 55.6875 28.0648 13.5455 0.0000 8.5526 0.0000
# 2 28.0648 175.8202 40.0551 0.0000 1.2156 0.0000
# 3 13.5455 40.0551 85.7233 -0.0001 10.9862 0.0000
# 4 0.0000 0.0000 -0.0001 15.1432 0.0000 9.0668
# 5 8.5526 1.2156 10.9862 0.0000 28.8858 0.0000
# 6 0.0000 0.0000 0.0000 9.0668 0.0000 30.5835
#
#
#
# Elastic Compliance Matrix: (Units=1/GPa)
#
#
# Indices 1 2 3 4 5 6 
#
# 1 0.020592 -0.002987 -0.001149 0.000000 -0.005534 0.000000
# 2 -0.002987 0.006821 -0.002935 0.000000 0.001714 0.000000
# 3 -0.001149 -0.002935 0.013833 0.000000 -0.004798 0.000000
# 4 0.000000 0.000000 0.000000 0.080287 0.000000 -0.023802
# 5 -0.005534 0.001714 -0.004798 0.000000 0.038010 0.000000
# 6 0.000000 0.000000 0.000000 -0.023802 0.000000 0.039754
#
#
# Mechanical properties :
#
#
# Convention : Reuss Voigt Hill
#
# Bulk Modulus (GPa) = 36.89350 53.39573 45.14462
# Shear Modulus (GPa) = 22.47449 30.62688 26.55069
#
# Velocity S-wave (km/s) = 3.18315 3.71589 3.45979
# Velocity P-wave (km/s) = 5.49027 6.51794 6.02605
#
# Compressibility (1/GPa) = 0.02710504
#
# Stress axis : x y z
#
# Youngs Moduli (GPa) = 48.56223 146.60201 72.28990
#
# Poissons Ratio (x) = 0.43789 0.08305
# Poissons Ratio (y) = 0.14505 0.21216
# Poissons Ratio (z) = 0.05579 0.43026
#
# Static dielectric constant tensor:
#      x y z
#    x 1.830130 0.000000 -0.000960 
#    y 0.000000 1.856760 0.000000 
#    z -0.000960 0.000000 1.788200 
# 
# From -- ./inp_files/71573.got.cif
#   From: 2010.05.17/outbox.cif.g08.bks.cpg/sg5_36_cif.got.tgz:71573.got - 2010.06.03 18:56:24.
