data_PCOD9128209
_publ_section_title
;
Structure prediction by ZEFSAII (Michael W. Deem and Ramdas Pophale) SiO2 
 PCOD9128209
Probable space group: C 2
;
_chemical_formula_sum "Si O2"
_cell_formula_units_Z 18
_cell_length_a 11.280476
_cell_length_b 10.213999
_cell_length_c 11.980498
_cell_angle_alpha 90.000000
_cell_angle_beta 31.690840
_cell_angle_gamma 90.000000
_cell_volume 725.161869
_symmetry_space_group_name_H-M "C 2"
_symmetry_group_IT_number 5
_symmetry_cell_setting 'monoclinic'
loop_
_space_group_symop_operation_xyz
x,y,z
-x,y,-z
1/2+x,1/2+y,z
1/2-x,1/2+y,-z
loop_
_atom_site_type_symbol
_atom_site_label
_atom_site_fract_x
_atom_site_fract_y
_atom_site_fract_z
Si Si1 0.500000 0.264490 0.000000
Si Si2 0.238796 0.512246 0.226758
Si Si3 0.231784 0.610105 0.997934
Si Si4 0.806197 0.230415 0.316695
Si Si5 0.926124 0.905859 0.671391
O O1 0.717439 0.357676 0.802917
O O2 0.547710 0.177290 0.068676
O O3 0.202668 0.585942 0.373000
O O4 0.500000 0.558034 0.000000
O O5 0.138903 0.555844 0.188719
O O6 0.438972 0.711719 0.850432
O O7 0.335890 0.490394 0.843468
O O8 0.642382 0.315424 0.527362
O O9 0.755190 0.307938 0.240986
O O10 0.000000 0.986413 0.500000
#
# Coordination Sequence:
#
# PCOD9128209 Si02
#       5
#     2   4   4   4   4
#     4  10  24  34  58  98 122 156 210 254 306 374
#     4   8  19  38  59  87 122 159 207 252 306 355
#     4  11  20  41  60  95 124 164 205 260 310 369
#     4   8  19  42  62  86 125 163 207 254 303 381
#     4   8  21  41  59  90 123 165 207 241 322 369
#
# _framework density 24.822044999999999
#
# number of rings (size 3 to 8) (size 9 to 14) (size 15 to 20)
#    2.000    0.889    0.000    0.000    3.111    1.778 
#   14.000    0.000    0.000    0.000    0.000    0.000 
#    0.000    0.000    0.000    0.000    0.000    0.000 
#
# Total GULP energy -50115.705304 kJ/mol
# GULP energy per Si atom -5568.411700 kJ/mol
# Density = 2.476555 g / cm^3
# Si number density = 24.822045 Si / 1000 Ang^3
#
#
#
# Elastic Constant Matrix: (Units=GPa)
#
#
# Indices 1 2 3 4 5 6 
#
# 1 140.0169 52.1068 39.4616 -0.0018 8.5973 0.0014
# 2 52.1068 106.8298 52.2149 -0.0008 21.4433 0.0012
# 3 39.4616 52.2149 113.8342 -0.0019 35.4318 0.0018
# 4 -0.0018 -0.0008 -0.0019 13.7370 0.0017 5.5135
# 5 8.5973 21.4433 35.4318 0.0017 34.7175 -0.0015
# 6 0.0014 0.0012 0.0018 5.5135 -0.0015 32.8989
#
#
#
# Elastic Compliance Matrix: (Units=1/GPa)
#
#
# Indices 1 2 3 4 5 6 
#
# 1 0.009014 -0.003839 -0.002062 0.000000 0.002244 0.000000
# 2 -0.003839 0.013869 -0.003899 0.000000 -0.003636 0.000000
# 3 -0.002062 -0.003899 0.015212 0.000004 -0.012606 -0.000002
# 4 0.000000 0.000000 0.000004 0.078046 -0.000009 -0.013080
# 5 0.002244 -0.003636 -0.012606 -0.000009 0.043359 0.000004
# 6 0.000000 0.000000 -0.000002 -0.013080 0.000004 0.032588
#
#
# Mechanical properties :
#
#
# Convention : Reuss Voigt Hill
#
# Bulk Modulus (GPa) = 54.07089 72.02750 63.04920
# Shear Modulus (GPa) = 22.95129 30.73053 26.84091
#
# Velocity S-wave (km/s) = 3.04408 3.52239 3.29193
# Velocity P-wave (km/s) = 5.84687 6.75452 6.31702
#
# Compressibility (1/GPa) = 0.01849424
#
# Stress axis : x y z
#
# Youngs Moduli (GPa) = 110.93679 72.10474 65.73939
#
# Poissons Ratio (x) = 0.27682 0.13557
# Poissons Ratio (y) = 0.42590 0.25630
# Poissons Ratio (z) = 0.22878 0.28112
#
# Static dielectric constant tensor:
#      x y z
#    x 1.978410 0.000000 -0.067500 
#    y 0.000000 2.055020 0.000000 
#    z -0.067500 0.000000 2.184990 
# 
# From -- ./inp_files/38571.got.cif
#   From: 2010.05.17/outbox.cif.g08.bks.cpg/sg5_20_cif.got.tgz:38571.got - 2010.06.03 18:56:24.
