data_PCOD9128735
_publ_section_title
;
Structure prediction by ZEFSAII (Michael W. Deem and Ramdas Pophale) SiO2 
 PCOD9128735
Probable space group: C 2
;
_chemical_formula_sum "Si O2"
_cell_formula_units_Z 22
_cell_length_a 14.328326
_cell_length_b 5.817327
_cell_length_c 24.717139
_cell_angle_alpha 90.000000
_cell_angle_beta 24.921417
_cell_angle_gamma 90.000000
_cell_volume 868.131921
_symmetry_space_group_name_H-M "C 2"
_symmetry_group_IT_number 5
_symmetry_cell_setting 'monoclinic'
loop_
_space_group_symop_operation_xyz
x,y,z
-x,y,-z
1/2+x,1/2+y,z
1/2-x,1/2+y,-z
loop_
_atom_site_type_symbol
_atom_site_label
_atom_site_fract_x
_atom_site_fract_y
_atom_site_fract_z
Si Si1 0.607500 0.817530 0.701744
Si Si2 0.829664 0.993793 0.483445
Si Si3 0.808867 0.188434 0.763280
Si Si4 0.293607 0.184140 0.915315
Si Si5 0.500000 0.968632 0.000000
Si Si6 0.381802 0.546757 0.203214
O O1 0.763798 0.968974 0.581005
O O2 0.474930 0.671904 0.726501
O O3 0.714161 0.670898 0.693536
O O4 0.409940 0.953150 0.835298
O O5 0.758313 0.748579 0.491950
O O6 0.091512 0.021720 0.334040
O O7 0.794370 0.442973 0.746077
O O8 0.571683 0.123099 0.911862
O O9 0.484580 0.329480 0.842993
O O10 0.201414 0.308044 0.910633
O O11 0.077112 0.170098 0.067026
#
# Coordination Sequence:
#
# PCOD9128735 Si02
#       6
#     4   4   4   4   2   4
#     4  11  24  46  75 100 150 203 248 321 396 456
#     4  10  24  48  80 106 151 205 265 317 384 472
#     4  11  24  45  74 111 144 199 259 315 392 471
#     4  12  23  42  68 105 151 191 247 323 385 469
#     4  12  22  40  76 104 152 196 248 316 404 460
#     4  12  24  42  71 111 152 190 258 320 388 465
#
# _framework density 25.34177
#
# number of rings (size 3 to 8) (size 9 to 14) (size 15 to 20)
#    0.000    0.727    3.636    4.364    2.545    1.455 
#    0.000    0.909   12.000    0.000    0.000    0.000 
#    0.000    0.000    0.000    0.000    0.000    0.000 
#
# Total GULP energy -61476.092044 kJ/mol
# GULP energy per Si atom -5588.735640 kJ/mol
# Density = 2.528409 g / cm^3
# Si number density = 25.341770 Si / 1000 Ang^3
#
#
#
# Elastic Constant Matrix: (Units=GPa)
#
#
# Indices 1 2 3 4 5 6 
#
# 1 78.0060 35.8055 26.4604 -0.0038 24.3696 0.0035
# 2 35.8055 85.9144 54.4226 -0.0075 21.3949 0.0138
# 3 26.4604 54.4226 136.8841 -0.0029 39.0682 -0.0012
# 4 -0.0038 -0.0075 -0.0029 50.1785 -0.0019 5.6994
# 5 24.3696 21.3949 39.0682 -0.0019 37.9803 0.0013
# 6 0.0035 0.0138 -0.0012 5.6994 0.0013 57.2464
#
#
#
# Elastic Compliance Matrix: (Units=1/GPa)
#
#
# Indices 1 2 3 4 5 6 
#
# 1 0.018203 -0.006245 0.001831 0.000000 -0.010046 0.000001
# 2 -0.006245 0.018016 -0.005949 0.000002 -0.000022 -0.000004
# 3 0.001831 -0.005949 0.012310 -0.000001 -0.010486 0.000002
# 4 0.000000 0.000002 -0.000001 0.020157 0.000000 -0.002007
# 5 -0.010046 -0.000022 -0.010486 0.000000 0.043574 -0.000001
# 6 0.000001 -0.000004 0.000002 -0.002007 -0.000001 0.017668
#
#
# Mechanical properties :
#
#
# Convention : Reuss Voigt Hill
#
# Bulk Modulus (GPa) = 35.96729 59.35353 47.66041
# Shear Modulus (GPa) = 31.26543 41.35544 36.31044
#
# Velocity S-wave (km/s) = 3.51629 4.04407 3.78938
# Velocity P-wave (km/s) = 5.54161 6.72890 6.16391
#
# Compressibility (1/GPa) = 0.02780304
#
# Stress axis : x y z
#
# Youngs Moduli (GPa) = 54.93584 55.50561 81.23719
#
# Poissons Ratio (x) = 0.34661 -0.14876
# Poissons Ratio (y) = 0.34305 0.48332
# Poissons Ratio (z) = -0.10060 0.33023
#
# Static dielectric constant tensor:
#      x y z
#    x 2.030170 0.000000 0.004980 
#    y 0.000000 2.070090 0.000000 
#    z 0.004980 0.000000 2.077210 
# 
# From -- ./inp_files/46891.got.cif
#   From: 2010.05.17/outbox.cif.g08.bks.cpg/sg5_24_cif.got.tgz:46891.got - 2010.06.03 18:56:24.
