data_PCOD9128619
_publ_section_title
;
Structure prediction by ZEFSAII (Michael W. Deem and Ramdas Pophale) SiO2 
 PCOD9128619
Probable space group: C 2
;
_chemical_formula_sum "Si O2"
_cell_formula_units_Z 26
_cell_length_a 8.460597
_cell_length_b 10.697084
_cell_length_c 15.177057
_cell_angle_alpha 90.000000
_cell_angle_beta 128.464039
_cell_angle_gamma 90.000000
_cell_volume 1075.511431
_symmetry_space_group_name_H-M "C 2"
_symmetry_group_IT_number 5
_symmetry_cell_setting 'monoclinic'
loop_
_space_group_symop_operation_xyz
x,y,z
-x,y,-z
1/2+x,1/2+y,z
1/2-x,1/2+y,-z
loop_
_atom_site_type_symbol
_atom_site_label
_atom_site_fract_x
_atom_site_fract_y
_atom_site_fract_z
Si Si1 0.000000 0.769421 0.000000
Si Si2 0.256843 0.842600 0.926933
Si Si3 0.639334 0.607590 0.820470
Si Si4 0.781692 0.901780 0.378641
Si Si5 0.861841 0.170347 0.365045
Si Si6 0.237020 0.180092 0.223887
Si Si7 0.417357 0.935143 0.376089
O O1 0.849420 0.681267 0.892553
O O2 0.147253 0.842540 0.983979
O O3 0.203039 0.717802 0.853445
O O4 0.171896 0.963262 0.847294
O O5 0.500000 0.855218 0.000000
O O6 0.531041 0.636897 0.690477
O O7 0.503608 0.661054 0.851889
O O8 0.782981 0.797590 0.303628
O O9 0.000000 0.901573 0.500000
O O10 0.733644 0.043654 0.330250
O O11 0.610094 0.880890 0.391262
O O12 0.775592 0.311510 0.332265
O O13 0.000000 0.173723 0.500000
O O14 0.326293 0.052323 0.293749
O O15 0.500000 0.974440 0.500000
#
# Coordination Sequence:
#
# PCOD9128619 Si02
#       7
#     2   4   4   4   4   4   4
#     4  12  30  50  82 112 148 210 270 332 406 472
#     4  12  28  53  77 112 157 203 265 337 403 474
#     4  12  26  50  78 113 156 207 267 332 400 470
#     4  11  25  45  72 104 158 206 256 317 391 459
#     4  10  24  46  73 107 158 200 254 317 383 469
#     4  12  27  46  76 113 154 203 266 326 397 468
#     4  11  27  44  70 112 158 203 266 313 383 476
#
# _framework density 24.174545999999999
#
# number of rings (size 3 to 8) (size 9 to 14) (size 15 to 20)
#    0.000    0.615    5.385    0.462    8.615    4.923 
#    0.000    0.000    0.000    0.000    0.000    0.000 
#    0.000    0.000    0.000    0.000    0.000    0.000 
#
# Total GULP energy -72649.534525 kJ/mol
# GULP energy per Si atom -5588.425733 kJ/mol
# Density = 2.411952 g / cm^3
# Si number density = 24.174546 Si / 1000 Ang^3
#
#
#
# Elastic Constant Matrix: (Units=GPa)
#
#
# Indices 1 2 3 4 5 6 
#
# 1 129.0207 25.1763 42.1404 0.0000 -7.3137 0.0000
# 2 25.1763 171.9622 56.6105 0.0000 3.3229 0.0000
# 3 42.1404 56.6105 72.5584 0.0000 -17.4891 0.0000
# 4 0.0000 0.0000 0.0000 38.2729 0.0000 -0.9231
# 5 -7.3137 3.3229 -17.4891 0.0000 41.6378 0.0000
# 6 0.0000 0.0000 0.0000 -0.9231 0.0000 26.7725
#
#
#
# Elastic Compliance Matrix: (Units=1/GPa)
#
#
# Indices 1 2 3 4 5 6 
#
# 1 0.009647 0.000722 -0.006422 0.000000 -0.001061 0.000000
# 2 0.000722 0.008380 -0.007887 0.000000 -0.003855 0.000000
# 3 -0.006422 -0.007887 0.026197 0.000000 0.010505 0.000000
# 4 0.000000 0.000000 0.000000 0.026150 0.000000 0.000902
# 5 -0.001061 -0.003855 0.010505 0.000000 0.028550 0.000000
# 6 0.000000 0.000000 0.000000 0.000902 0.000000 0.037383
#
#
# Mechanical properties :
#
#
# Convention : Reuss Voigt Hill
#
# Bulk Modulus (GPa) = 58.64634 69.04397 63.84515
# Shear Modulus (GPa) = 29.55686 37.97757 33.76722
#
# Velocity S-wave (km/s) = 3.50043 3.96785 3.74144
# Velocity P-wave (km/s) = 6.37570 7.04375 6.71803
#
# Compressibility (1/GPa) = 0.01705136
#
# Stress axis : x y z
#
# Youngs Moduli (GPa) = 103.65735 119.32595 38.17186
#
# Poissons Ratio (x) = -0.08618 0.24514
# Poissons Ratio (y) = -0.07486 0.30106
# Poissons Ratio (z) = 0.66568 0.94112
#
# Static dielectric constant tensor:
#      x y z
#    x 2.021700 0.000000 -0.009790 
#    y 0.000000 1.918450 0.000000 
#    z -0.009790 0.000000 1.947110 
# 
# From -- ./inp_files/50361.got.cif
#   From: 2010.05.17/outbox.cif.g08.bks.cpg/sg5_26_cif.got.tgz:50361.got - 2010.06.03 18:56:24.
