data_PCOD9128516
_publ_section_title
;
Structure prediction by ZEFSAII (Michael W. Deem and Ramdas Pophale) SiO2 
 PCOD9128516
Probable space group: C 2
;
_chemical_formula_sum "Si O2"
_cell_formula_units_Z 28
_cell_length_a 13.847315
_cell_length_b 4.929134
_cell_length_c 16.014240
_cell_angle_alpha 90.000000
_cell_angle_beta 77.553400
_cell_angle_gamma 90.000000
_cell_volume 1067.366526
_symmetry_space_group_name_H-M "C 2"
_symmetry_group_IT_number 5
_symmetry_cell_setting 'monoclinic'
loop_
_space_group_symop_operation_xyz
x,y,z
-x,y,-z
1/2+x,1/2+y,z
1/2-x,1/2+y,-z
loop_
_atom_site_type_symbol
_atom_site_label
_atom_site_fract_x
_atom_site_fract_y
_atom_site_fract_z
Si Si1 0.000000 0.824400 0.500000
Si Si2 0.025579 0.681701 0.313239
Si Si3 0.783056 0.072334 0.044112
Si Si4 0.716454 0.487007 0.458539
Si Si5 0.174882 0.967111 0.188306
Si Si6 0.000000 0.273216 0.000000
Si Si7 0.668404 0.113752 0.730893
Si Si8 0.999023 0.292934 0.821515
O O1 0.999735 0.653656 0.414342
O O2 0.098501 0.003511 0.478865
O O3 0.122354 0.857947 0.282408
O O4 0.047861 0.418249 0.254320
O O5 0.927414 0.787656 0.281253
O O6 0.726106 0.224415 0.128613
O O7 0.900549 0.100593 0.034991
O O8 0.752532 0.270796 0.971647
O O9 0.756833 0.677906 0.524658
O O10 0.771408 0.574368 0.364649
O O11 0.258328 0.174966 0.206726
O O12 0.077102 0.046884 0.153646
O O13 0.010927 0.434238 0.085363
O O14 0.612894 0.839621 0.774580
#
# Coordination Sequence:
#
# PCOD9128516 Si02
#       8
#     2   4   4   4   4   2   4   4
#     4  12  24  46  74 110 150 196 252 316 368 452
#     4  10  24  47  65 107 143 189 251 302 368 448
#     4  12  27  47  75 108 147 195 246 304 375 445
#     4  12  27  47  74 109 146 195 249 305 375 448
#     4  12  23  46  70 100 146 193 241 311 373 437
#     4  12  22  50  70 110 150 192 250 312 366 452
#     4  10  24  46  65 104 146 186 247 303 372 436
#     4  10  24  45  67 104 142 188 251 297 370 446
#
# _framework density 26.232786000000001
#
# number of rings (size 3 to 8) (size 9 to 14) (size 15 to 20)
#    0.857    0.000    5.714    0.857    2.000    2.286 
#    7.714    0.000    0.000    0.000    0.000    0.000 
#    0.000    0.000    0.000    0.000    0.000    0.000 
#
# Total GULP energy -78085.460759 kJ/mol
# GULP energy per Si atom -5577.532911 kJ/mol
# Density = 2.617308 g / cm^3
# Si number density = 26.232786 Si / 1000 Ang^3
#
#
#
# Elastic Constant Matrix: (Units=GPa)
#
#
# Indices 1 2 3 4 5 6 
#
# 1 170.1182 11.5370 15.0851 0.0000 -32.8425 0.0000
# 2 11.5370 46.3449 -7.0376 0.0000 -7.7137 0.0000
# 3 15.0851 -7.0376 126.8258 0.0000 -11.9363 0.0000
# 4 0.0000 0.0000 0.0000 -13.4387 0.0000 -1.4431
# 5 -32.8425 -7.7137 -11.9363 0.0000 52.3672 0.0000
# 6 0.0000 0.0000 0.0000 -1.4431 0.0000 28.1135
#
#
#
# Elastic Compliance Matrix: (Units=1/GPa)
#
#
# Indices 1 2 3 4 5 6 
#
# 1 0.006762 -0.001098 -0.000492 0.000000 0.003967 0.000000
# 2 -0.001098 0.022607 0.001669 0.000000 0.003022 0.000000
# 3 -0.000492 0.001669 0.008206 0.000000 0.001808 0.000000
# 4 0.000000 0.000000 0.000000 -0.074004 0.000000 -0.003799
# 5 0.003967 0.003022 0.001808 0.000000 0.022441 0.000000
# 6 0.000000 0.000000 0.000000 -0.003799 0.000000 0.035375
#
#
# Mechanical properties :
#
#
# Convention : Reuss Voigt Hill
#
# Bulk Modulus (GPa) = 26.50047 42.49533 34.49790
# Shear Modulus (GPa) = 147.89943 34.98867 91.44405
#
# Velocity S-wave (km/s) = 7.51678 3.65605 5.91053
# Velocity P-wave (km/s) = 9.24446 5.83582 7.73035
#
# Compressibility (1/GPa) = 0.03773519
#
# Stress axis : x y z
#
# Youngs Moduli (GPa) = 147.88051 44.23377 121.86018
#
# Poissons Ratio (x) = 0.04856 0.05994
# Poissons Ratio (y) = 0.16234 -0.20344
# Poissons Ratio (z) = 0.07274 -0.07385
#
# Static dielectric constant tensor:
#      x y z
#    x 2.058190 0.000000 0.063670 
#    y 0.000000 2.094400 0.000000 
#    z 0.063670 0.000000 2.059800 
# 
# From -- ./inp_files/61091.got.cif
#   From: 2010.05.17/outbox.cif.g08.bks.cpg/sg5_31_cif.got.tgz:61091.got - 2010.06.03 18:56:24.
