data_PCOD9128719
_publ_section_title
;
Structure prediction by ZEFSAII (Michael W. Deem and Ramdas Pophale) SiO2 
 PCOD9128719
Probable space group: C 2
;
_chemical_formula_sum "Si O2"
_cell_formula_units_Z 26
_cell_length_a 7.426350
_cell_length_b 7.194675
_cell_length_c 18.477572
_cell_angle_alpha 90.000000
_cell_angle_beta 64.431560
_cell_angle_gamma 90.000000
_cell_volume 890.577926
_symmetry_space_group_name_H-M "C 2"
_symmetry_group_IT_number 5
_symmetry_cell_setting 'monoclinic'
loop_
_space_group_symop_operation_xyz
x,y,z
-x,y,-z
1/2+x,1/2+y,z
1/2-x,1/2+y,-z
loop_
_atom_site_type_symbol
_atom_site_label
_atom_site_fract_x
_atom_site_fract_y
_atom_site_fract_z
Si Si1 0.968096 0.344760 0.397474
Si Si2 0.062349 0.628156 0.846217
Si Si3 0.330312 0.525496 0.176174
Si Si4 0.842255 0.755658 0.425777
Si Si5 0.730615 0.349711 0.296325
Si Si6 0.650030 0.825002 0.078015
Si Si7 0.000000 0.656587 0.000000
O O1 0.234144 0.652816 0.254424
O O2 0.175291 0.265219 0.391745
O O3 0.958993 0.564146 0.413608
O O4 0.783699 0.277604 0.479426
O O5 0.974949 0.493863 0.938707
O O6 0.063056 0.840382 0.811503
O O7 0.216268 0.505677 0.771685
O O8 0.831358 0.795509 0.988185
O O9 0.146412 0.505063 0.148769
O O10 0.906802 0.327916 0.324813
O O11 0.021761 0.892235 0.372586
O O12 0.982829 0.162434 0.109479
O O13 0.810141 0.715772 0.105235
#
# Coordination Sequence:
#
# PCOD9128719 Si02
#       7
#     4   4   4   4   4   4   2
#     4  11  29  56  85 129 172 230 292 353 430 532
#     4  10  25  52  77 117 163 228 282 361 434 511
#     4  10  25  51  74 114 165 210 277 348 429 513
#     4  11  29  55  87 124 174 233 288 353 441 519
#     4  11  27  53  85 130 176 224 292 366 436 517
#     4  10  24  48  74 114 153 213 282 342 430 509
#     4  10  24  48  76 110 160 218 286 356 428 512
#
# _framework density 29.194526
#
# number of rings (size 3 to 8) (size 9 to 14) (size 15 to 20)
#    0.000    1.538    0.000    0.462   17.231    6.154 
#   19.385    1.538    0.000    0.000    0.000    0.000 
#    0.000    0.000    0.000    0.000    0.000    0.000 
#
# Total GULP energy -72685.288173 kJ/mol
# GULP energy per Si atom -5591.176013 kJ/mol
# Density = 2.912808 g / cm^3
# Si number density = 29.194526 Si / 1000 Ang^3
#
#
#
# Elastic Constant Matrix: (Units=GPa)
#
#
# Indices 1 2 3 4 5 6 
#
# 1 147.7623 52.3745 55.9360 0.0000 -2.4964 0.0000
# 2 52.3745 219.4429 53.1701 0.0000 -18.9948 0.0000
# 3 55.9360 53.1701 117.1825 0.0000 8.8317 0.0000
# 4 0.0000 0.0000 0.0000 48.5608 0.0000 2.7942
# 5 -2.4964 -18.9948 8.8317 0.0000 69.0543 0.0000
# 6 0.0000 0.0000 0.0000 2.7942 0.0000 59.6833
#
#
#
# Elastic Compliance Matrix: (Units=1/GPa)
#
#
# Indices 1 2 3 4 5 6 
#
# 1 0.008537 -0.001126 -0.003599 0.000000 0.000459 0.000000
# 2 -0.001126 0.005479 -0.002079 0.000000 0.001732 0.000000
# 3 -0.003599 -0.002079 0.011357 0.000000 -0.002155 0.000000
# 4 0.000000 0.000000 0.000000 0.020648 0.000000 -0.000967
# 5 0.000459 0.001732 -0.002155 0.000000 0.015250 0.000000
# 6 0.000000 0.000000 0.000000 -0.000967 0.000000 0.016800
#
#
# Mechanical properties :
#
#
# Convention : Reuss Voigt Hill
#
# Bulk Modulus (GPa) = 84.99242 89.70544 87.34893
# Shear Modulus (GPa) = 52.30000 56.98682 54.64341
#
# Velocity S-wave (km/s) = 4.23712 4.42290 4.33101
# Velocity P-wave (km/s) = 7.28788 7.54164 7.41585
#
# Compressibility (1/GPa) = 0.01176575
#
# Stress axis : x y z
#
# Youngs Moduli (GPa) = 117.14093 182.49888 88.04797
#
# Poissons Ratio (x) = 0.20545 0.31686
# Poissons Ratio (y) = 0.13187 0.18309
# Poissons Ratio (z) = 0.42156 0.37950
#
# Static dielectric constant tensor:
#      x y z
#    x 2.225800 0.000000 0.011120 
#    y 0.000000 2.263370 0.000000 
#    z 0.011120 0.000000 2.467150 
# 
# From -- ./inp_files/67878.got.cif
#   From: 2010.05.17/outbox.cif.g08.bks.cpg/sg5_34_cif.got.tgz:67878.got - 2010.06.03 18:56:24.
