data_PCOD9128464
_publ_section_title
;
Structure prediction by ZEFSAII (Michael W. Deem and Ramdas Pophale) SiO2 
 PCOD9128464
Probable space group: C 2
;
_chemical_formula_sum "Si O2"
_cell_formula_units_Z 16
_cell_length_a 21.281523
_cell_length_b 4.894648
_cell_length_c 13.687544
_cell_angle_alpha 90.000000
_cell_angle_beta 152.461009
_cell_angle_gamma 90.000000
_cell_volume 659.208147
_symmetry_space_group_name_H-M "C 2"
_symmetry_group_IT_number 5
_symmetry_cell_setting 'monoclinic'
loop_
_space_group_symop_operation_xyz
x,y,z
-x,y,-z
1/2+x,1/2+y,z
1/2-x,1/2+y,-z
loop_
_atom_site_type_symbol
_atom_site_label
_atom_site_fract_x
_atom_site_fract_y
_atom_site_fract_z
Si Si1 0.500000 0.365360 0.500000
Si Si2 0.000000 0.277897 0.000000
Si Si3 0.907042 0.204237 0.650262
Si Si4 0.336990 0.736080 0.127713
Si Si5 0.696512 0.194146 0.601382
O O1 0.400850 0.569896 0.304975
O O2 0.591722 0.201501 0.548209
O O3 0.072025 0.233582 0.206309
O O4 0.154436 0.302408 0.164408
O O5 0.799681 0.399370 0.446151
O O6 0.046895 0.282809 0.790774
O O7 0.870022 0.897447 0.569698
O O8 0.227951 0.523081 0.934422
#
# Coordination Sequence:
#
# PCOD9128464 Si02
#       5
#     2   2   4   4   4
#     4  10  24  44  70  98 138 172 212 280 336 378
#     4  12  26  46  72  94 134 184 218 270 334 384
#     4  11  26  44  66  99 135 172 225 273 322 395
#     4  11  23  41  67 100 134 173 221 270 328 397
#     4  11  26  45  68 101 133 172 223 272 327 397
#
# _framework density 24.271542
#
# number of rings (size 3 to 8) (size 9 to 14) (size 15 to 20)
#    0.000    1.000    0.000    6.000    0.000   17.000 
#    0.000    0.000    0.000    0.000    0.000    0.000 
#    0.000    0.000    0.000    0.000    0.000    0.000 
#
# Total GULP energy -44561.878289 kJ/mol
# GULP energy per Si atom -5570.234786 kJ/mol
# Density = 2.421630 g / cm^3
# Si number density = 24.271542 Si / 1000 Ang^3
#
#
#
# Elastic Constant Matrix: (Units=GPa)
#
#
# Indices 1 2 3 4 5 6 
#
# 1 127.7335 15.7096 46.0978 -0.0003 -6.6984 -0.0001
# 2 15.7096 81.7218 -2.7159 0.0024 -5.5069 0.0004
# 3 46.0978 -2.7159 97.7864 -0.0001 15.2422 -0.0001
# 4 -0.0003 0.0024 -0.0001 26.4381 -0.0002 4.4637
# 5 -6.6984 -5.5069 15.2422 -0.0002 60.7282 -0.0002
# 6 -0.0001 0.0004 -0.0001 4.4637 -0.0002 9.5066
#
#
#
# Elastic Compliance Matrix: (Units=1/GPa)
#
#
# Indices 1 2 3 4 5 6 
#
# 1 0.010037 -0.001950 -0.005131 0.000000 0.002218 0.000000
# 2 -0.001950 0.012694 0.001172 -0.000001 0.000642 0.000000
# 3 -0.005131 0.001172 0.013269 0.000000 -0.003790 0.000000
# 4 0.000000 -0.000001 0.000000 0.041081 0.000000 -0.019289
# 5 0.002218 0.000642 -0.003790 0.000000 0.017721 0.000000
# 6 0.000000 0.000000 0.000000 -0.019289 0.000000 0.114247
#
#
# Mechanical properties :
#
#
# Convention : Reuss Voigt Hill
#
# Bulk Modulus (GPa) = 41.35729 47.26942 44.31335
# Shear Modulus (GPa) = 21.84091 35.87792 28.85942
#
# Velocity S-wave (km/s) = 3.00302 3.84889 3.45196
# Velocity P-wave (km/s) = 5.39449 6.26654 5.84680
#
# Compressibility (1/GPa) = 0.02417953
#
# Stress axis : x y z
#
# Youngs Moduli (GPa) = 99.63245 78.77870 75.36529
#
# Poissons Ratio (x) = 0.15366 0.38673
# Poissons Ratio (y) = 0.19433 -0.08833
# Poissons Ratio (z) = 0.51126 -0.09233
#
# Static dielectric constant tensor:
#      x y z
#    x 1.932460 0.000000 0.025380 
#    y 0.000000 1.901640 0.000000 
#    z 0.025380 0.000000 1.979370 
# 
# From -- ./inp_files/25904.got.cif
#   From: 2010.05.17/outbox.cif.g08.bks.cpg/sg5_13_cif.got.tgz:25904.got - 2010.06.03 18:56:24.
