data_PCOD9128774
_publ_section_title
;
Structure prediction by ZEFSAII (Michael W. Deem and Ramdas Pophale) SiO2 
 PCOD9128774
Probable space group: C 2
;
_chemical_formula_sum "Si O2"
_cell_formula_units_Z 18
_cell_length_a 9.824606
_cell_length_b 9.783783
_cell_length_c 9.207119
_cell_angle_alpha 90.000000
_cell_angle_beta 54.503100
_cell_angle_gamma 90.000000
_cell_volume 720.524087
_symmetry_space_group_name_H-M "C 2"
_symmetry_group_IT_number 5
_symmetry_cell_setting 'monoclinic'
loop_
_space_group_symop_operation_xyz
x,y,z
-x,y,-z
1/2+x,1/2+y,z
1/2-x,1/2+y,-z
loop_
_atom_site_type_symbol
_atom_site_label
_atom_site_fract_x
_atom_site_fract_y
_atom_site_fract_z
Si Si1 0.500000 0.596231 0.000000
Si Si2 0.382569 0.356506 0.869761
Si Si3 0.000000 0.749144 0.500000
Si Si4 0.633847 0.123464 0.699545
Si Si5 0.001604 0.329096 0.190477
Si Si6 0.000000 0.213688 0.500000
O O1 0.410980 0.497473 0.938887
O O2 0.588612 0.705269 0.838149
O O3 0.526483 0.249622 0.828912
O O4 0.196899 0.314081 0.030296
O O5 0.105189 0.650260 0.543671
O O6 0.088704 0.845789 0.323150
O O7 0.827283 0.132909 0.618605
O O8 0.559554 0.981369 0.800710
O O9 0.978569 0.306220 0.373256
#
# Coordination Sequence:
#
# PCOD9128774 Si02
#       6
#     2   4   2   4   4   2
#     4  12  28  44  80 126 166 216 280 344 436 502
#     4  10  24  51  89 122 171 227 284 364 431 517
#     4   8  23  51  96 118 167 229 288 354 433 509
#     4  10  25  53  86 126 170 234 283 356 431 519
#     4  12  28  49  84 125 175 225 286 360 430 522
#     4  12  29  49  84 130 179 227 286 358 443 519
#
# _framework density 24.981815999999998
#
# number of rings (size 3 to 8) (size 9 to 14) (size 15 to 20)
#    1.333    0.000    0.000    3.333    3.111    8.889 
#    0.000    2.222    0.000    1.333    0.000    0.000 
#    0.000    0.000    0.000    0.000    0.000    0.000 
#
# Total GULP energy -50248.961036 kJ/mol
# GULP energy per Si atom -5583.217893 kJ/mol
# Density = 2.492496 g / cm^3
# Si number density = 24.981816 Si / 1000 Ang^3
#
#
#
# Elastic Constant Matrix: (Units=GPa)
#
#
# Indices 1 2 3 4 5 6 
#
# 1 85.3429 69.7998 35.1837 0.0000 -1.3874 0.0000
# 2 69.7998 185.3396 61.1183 0.0000 -4.2471 0.0000
# 3 35.1837 61.1183 146.3631 0.0000 5.0295 0.0000
# 4 0.0000 0.0000 0.0000 576.0773 0.0000 427.8748
# 5 -1.3874 -4.2471 5.0295 0.0000 75.8096 0.0000
# 6 0.0000 0.0000 0.0000 427.8748 0.0000 364.0926
#
#
#
# Elastic Compliance Matrix: (Units=1/GPa)
#
#
# Indices 1 2 3 4 5 6 
#
# 1 0.017277 -0.005954 -0.001670 0.000000 0.000093 0.000000
# 2 -0.005954 0.008330 -0.002064 0.000000 0.000495 0.000000
# 3 -0.001670 -0.002064 0.008119 0.000000 -0.000685 0.000000
# 4 0.000000 0.000000 0.000000 0.013652 0.000000 -0.016044
# 5 0.000093 0.000495 -0.000685 0.000000 0.013266 0.000000
# 6 0.000000 0.000000 0.000000 -0.016044 0.000000 0.021601
#
#
# Mechanical properties :
#
#
# Convention : Reuss Voigt Hill
#
# Bulk Modulus (GPa) = 69.68706 83.24992 76.46849
# Shear Modulus (GPa) = 46.99044 219.92550 133.45797
#
# Velocity S-wave (km/s) = 4.34174 9.39283 7.31697
# Velocity P-wave (km/s) = 7.28628 12.28944 10.10248
#
# Compressibility (1/GPa) = 0.01434987
#
# Stress axis : x y z
#
# Youngs Moduli (GPa) = 57.88097 120.05270 123.16342
#
# Poissons Ratio (x) = 0.71475 0.20571
# Poissons Ratio (y) = 0.34460 0.25423
# Poissons Ratio (z) = 0.09667 0.24780
#
# Static dielectric constant tensor:
#      x y z
#    x 1.661720 0.000000 0.605580 
#    y 0.000000 1.924320 0.000000 
#    z 0.605580 0.000000 1.096290 
# 
# From -- ./inp_files/34707.got.cif
#   From: 2010.05.17/outbox.cif.g08.bks.cpg/sg5_18_cif.got.tgz:34707.got - 2010.06.03 18:56:24.
