data_PCOD9128903
_publ_section_title
;
Structure prediction by ZEFSAII (Michael W. Deem and Ramdas Pophale) SiO2 
 PCOD9128903
Probable space group: C 2
;
_chemical_formula_sum "Si O2"
_cell_formula_units_Z 22
_cell_length_a 11.164866
_cell_length_b 10.642497
_cell_length_c 14.736170
_cell_angle_alpha 90.000000
_cell_angle_beta 150.145694
_cell_angle_gamma 90.000000
_cell_volume 871.632210
_symmetry_space_group_name_H-M "C 2"
_symmetry_group_IT_number 5
_symmetry_cell_setting 'monoclinic'
loop_
_space_group_symop_operation_xyz
x,y,z
-x,y,-z
1/2+x,1/2+y,z
1/2-x,1/2+y,-z
loop_
_atom_site_type_symbol
_atom_site_label
_atom_site_fract_x
_atom_site_fract_y
_atom_site_fract_z
Si Si1 0.152681 0.082600 0.480905
Si Si2 0.656042 0.034432 0.861689
Si Si3 0.000000 0.859933 0.500000
Si Si4 0.245006 0.777003 0.817875
Si Si5 0.738174 0.801675 0.790612
Si Si6 0.433910 0.446928 0.745321
O O1 0.386907 0.085946 0.698822
O O2 0.966983 0.197156 0.359716
O O3 0.033163 0.957682 0.441198
O O4 0.212391 0.041357 0.416772
O O5 0.758169 0.133909 0.858162
O O6 0.645141 0.898418 0.806608
O O7 0.837696 0.022479 0.064004
O O8 0.804636 0.775734 0.322420
O O9 0.053092 0.837274 0.761933
O O10 0.500000 0.843165 0.000000
O O11 0.792517 0.881621 0.734984
O O12 0.000000 0.754556 0.000000
#
# Coordination Sequence:
#
# PCOD9128903 Si02
#       6
#     4   4   2   4   4   4
#     4  11  26  44  76 104 148 193 247 310 367 452
#     4  11  26  45  72 107 144 191 248 304 373 445
#     4  10  26  44  66 106 140 184 248 292 374 438
#     4  11  24  45  73 100 147 192 239 311 369 447
#     4  10  25  48  74 110 151 194 251 310 377 453
#     4  10  25  47  72 108 144 197 247 304 378 443
#
# _framework density 25.240003999999999
#
# number of rings (size 3 to 8) (size 9 to 14) (size 15 to 20)
#    0.000    1.455    0.000    2.727   12.727    6.545 
#    0.000    0.000    0.000    0.000    0.000    0.000 
#    0.000    0.000    0.000    0.000    0.000    0.000 
#
# Total GULP energy -61413.976648 kJ/mol
# GULP energy per Si atom -5583.088786 kJ/mol
# Density = 2.518256 g / cm^3
# Si number density = 25.240004 Si / 1000 Ang^3
#
#
#
# Elastic Constant Matrix: (Units=GPa)
#
#
# Indices 1 2 3 4 5 6 
#
# 1 39.3274 0.6960 -10.1976 0.0015 -6.0122 0.0010
# 2 0.6960 60.7868 21.0046 0.0059 -6.6757 0.0044
# 3 -10.1976 21.0046 106.1914 0.0063 -13.0538 0.0066
# 4 0.0015 0.0059 0.0063 18.5590 0.0046 -28.6625
# 5 -6.0122 -6.6757 -13.0538 0.0046 44.8722 0.0034
# 6 0.0010 0.0044 0.0066 -28.6625 0.0034 -11.2403
#
#
#
# Elastic Compliance Matrix: (Units=1/GPa)
#
#
# Indices 1 2 3 4 5 6 
#
# 1 0.026987 -0.000972 0.003330 0.000001 0.004440 0.000003
# 2 -0.000972 0.017814 -0.003430 0.000001 0.001522 0.000004
# 3 0.003330 -0.003430 0.010793 0.000001 0.003076 0.000003
# 4 0.000001 0.000001 0.000001 0.010911 0.000002 -0.027824
# 5 0.004440 0.001522 0.003076 0.000002 0.024002 0.000006
# 6 0.000003 0.000004 0.000003 -0.027824 0.000006 -0.018016
#
#
# Mechanical properties :
#
#
# Convention : Reuss Voigt Hill
#
# Bulk Modulus (GPa) = 18.70907 25.47908 22.09407
# Shear Modulus (GPa) = 54.08168 23.42503 38.75335
#
# Velocity S-wave (km/s) = 4.63395 3.04976 3.92266
# Velocity P-wave (km/s) = 6.00499 4.74532 5.41193
#
# Compressibility (1/GPa) = 0.05345003
#
# Stress axis : x y z
#
# Youngs Moduli (GPa) = 37.05504 56.13430 92.65070
#
# Poissons Ratio (x) = 0.05456 -0.30849
# Poissons Ratio (y) = 0.03602 0.31778
# Poissons Ratio (z) = -0.12338 0.19254
#
# Static dielectric constant tensor:
#      x y z
#    x 2.046020 0.000000 0.002500 
#    y 0.000000 2.057530 0.000000 
#    z 0.002500 0.000000 2.110140 
# 
# From -- ./inp_files/52912.got.cif
#   From: 2010.05.17/outbox.cif.g08.bks.cpg/sg5_27_cif.got.tgz:52912.got - 2010.06.03 18:56:24.
