data_PCOD9128344
_publ_section_title
;
Structure prediction by ZEFSAII (Michael W. Deem and Ramdas Pophale) SiO2 
 PCOD9128344
Probable space group: C 2
;
_chemical_formula_sum "Si O2"
_cell_formula_units_Z 18
_cell_length_a 23.228143
_cell_length_b 4.957642
_cell_length_c 11.344142
_cell_angle_alpha 90.000000
_cell_angle_beta 146.236047
_cell_angle_gamma 90.000000
_cell_volume 726.036607
_symmetry_space_group_name_H-M "C 2"
_symmetry_group_IT_number 5
_symmetry_cell_setting 'monoclinic'
loop_
_space_group_symop_operation_xyz
x,y,z
-x,y,-z
1/2+x,1/2+y,z
1/2-x,1/2+y,-z
loop_
_atom_site_type_symbol
_atom_site_label
_atom_site_fract_x
_atom_site_fract_y
_atom_site_fract_z
Si Si1 0.558630 0.176320 0.350357
Si Si2 0.000000 0.462144 0.500000
Si Si3 0.054778 0.175015 0.927314
Si Si4 0.231588 0.019429 0.393977
Si Si5 0.315713 0.632345 0.089845
O O1 0.515917 0.135290 0.409321
O O2 0.677685 0.091567 0.543828
O O3 0.536733 0.471532 0.263978
O O4 0.491598 0.972936 0.155047
O O5 0.098493 0.265822 0.680420
O O6 0.120077 0.096225 0.152544
O O7 0.135360 0.143567 0.956167
O O8 0.259621 0.210730 0.552277
O O9 0.281869 0.333768 0.067439
#
# Coordination Sequence:
#
# PCOD9128344 Si02
#       5
#     4   2   4   4   4
#     4  11  25  44  68  98 134 169 215 268 321 391
#     4  10  24  42  68 100 132 174 212 260 330 388
#     4  11  25  43  65  97 130 171 218 268 326 377
#     4  12  27  45  69  96 128 174 222 270 323 381
#     4  11  23  39  64  96 134 173 213 263 319 390
#
# _framework density 24.792138000000001
#
# number of rings (size 3 to 8) (size 9 to 14) (size 15 to 20)
#    0.000    0.889    0.000    6.667    0.000   18.667 
#    0.000    0.000    0.000    0.000    0.000    0.000 
#    0.000    0.000    0.000    0.000    0.000    0.000 
#
# Total GULP energy -50507.012190 kJ/mol
# GULP energy per Si atom -5611.890243 kJ/mol
# Density = 2.473571 g / cm^3
# Si number density = 24.792138 Si / 1000 Ang^3
#
#
#
# Elastic Constant Matrix: (Units=GPa)
#
#
# Indices 1 2 3 4 5 6 
#
# 1 78.5129 14.2481 9.0732 -0.0001 12.2006 0.0000
# 2 14.2481 69.7313 -4.8206 0.0002 0.4592 0.0000
# 3 9.0732 -4.8206 109.1990 0.0001 -5.3746 0.0001
# 4 -0.0001 0.0002 0.0001 39.9682 0.0000 8.4602
# 5 12.2006 0.4592 -5.3746 0.0000 37.7611 0.0000
# 6 0.0000 0.0000 0.0001 8.4602 0.0000 32.7530
#
#
#
# Elastic Compliance Matrix: (Units=1/GPa)
#
#
# Indices 1 2 3 4 5 6 
#
# 1 0.014197 -0.002976 -0.001546 0.000000 -0.004771 0.000000
# 2 -0.002976 0.015009 0.000955 0.000000 0.000915 0.000000
# 3 -0.001546 0.000955 0.009418 0.000000 0.001828 0.000000
# 4 0.000000 0.000000 0.000000 0.026467 0.000000 -0.006837
# 5 -0.004771 0.000915 0.001828 0.000000 0.028273 0.000000
# 6 0.000000 0.000000 0.000000 -0.006837 0.000000 0.032297
#
#
# Mechanical properties :
#
#
# Convention : Reuss Voigt Hill
#
# Bulk Modulus (GPa) = 31.75653 32.71608 32.23630
# Shear Modulus (GPa) = 34.89374 38.02595 36.45985
#
# Velocity S-wave (km/s) = 3.75567 3.92061 3.83903
# Velocity P-wave (km/s) = 5.62527 5.80687 5.71679
#
# Compressibility (1/GPa) = 0.03148958
#
# Stress axis : x y z
#
# Youngs Moduli (GPa) = 70.43795 66.62713 106.17770
#
# Poissons Ratio (x) = 0.19830 0.16413
# Poissons Ratio (y) = 0.20964 -0.10139
# Poissons Ratio (z) = 0.10888 -0.06362
#
# Static dielectric constant tensor:
#      x y z
#    x 1.970030 0.000000 0.010480 
#    y 0.000000 1.859100 0.000000 
#    z 0.010480 0.000000 1.946760 
# 
# From -- ./inp_files/37770.got.cif
#   From: 2010.05.17/outbox.cif.g08.bks.cpg/sg5_19_cif.got.tgz:37770.got - 2010.06.03 18:56:24.
