data_PCOD9128122
_publ_section_title
;
Structure prediction by ZEFSAII (Michael W. Deem and Ramdas Pophale) SiO2 
 PCOD9128122
Probable space group: C 2
;
_chemical_formula_sum "Si O2"
_cell_formula_units_Z 24
_cell_length_a 22.235378
_cell_length_b 5.397590
_cell_length_c 20.105889
_cell_angle_alpha 90.000000
_cell_angle_beta 25.701565
_cell_angle_gamma 90.000000
_cell_volume 1046.503744
_symmetry_space_group_name_H-M "C 2"
_symmetry_group_IT_number 5
_symmetry_cell_setting 'monoclinic'
loop_
_space_group_symop_operation_xyz
x,y,z
-x,y,-z
1/2+x,1/2+y,z
1/2-x,1/2+y,-z
loop_
_atom_site_type_symbol
_atom_site_label
_atom_site_fract_x
_atom_site_fract_y
_atom_site_fract_z
Si Si1 0.000000 0.895260 0.000000
Si Si2 0.000000 0.630899 0.500000
Si Si3 0.164137 0.074869 0.092656
Si Si4 0.952857 0.088833 0.184667
Si Si5 0.765282 0.286048 0.670656
Si Si6 0.757680 0.825496 0.532343
Si Si7 0.509861 0.425984 0.614107
O O1 0.978936 0.066699 0.955816
O O2 0.138251 0.736066 0.847887
O O3 0.127885 0.474574 0.401076
O O4 0.942122 0.787725 0.619902
O O5 0.232750 0.340401 0.010041
O O6 0.057099 0.021496 0.139189
O O7 0.090525 0.079351 0.238287
O O8 0.820169 0.910437 0.304420
O O9 0.873894 0.336436 0.286285
O O10 0.865619 0.076492 0.544313
O O11 0.723409 0.595108 0.518539
O O12 0.903328 0.753875 0.421979
#
# Coordination Sequence:
#
# PCOD9128122 Si02
#       7
#     2   2   4   4   4   4   4
#     4   8  22  46  76 112 150 206 258 320 380 468
#     4  12  26  44  76 114 152 208 266 320 398 458
#     4  12  32  48  77 114 158 207 256 330 396 464
#     4  10  23  46  79 107 157 202 261 317 394 460
#     4  10  24  48  75 110 158 205 259 324 385 471
#     4  12  25  45  81 114 147 198 264 322 386 467
#     4  12  27  46  77 113 154 205 262 327 390 471
#
# _framework density 22.933506999999999
#
# number of rings (size 3 to 8) (size 9 to 14) (size 15 to 20)
#    1.000    0.000    3.333    1.500    7.000    1.333 
#    0.000    3.333    0.000    0.000    0.000    0.000 
#    0.000    0.000    0.000    0.000    0.000    0.000 
#
# Total GULP energy -66930.278025 kJ/mol
# GULP energy per Si atom -5577.523169 kJ/mol
# Density = 2.288131 g / cm^3
# Si number density = 22.933507 Si / 1000 Ang^3
#
#
#
# Elastic Constant Matrix: (Units=GPa)
#
#
# Indices 1 2 3 4 5 6 
#
# 1 121.5596 17.7795 12.3916 -0.0801 -1.4417 0.0300
# 2 17.7795 59.2026 27.2087 -0.0489 2.2867 0.0255
# 3 12.3916 27.2087 128.3794 -0.1213 26.5186 0.0572
# 4 -0.0801 -0.0489 -0.1213 19.8081 0.0557 3.6074
# 5 -1.4417 2.2867 26.5186 0.0557 45.5837 -0.0260
# 6 0.0300 0.0255 0.0572 3.6074 -0.0260 29.3243
#
#
#
# Elastic Compliance Matrix: (Units=1/GPa)
#
#
# Indices 1 2 3 4 5 6 
#
# 1 0.008633 -0.002407 -0.000460 0.000026 0.000661 -0.000008
# 2 -0.002407 0.019483 -0.004182 0.000010 0.001379 -0.000006
# 3 -0.000460 -0.004182 0.009865 0.000069 -0.005544 -0.000029
# 4 0.000026 0.000010 0.000069 0.051642 -0.000107 -0.006353
# 5 0.000661 0.001379 -0.005544 -0.000107 0.025115 0.000044
# 6 -0.000008 -0.000006 -0.000029 -0.006353 0.000044 0.034883
#
#
# Mechanical properties :
#
#
# Convention : Reuss Voigt Hill
#
# Bulk Modulus (GPa) = 41.86834 47.10015 44.48425
# Shear Modulus (GPa) = 29.12405 35.72734 32.42570
#
# Velocity S-wave (km/s) = 3.56748 3.95126 3.76427
# Velocity P-wave (km/s) = 5.93846 6.43420 6.19129
#
# Compressibility (1/GPa) = 0.02388439
#
# Stress axis : x y z
#
# Youngs Moduli (GPa) = 115.83216 51.32792 101.36485
#
# Poissons Ratio (x) = 0.12354 0.04660
# Poissons Ratio (y) = 0.27880 0.42388
# Poissons Ratio (z) = 0.05325 0.21464
#
# Static dielectric constant tensor:
#      x y z
#    x 1.924700 0.000000 0.054580 
#    y 0.000000 1.887660 0.000030 
#    z 0.054580 0.000030 1.911710 
# 
# From -- ./inp_files/69836.got.cif
#   From: 2010.05.17/outbox.cif.g08.bks.cpg/sg5_35_cif.got.tgz:69836.got - 2010.06.03 18:56:24.
