data_PCOD9128509
_publ_section_title
;
Structure prediction by ZEFSAII (Michael W. Deem and Ramdas Pophale) SiO2 
 PCOD9128509
Probable space group: C 2
;
_chemical_formula_sum "Si O2"
_cell_formula_units_Z 14
_cell_length_a 7.479689
_cell_length_b 7.135302
_cell_length_c 10.605276
_cell_angle_alpha 90.000000
_cell_angle_beta 61.918397
_cell_angle_gamma 90.000000
_cell_volume 499.371041
_symmetry_space_group_name_H-M "C 2"
_symmetry_group_IT_number 5
_symmetry_cell_setting 'monoclinic'
loop_
_space_group_symop_operation_xyz
x,y,z
-x,y,-z
1/2+x,1/2+y,z
1/2-x,1/2+y,-z
loop_
_atom_site_type_symbol
_atom_site_label
_atom_site_fract_x
_atom_site_fract_y
_atom_site_fract_z
Si Si1 0.508232 0.150720 0.637617
Si Si2 0.156030 0.235493 0.283758
Si Si3 0.000000 0.595134 0.000000
Si Si4 0.087699 0.228025 0.847719
O O1 0.500000 0.233782 0.500000
O O2 0.725326 0.161970 0.633403
O O3 0.328269 0.251061 0.776401
O O4 0.428041 0.938606 0.654902
O O5 0.322486 0.219310 0.115628
O O6 0.969571 0.141980 0.268395
O O7 0.013822 0.435371 0.105285
O O8 0.000000 0.126263 0.000000
#
# Coordination Sequence:
#
# PCOD9128509 Si02
#       4
#     4   4   2   4
#     4  12  30  47  77 114 158 213 259 322 391 474
#     4  12  26  49  77 115 157 206 261 326 392 465
#     4  10  24  44  82 120 150 202 260 330 386 468
#     4  10  25  47  78 117 150 206 258 330 391 464
#
# _framework density 28.035269
#
# number of rings (size 3 to 8) (size 9 to 14) (size 15 to 20)
#    0.857    0.000    2.857    1.714   10.000    0.000 
#    0.000    1.429    0.000    0.000    0.000    0.000 
#    0.000    0.000    0.000    0.000    0.000    0.000 
#
# Total GULP energy -39074.782097 kJ/mol
# GULP energy per Si atom -5582.111728 kJ/mol
# Density = 2.797146 g / cm^3
# Si number density = 28.035269 Si / 1000 Ang^3
#
#
#
# Elastic Constant Matrix: (Units=GPa)
#
#
# Indices 1 2 3 4 5 6 
#
# 1 203.5980 54.3275 29.9659 0.0000 43.9931 0.0000
# 2 54.3275 103.7867 13.7444 0.0000 4.3212 0.0000
# 3 29.9659 13.7444 115.4941 0.0000 22.9790 0.0000
# 4 0.0000 0.0000 0.0000 24.0024 0.0000 -10.0490
# 5 43.9931 4.3212 22.9790 0.0000 38.7944 0.0000
# 6 0.0000 0.0000 0.0000 -10.0490 0.0000 49.8078
#
#
#
# Elastic Compliance Matrix: (Units=1/GPa)
#
#
# Indices 1 2 3 4 5 6 
#
# 1 0.007690 -0.003691 0.000110 0.000000 -0.008375 0.000000
# 2 -0.003691 0.011568 -0.001128 0.000000 0.003566 0.000000
# 3 0.000110 -0.001128 0.009935 0.000000 -0.005884 0.000000
# 4 0.000000 0.000000 0.000000 0.045506 0.000000 0.009181
# 5 -0.008375 0.003566 -0.005884 0.000000 0.038362 0.000000
# 6 0.000000 0.000000 0.000000 0.009181 0.000000 0.021930
#
#
# Mechanical properties :
#
#
# Convention : Reuss Voigt Hill
#
# Bulk Modulus (GPa) = 50.57054 68.77271 59.67162
# Shear Modulus (GPa) = 33.11236 44.17699 38.64468
#
# Velocity S-wave (km/s) = 3.44044 3.97390 3.71675
# Velocity P-wave (km/s) = 5.81889 6.75573 6.30473
#
# Compressibility (1/GPa) = 0.01977436
#
# Stress axis : x y z
#
# Youngs Moduli (GPa) = 130.04024 86.44304 100.65593
#
# Poissons Ratio (x) = 0.31908 -0.01110
# Poissons Ratio (y) = 0.48001 0.11358
# Poissons Ratio (z) = -0.01434 0.09754
#
# Static dielectric constant tensor:
#      x y z
#    x 2.307420 0.000000 0.096190 
#    y 0.000000 2.257340 0.000000 
#    z 0.096190 0.000000 2.318560 
# 
# From -- ./inp_files/34602.got.cif
#   From: 2010.05.17/outbox.cif.g08.bks.cpg/sg5_18_cif.got.tgz:34602.got - 2010.06.03 18:56:24.
