data_PCOD9128733
_publ_section_title
;
Structure prediction by ZEFSAII (Michael W. Deem and Ramdas Pophale) SiO2 
 PCOD9128733
Probable space group: C 2
;
_chemical_formula_sum "Si O2"
_cell_formula_units_Z 14
_cell_length_a 5.759242
_cell_length_b 19.549416
_cell_length_c 7.571729
_cell_angle_alpha 90.000000
_cell_angle_beta 44.921557
_cell_angle_gamma 90.000000
_cell_volume 601.982377
_symmetry_space_group_name_H-M "C 2"
_symmetry_group_IT_number 5
_symmetry_cell_setting 'monoclinic'
loop_
_space_group_symop_operation_xyz
x,y,z
-x,y,-z
1/2+x,1/2+y,z
1/2-x,1/2+y,-z
loop_
_atom_site_type_symbol
_atom_site_label
_atom_site_fract_x
_atom_site_fract_y
_atom_site_fract_z
Si Si1 0.362793 0.316660 0.871805
Si Si2 0.000000 0.447714 0.000000
Si Si3 0.376291 0.179009 0.271400
Si Si4 0.374437 0.038289 0.755747
O O1 0.589498 0.256304 0.673192
O O2 0.310233 0.395566 0.847785
O O3 0.500000 0.320719 0.000000
O O4 0.000000 0.290226 0.000000
O O5 0.066034 0.497412 0.802273
O O6 0.582878 0.119810 0.251974
O O7 0.000000 0.158383 0.500000
O O8 0.500000 0.179595 0.000000
O O9 0.500000 0.015436 0.500000
O O10 0.000000 0.022042 0.000000
#
# Coordination Sequence:
#
# PCOD9128733 Si02
#       4
#     4   2   4   4
#     4   9  21  45  77 110 155 201 254 315 389 456
#     4  10  24  48  78 112 162 200 256 328 386 474
#     4  11  23  46  77 112 151 201 261 321 383 460
#     4  12  26  46  80 113 154 204 262 319 394 463
#
# _framework density 23.256492999999999
#
# number of rings (size 3 to 8) (size 9 to 14) (size 15 to 20)
#    0.857    0.571    1.429    3.429    0.000    2.286 
#    0.000   18.571    0.000    0.000    0.000    0.000 
#    0.000    0.000    0.000    0.000    0.000    0.000 
#
# Total GULP energy -38976.401966 kJ/mol
# GULP energy per Si atom -5568.057424 kJ/mol
# Density = 2.320356 g / cm^3
# Si number density = 23.256493 Si / 1000 Ang^3
#
#
#
# Elastic Constant Matrix: (Units=GPa)
#
#
# Indices 1 2 3 4 5 6 
#
# 1 111.0996 28.5595 39.2194 0.0000 18.1935 0.0000
# 2 28.5595 134.4399 11.1308 0.0000 22.4967 0.0000
# 3 39.2194 11.1308 126.1639 0.0000 15.0402 0.0000
# 4 0.0000 0.0000 0.0000 17.8105 0.0000 -42.9395
# 5 18.1935 22.4967 15.0402 0.0000 46.7853 0.0000
# 6 0.0000 0.0000 0.0000 -42.9395 0.0000 47.7496
#
#
#
# Elastic Compliance Matrix: (Units=1/GPa)
#
#
# Indices 1 2 3 4 5 6 
#
# 1 0.010869 -0.001649 -0.002937 0.000000 -0.002490 0.000000
# 2 -0.001649 0.008348 0.000185 0.000000 -0.003432 0.000000
# 3 -0.002937 0.000185 0.009044 0.000000 -0.001855 0.000000
# 4 0.000000 0.000000 0.000000 -0.048069 0.000000 -0.043227
# 5 -0.002490 -0.003432 -0.001855 0.000000 0.024589 0.000000
# 6 0.000000 0.000000 0.000000 -0.043227 0.000000 -0.017930
#
#
# Mechanical properties :
#
#
# Convention : Reuss Voigt Hill
#
# Bulk Modulus (GPa) = 51.38788 58.83588 55.11188
# Shear Modulus (GPa) = 2338.20948 41.98864 1190.09906
#
# Velocity S-wave (km/s) = 31.74245 4.25368 22.64594
# Velocity P-wave (km/s) = 36.95387 7.03411 26.59950
#
# Compressibility (1/GPa) = 0.01945984
#
# Stress axis : x y z
#
# Youngs Moduli (GPa) = 92.00286 119.79482 110.57333
#
# Poissons Ratio (x) = 0.19757 0.32470
# Poissons Ratio (y) = 0.15174 -0.02050
# Poissons Ratio (z) = 0.27017 -0.02221
#
# Static dielectric constant tensor:
#      x y z
#    x 1.911360 0.000000 0.014350 
#    y 0.000000 1.837730 0.000000 
#    z 0.014350 0.000000 1.770870 
# 
# From -- ./inp_files/411.got.cif
#   From: 2010.05.17/outbox.cif.g08.bks.cpg/sg5_1_cif.got.tgz:411.got - 2010.06.03 18:56:24.
