data_PCOD9128207
_publ_section_title
;
Structure prediction by ZEFSAII (Michael W. Deem and Ramdas Pophale) SiO2 
 PCOD9128207
Probable space group: C 2
;
_chemical_formula_sum "Si O2"
_cell_formula_units_Z 14
_cell_length_a 7.830589
_cell_length_b 13.227529
_cell_length_c 5.508302
_cell_angle_alpha 90.000000
_cell_angle_beta 90.981434
_cell_angle_gamma 90.000000
_cell_volume 570.462602
_symmetry_space_group_name_H-M "C 2"
_symmetry_group_IT_number 5
_symmetry_cell_setting 'monoclinic'
loop_
_space_group_symop_operation_xyz
x,y,z
-x,y,-z
1/2+x,1/2+y,z
1/2-x,1/2+y,-z
loop_
_atom_site_type_symbol
_atom_site_label
_atom_site_fract_x
_atom_site_fract_y
_atom_site_fract_z
Si Si1 0.813331 0.395720 0.381590
Si Si2 0.000000 0.639539 0.000000
Si Si3 0.500000 0.769783 0.000000
Si Si4 0.500000 0.262586 0.500000
Si Si5 0.344193 0.572459 0.855056
O O1 0.672445 0.327525 0.504350
O O2 0.722658 0.504472 0.362239
O O3 0.000000 0.405509 0.500000
O O4 0.859929 0.338904 0.127831
O O5 0.175982 0.578642 0.015870
O O6 0.004823 0.700101 0.749228
O O7 0.414070 0.686493 0.815786
O O8 0.500000 0.520010 0.000000
#
# Coordination Sequence:
#
# PCOD9128207 Si02
#       5
#     4   2   2   2   4
#     4  12  27  49  82 116 161 214 276 341 413 491
#     4  12  25  51  80 118 158 224 269 339 418 492
#     4  10  23  55  76 108 166 208 265 337 406 494
#     4  12  28  48  86 114 166 214 278 338 422 484
#     4  10  25  48  78 113 161 207 277 327 412 483
#
# _framework density 24.541485999999999
#
# number of rings (size 3 to 8) (size 9 to 14) (size 15 to 20)
#    0.857    0.000    2.857    2.571    4.000    2.286 
#    7.714    0.000    0.000    0.000    0.000    0.000 
#    0.000    0.000    0.000    0.000    0.000    0.000 
#
# Total GULP energy -39116.136005 kJ/mol
# GULP energy per Si atom -5588.019429 kJ/mol
# Density = 2.448563 g / cm^3
# Si number density = 24.541486 Si / 1000 Ang^3
#
#
#
# Elastic Constant Matrix: (Units=GPa)
#
#
# Indices 1 2 3 4 5 6 
#
# 1 208.2674 37.0271 38.4949 0.0000 24.5511 0.0000
# 2 37.0271 96.7924 40.9784 0.0000 17.6486 0.0000
# 3 38.4949 40.9784 97.3549 0.0000 9.9831 0.0000
# 4 0.0000 0.0000 0.0000 24.9483 0.0000 -2.7098
# 5 24.5511 17.6486 9.9831 0.0000 43.8199 0.0000
# 6 0.0000 0.0000 0.0000 -2.7098 0.0000 58.3516
#
#
#
# Elastic Compliance Matrix: (Units=1/GPa)
#
#
# Indices 1 2 3 4 5 6 
#
# 1 0.005543 -0.001056 -0.001508 0.000000 -0.002337 0.000000
# 2 -0.001056 0.013478 -0.004873 0.000000 -0.003726 0.000000
# 3 -0.001508 -0.004873 0.012933 0.000000 -0.000139 0.000000
# 4 0.000000 0.000000 0.000000 0.040286 0.000000 0.001871
# 5 -0.002337 -0.003726 -0.000139 0.000000 0.025662 0.000000
# 6 0.000000 0.000000 0.000000 0.001871 0.000000 0.017224
#
#
# Mechanical properties :
#
#
# Convention : Reuss Voigt Hill
#
# Bulk Modulus (GPa) = 58.54696 70.60173 64.57435
# Shear Modulus (GPa) = 36.84706 44.48492 40.66599
#
# Velocity S-wave (km/s) = 3.87902 4.26213 4.07508
# Velocity P-wave (km/s) = 6.63103 7.28367 6.96499
#
# Compressibility (1/GPa) = 0.01708031
#
# Stress axis : x y z
#
# Youngs Moduli (GPa) = 180.39275 74.19443 77.31899
#
# Poissons Ratio (x) = 0.07836 0.11658
# Poissons Ratio (y) = 0.19053 0.37681
# Poissons Ratio (z) = 0.27198 0.36158
#
# Static dielectric constant tensor:
#      x y z
#    x 1.910310 0.000000 0.028810 
#    y 0.000000 1.962760 0.000000 
#    z 0.028810 0.000000 1.983100 
# 
# From -- ./inp_files/1522.got.cif
#   From: 2010.05.17/outbox.cif.g08.bks.cpg/sg5_1_cif.got.tgz:1522.got - 2010.06.03 18:56:24.
