data_PCOD9128918
_publ_section_title
;
Structure prediction by ZEFSAII (Michael W. Deem and Ramdas Pophale) SiO2 
 PCOD9128918
Probable space group: C 2
;
_chemical_formula_sum "Si O2"
_cell_formula_units_Z 10
_cell_length_a 14.093188
_cell_length_b 4.819683
_cell_length_c 14.673667
_cell_angle_alpha 90.000000
_cell_angle_beta 158.189483
_cell_angle_gamma 90.000000
_cell_volume 370.313820
_symmetry_space_group_name_H-M "C 2"
_symmetry_group_IT_number 5
_symmetry_cell_setting 'monoclinic'
loop_
_space_group_symop_operation_xyz
x,y,z
-x,y,-z
1/2+x,1/2+y,z
1/2-x,1/2+y,-z
loop_
_atom_site_type_symbol
_atom_site_label
_atom_site_fract_x
_atom_site_fract_y
_atom_site_fract_z
Si Si1 0.549338 0.268660 0.209390
Si Si2 0.767893 0.770336 0.133755
Si Si3 0.000000 0.102770 0.500000
O O1 0.508607 0.316088 0.280384
O O2 0.824597 0.288374 0.409699
O O3 0.348268 0.464206 0.976243
O O4 0.453455 0.956968 0.108346
O O5 0.831412 0.901175 0.286720
#
# Coordination Sequence:
#
# PCOD9128918 Si02
#       3
#     4   4   2
#     4  10  25  48  71 104 147 185 233 295 353 419
#     4  10  25  48  71 104 147 185 233 295 353 419
#     4  12  26  46  80 106 136 194 242 286 356 422
#
# _framework density 27.004121999999999
#
# number of rings (size 3 to 8) (size 9 to 14) (size 15 to 20)
#    0.000    1.600    0.000    1.200    0.000   22.400 
#    0.000    8.000    0.000    0.000    0.000    0.000 
#    0.000    0.000    0.000    0.000    0.000    0.000 
#
# Total GULP energy -28059.662612 kJ/mol
# GULP energy per Si atom -5611.932522 kJ/mol
# Density = 2.694266 g / cm^3
# Si number density = 27.004122 Si / 1000 Ang^3
#
#
#
# Elastic Constant Matrix: (Units=GPa)
#
#
# Indices 1 2 3 4 5 6 
#
# 1 184.8552 29.1711 30.4175 0.0000 43.5482 0.0000
# 2 29.1711 75.1480 15.1080 -0.0001 14.1824 0.0000
# 3 30.4175 15.1080 65.2665 0.0003 12.0881 0.0001
# 4 0.0000 -0.0001 0.0003 24.3909 0.0002 6.3075
# 5 43.5482 14.1824 12.0881 0.0002 63.7874 0.0000
# 6 0.0000 0.0000 0.0001 6.3075 0.0000 35.0635
#
#
#
# Elastic Compliance Matrix: (Units=1/GPa)
#
#
# Indices 1 2 3 4 5 6 
#
# 1 0.006943 -0.001509 -0.002146 0.000000 -0.003998 0.000000
# 2 -0.001509 0.014707 -0.002369 0.000000 -0.001791 0.000000
# 3 -0.002146 -0.002369 0.017102 0.000000 -0.001249 0.000000
# 4 0.000000 0.000000 0.000000 0.042999 0.000000 -0.007735
# 5 -0.003998 -0.001791 -0.001249 0.000000 0.019041 0.000000
# 6 0.000000 0.000000 0.000000 -0.007735 0.000000 0.029911
#
#
# Mechanical properties :
#
#
# Convention : Reuss Voigt Hill
#
# Bulk Modulus (GPa) = 37.44958 52.74034 45.09496
# Shear Modulus (GPa) = 32.97006 41.35326 37.16166
#
# Velocity S-wave (km/s) = 3.49797 3.91752 3.71367
# Velocity P-wave (km/s) = 5.49660 6.32736 5.92655
#
# Compressibility (1/GPa) = 0.02670257
#
# Stress axis : x y z
#
# Youngs Moduli (GPa) = 144.03737 67.99392 58.47373
#
# Poissons Ratio (x) = 0.10261 0.12548
# Poissons Ratio (y) = 0.21737 0.13855
# Poissons Ratio (z) = 0.30909 0.16111
#
# Static dielectric constant tensor:
#      x y z
#    x 2.093540 0.000000 0.066690 
#    y 0.000000 2.001200 0.000000 
#    z 0.066690 0.000000 2.067740 
# 
# From -- ./inp_files/207.got.cif
#   From: 2010.05.17/outbox.cif.g08.bks.cpg/sg5_1_cif.got.tgz:207.got - 2010.06.03 18:56:24.
