data_PCOD9128378
_publ_section_title
;
Structure prediction by ZEFSAII (Michael W. Deem and Ramdas Pophale) SiO2 
 PCOD9128378
Probable space group: C 2
;
_chemical_formula_sum "Si O2"
_cell_formula_units_Z 20
_cell_length_a 12.262257
_cell_length_b 12.955087
_cell_length_c 5.166076
_cell_angle_alpha 90.000000
_cell_angle_beta 76.577914
_cell_angle_gamma 90.000000
_cell_volume 798.260087
_symmetry_space_group_name_H-M "C 2"
_symmetry_group_IT_number 5
_symmetry_cell_setting 'monoclinic'
loop_
_space_group_symop_operation_xyz
x,y,z
-x,y,-z
1/2+x,1/2+y,z
1/2-x,1/2+y,-z
loop_
_atom_site_type_symbol
_atom_site_label
_atom_site_fract_x
_atom_site_fract_y
_atom_site_fract_z
Si Si1 0.116627 0.855630 0.285954
Si Si2 0.160239 0.230218 0.693696
Si Si3 0.500000 0.220089 0.000000
Si Si4 0.911636 0.525660 0.242682
Si Si5 0.178177 0.085743 0.181601
Si Si6 0.500000 0.870724 0.500000
O O1 0.232022 0.808275 0.340963
O O2 0.101382 0.791700 0.029553
O O3 0.000000 0.834246 0.500000
O O4 0.112472 0.977990 0.234636
O O5 0.170003 0.155362 0.441709
O O6 0.046825 0.292907 0.690939
O O7 0.156678 0.156883 0.946058
O O8 0.461693 0.139997 0.242527
O O9 0.803540 0.542184 0.131472
O O10 0.902597 0.458995 0.507854
O O11 0.000000 0.471833 0.000000
#
# Coordination Sequence:
#
# PCOD9128378 Si02
#       6
#     4   4   2   4   4   2
#     4  12  28  49  80 116 161 216 273 335 410 485
#     4  12  30  51  80 115 163 209 268 337 410 479
#     4  10  24  42  80 106 156 200 276 328 392 464
#     4  10  24  46  76 113 153 207 276 327 384 483
#     4  12  29  50  79 118 158 211 267 335 407 487
#     4  12  28  48  80 114 160 214 262 336 404 486
#
# _framework density 25.054489
#
# number of rings (size 3 to 8) (size 9 to 14) (size 15 to 20)
#    0.600    0.000    4.000    1.200   14.000    0.000 
#    0.000    0.000    0.000    0.000    0.000    0.000 
#    0.000    0.000    0.000    0.000    0.000    0.000 
#
# Total GULP energy -55715.624678 kJ/mol
# GULP energy per Si atom -5571.562468 kJ/mol
# Density = 2.499746 g / cm^3
# Si number density = 25.054489 Si / 1000 Ang^3
#
#
#
# Elastic Constant Matrix: (Units=GPa)
#
#
# Indices 1 2 3 4 5 6 
#
# 1 112.0539 74.9620 59.7957 0.0000 34.6242 0.0000
# 2 74.9620 202.1790 100.8644 0.0000 22.4350 0.0000
# 3 59.7957 100.8644 160.6959 0.0000 33.1135 0.0000
# 4 0.0000 0.0000 0.0000 47.2374 0.0000 25.5065
# 5 34.6242 22.4350 33.1135 0.0000 42.6110 0.0000
# 6 0.0000 0.0000 0.0000 25.5065 0.0000 44.9129
#
#
#
# Elastic Compliance Matrix: (Units=1/GPa)
#
#
# Indices 1 2 3 4 5 6 
#
# 1 0.015070 -0.003952 -0.001229 0.000000 -0.009209 0.000000
# 2 -0.003952 0.008242 -0.004132 0.000000 0.002083 0.000000
# 3 -0.001229 -0.004132 0.010263 0.000000 -0.004801 0.000000
# 4 0.000000 0.000000 0.000000 0.030532 0.000000 -0.017340
# 5 -0.009209 0.002083 -0.004801 0.000000 0.033586 0.000000
# 6 0.000000 0.000000 0.000000 -0.017340 0.000000 0.032113
#
#
# Mechanical properties :
#
#
# Convention : Reuss Voigt Hill
#
# Bulk Modulus (GPa) = 66.89715 105.13033 86.01374
# Shear Modulus (GPa) = 32.59157 42.90605 37.74881
#
# Velocity S-wave (km/s) = 3.61061 4.14274 3.88579
# Velocity P-wave (km/s) = 6.64384 8.05821 7.38497
#
# Compressibility (1/GPa) = 0.01494832
#
# Stress axis : x y z
#
# Youngs Moduli (GPa) = 66.35787 121.33633 97.43798
#
# Poissons Ratio (x) = 0.47956 0.11976
# Poissons Ratio (y) = 0.26227 0.40257
# Poissons Ratio (z) = 0.08156 0.50131
#
# Static dielectric constant tensor:
#      x y z
#    x 2.158190 0.000000 -0.084210 
#    y 0.000000 2.031910 0.000000 
#    z -0.084210 0.000000 2.248940 
# 
# From -- ./inp_files/4465.got.cif
#   From: 2010.05.17/outbox.cif.g08.bks.cpg/sg5_3_cif.got.tgz:4465.got - 2010.06.03 18:56:24.
