data_PCOD9128454
_publ_section_title
;
Structure prediction by ZEFSAII (Michael W. Deem and Ramdas Pophale) SiO2 
 PCOD9128454
Probable space group: C 2
;
_chemical_formula_sum "Si O2"
_cell_formula_units_Z 20
_cell_length_a 27.422287
_cell_length_b 5.647218
_cell_length_c 4.944485
_cell_angle_alpha 90.000000
_cell_angle_beta 90.835390
_cell_angle_gamma 90.000000
_cell_volume 765.619744
_symmetry_space_group_name_H-M "C 2"
_symmetry_group_IT_number 5
_symmetry_cell_setting 'monoclinic'
loop_
_space_group_symop_operation_xyz
x,y,z
-x,y,-z
1/2+x,1/2+y,z
1/2-x,1/2+y,-z
loop_
_atom_site_type_symbol
_atom_site_label
_atom_site_fract_x
_atom_site_fract_y
_atom_site_fract_z
Si Si1 0.808718 0.400990 0.185095
Si Si2 0.110884 0.848907 0.115899
Si Si3 0.411815 0.836259 0.964711
Si Si4 0.966976 0.988856 0.241503
Si Si5 0.290459 0.179910 0.680817
O O1 0.863614 0.320268 0.149728
O O2 0.765623 0.251644 0.313257
O O3 0.808013 0.628268 0.381070
O O4 0.792958 0.454078 0.877785
O O5 0.168732 0.846862 0.175094
O O6 0.092581 0.584577 0.189554
O O7 0.091653 0.101348 0.226348
O O8 0.085855 0.866689 0.812510
O O9 0.456086 0.765003 0.165055
O O10 0.000000 0.953939 0.500000
O O11 0.000000 0.890307 0.000000
#
# Coordination Sequence:
#
# PCOD9128454 Si02
#       5
#     4   4   4   4   4
#     4  11  23  41  66 101 142 187 232 281 345 415
#     4   9  22  44  68 101 136 182 226 288 337 413
#     4   9  22  44  68 101 136 182 226 288 337 413
#     4  10  24  44  70 102 136 182 232 288 346 404
#     4  11  23  41  66 101 142 187 232 281 345 415
#
# _framework density 26.122627999999999
#
# number of rings (size 3 to 8) (size 9 to 14) (size 15 to 20)
#    1.200    0.800    0.000    2.400    0.000   11.200 
#    3.600    0.000    0.000    0.000    0.000    0.000 
#    0.000    0.000    0.000    0.000    0.000    0.000 
#
# Total GULP energy -55677.346515 kJ/mol
# GULP energy per Si atom -5567.734652 kJ/mol
# Density = 2.606317 g / cm^3
# Si number density = 26.122628 Si / 1000 Ang^3
#
#
#
# Elastic Constant Matrix: (Units=GPa)
#
#
# Indices 1 2 3 4 5 6 
#
# 1 132.7753 9.1537 41.6783 0.0000 17.4571 0.0000
# 2 9.1537 124.5032 13.3739 0.0000 0.7321 0.0000
# 3 41.6783 13.3739 106.4841 0.0000 24.8030 0.0000
# 4 0.0000 0.0000 0.0000 26.5385 0.0000 14.5558
# 5 17.4571 0.7321 24.8030 0.0000 22.3124 0.0000
# 6 0.0000 0.0000 0.0000 14.5558 0.0000 51.3932
#
#
#
# Elastic Compliance Matrix: (Units=1/GPa)
#
#
# Indices 1 2 3 4 5 6 
#
# 1 0.008879 -0.000365 -0.002448 0.000000 -0.004214 0.000000
# 2 -0.000365 0.008180 -0.001199 0.000000 0.001350 0.000000
# 3 -0.002448 -0.001199 0.013554 0.000000 -0.013112 0.000000
# 4 0.000000 0.000000 0.000000 0.044611 0.000000 -0.012635
# 5 -0.004214 0.001350 -0.013112 0.000000 0.062647 0.000000
# 6 0.000000 0.000000 0.000000 -0.012635 0.000000 0.023036
#
#
# Mechanical properties :
#
#
# Convention : Reuss Voigt Hill
#
# Bulk Modulus (GPa) = 44.26948 54.68606 49.47777
# Shear Modulus (GPa) = 28.33495 40.01925 34.17710
#
# Velocity S-wave (km/s) = 3.29704 3.91829 3.62101
# Velocity P-wave (km/s) = 5.61048 6.43821 6.03854
#
# Compressibility (1/GPa) = 0.02258893
#
# Stress axis : x y z
#
# Youngs Moduli (GPa) = 112.62361 122.25526 73.77893
#
# Poissons Ratio (x) = 0.04463 0.18061
# Poissons Ratio (y) = 0.04112 0.08845
# Poissons Ratio (z) = 0.27570 0.14657
#
# Static dielectric constant tensor:
#      x y z
#    x 2.113600 0.000000 0.024620 
#    y 0.000000 2.185340 0.000000 
#    z 0.024620 0.000000 2.024950 
# 
# From -- ./inp_files/11036.got.cif
#   From: 2010.05.17/outbox.cif.g08.bks.cpg/sg5_6_cif.got.tgz:11036.got - 2010.06.03 18:56:24.
