data_PCOD9128960
_publ_section_title
;
Structure prediction by ZEFSAII (Michael W. Deem and Ramdas Pophale) SiO2 
 PCOD9128960
Probable space group: C 2
;
_chemical_formula_sum "Si O2"
_cell_formula_units_Z 20
_cell_length_a 14.042719
_cell_length_b 5.058854
_cell_length_c 19.565734
_cell_angle_alpha 90.000000
_cell_angle_beta 31.267110
_cell_angle_gamma 90.000000
_cell_volume 721.424239
_symmetry_space_group_name_H-M "C 2"
_symmetry_group_IT_number 5
_symmetry_cell_setting 'monoclinic'
loop_
_space_group_symop_operation_xyz
x,y,z
-x,y,-z
1/2+x,1/2+y,z
1/2-x,1/2+y,-z
loop_
_atom_site_type_symbol
_atom_site_label
_atom_site_fract_x
_atom_site_fract_y
_atom_site_fract_z
Si Si1 0.968913 0.419650 0.357447
Si Si2 0.135066 0.673774 0.862382
Si Si3 0.872923 0.916588 0.923797
Si Si4 0.813643 0.991141 0.358143
Si Si5 0.374013 0.301595 0.636031
O O1 0.817596 0.339909 0.508754
O O2 0.172438 0.291717 0.230206
O O3 0.020718 0.706970 0.359840
O O4 0.873008 0.279050 0.351518
O O5 0.202534 0.472190 0.763521
O O6 0.002279 0.889535 0.910199
O O7 0.000000 0.540473 0.000000
O O8 0.999315 0.853915 0.780259
O O9 0.714693 0.702061 0.027233
O O10 0.698652 0.046963 0.360344
O O11 0.500000 0.431965 0.500000
#
# Coordination Sequence:
#
# PCOD9128960 Si02
#       5
#     4   4   4   4   4
#     4  11  27  49  77 127 153 222 282 349 425 506
#     4  12  28  50  79 118 168 224 281 359 425 513
#     4  12  28  54  83 120 170 232 280 352 437 511
#     4  11  26  51  82 119 167 218 286 352 426 519
#     4  10  25  51  79 117 168 220 284 352 424 504
#
# _framework density 27.722937999999999
#
# number of rings (size 3 to 8) (size 9 to 14) (size 15 to 20)
#    0.000    0.800    2.000    2.400    8.400    4.000 
#   10.800    0.000    0.000    0.000    0.000    0.000 
#    0.000    0.000    0.000    0.000    0.000    0.000 
#
# Total GULP energy -55938.915439 kJ/mol
# GULP energy per Si atom -5593.891544 kJ/mol
# Density = 2.765984 g / cm^3
# Si number density = 27.722938 Si / 1000 Ang^3
#
#
#
# Elastic Constant Matrix: (Units=GPa)
#
#
# Indices 1 2 3 4 5 6 
#
# 1 114.6449 12.5413 26.1713 -0.0016 -19.5349 0.0012
# 2 12.5413 73.1863 29.2366 -0.0088 2.9916 0.0064
# 3 26.1713 29.2366 252.5344 -0.0021 11.4381 0.0023
# 4 -0.0016 -0.0088 -0.0021 47.2845 0.0016 3.3944
# 5 -19.5349 2.9916 11.4381 0.0016 48.5090 -0.0009
# 6 0.0012 0.0064 0.0023 3.3944 -0.0009 35.8360
#
#
#
# Elastic Compliance Matrix: (Units=1/GPa)
#
#
# Indices 1 2 3 4 5 6 
#
# 1 0.009854 -0.001446 -0.001049 0.000000 0.004305 0.000000
# 2 -0.001446 0.014550 -0.001484 0.000003 -0.001130 -0.000003
# 3 -0.001049 -0.001484 0.004301 0.000000 -0.001345 0.000000
# 4 0.000000 0.000003 0.000000 0.021293 -0.000001 -0.002017
# 5 0.004305 -0.001130 -0.001345 -0.000001 0.022735 0.000001
# 6 0.000000 -0.000003 0.000000 -0.002017 0.000001 0.028096
#
#
# Mechanical properties :
#
#
# Convention : Reuss Voigt Hill
#
# Bulk Modulus (GPa) = 48.19416 64.02936 56.11176
# Shear Modulus (GPa) = 43.21457 51.15364 47.18410
#
# Velocity S-wave (km/s) = 3.95245 4.30021 4.12999
# Velocity P-wave (km/s) = 6.18475 6.91390 6.55946
#
# Compressibility (1/GPa) = 0.02074940
#
# Stress axis : x y z
#
# Youngs Moduli (GPa) = 101.48563 68.72710 232.49188
#
# Poissons Ratio (x) = 0.09935 0.24384
# Poissons Ratio (y) = 0.14670 0.34492
# Poissons Ratio (z) = 0.10644 0.10196
#
# Static dielectric constant tensor:
#      x y z
#    x 2.152280 0.000000 0.017920 
#    y 0.000000 2.129960 0.000000 
#    z 0.017920 0.000000 2.148840 
# 
# From -- ./inp_files/65610.got.cif
#   From: 2010.05.17/outbox.cif.g08.bks.cpg/sg5_33_cif.got.tgz:65610.got - 2010.06.03 18:56:24.
