data_PCOD9128633
_publ_section_title
;
Structure prediction by ZEFSAII (Michael W. Deem and Ramdas Pophale) SiO2 
 PCOD9128633
Probable space group: C 2
;
_chemical_formula_sum "Si O2"
_cell_formula_units_Z 20
_cell_length_a 13.424478
_cell_length_b 4.771079
_cell_length_c 13.489207
_cell_angle_alpha 90.000000
_cell_angle_beta 60.279582
_cell_angle_gamma 90.000000
_cell_volume 750.322039
_symmetry_space_group_name_H-M "C 2"
_symmetry_group_IT_number 5
_symmetry_cell_setting 'monoclinic'
loop_
_space_group_symop_operation_xyz
x,y,z
-x,y,-z
1/2+x,1/2+y,z
1/2-x,1/2+y,-z
loop_
_atom_site_type_symbol
_atom_site_label
_atom_site_fract_x
_atom_site_fract_y
_atom_site_fract_z
Si Si1 0.000000 0.431440 0.500000
Si Si2 0.829855 0.065594 0.461086
Si Si3 0.121662 0.627916 0.251198
Si Si4 0.000000 0.883609 0.000000
Si Si5 0.049023 0.269665 0.787211
Si Si6 0.217839 0.623377 0.824927
O O1 0.100307 0.221872 0.487201
O O2 0.042876 0.620769 0.387669
O O3 0.273937 0.919273 0.773834
O O4 0.718288 0.259328 0.495400
O O5 0.910808 0.081903 0.324958
O O6 0.050210 0.476306 0.200913
O O7 0.180102 0.918249 0.192561
O O8 0.386748 0.191289 0.049676
O O9 0.014204 0.079602 0.897152
O O10 0.155244 0.468028 0.765652
#
# Coordination Sequence:
#
# PCOD9128633 Si02
#       6
#     2   4   4   2   4   4
#     4  10  24  46  74 120 146 196 246 312 380 474
#     4  11  25  44  78 110 151 196 247 311 387 451
#     4  11  27  47  82 111 157 196 256 315 394 458
#     4  12  28  54  78 110 164 208 264 326 372 464
#     4  11  27  51  76 113 155 200 259 317 383 464
#     4  12  26  51  73 110 152 203 255 322 376 452
#
# _framework density 26.655218999999999
#
# number of rings (size 3 to 8) (size 9 to 14) (size 15 to 20)
#    0.000    0.800    2.000    3.000    5.600    6.400 
#    7.200    0.000    0.000    0.000    0.000    0.000 
#    0.000    0.000    0.000    0.000    0.000    0.000 
#
# Total GULP energy -56206.680318 kJ/mol
# GULP energy per Si atom -5620.668032 kJ/mol
# Density = 2.659455 g / cm^3
# Si number density = 26.655219 Si / 1000 Ang^3
#
#
#
# Elastic Constant Matrix: (Units=GPa)
#
#
# Indices 1 2 3 4 5 6 
#
# 1 125.7118 33.4302 36.8625 -0.0001 -12.0079 0.0006
# 2 33.4302 145.1044 41.4031 0.0010 -10.5385 0.0067
# 3 36.8625 41.4031 156.1528 0.0002 -4.7887 0.0006
# 4 -0.0001 0.0010 0.0002 32.5668 -0.0002 -25.7924
# 5 -12.0079 -10.5385 -4.7887 -0.0002 50.3532 0.0001
# 6 0.0006 0.0067 0.0006 -25.7924 0.0001 43.9392
#
#
#
# Elastic Compliance Matrix: (Units=1/GPa)
#
#
# Indices 1 2 3 4 5 6 
#
# 1 0.009000 -0.001471 -0.001683 0.000000 0.001678 0.000000
# 2 -0.001471 0.007793 -0.001684 -0.000002 0.001120 -0.000002
# 3 -0.001683 -0.001684 0.007246 0.000000 -0.000065 0.000000
# 4 0.000000 -0.000002 0.000000 0.057383 0.000000 0.033684
# 5 0.001678 0.001120 -0.000065 0.000000 0.020488 0.000000
# 6 0.000000 -0.000002 0.000000 0.033684 0.000000 0.042531
#
#
# Mechanical properties :
#
#
# Convention : Reuss Voigt Hill
#
# Bulk Modulus (GPa) = 69.63465 72.26227 70.94846
# Shear Modulus (GPa) = 31.46521 46.39005 38.92763
#
# Velocity S-wave (km/s) = 3.43950 4.17630 3.82568
# Velocity P-wave (km/s) = 6.47723 7.10100 6.79627
#
# Compressibility (1/GPa) = 0.01436067
#
# Stress axis : x y z
#
# Youngs Moduli (GPa) = 111.11392 128.32790 138.00873
#
# Poissons Ratio (x) = 0.18881 0.23226
# Poissons Ratio (y) = 0.16349 0.23247
# Poissons Ratio (z) = 0.18700 0.21616
#
# Static dielectric constant tensor:
#      x y z
#    x 2.083490 0.000000 -0.035590 
#    y 0.000000 2.030670 0.000000 
#    z -0.035590 0.000000 2.038740 
# 
# From -- ./inp_files/52045.got.cif
#   From: 2010.05.17/outbox.cif.g08.bks.cpg/sg5_27_cif.got.tgz:52045.got - 2010.06.03 18:56:24.
