data_PCOD9128763
_publ_section_title
;
Structure prediction by ZEFSAII (Michael W. Deem and Ramdas Pophale) SiO2 
 PCOD9128763
Probable space group: C 2
;
_chemical_formula_sum "Si O2"
_cell_formula_units_Z 28
_cell_length_a 12.258839
_cell_length_b 7.547676
_cell_length_c 14.761536
_cell_angle_alpha 90.000000
_cell_angle_beta 122.663872
_cell_angle_gamma 90.000000
_cell_volume 1149.819074
_symmetry_space_group_name_H-M "C 2"
_symmetry_group_IT_number 5
_symmetry_cell_setting 'monoclinic'
loop_
_space_group_symop_operation_xyz
x,y,z
-x,y,-z
1/2+x,1/2+y,z
1/2-x,1/2+y,-z
loop_
_atom_site_type_symbol
_atom_site_label
_atom_site_fract_x
_atom_site_fract_y
_atom_site_fract_z
Si Si1 0.950629 0.488010 0.177620
Si Si2 0.474194 0.580066 0.754889
Si Si3 0.343688 0.381866 0.539774
Si Si4 0.776061 0.936247 0.198519
Si Si5 0.000000 0.587317 0.500000
Si Si6 0.292016 0.052185 0.267950
Si Si7 0.712685 0.132768 0.342950
Si Si8 0.500000 0.970671 0.000000
O O1 0.821250 0.493873 0.178567
O O2 0.003860 0.287022 0.213427
O O3 0.057469 0.617149 0.268914
O O4 0.948721 0.548938 0.072453
O O5 0.431020 0.526041 0.632776
O O6 0.613614 0.484481 0.824205
O O7 0.353738 0.517341 0.763216
O O8 0.413471 0.217732 0.522973
O O9 0.256827 0.297818 0.579786
O O10 0.264436 0.472262 0.425665
O O11 0.811436 0.764546 0.272363
O O12 0.760502 0.101053 0.261899
O O13 0.635930 0.887695 0.094291
O O14 0.092644 0.488387 0.613687
#
# Coordination Sequence:
#
# PCOD9128763 Si02
#       8
#     4   4   4   4   2   4   4   2
#     4  11  24  45  73 102 141 192 239 305 360 423
#     4  12  25  44  70 106 143 184 245 294 355 440
#     4  12  22  38  69 103 145 196 234 286 362 434
#     4  11  24  47  71  97 143 184 240 311 359 422
#     4  12  20  42  66 100 154 190 216 290 356 422
#     4  12  24  46  73 104 148 191 233 294 363 438
#     4  11  21  41  66 102 146 190 237 295 354 428
#     4  10  24  50  76  98 140 190 240 314 374 408
#
# _framework density 24.351655999999998
#
# number of rings (size 3 to 8) (size 9 to 14) (size 15 to 20)
#    0.000    0.571    7.143    1.714    2.000    1.143 
#    0.000    0.000    0.000    3.429    0.000    0.000 
#    0.000    0.000    0.000    0.000    0.000    0.000 
#
# Total GULP energy -78121.856048 kJ/mol
# GULP energy per Si atom -5580.132575 kJ/mol
# Density = 2.429623 g / cm^3
# Si number density = 24.351656 Si / 1000 Ang^3
#
#
#
# Elastic Constant Matrix: (Units=GPa)
#
#
# Indices 1 2 3 4 5 6 
#
# 1 190.1435 15.6014 29.5550 0.0000 -16.5695 0.0000
# 2 15.6014 21.1372 -2.9613 0.0000 -13.1422 0.0000
# 3 29.5550 -2.9613 94.0605 0.0000 -12.1406 0.0000
# 4 0.0000 0.0000 0.0000 4.7704 0.0000 -2.3755
# 5 -16.5695 -13.1422 -12.1406 0.0000 42.1823 0.0000
# 6 0.0000 0.0000 0.0000 -2.3755 0.0000 45.1984
#
#
#
# Elastic Compliance Matrix: (Units=1/GPa)
#
#
# Indices 1 2 3 4 5 6 
#
# 1 0.005962 -0.004428 -0.001961 0.000000 0.000398 0.000000
# 2 -0.004428 0.063746 0.005959 0.000000 0.019836 0.000000
# 3 -0.001961 0.005959 0.012022 0.000000 0.004546 0.000000
# 4 0.000000 0.000000 0.000000 0.215260 0.000000 0.011313
# 5 0.000398 0.019836 0.004546 0.000000 0.031352 0.000000
# 6 0.000000 0.000000 0.000000 0.011313 0.000000 0.022719
#
#
# Mechanical properties :
#
#
# Convention : Reuss Voigt Hill
#
# Bulk Modulus (GPa) = 12.36570 43.30349 27.83459
# Shear Modulus (GPa) = 13.19683 35.97329 24.58506
#
# Velocity S-wave (km/s) = 2.33046 3.84766 3.18084
# Velocity P-wave (km/s) = 3.51146 6.12866 4.99454
#
# Compressibility (1/GPa) = 0.08086888
#
# Stress axis : x y z
#
# Youngs Moduli (GPa) = 167.72769 15.68715 83.18001
#
# Poissons Ratio (x) = 0.06946 0.16315
# Poissons Ratio (y) = 0.74270 -0.49563
# Poissons Ratio (z) = 0.32898 -0.09347
#
# Static dielectric constant tensor:
#      x y z
#    x 2.017080 0.000000 -0.010040 
#    y 0.000000 2.015730 0.000000 
#    z -0.010040 0.000000 1.940770 
# 
# From -- ./inp_files/52211.got.cif
#   From: 2010.05.17/outbox.cif.g08.bks.cpg/sg5_27_cif.got.tgz:52211.got - 2010.06.03 18:56:24.
