data_PCOD9128359
_publ_section_title
;
Structure prediction by ZEFSAII (Michael W. Deem and Ramdas Pophale) SiO2 
 PCOD9128359
Probable space group: C 2
;
_chemical_formula_sum "Si O2"
_cell_formula_units_Z 24
_cell_length_a 15.689432
_cell_length_b 11.478320
_cell_length_c 10.638482
_cell_angle_alpha 90.000000
_cell_angle_beta 30.753096
_cell_angle_gamma 90.000000
_cell_volume 979.658193
_symmetry_space_group_name_H-M "C 2"
_symmetry_group_IT_number 5
_symmetry_cell_setting 'monoclinic'
loop_
_space_group_symop_operation_xyz
x,y,z
-x,y,-z
1/2+x,1/2+y,z
1/2-x,1/2+y,-z
loop_
_atom_site_type_symbol
_atom_site_label
_atom_site_fract_x
_atom_site_fract_y
_atom_site_fract_z
Si Si1 0.909268 0.243240 0.952268
Si Si2 0.184920 0.009698 0.818322
Si Si3 0.353477 0.379023 0.880568
Si Si4 0.602066 0.575550 0.516917
Si Si5 0.109661 0.459676 0.681474
Si Si6 0.393390 0.171656 0.009060
O O1 0.999754 0.161573 0.735534
O O2 0.052970 0.335502 0.804791
O O3 0.825332 0.150300 0.153347
O O4 0.772185 0.322095 0.057791
O O5 0.313880 0.960465 0.554235
O O6 0.000000 0.978250 0.000000
O O7 0.220559 0.954224 0.909015
O O8 0.480914 0.465910 0.652393
O O9 0.429345 0.269667 0.860895
O O10 0.752893 0.518425 0.404450
O O11 0.698278 0.651229 0.289511
O O12 0.956086 0.548140 0.879677
O O13 0.500000 0.198846 0.000000
#
# Coordination Sequence:
#
# PCOD9128359 Si02
#       6
#     4   4   4   4   4   4
#     4  11  26  44  72 109 146 183 249 310 362 429
#     4  11  23  47  76 103 142 195 246 299 359 444
#     4  11  24  44  74 103 146 189 239 308 379 415
#     4  10  24  46  71 104 143 192 247 297 362 450
#     4  11  24  44  73 104 143 192 251 296 363 441
#     4  10  24  42  70 105 141 193 246 289 366 449
#
# _framework density 24.498339999999999
#
# number of rings (size 3 to 8) (size 9 to 14) (size 15 to 20)
#    0.000    1.333    3.333    1.500    9.333    6.000 
#    0.000    1.667    0.000    0.000    0.000    0.000 
#    0.000    0.000    0.000    0.000    0.000    0.000 
#
# Total GULP energy -67164.614313 kJ/mol
# GULP energy per Si atom -5597.051193 kJ/mol
# Density = 2.444258 g / cm^3
# Si number density = 24.498340 Si / 1000 Ang^3
#
#
#
# Elastic Constant Matrix: (Units=GPa)
#
#
# Indices 1 2 3 4 5 6 
#
# 1 59.2151 15.1277 17.0464 0.0000 5.0204 0.0000
# 2 15.1277 166.6650 38.5361 0.0000 -2.3353 0.0000
# 3 17.0464 38.5361 117.0302 0.0000 14.0845 0.0000
# 4 0.0000 0.0000 0.0000 36.3856 0.0000 3.2086
# 5 5.0204 -2.3353 14.0845 0.0000 38.8784 0.0000
# 6 0.0000 0.0000 0.0000 3.2086 0.0000 55.3615
#
#
#
# Elastic Compliance Matrix: (Units=1/GPa)
#
#
# Indices 1 2 3 4 5 6 
#
# 1 0.017911 -0.001182 -0.002021 0.000000 -0.001652 0.000000
# 2 -0.001182 0.006628 -0.002171 0.000000 0.001337 0.000000
# 3 -0.002021 -0.002171 0.009973 0.000000 -0.003482 0.000000
# 4 0.000000 0.000000 0.000000 0.027625 0.000000 -0.001601
# 5 -0.001652 0.001337 -0.003482 0.000000 0.027276 0.000000
# 6 0.000000 0.000000 0.000000 -0.001601 0.000000 0.018156
#
#
# Mechanical properties :
#
#
# Convention : Reuss Voigt Hill
#
# Bulk Modulus (GPa) = 42.07927 53.81451 47.94689
# Shear Modulus (GPa) = 39.60734 44.27177 41.93955
#
# Velocity S-wave (km/s) = 4.02523 4.25565 4.14204
# Velocity P-wave (km/s) = 6.23032 6.79424 6.51838
#
# Compressibility (1/GPa) = 0.02376467
#
# Stress axis : x y z
#
# Youngs Moduli (GPa) = 55.83067 150.87254 100.26776
#
# Poissons Ratio (x) = 0.17827 0.20265
# Poissons Ratio (y) = 0.06597 0.21772
# Poissons Ratio (z) = 0.11284 0.32760
#
# Static dielectric constant tensor:
#      x y z
#    x 1.973770 0.000000 -0.053320 
#    y 0.000000 1.917770 0.000000 
#    z -0.053320 0.000000 1.896890 
# 
# From -- ./inp_files/44643.got.cif
#   From: 2010.05.17/outbox.cif.g08.bks.cpg/sg5_23_cif.got.tgz:44643.got - 2010.06.03 18:56:24.
