data_PCOD9128668
_publ_section_title
;
Structure prediction by ZEFSAII (Michael W. Deem and Ramdas Pophale) SiO2 
 PCOD9128668
Probable space group: C 2
;
_chemical_formula_sum "Si O2"
_cell_formula_units_Z 26
_cell_length_a 21.043024
_cell_length_b 10.571245
_cell_length_c 5.123723
_cell_angle_alpha 90.000000
_cell_angle_beta 114.062000
_cell_angle_gamma 90.000000
_cell_volume 1040.735942
_symmetry_space_group_name_H-M "C 2"
_symmetry_group_IT_number 5
_symmetry_cell_setting 'monoclinic'
loop_
_space_group_symop_operation_xyz
x,y,z
-x,y,-z
1/2+x,1/2+y,z
1/2-x,1/2+y,-z
loop_
_atom_site_type_symbol
_atom_site_label
_atom_site_fract_x
_atom_site_fract_y
_atom_site_fract_z
Si Si1 0.064919 0.992160 0.782815
Si Si2 0.076772 0.263396 0.027670
Si Si3 0.868583 0.633634 0.683682
Si Si4 0.789423 0.019012 0.182464
Si Si5 0.277374 0.690002 0.654747
Si Si6 0.355153 0.960600 0.168611
Si Si7 0.500000 0.275073 0.000000
O O1 0.000000 0.031002 0.500000
O O2 0.134084 0.968648 0.736412
O O3 0.044535 0.865964 0.893098
O O4 0.074810 0.112742 0.984582
O O5 0.154010 0.274531 0.292281
O O6 0.092635 0.345400 0.795432
O O7 0.000000 0.301356 0.000000
O O8 0.802691 0.728787 0.538828
O O9 0.860323 0.525156 0.454868
O O10 0.869338 0.567714 0.969671
O O11 0.943119 0.694063 0.756186
O O12 0.783371 0.073114 0.461357
O O13 0.780932 0.132627 0.953810
O O14 0.725896 0.925171 0.015671
#
# Coordination Sequence:
#
# PCOD9128668 Si02
#       7
#     4   4   4   4   4   4   2
#     4  11  25  44  70 104 146 188 239 292 361 426
#     4  11  23  44  72 110 147 188 230 296 365 431
#     4  10  25  49  72 104 139 191 246 293 352 413
#     4   9  20  42  69  98 142 183 234 286 345 423
#     4   9  20  43  69 102 141 182 234 288 345 423
#     4  10  24  47  73 103 143 187 240 298 352 421
#     4  12  28  48  72 102 144 192 242 300 348 430
#
# _framework density 24.982323999999998
#
# number of rings (size 3 to 8) (size 9 to 14) (size 15 to 20)
#    0.000    1.846    0.769    0.923    5.385    4.923 
#   19.385    0.000    0.000    0.000    0.000    0.000 
#    0.000    0.000    0.000    0.000    0.000    0.000 
#
# Total GULP energy -72690.527379 kJ/mol
# GULP energy per Si atom -5591.579029 kJ/mol
# Density = 2.492546 g / cm^3
# Si number density = 24.982324 Si / 1000 Ang^3
#
#
#
# Elastic Constant Matrix: (Units=GPa)
#
#
# Indices 1 2 3 4 5 6 
#
# 1 169.7773 45.6160 25.9409 0.0000 31.4129 0.0000
# 2 45.6160 61.9276 27.0654 0.0000 14.5756 0.0000
# 3 25.9409 27.0654 83.2291 0.0000 9.1885 0.0000
# 4 0.0000 0.0000 0.0000 -25.8686 0.0000 -9.2194
# 5 31.4129 14.5756 9.1885 0.0000 51.9574 0.0000
# 6 0.0000 0.0000 0.0000 -9.2194 0.0000 42.0894
#
#
#
# Elastic Compliance Matrix: (Units=1/GPa)
#
#
# Indices 1 2 3 4 5 6 
#
# 1 0.007871 -0.004784 -0.000531 0.000000 -0.003323 0.000000
# 2 -0.004784 0.022713 -0.005621 0.000000 -0.002485 0.000000
# 3 -0.000531 -0.005621 0.014074 0.000000 -0.000591 0.000000
# 4 0.000000 0.000000 0.000000 -0.035858 0.000000 -0.007854
# 5 -0.003323 -0.002485 -0.000591 0.000000 0.022057 0.000000
# 6 0.000000 0.000000 0.000000 -0.007854 0.000000 0.022038
#
#
# Mechanical properties :
#
#
# Convention : Reuss Voigt Hill
#
# Bulk Modulus (GPa) = 43.88413 56.90873 50.39643
# Shear Modulus (GPa) = 60.70682 28.05644 44.38163
#
# Velocity S-wave (km/s) = 4.93484 3.35483 4.21945
# Velocity P-wave (km/s) = 7.07633 6.15106 6.62986
#
# Compressibility (1/GPa) = 0.02278728
#
# Stress axis : x y z
#
# Youngs Moduli (GPa) = 127.04266 44.02710 71.05532
#
# Poissons Ratio (x) = 0.21062 0.03772
# Poissons Ratio (y) = 0.60777 0.39938
# Poissons Ratio (z) = 0.06743 0.24746
#
# Static dielectric constant tensor:
#      x y z
#    x 2.126610 0.000000 0.262700 
#    y 0.000000 2.169560 0.000000 
#    z 0.262700 0.000000 2.417540 
# 
# From -- ./inp_files/9501.got.cif
#   From: 2010.05.17/outbox.cif.g08.bks.cpg/sg5_5_cif.got.tgz:9501.got - 2010.06.03 18:56:24.
