data_PCOD9128501
_publ_section_title
;
Structure prediction by ZEFSAII (Michael W. Deem and Ramdas Pophale) SiO2 
 PCOD9128501
Probable space group: C 2
;
_chemical_formula_sum "Si O2"
_cell_formula_units_Z 20
_cell_length_a 24.357243
_cell_length_b 5.115670
_cell_length_c 8.853016
_cell_angle_alpha 90.000000
_cell_angle_beta 45.047531
_cell_angle_gamma 90.000000
_cell_volume 780.668906
_symmetry_space_group_name_H-M "C 2"
_symmetry_group_IT_number 5
_symmetry_cell_setting 'monoclinic'
loop_
_space_group_symop_operation_xyz
x,y,z
-x,y,-z
1/2+x,1/2+y,z
1/2-x,1/2+y,-z
loop_
_atom_site_type_symbol
_atom_site_label
_atom_site_fract_x
_atom_site_fract_y
_atom_site_fract_z
Si Si1 0.759669 0.608540 0.775491
Si Si2 0.405050 0.499723 0.953888
Si Si3 0.000000 0.009875 0.500000
Si Si4 0.636112 0.246862 0.675538
Si Si5 0.352957 0.598665 0.617927
Si Si6 0.500000 0.865527 0.000000
O O1 0.784980 0.636791 0.548702
O O2 0.791780 0.326373 0.752161
O O3 0.812319 0.829904 0.751389
O O4 0.669000 0.647675 0.971325
O O5 0.456964 0.370983 0.722769
O O6 0.365513 0.296305 0.144564
O O7 0.455857 0.688323 0.961858
O O8 0.068609 0.165341 0.448031
O O9 0.626566 0.511062 0.594347
O O10 0.562779 0.055579 0.795746
#
# Coordination Sequence:
#
# PCOD9128501 Si02
#       6
#     4   4   2   4   4   2
#     4  10  26  46  78 107 148 189 253 302 374 431
#     4  12  27  45  74 109 152 199 242 313 366 448
#     4  12  26  50  72 108 154 196 248 294 386 440
#     4  10  24  44  77 107 149 184 257 309 360 442
#     4  10  25  49  75 112 143 194 245 308 370 444
#     4  12  24  46  72 116 146 198 252 308 372 434
#
# _framework density 25.619057000000002
#
# number of rings (size 3 to 8) (size 9 to 14) (size 15 to 20)
#    1.200    0.000    0.000    5.400    8.400    2.400 
#    3.600    0.000    0.000    0.000    0.000    0.000 
#    0.000    0.000    0.000    0.000    0.000    0.000 
#
# Total GULP energy -55900.781974 kJ/mol
# GULP energy per Si atom -5590.078197 kJ/mol
# Density = 2.556075 g / cm^3
# Si number density = 25.619057 Si / 1000 Ang^3
#
#
#
# Elastic Constant Matrix: (Units=GPa)
#
#
# Indices 1 2 3 4 5 6 
#
# 1 141.1960 27.1778 35.5412 0.0000 -18.6324 0.0000
# 2 27.1778 101.5960 15.5960 0.0000 -6.3666 0.0000
# 3 35.5412 15.5960 205.8132 0.0000 0.0689 0.0000
# 4 0.0000 0.0000 0.0000 -10.5562 0.0000 -6.6011
# 5 -18.6324 -6.3666 0.0689 0.0000 42.8095 0.0000
# 6 0.0000 0.0000 0.0000 -6.6011 0.0000 25.2916
#
#
#
# Elastic Compliance Matrix: (Units=1/GPa)
#
#
# Indices 1 2 3 4 5 6 
#
# 1 0.008183 -0.001786 -0.001279 0.000000 0.003298 0.000000
# 2 -0.001786 0.010444 -0.000483 0.000000 0.000777 0.000000
# 3 -0.001279 -0.000483 0.005116 0.000000 -0.000637 0.000000
# 4 0.000000 0.000000 0.000000 -0.081439 0.000000 -0.021256
# 5 0.003298 0.000777 -0.000637 0.000000 0.024911 0.000000
# 6 0.000000 0.000000 0.000000 -0.021256 0.000000 0.033991
#
#
# Mechanical properties :
#
#
# Convention : Reuss Voigt Hill
#
# Bulk Modulus (GPa) = 60.07135 67.24836 63.65986
# Shear Modulus (GPa) = 360.96837 36.19500 198.58168
#
# Velocity S-wave (km/s) = 11.88294 3.76282 8.81371
# Velocity P-wave (km/s) = 14.55236 6.72196 11.33481
#
# Compressibility (1/GPa) = 0.01664687
#
# Stress axis : x y z
#
# Youngs Moduli (GPa) = 122.20019 95.75292 195.44782
#
# Poissons Ratio (x) = 0.17102 0.24996
# Poissons Ratio (y) = 0.21826 0.09444
# Poissons Ratio (z) = 0.15628 0.04627
#
# Static dielectric constant tensor:
#      x y z
#    x 2.016300 0.000000 0.072430 
#    y 0.000000 2.006230 0.000000 
#    z 0.072430 0.000000 2.106590 
# 
# From -- ./inp_files/31248.got.cif
#   From: 2010.05.17/outbox.cif.g08.bks.cpg/sg5_16_cif.got.tgz:31248.got - 2010.06.03 18:56:24.
