data_PCOD9128357
_publ_section_title
;
Structure prediction by ZEFSAII (Michael W. Deem and Ramdas Pophale) SiO2 
 PCOD9128357
Probable space group: C 2
;
_chemical_formula_sum "Si O2"
_cell_formula_units_Z 22
_cell_length_a 16.246556
_cell_length_b 10.466796
_cell_length_c 6.756365
_cell_angle_alpha 90.000000
_cell_angle_beta 123.855937
_cell_angle_gamma 90.000000
_cell_volume 954.106693
_symmetry_space_group_name_H-M "C 2"
_symmetry_group_IT_number 5
_symmetry_cell_setting 'monoclinic'
loop_
_space_group_symop_operation_xyz
x,y,z
-x,y,-z
1/2+x,1/2+y,z
1/2-x,1/2+y,-z
loop_
_atom_site_type_symbol
_atom_site_label
_atom_site_fract_x
_atom_site_fract_y
_atom_site_fract_z
Si Si1 0.794055 0.678790 0.649991
Si Si2 0.733733 0.946484 0.085061
Si Si3 0.000000 0.992776 0.000000
Si Si4 0.089513 0.820275 0.855480
Si Si5 0.613768 0.739946 0.146106
Si Si6 0.899306 0.575730 0.396674
O O1 0.776366 0.552910 0.759417
O O2 0.849605 0.779139 0.866317
O O3 0.690665 0.738767 0.432671
O O4 0.861944 0.631380 0.555685
O O5 0.672273 0.819789 0.061112
O O6 0.845263 0.906320 0.199693
O O7 0.690485 0.001440 0.824141
O O8 0.997051 0.901422 0.806664
O O9 0.090856 0.089608 0.085651
O O10 0.075227 0.689523 0.722700
O O11 0.500000 0.793650 0.000000
O O12 0.000000 0.493639 0.500000
#
# Coordination Sequence:
#
# PCOD9128357 Si02
#       6
#     4   4   2   4   4   4
#     4  11  25  45  71  98 139 193 224 287 350 408
#     4  11  26  43  71 101 141 179 239 285 341 420
#     4  10  24  42  70 100 142 174 230 294 332 412
#     4  11  24  45  71 101 139 181 239 280 345 421
#     4  10  25  43  69 101 136 180 228 285 350 395
#     4  11  25  41  70 101 134 184 235 280 347 411
#
# _framework density 23.058218
#
# number of rings (size 3 to 8) (size 9 to 14) (size 15 to 20)
#    0.545    0.727    1.818    2.182   10.182    2.909 
#    0.000    1.818    0.000    0.000    0.000    0.000 
#    0.000    0.000    0.000    0.000    0.000    0.000 
#
# Total GULP energy -61377.527769 kJ/mol
# GULP energy per Si atom -5579.775252 kJ/mol
# Density = 2.300574 g / cm^3
# Si number density = 23.058218 Si / 1000 Ang^3
#
#
#
# Elastic Constant Matrix: (Units=GPa)
#
#
# Indices 1 2 3 4 5 6 
#
# 1 116.1580 22.5115 29.9242 0.0000 -19.0571 0.0000
# 2 22.5115 84.7629 17.7415 0.0000 -20.4243 0.0000
# 3 29.9242 17.7415 111.2227 0.0000 1.2633 0.0000
# 4 0.0000 0.0000 0.0000 4.3684 0.0000 -5.8935
# 5 -19.0571 -20.4243 1.2633 0.0000 40.4722 0.0000
# 6 0.0000 0.0000 0.0000 -5.8935 0.0000 26.6083
#
#
#
# Elastic Compliance Matrix: (Units=1/GPa)
#
#
# Indices 1 2 3 4 5 6 
#
# 1 0.010210 -0.001122 -0.002617 0.000000 0.004323 0.000000
# 2 -0.001122 0.014125 -0.002027 0.000000 0.006663 0.000000
# 3 -0.002617 -0.002027 0.010048 0.000000 -0.002569 0.000000
# 4 0.000000 0.000000 0.000000 0.326467 0.000000 0.072309
# 5 0.004323 0.006663 -0.002569 0.000000 0.030187 0.000000
# 6 0.000000 0.000000 0.000000 0.072309 0.000000 0.053598
#
#
# Mechanical properties :
#
#
# Convention : Reuss Voigt Hill
#
# Bulk Modulus (GPa) = 43.76253 50.27756 47.02005
# Shear Modulus (GPa) = 10.78089 30.42088 20.60088
#
# Velocity S-wave (km/s) = 2.16464 3.63617 2.99227
# Velocity P-wave (km/s) = 5.02672 6.28338 5.68985
#
# Compressibility (1/GPa) = 0.02285060
#
# Stress axis : x y z
#
# Youngs Moduli (GPa) = 97.94460 70.79407 99.52641
#
# Poissons Ratio (x) = 0.07944 0.26046
# Poissons Ratio (y) = 0.10991 0.20174
# Poissons Ratio (z) = 0.25633 0.14350
#
# Static dielectric constant tensor:
#      x y z
#    x 1.889740 0.000000 0.082210 
#    y 0.000000 1.853460 0.000000 
#    z 0.082210 0.000000 1.906190 
# 
# From -- ./inp_files/6596.got.cif
#   From: 2010.05.17/outbox.cif.g08.bks.cpg/sg5_4_cif.got.tgz:6596.got - 2010.06.03 18:56:24.
