data_PCOD9128553
_publ_section_title
;
Structure prediction by ZEFSAII (Michael W. Deem and Ramdas Pophale) SiO2 
 PCOD9128553
Probable space group: C 2
;
_chemical_formula_sum "Si O2"
_cell_formula_units_Z 18
_cell_length_a 13.911697
_cell_length_b 5.836917
_cell_length_c 7.696153
_cell_angle_alpha 90.000000
_cell_angle_beta 85.471726
_cell_angle_gamma 90.000000
_cell_volume 622.987809
_symmetry_space_group_name_H-M "C 2"
_symmetry_group_IT_number 5
_symmetry_cell_setting 'monoclinic'
loop_
_space_group_symop_operation_xyz
x,y,z
-x,y,-z
1/2+x,1/2+y,z
1/2-x,1/2+y,-z
loop_
_atom_site_type_symbol
_atom_site_label
_atom_site_fract_x
_atom_site_fract_y
_atom_site_fract_z
Si Si1 0.382632 0.479120 0.520145
Si Si2 0.159050 0.736358 0.803601
Si Si3 0.500000 0.432782 0.000000
Si Si4 0.156730 0.321796 0.995089
Si Si5 0.595516 0.981837 0.360151
O O1 0.500000 0.489958 0.500000
O O2 0.328663 0.425512 0.347365
O O3 0.357139 0.729722 0.598410
O O4 0.361058 0.234721 0.613842
O O5 0.237473 0.779473 0.943025
O O6 0.161053 0.457413 0.811071
O O7 0.044764 0.777838 0.846149
O O8 0.408701 0.596524 0.991066
O O9 0.100471 0.464050 0.151057
O O10 0.500000 0.982458 0.500000
#
# Coordination Sequence:
#
# PCOD9128553 Si02
#       5
#     4   4   2   4   4
#     4  10  24  45  73 110 154 212 265 321 407 482
#     4  12  28  48  79 120 162 210 273 339 409 491
#     4  12  26  48  78 108 164 204 256 332 418 466
#     4  12  28  48  79 120 162 210 273 339 409 491
#     4  10  24  45  73 110 154 212 265 321 407 482
#
# _framework density 28.89302
#
# number of rings (size 3 to 8) (size 9 to 14) (size 15 to 20)
#    0.000    0.889    2.222    3.333   18.667    1.778 
#    0.000    0.000    0.000    0.000    0.000    0.000 
#    0.000    0.000    0.000    0.000    0.000    0.000 
#
# Total GULP energy -50142.605530 kJ/mol
# GULP energy per Si atom -5571.400614 kJ/mol
# Density = 2.882726 g / cm^3
# Si number density = 28.893020 Si / 1000 Ang^3
#
#
#
# Elastic Constant Matrix: (Units=GPa)
#
#
# Indices 1 2 3 4 5 6 
#
# 1 148.0081 86.0397 15.1248 0.0000 13.3672 0.0000
# 2 86.0397 201.7200 35.6619 0.0000 -3.8526 0.0000
# 3 15.1248 35.6619 60.7845 0.0000 4.5724 0.0000
# 4 0.0000 0.0000 0.0000 42.8253 0.0000 -3.4543
# 5 13.3672 -3.8526 4.5724 0.0000 37.2728 0.0000
# 6 0.0000 0.0000 0.0000 -3.4543 0.0000 66.1524
#
#
#
# Elastic Compliance Matrix: (Units=1/GPa)
#
#
# Indices 1 2 3 4 5 6 
#
# 1 0.009509 -0.004199 0.000390 0.000000 -0.003892 0.000000
# 2 -0.004199 0.007421 -0.003512 0.000000 0.002704 0.000000
# 3 0.000390 -0.003512 0.018625 0.000000 -0.002788 0.000000
# 4 0.000000 0.000000 0.000000 0.023449 0.000000 0.001224
# 5 -0.003892 0.002704 -0.002788 0.000000 0.028847 0.000000
# 6 0.000000 0.000000 0.000000 0.001224 0.000000 0.015181
#
#
# Mechanical properties :
#
#
# Convention : Reuss Voigt Hill
#
# Bulk Modulus (GPa) = 47.81852 76.01836 61.91844
# Shear Modulus (GPa) = 40.11389 47.49584 43.80486
#
# Velocity S-wave (km/s) = 3.73011 4.05884 3.89794
# Velocity P-wave (km/s) = 5.92771 6.95219 6.46029
#
# Compressibility (1/GPa) = 0.02091240
#
# Stress axis : x y z
#
# Youngs Moduli (GPa) = 105.16203 134.75120 53.69169
#
# Poissons Ratio (x) = 0.56586 -0.02096
# Poissons Ratio (y) = 0.44160 0.18859
# Poissons Ratio (z) = -0.04105 0.47330
#
# Static dielectric constant tensor:
#      x y z
#    x 2.186910 0.000000 0.005260 
#    y 0.000000 2.404120 0.000000 
#    z 0.005260 0.000000 2.656490 
# 
# From -- ./inp_files/25858.got.cif
#   From: 2010.05.17/outbox.cif.g08.bks.cpg/sg5_13_cif.got.tgz:25858.got - 2010.06.03 18:56:24.
