data_PCOD9128902
_publ_section_title
;
Structure prediction by ZEFSAII (Michael W. Deem and Ramdas Pophale) SiO2 
 PCOD9128902
Probable space group: C 2
;
_chemical_formula_sum "Si O2"
_cell_formula_units_Z 14
_cell_length_a 13.215544
_cell_length_b 4.829295
_cell_length_c 8.620923
_cell_angle_alpha 90.000000
_cell_angle_beta 72.907444
_cell_angle_gamma 90.000000
_cell_volume 525.900705
_symmetry_space_group_name_H-M "C 2"
_symmetry_group_IT_number 5
_symmetry_cell_setting 'monoclinic'
loop_
_space_group_symop_operation_xyz
x,y,z
-x,y,-z
1/2+x,1/2+y,z
1/2-x,1/2+y,-z
loop_
_atom_site_type_symbol
_atom_site_label
_atom_site_fract_x
_atom_site_fract_y
_atom_site_fract_z
Si Si1 0.704910 0.620650 0.816000
Si Si2 0.000000 0.923872 0.500000
Si Si3 0.621327 0.129465 0.690377
Si Si4 0.912067 0.921477 0.842134
O O1 0.708615 0.322291 0.734003
O O2 0.811236 0.738991 0.840208
O O3 0.656934 0.822263 0.707431
O O4 0.623188 0.600168 0.996779
O O5 0.907238 0.729418 0.469622
O O6 0.951634 0.081052 0.668729
O O7 0.511266 0.216834 0.822985
#
# Coordination Sequence:
#
# PCOD9128902 Si02
#       4
#     4   2   4   4
#     4  12  24  44  78 101 147 185 245 282 375 406
#     4   8  24  54  66 110 150 182 246 296 364 416
#     4  10  26  47  72 106 142 193 230 307 345 433
#     4  10  25  47  71 114 138 190 242 302 340 455
#
# _framework density 26.620996999999999
#
# number of rings (size 3 to 8) (size 9 to 14) (size 15 to 20)
#    1.714    0.000    0.000    2.571    0.000   14.857 
#    0.000    0.000    0.000    0.000    0.000    0.000 
#    0.000    0.000    0.000    0.000    0.000    0.000 
#
# Total GULP energy -39167.914524 kJ/mol
# GULP energy per Si atom -5595.416361 kJ/mol
# Density = 2.656041 g / cm^3
# Si number density = 26.620997 Si / 1000 Ang^3
#
#
#
# Elastic Constant Matrix: (Units=GPa)
#
#
# Indices 1 2 3 4 5 6 
#
# 1 128.6645 18.4112 -30.6773 0.0000 15.4327 0.0000
# 2 18.4112 69.5229 15.3869 0.0000 0.6259 0.0000
# 3 -30.6773 15.3869 102.2675 0.0000 5.0367 0.0000
# 4 0.0000 0.0000 0.0000 35.2160 0.0000 5.3376
# 5 15.4327 0.6259 5.0367 0.0000 37.7314 0.0000
# 6 0.0000 0.0000 0.0000 5.3376 0.0000 35.4744
#
#
#
# Elastic Compliance Matrix: (Units=1/GPa)
#
#
# Indices 1 2 3 4 5 6 
#
# 1 0.009627 -0.003307 0.003600 0.000000 -0.004363 0.000000
# 2 -0.003307 0.016015 -0.003478 0.000000 0.001551 0.000000
# 3 0.003600 -0.003478 0.011527 0.000000 -0.002954 0.000000
# 4 0.000000 0.000000 0.000000 0.029059 0.000000 -0.004372
# 5 -0.004363 0.001551 -0.002954 0.000000 0.028656 0.000000
# 6 0.000000 0.000000 0.000000 -0.004372 0.000000 0.028847
#
#
# Mechanical properties :
#
#
# Convention : Reuss Voigt Hill
#
# Bulk Modulus (GPa) = 32.46747 34.07738 33.27242
# Shear Modulus (GPa) = 35.62064 41.50665 38.56365
#
# Velocity S-wave (km/s) = 3.66193 3.95292 3.81020
# Velocity P-wave (km/s) = 5.48655 5.80196 5.64646
#
# Compressibility (1/GPa) = 0.03080006
#
# Stress axis : x y z
#
# Youngs Moduli (GPa) = 103.87279 62.44019 86.75255
#
# Poissons Ratio (x) = 0.20649 -0.31234
# Poissons Ratio (y) = 0.34351 0.30173
# Poissons Ratio (z) = -0.37398 0.21717
#
# Static dielectric constant tensor:
#      x y z
#    x 2.074900 0.000000 -0.017160 
#    y 0.000000 2.002470 0.000000 
#    z -0.017160 0.000000 2.114880 
# 
# From -- ./inp_files/22319.got.cif
#   From: 2010.05.17/outbox.cif.g08.bks.cpg/sg5_12_cif.got.tgz:22319.got - 2010.06.03 18:56:24.
