data_PCOD9128019
_publ_section_title
;
Structure prediction by ZEFSAII (Michael W. Deem and Ramdas Pophale) SiO2 
 PCOD9128019
Probable space group: C 2
;
_chemical_formula_sum "Si O2"
_cell_formula_units_Z 28
_cell_length_a 14.747966
_cell_length_b 7.807174
_cell_length_c 17.537727
_cell_angle_alpha 90.000000
_cell_angle_beta 143.579978
_cell_angle_gamma 90.000000
_cell_volume 1198.854365
_symmetry_space_group_name_H-M "C 2"
_symmetry_group_IT_number 5
_symmetry_cell_setting 'monoclinic'
loop_
_space_group_symop_operation_xyz
x,y,z
-x,y,-z
1/2+x,1/2+y,z
1/2-x,1/2+y,-z
loop_
_atom_site_type_symbol
_atom_site_label
_atom_site_fract_x
_atom_site_fract_y
_atom_site_fract_z
Si Si1 0.854412 0.554350 0.845178
Si Si2 0.375116 0.393062 0.755665
Si Si3 0.374027 0.159765 0.476321
Si Si4 0.677539 0.636616 0.860507
Si Si5 0.546676 0.176348 0.750026
Si Si6 0.675332 0.502275 0.019622
Si Si7 0.906356 0.353048 0.736423
O O1 0.834200 0.722299 0.776973
O O2 0.707369 0.542833 0.801269
O O3 0.883075 0.391901 0.809965
O O4 0.000000 0.571969 0.000000
O O5 0.231180 0.502827 0.627733
O O6 0.477371 0.333610 0.751465
O O7 0.491981 0.497228 0.890182
O O8 0.500000 0.200663 0.500000
O O9 0.466241 0.140431 0.616076
O O10 0.259104 0.317101 0.408803
O O11 0.774143 0.813725 0.920161
O O12 0.512168 0.702711 0.774486
O O13 0.733256 0.531352 0.971425
O O14 0.730007 0.147719 0.871746
O O15 0.486729 0.018807 0.759285
#
# Coordination Sequence:
#
# PCOD9128019 Si02
#       7
#     4   4   4   4   4   4   4
#     4  11  22  43  69 104 140 175 232 291 351 427
#     4  11  23  43  68  99 137 174 230 285 341 421
#     4  12  27  45  63  97 140 179 233 288 343 424
#     4  11  21  40  72 100 139 179 222 295 356 405
#     4  10  23  45  68  94 135 185 223 282 349 420
#     4  11  20  40  71 105 130 176 230 280 360 414
#     4  10  24  45  65  99 136 180 236 279 352 425
#
# _framework density 23.355632
#
# number of rings (size 3 to 8) (size 9 to 14) (size 15 to 20)
#    0.000    1.143    4.286    2.571    4.000    1.143 
#    5.143    2.143    0.000    0.000    0.000    0.000 
#    0.000    0.000    0.000    0.000    0.000    0.000 
#
# Total GULP energy -78148.113815 kJ/mol
# GULP energy per Si atom -5582.008130 kJ/mol
# Density = 2.330247 g / cm^3
# Si number density = 23.355632 Si / 1000 Ang^3
#
#
#
# Elastic Constant Matrix: (Units=GPa)
#
#
# Indices 1 2 3 4 5 6 
#
# 1 122.4329 6.3414 39.5584 0.0000 0.2432 0.0000
# 2 6.3414 62.1692 0.9037 0.0000 5.0916 0.0000
# 3 39.5584 0.9037 121.2774 0.0000 1.7876 0.0000
# 4 0.0000 0.0000 0.0000 24.0784 0.0000 -5.2765
# 5 0.2432 5.0916 1.7876 0.0000 33.0247 0.0000
# 6 0.0000 0.0000 0.0000 -5.2765 0.0000 14.3199
#
#
#
# Elastic Compliance Matrix: (Units=1/GPa)
#
#
# Indices 1 2 3 4 5 6 
#
# 1 0.009181 -0.000912 -0.002991 0.000000 0.000235 0.000000
# 2 -0.000912 0.016382 0.000213 0.000000 -0.002531 0.000000
# 3 -0.002991 0.000213 0.009227 0.000000 -0.000510 0.000000
# 4 0.000000 0.000000 0.000000 0.045179 0.000000 0.016647
# 5 0.000235 -0.002531 -0.000510 0.000000 0.030696 0.000000
# 6 0.000000 0.000000 0.000000 0.016647 0.000000 0.075967
#
#
# Mechanical properties :
#
#
# Convention : Reuss Voigt Hill
#
# Bulk Modulus (GPa) = 36.48438 44.38737 40.43588
# Shear Modulus (GPa) = 24.61224 31.55633 28.08429
#
# Velocity S-wave (km/s) = 3.24976 3.67975 3.47142
# Velocity P-wave (km/s) = 5.45311 6.09100 5.78086
#
# Compressibility (1/GPa) = 0.02740899
#
# Stress axis : x y z
#
# Youngs Moduli (GPa) = 108.92019 61.04127 108.37503
#
# Poissons Ratio (x) = 0.05569 0.32419
# Poissons Ratio (y) = 0.09936 -0.02306
# Poissons Ratio (z) = 0.32582 -0.01299
#
# Static dielectric constant tensor:
#      x y z
#    x 1.894690 0.000000 -0.004570 
#    y 0.000000 1.983740 0.000000 
#    z -0.004570 0.000000 2.015200 
# 
# From -- ./inp_files/61480.got.cif
#   From: 2010.05.17/outbox.cif.g08.bks.cpg/sg5_31_cif.got.tgz:61480.got - 2010.06.03 18:56:24.
