data_PCOD9128939
_publ_section_title
;
Structure prediction by ZEFSAII (Michael W. Deem and Ramdas Pophale) SiO2 
 PCOD9128939
Probable space group: C 2
;
_chemical_formula_sum "Si O2"
_cell_formula_units_Z 28
_cell_length_a 17.875657
_cell_length_b 7.291789
_cell_length_c 14.436111
_cell_angle_alpha 90.000000
_cell_angle_beta 147.652832
_cell_angle_gamma 90.000000
_cell_volume 1006.790431
_symmetry_space_group_name_H-M "C 2"
_symmetry_group_IT_number 5
_symmetry_cell_setting 'monoclinic'
loop_
_space_group_symop_operation_xyz
x,y,z
-x,y,-z
1/2+x,1/2+y,z
1/2-x,1/2+y,-z
loop_
_atom_site_type_symbol
_atom_site_label
_atom_site_fract_x
_atom_site_fract_y
_atom_site_fract_z
Si Si1 0.500000 0.561970 0.000000
Si Si2 0.004572 0.491744 0.347730
Si Si3 0.589000 0.383144 0.354993
Si Si4 0.512885 0.853114 0.870111
Si Si5 0.729966 0.541811 0.821581
Si Si6 0.815806 0.915965 0.964173
Si Si7 0.000000 0.216639 0.500000
Si Si8 0.801083 0.643045 0.686464
O O1 0.555309 0.697544 0.138611
O O2 0.384305 0.451062 0.935107
O O3 0.017886 0.368069 0.269483
O O4 0.065576 0.692954 0.388582
O O5 0.063484 0.370752 0.494193
O O6 0.837019 0.503897 0.190062
O O7 0.436640 0.460804 0.164523
O O8 0.695022 0.518005 0.516156
O O9 0.663927 0.323294 0.336007
O O10 0.451413 0.041893 0.844004
O O11 0.679977 0.863069 0.063765
O O12 0.565414 0.571676 0.642815
O O13 0.754261 0.616793 0.742688
O O14 0.786758 0.700301 0.947336
#
# Coordination Sequence:
#
# PCOD9128939 Si02
#       8
#     2   4   4   4   4   4   2   4
#     4  12  26  38  72 116 138 190 250 314 360 438
#     4  10  25  49  73 104 153 194 256 308 383 450
#     4  11  26  44  70 109 144 200 243 312 378 442
#     4  11  24  45  71 104 148 193 246 309 373 456
#     4  11  22  47  69  99 140 196 243 296 380 444
#     4  11  25  46  75 101 146 203 253 303 377 461
#     4  10  26  44  76 106 138 200 248 322 366 458
#     4  11  24  41  69 103 146 183 246 307 366 443
#
# _framework density 27.811152
#
# number of rings (size 3 to 8) (size 9 to 14) (size 15 to 20)
#    0.000    1.143    4.286    0.857    8.000    3.429 
#    0.000    0.000    0.000    0.000    0.000    0.000 
#    0.000    0.000    0.000    0.000    0.000    0.000 
#
# Total GULP energy -78283.515876 kJ/mol
# GULP energy per Si atom -5591.679705 kJ/mol
# Density = 2.774785 g / cm^3
# Si number density = 27.811152 Si / 1000 Ang^3
#
#
#
# Elastic Constant Matrix: (Units=GPa)
#
#
# Indices 1 2 3 4 5 6 
#
# 1 106.4008 8.2735 23.8829 0.0000 -20.5643 0.0000
# 2 8.2735 82.7974 31.3219 0.0000 1.0969 0.0000
# 3 23.8829 31.3219 122.6114 0.0000 5.6256 0.0000
# 4 0.0000 0.0000 0.0000 54.2709 0.0000 -2.4241
# 5 -20.5643 1.0969 5.6256 0.0000 54.4973 0.0000
# 6 0.0000 0.0000 0.0000 -2.4241 0.0000 48.9948
#
#
#
# Elastic Compliance Matrix: (Units=1/GPa)
#
#
# Indices 1 2 3 4 5 6 
#
# 1 0.010748 -0.000293 -0.002216 0.000000 0.004290 0.000000
# 2 -0.000293 0.013378 -0.003359 0.000000 -0.000033 0.000000
# 3 -0.002216 -0.003359 0.009526 0.000000 -0.001752 0.000000
# 4 0.000000 0.000000 0.000000 0.018467 0.000000 0.000914
# 5 0.004290 -0.000033 -0.001752 0.000000 0.020150 0.000000
# 6 0.000000 0.000000 0.000000 0.000914 0.000000 0.020456
#
#
# Mechanical properties :
#
#
# Convention : Reuss Voigt Hill
#
# Bulk Modulus (GPa) = 45.62637 48.75179 47.18908
# Shear Modulus (GPa) = 44.73711 48.10803 46.42257
#
# Velocity S-wave (km/s) = 4.01509 4.16361 4.09003
# Velocity P-wave (km/s) = 6.15922 6.37823 6.26968
#
# Compressibility (1/GPa) = 0.02191715
#
# Stress axis : x y z
#
# Youngs Moduli (GPa) = 93.04347 74.74929 104.97740
#
# Poissons Ratio (x) = 0.02188 0.23258
# Poissons Ratio (y) = 0.02723 0.35262
# Poissons Ratio (z) = 0.20614 0.25108
#
# Static dielectric constant tensor:
#      x y z
#    x 2.699610 0.000000 0.501910 
#    y 0.000000 2.143220 0.000000 
#    z 0.501910 0.000000 2.594370 
# 
# From -- ./inp_files/56945.got.cif
#   From: 2010.05.17/outbox.cif.g08.bks.cpg/sg5_29_cif.got.tgz:56945.got - 2010.06.03 18:56:24.
