data_PCOD9128527
_publ_section_title
;
Structure prediction by ZEFSAII (Michael W. Deem and Ramdas Pophale) SiO2 
 PCOD9128527
Probable space group: C 2
;
_chemical_formula_sum "Si O2"
_cell_formula_units_Z 12
_cell_length_a 12.281373
_cell_length_b 5.027867
_cell_length_c 22.246359
_cell_angle_alpha 90.000000
_cell_angle_beta 162.867523
_cell_angle_gamma 90.000000
_cell_volume 404.665262
_symmetry_space_group_name_H-M "C 2"
_symmetry_group_IT_number 5
_symmetry_cell_setting 'monoclinic'
loop_
_space_group_symop_operation_xyz
x,y,z
-x,y,-z
1/2+x,1/2+y,z
1/2-x,1/2+y,-z
loop_
_atom_site_type_symbol
_atom_site_label
_atom_site_fract_x
_atom_site_fract_y
_atom_site_fract_z
Si Si1 0.852367 0.748020 0.153854
Si Si2 0.358776 0.115363 0.490843
Si Si3 0.172992 0.525775 0.200475
O O1 0.026020 0.632481 0.185552
O O2 0.500000 0.610850 0.000000
O O3 0.648662 0.006085 0.017935
O O4 0.175448 0.837514 0.369459
O O5 0.500000 0.224350 0.500000
O O6 0.677746 0.231480 0.702199
O O7 0.000122 0.195127 0.342033
#
# Coordination Sequence:
#
# PCOD9128527 Si02
#       3
#     4   4   4
#     4  10  24  45  69 103 140 183 234 286 350 416
#     4  11  24  42  70 103 136 182 232 284 349 413
#     4  11  24  45  71 102 142 181 232 292 347 417
#
# _framework density 29.654138
#
# number of rings (size 3 to 8) (size 9 to 14) (size 15 to 20)
#    0.000    1.333    0.000    4.000    0.000    9.333 
#    0.000    0.000    0.000    0.000    0.000    0.000 
#    0.000    0.000    0.000    0.000    0.000    0.000 
#
# Total GULP energy -33434.136151 kJ/mol
# GULP energy per Si atom -5572.356025 kJ/mol
# Density = 2.958664 g / cm^3
# Si number density = 29.654138 Si / 1000 Ang^3
#
#
#
# Elastic Constant Matrix: (Units=GPa)
#
#
# Indices 1 2 3 4 5 6 
#
# 1 339.1031 55.1515 64.5042 0.0008 35.0684 0.0047
# 2 55.1515 79.9761 37.4908 -0.0182 10.9666 0.0195
# 3 64.5042 37.4908 117.7028 0.0438 16.1503 -0.0024
# 4 0.0008 -0.0182 0.0438 42.4798 -0.0021 1.0057
# 5 35.0684 10.9666 16.1503 -0.0021 76.0367 0.0010
# 6 0.0047 0.0195 -0.0024 1.0057 0.0010 51.1258
#
#
#
# Elastic Compliance Matrix: (Units=1/GPa)
#
#
# Indices 1 2 3 4 5 6 
#
# 1 0.003587 -0.001727 -0.001260 0.000000 -0.001138 0.000000
# 2 -0.001727 0.015630 -0.003947 0.000011 -0.000619 -0.000006
# 3 -0.001260 -0.003947 0.010594 -0.000013 -0.001100 0.000002
# 4 0.000000 0.000011 -0.000013 0.023552 0.000002 -0.000463
# 5 -0.001138 -0.000619 -0.001100 0.000002 0.013999 0.000000
# 6 0.000000 -0.000006 0.000002 -0.000463 0.000000 0.019569
#
#
# Mechanical properties :
#
#
# Convention : Reuss Voigt Hill
#
# Bulk Modulus (GPa) = 62.71934 94.56388 78.64161
# Shear Modulus (GPa) = 47.11949 59.23748 53.17849
#
# Velocity S-wave (km/s) = 3.99051 4.47431 4.23932
# Velocity P-wave (km/s) = 6.51371 7.65838 7.10912
#
# Compressibility (1/GPa) = 0.01594404
#
# Stress axis : x y z
#
# Youngs Moduli (GPa) = 278.77484 63.97957 94.38962
#
# Poissons Ratio (x) = 0.11051 0.11889
# Poissons Ratio (y) = 0.48150 0.37255
# Poissons Ratio (z) = 0.35114 0.25252
#
# Static dielectric constant tensor:
#      x y z
#    x 2.270420 0.000000 0.070560 
#    y 0.000000 2.424810 -0.000010 
#    z 0.070560 -0.000010 2.195960 
# 
# From -- ./inp_files/4179.got.cif
#   From: 2010.05.17/outbox.cif.g08.bks.cpg/sg5_3_cif.got.tgz:4179.got - 2010.06.03 18:56:24.
