data_PCOD9128778
_publ_section_title
;
Structure prediction by ZEFSAII (Michael W. Deem and Ramdas Pophale) SiO2 
 PCOD9128778
Probable space group: C 2
;
_chemical_formula_sum "Si O2"
_cell_formula_units_Z 18
_cell_length_a 8.364188
_cell_length_b 16.555101
_cell_length_c 5.335723
_cell_angle_alpha 90.000000
_cell_angle_beta 95.566277
_cell_angle_gamma 90.000000
_cell_volume 735.353574
_symmetry_space_group_name_H-M "C 2"
_symmetry_group_IT_number 5
_symmetry_cell_setting 'monoclinic'
loop_
_space_group_symop_operation_xyz
x,y,z
-x,y,-z
1/2+x,1/2+y,z
1/2-x,1/2+y,-z
loop_
_atom_site_type_symbol
_atom_site_label
_atom_site_fract_x
_atom_site_fract_y
_atom_site_fract_z
Si Si1 0.752627 0.117620 0.112010
Si Si2 0.677110 0.372175 0.525873
Si Si3 0.183479 0.301967 0.954058
Si Si4 0.000000 0.034132 0.500000
Si Si5 0.543060 0.022884 0.756702
O O1 0.748867 0.210975 0.048685
O O2 0.598293 0.091874 0.258716
O O3 0.708008 0.066633 0.855342
O O4 0.915860 0.089203 0.274297
O O5 0.500000 0.332158 0.500000
O O6 0.781036 0.339178 0.312854
O O7 0.639155 0.466683 0.471470
O O8 0.738793 0.354499 0.812602
O O9 0.000000 0.291642 0.000000
O O10 0.500000 0.977123 0.500000
O O11 0.500000 0.972833 0.000000
#
# Coordination Sequence:
#
# PCOD9128778 Si02
#       5
#     4   4   4   2   4
#     4   9  24  40  77 111 147 192 261 326 369 451
#     4  10  27  49  75 106 153 215 249 302 399 476
#     4  12  26  47  75 115 152 204 258 321 378 467
#     4  10  24  52  74 116 152 206 258 322 390 466
#     4   8  20  38  60 102 142 185 229 309 379 427
#
# _framework density 24.478019
#
# number of rings (size 3 to 8) (size 9 to 14) (size 15 to 20)
#    2.000    0.000    0.000    1.333   12.444    0.000 
#   16.000    0.000    0.000    0.000    0.000    0.000 
#    0.000    0.000    0.000    0.000    0.000    0.000 
#
# Total GULP energy -50208.410351 kJ/mol
# GULP energy per Si atom -5578.712261 kJ/mol
# Density = 2.442231 g / cm^3
# Si number density = 24.478019 Si / 1000 Ang^3
#
#
#
# Elastic Constant Matrix: (Units=GPa)
#
#
# Indices 1 2 3 4 5 6 
#
# 1 94.2494 31.8983 20.6915 0.0000 21.7607 0.0000
# 2 31.8983 128.1051 65.9872 0.0000 3.2333 0.0000
# 3 20.6915 65.9872 159.5924 0.0000 20.8018 0.0000
# 4 0.0000 0.0000 0.0000 25.2400 0.0000 -10.2324
# 5 21.7607 3.2333 20.8018 0.0000 55.8540 0.0000
# 6 0.0000 0.0000 0.0000 -10.2324 0.0000 4.4085
#
#
#
# Elastic Compliance Matrix: (Units=1/GPa)
#
#
# Indices 1 2 3 4 5 6 
#
# 1 0.012761 -0.003216 0.000314 0.000000 -0.004903 0.000000
# 2 -0.003216 0.010782 -0.004334 0.000000 0.002243 0.000000
# 3 0.000314 -0.004334 0.008409 0.000000 -0.003003 0.000000
# 4 0.000000 0.000000 0.000000 0.671194 0.000000 1.557891
# 5 -0.004903 0.002243 -0.003003 0.000000 0.020803 0.000000
# 6 0.000000 0.000000 0.000000 1.557891 0.000000 3.842821
#
#
# Mechanical properties :
#
#
# Convention : Reuss Voigt Hill
#
# Bulk Modulus (GPa) = 57.20176 68.78899 62.99538
# Shear Modulus (GPa) = 1.09002 34.65850 17.87426
#
# Velocity S-wave (km/s) = 0.66804 3.76693 2.70518
# Velocity P-wave (km/s) = 4.90045 6.86171 5.96227
#
# Compressibility (1/GPa) = 0.01748198
#
# Stress axis : x y z
#
# Youngs Moduli (GPa) = 78.36085 92.74319 118.92694
#
# Poissons Ratio (x) = 0.29823 -0.03735
# Poissons Ratio (y) = 0.25198 0.51539
# Poissons Ratio (z) = -0.02461 0.40192
#
# Static dielectric constant tensor:
#      x y z
#    x 2.072670 0.000000 -0.045930 
#    y 0.000000 1.888720 0.000000 
#    z -0.045930 0.000000 2.142990 
# 
# From -- ./inp_files/2207.got.cif
#   From: 2010.05.17/outbox.cif.g08.bks.cpg/sg5_2_cif.got.tgz:2207.got - 2010.06.03 18:56:24.
