data_PCOD9128810
_publ_section_title
;
Structure prediction by ZEFSAII (Michael W. Deem and Ramdas Pophale) SiO2 
 PCOD9128810
Probable space group: C 2
;
_chemical_formula_sum "Si O2"
_cell_formula_units_Z 32
_cell_length_a 8.390809
_cell_length_b 11.415162
_cell_length_c 14.910484
_cell_angle_alpha 90.000000
_cell_angle_beta 83.330427
_cell_angle_gamma 90.000000
_cell_volume 1418.497463
_symmetry_space_group_name_H-M "C 2"
_symmetry_group_IT_number 5
_symmetry_cell_setting 'monoclinic'
loop_
_space_group_symop_operation_xyz
x,y,z
-x,y,-z
1/2+x,1/2+y,z
1/2-x,1/2+y,-z
loop_
_atom_site_type_symbol
_atom_site_label
_atom_site_fract_x
_atom_site_fract_y
_atom_site_fract_z
Si Si1 0.244646 0.148420 0.787749
Si Si2 0.231509 0.056206 0.191051
Si Si3 0.766361 0.522972 0.441006
Si Si4 0.440501 0.989645 0.901574
Si Si5 0.423501 0.367325 0.686676
Si Si6 0.928408 0.228133 0.905786
Si Si7 0.876681 0.480115 0.633819
Si Si8 0.737209 0.743488 0.348367
O O1 0.333050 0.094560 0.869784
O O2 0.331265 0.257263 0.734789
O O3 0.070556 0.192542 0.828247
O O4 0.268857 0.045131 0.713838
O O5 0.398045 0.989121 0.169058
O O6 0.247951 0.160368 0.261617
O O7 0.195384 0.123427 0.101488
O O8 0.096507 0.967759 0.235893
O O9 0.661097 0.428050 0.393989
O O10 0.795403 0.493309 0.541887
O O11 0.700100 0.653935 0.431092
O O12 0.944235 0.530462 0.385287
O O13 0.364266 0.860031 0.895330
O O14 0.500000 0.002433 0.000000
O O15 0.598506 0.317180 0.652907
O O16 0.000000 0.227147 0.000000
O O17 0.894668 0.343200 0.653453
#
# Coordination Sequence:
#
# PCOD9128810 Si02
#       8
#     4   4   4   4   4   4   4   4
#     4  12  22  42  68  94 128 175 216 264 326 387
#     4  11  22  41  63  92 127 164 216 264 316 390
#     4  10  25  43  61  96 131 166 214 272 318 377
#     4  11  23  42  64  92 129 168 215 269 328 383
#     4  11  22  41  67  91 129 169 212 266 321 386
#     4  11  25  42  66  96 132 170 215 272 324 386
#     4  11  24  42  67  93 127 174 216 264 324 386
#     4  11  23  42  64  92 126 169 211 264 323 377
#
# _framework density 22.559080999999999
#
# number of rings (size 3 to 8) (size 9 to 14) (size 15 to 20)
#    0.000    1.000    3.750    3.000    3.500    0.500 
#    0.000    0.625    0.000    0.000    0.000    0.000 
#    0.000    0.000    0.000    0.000    0.000    0.000 
#
# Total GULP energy -89449.371509 kJ/mol
# GULP energy per Si atom -5590.585719 kJ/mol
# Density = 2.250774 g / cm^3
# Si number density = 22.559081 Si / 1000 Ang^3
#
#
#
# Elastic Constant Matrix: (Units=GPa)
#
#
# Indices 1 2 3 4 5 6 
#
# 1 45.9239 17.4065 -3.9133 0.0000 -3.6663 0.0000
# 2 17.4065 141.0583 33.7730 0.0000 18.5414 0.0000
# 3 -3.9133 33.7730 92.2878 0.0000 7.4719 0.0000
# 4 0.0000 0.0000 0.0000 16.3198 0.0000 9.1396
# 5 -3.6663 18.5414 7.4719 0.0000 29.6165 0.0000
# 6 0.0000 0.0000 0.0000 9.1396 0.0000 36.9036
#
#
#
# Elastic Compliance Matrix: (Units=1/GPa)
#
#
# Indices 1 2 3 4 5 6 
#
# 1 0.023914 -0.004115 0.002115 0.000000 0.005003 0.000000
# 2 -0.004115 0.009035 -0.003044 0.000000 -0.005398 0.000000
# 3 0.002115 -0.003044 0.012111 0.000000 -0.000888 0.000000
# 4 0.000000 0.000000 0.000000 0.071143 0.000000 -0.017619
# 5 0.005003 -0.005398 -0.000888 0.000000 0.037988 0.000000
# 6 0.000000 0.000000 0.000000 -0.017619 0.000000 0.031461
#
#
# Mechanical properties :
#
#
# Convention : Reuss Voigt Hill
#
# Bulk Modulus (GPa) = 28.59361 41.53360 35.06360
# Shear Modulus (GPa) = 24.10816 32.03490 28.07153
#
# Velocity S-wave (km/s) = 3.27259 3.77244 3.53137
# Velocity P-wave (km/s) = 5.19445 6.11768 5.67487
#
# Compressibility (1/GPa) = 0.03497285
#
# Stress axis : x y z
#
# Youngs Moduli (GPa) = 41.81564 110.67559 82.56823
#
# Poissons Ratio (x) = 0.45543 -0.17462
# Poissons Ratio (y) = 0.17207 0.25134
# Poissons Ratio (z) = -0.08843 0.33689
#
# Static dielectric constant tensor:
#      x y z
#    x 1.857050 0.000000 0.029830 
#    y 0.000000 1.846820 0.000000 
#    z 0.029830 0.000000 1.864460 
# 
# From -- ./inp_files/50496.got.cif
#   From: 2010.05.17/outbox.cif.g08.bks.cpg/sg5_26_cif.got.tgz:50496.got - 2010.06.03 18:56:24.
