data_PCOD9128348
_publ_section_title
;
Structure prediction by ZEFSAII (Michael W. Deem and Ramdas Pophale) SiO2 
 PCOD9128348
Probable space group: C 2
;
_chemical_formula_sum "Si O2"
_cell_formula_units_Z 28
_cell_length_a 18.757097
_cell_length_b 5.032484
_cell_length_c 14.820111
_cell_angle_alpha 90.000000
_cell_angle_beta 51.468183
_cell_angle_gamma 90.000000
_cell_volume 1094.339084
_symmetry_space_group_name_H-M "C 2"
_symmetry_group_IT_number 5
_symmetry_cell_setting 'monoclinic'
loop_
_space_group_symop_operation_xyz
x,y,z
-x,y,-z
1/2+x,1/2+y,z
1/2-x,1/2+y,-z
loop_
_atom_site_type_symbol
_atom_site_label
_atom_site_fract_x
_atom_site_fract_y
_atom_site_fract_z
Si Si1 0.788717 0.215750 0.014994
Si Si2 0.460295 0.009305 0.873756
Si Si3 0.393714 0.629893 0.251548
Si Si4 0.000000 0.869894 0.000000
Si Si5 0.301927 0.558117 0.761004
Si Si6 0.799779 0.545138 0.653842
Si Si7 0.525047 0.392753 0.294354
Si Si8 0.000000 0.581558 0.500000
O O1 0.897711 0.248416 0.927730
O O2 0.746283 0.419321 0.973617
O O3 0.758418 0.369417 0.128270
O O4 0.566895 0.930841 0.781835
O O5 0.445409 0.177903 0.975182
O O6 0.433704 0.175587 0.806919
O O7 0.286839 0.572904 0.342994
O O8 0.443149 0.511800 0.301013
O O9 0.435002 0.524779 0.122479
O O10 0.264730 0.834934 0.756008
O O11 0.396303 0.598139 0.740221
O O12 0.317502 0.350371 0.667377
O O13 0.903121 0.432756 0.560488
O O14 0.503138 0.249796 0.405177
#
# Coordination Sequence:
#
# PCOD9128348 Si02
#       8
#     4   4   4   2   4   4   4   2
#     4  12  24  38  65 102 142 191 237 286 359 436
#     4  11  24  42  67 104 147 191 243 299 360 445
#     4  11  25  44  74 108 147 198 239 305 360 454
#     4  10  24  42  68 102 152 192 232 286 368 442
#     4  11  24  45  71 105 147 190 240 302 362 442
#     4  11  27  47  75 105 144 189 249 305 370 432
#     4  10  24  48  70 102 142 186 247 308 369 429
#     4  10  26  54  74 104 136 194 242 318 374 430
#
# _framework density 25.586220000000001
#
# number of rings (size 3 to 8) (size 9 to 14) (size 15 to 20)
#    0.000    1.143    1.429    3.000   16.000    2.286 
#    2.571    0.000    0.000    0.000    0.000    0.000 
#    0.000    0.000    0.000    0.000    0.000    0.000 
#
# Total GULP energy -78208.293660 kJ/mol
# GULP energy per Si atom -5586.306690 kJ/mol
# Density = 2.552798 g / cm^3
# Si number density = 25.586220 Si / 1000 Ang^3
#
#
#
# Elastic Constant Matrix: (Units=GPa)
#
#
# Indices 1 2 3 4 5 6 
#
# 1 194.8054 38.1278 38.3312 -0.0003 -18.1202 0.0089
# 2 38.1278 97.0806 1.5972 -0.0150 10.5526 -0.0424
# 3 38.3312 1.5972 62.5916 0.0124 11.8226 -0.0029
# 4 -0.0003 -0.0150 0.0124 23.2995 -0.0014 4.0657
# 5 -18.1202 10.5526 11.8226 -0.0014 49.4832 -0.0147
# 6 0.0089 -0.0424 -0.0029 4.0657 -0.0147 45.2384
#
#
#
# Elastic Compliance Matrix: (Units=1/GPa)
#
#
# Indices 1 2 3 4 5 6 
#
# 1 0.007218 -0.003247 -0.005203 0.000002 0.004579 -0.000003
# 2 -0.003247 0.012007 0.002503 0.000004 -0.004348 0.000010
# 3 -0.005203 0.002503 0.020484 -0.000010 -0.007333 0.000003
# 4 0.000002 0.000004 -0.000010 0.043603 0.000002 -0.003919
# 5 0.004579 -0.004348 -0.007333 0.000002 0.024565 0.000002
# 6 -0.000003 0.000010 0.000003 -0.003919 0.000002 0.022457
#
#
# Mechanical properties :
#
#
# Convention : Reuss Voigt Hill
#
# Bulk Modulus (GPa) = 35.94913 56.73222 46.34067
# Shear Modulus (GPa) = 33.00327 42.03231 37.51779
#
# Velocity S-wave (km/s) = 3.59539 4.05751 3.83342
# Velocity P-wave (km/s) = 5.59611 6.64622 6.14365
#
# Compressibility (1/GPa) = 0.02781709
#
# Stress axis : x y z
#
# Youngs Moduli (GPa) = 138.53355 83.28176 48.81884
#
# Poissons Ratio (x) = 0.27043 0.25399
# Poissons Ratio (y) = 0.44984 -0.12221
# Poissons Ratio (z) = 0.72074 -0.20849
#
# Static dielectric constant tensor:
#      x y z
#    x 2.040830 0.000020 -0.057740 
#    y 0.000020 1.999730 -0.000010 
#    z -0.057740 -0.000010 2.143360 
# 
# From -- ./inp_files/55378.got.cif
#   From: 2010.05.17/outbox.cif.g08.bks.cpg/sg5_28_cif.got.tgz:55378.got - 2010.06.03 18:56:24.
