data_PCOD9128785
_publ_section_title
;
Structure prediction by ZEFSAII (Michael W. Deem and Ramdas Pophale) SiO2 
 PCOD9128785
Probable space group: C 2
;
_chemical_formula_sum "Si O2"
_cell_formula_units_Z 20
_cell_length_a 9.144589
_cell_length_b 5.206629
_cell_length_c 17.768232
_cell_angle_alpha 90.000000
_cell_angle_beta 83.076863
_cell_angle_gamma 90.000000
_cell_volume 839.821307
_symmetry_space_group_name_H-M "C 2"
_symmetry_group_IT_number 5
_symmetry_cell_setting 'monoclinic'
loop_
_space_group_symop_operation_xyz
x,y,z
-x,y,-z
1/2+x,1/2+y,z
1/2-x,1/2+y,-z
loop_
_atom_site_type_symbol
_atom_site_label
_atom_site_fract_x
_atom_site_fract_y
_atom_site_fract_z
Si Si1 0.384347 0.952960 0.355362
Si Si2 0.542072 0.989873 0.911111
Si Si3 0.084546 0.809882 0.781421
Si Si4 0.039842 0.958650 0.411430
Si Si5 0.790705 0.657017 0.825401
O O1 0.390003 0.057929 0.269473
O O2 0.472528 0.691765 0.366195
O O3 0.215056 0.934433 0.390975
O O4 0.462715 0.190539 0.393909
O O5 0.602416 0.250757 0.869524
O O6 0.668780 0.788239 0.884926
O O7 0.396085 0.969276 0.868122
O O8 0.500000 0.002154 0.000000
O O9 0.208854 0.018501 0.761647
O O10 0.910747 0.861957 0.786236
O O11 0.000000 0.019194 0.500000
#
# Coordination Sequence:
#
# PCOD9128785 Si02
#       5
#     4   4   4   4   4
#     4  12  26  43  77 100 146 183 233 283 348 405
#     4  10  26  40  66  90 131 172 223 276 338 393
#     4  10  26  42  67  95 132 171 229 273 338 398
#     4  12  26  47  72 108 143 184 229 282 346 418
#     4  10  25  38  65  87 133 160 230 270 342 388
#
# _framework density 23.814589999999999
#
# number of rings (size 3 to 8) (size 9 to 14) (size 15 to 20)
#    1.200    0.000    0.000    4.200   11.200    0.800 
#    0.000    0.000    0.000    0.000    0.000    0.000 
#    0.000    0.000    0.000    0.000    0.000    0.000 
#
# Total GULP energy -55839.313032 kJ/mol
# GULP energy per Si atom -5583.931303 kJ/mol
# Density = 2.376039 g / cm^3
# Si number density = 23.814590 Si / 1000 Ang^3
#
#
#
# Elastic Constant Matrix: (Units=GPa)
#
#
# Indices 1 2 3 4 5 6 
#
# 1 194.0165 58.0736 32.0116 0.0000 -9.4469 0.0000
# 2 58.0736 78.7309 4.0898 0.0000 8.0268 0.0000
# 3 32.0116 4.0898 104.9321 0.0000 -11.6673 0.0000
# 4 0.0000 0.0000 0.0000 30.0952 0.0000 10.4743
# 5 -9.4469 8.0268 -11.6673 0.0000 31.0810 0.0000
# 6 0.0000 0.0000 0.0000 10.4743 0.0000 43.2742
#
#
#
# Elastic Compliance Matrix: (Units=1/GPa)
#
#
# Indices 1 2 3 4 5 6 
#
# 1 0.007239 -0.005561 -0.001656 0.000000 0.003014 0.000000
# 2 -0.005561 0.017403 0.000345 0.000000 -0.006055 0.000000
# 3 -0.001656 0.000345 0.010390 0.000000 0.003308 0.000000
# 4 0.000000 0.000000 0.000000 0.036285 0.000000 -0.008782
# 5 0.003014 -0.006055 0.003308 0.000000 0.035896 0.000000
# 6 0.000000 0.000000 0.000000 -0.008782 0.000000 0.025234
#
#
# Mechanical properties :
#
#
# Convention : Reuss Voigt Hill
#
# Bulk Modulus (GPa) = 46.97825 62.89217 54.93521
# Shear Modulus (GPa) = 32.61893 39.79038 36.20465
#
# Velocity S-wave (km/s) = 3.70497 4.09203 3.90330
# Velocity P-wave (km/s) = 6.17024 6.98517 6.59032
#
# Compressibility (1/GPa) = 0.02128645
#
# Stress axis : x y z
#
# Youngs Moduli (GPa) = 138.14577 57.46265 96.24996
#
# Poissons Ratio (x) = 0.31953 0.15943
# Poissons Ratio (y) = 0.76819 -0.03319
# Poissons Ratio (z) = 0.22883 -0.01982
#
# Static dielectric constant tensor:
#      x y z
#    x 1.945030 0.000000 0.033620 
#    y 0.000000 1.967350 0.000000 
#    z 0.033620 0.000000 1.933240 
# 
# From -- ./inp_files/64189.got.cif
#   From: 2010.05.17/outbox.cif.g08.bks.cpg/sg5_33_cif.got.tgz:64189.got - 2010.06.03 18:56:24.
