data_PCOD9128089
_publ_section_title
;
Structure prediction by ZEFSAII (Michael W. Deem and Ramdas Pophale) SiO2 
 PCOD9128089
Probable space group: C 2
;
_chemical_formula_sum "Si O2"
_cell_formula_units_Z 18
_cell_length_a 6.587079
_cell_length_b 18.977064
_cell_length_c 8.421093
_cell_angle_alpha 90.000000
_cell_angle_beta 54.265535
_cell_angle_gamma 90.000000
_cell_volume 854.482592
_symmetry_space_group_name_H-M "C 2"
_symmetry_group_IT_number 5
_symmetry_cell_setting 'monoclinic'
loop_
_space_group_symop_operation_xyz
x,y,z
-x,y,-z
1/2+x,1/2+y,z
1/2-x,1/2+y,-z
loop_
_atom_site_type_symbol
_atom_site_label
_atom_site_fract_x
_atom_site_fract_y
_atom_site_fract_z
Si Si1 0.261845 0.412950 0.787634
Si Si2 0.500000 0.182500 0.000000
Si Si3 0.225245 0.750749 0.202225
Si Si4 0.956924 0.147132 0.343100
Si Si5 0.771447 0.987839 0.443784
O O1 0.320756 0.331089 0.728303
O O2 0.509985 0.446988 0.751492
O O3 0.248565 0.456721 0.631287
O O4 0.000000 0.419026 0.000000
O O5 0.541716 0.226376 0.144196
O O6 0.236349 0.141878 0.139638
O O7 0.273205 0.696479 0.324101
O O8 0.500000 0.752614 0.000000
O O9 0.000000 0.176619 0.500000
O O10 0.840191 0.069997 0.412457
O O11 0.500000 0.977289 0.500000
#
# Coordination Sequence:
#
# PCOD9128089 Si02
#       5
#     4   2   4   4   4
#     4  10  23  46  69  96 135 176 226 279 334 407
#     4  10  24  44  70  96 136 176 230 278 332 396
#     4   9  22  43  70 101 132 174 229 278 336 396
#     4  11  24  42  67 102 136 176 223 276 337 403
#     4  11  26  43  63 101 138 177 224 273 341 399
#
# _framework density 21.065380000000001
#
# number of rings (size 3 to 8) (size 9 to 14) (size 15 to 20)
#    0.000    1.778    2.222    0.000    4.667   10.667 
#    8.000    0.000    0.000    0.000    0.000    0.000 
#    0.000    0.000    0.000    0.000    0.000    0.000 
#
# Total GULP energy -50213.563926 kJ/mol
# GULP energy per Si atom -5579.284881 kJ/mol
# Density = 2.101743 g / cm^3
# Si number density = 21.065380 Si / 1000 Ang^3
#
#
#
# Elastic Constant Matrix: (Units=GPa)
#
#
# Indices 1 2 3 4 5 6 
#
# 1 162.0305 76.5352 56.2706 0.0000 -15.5723 0.0000
# 2 76.5352 159.6309 52.6350 0.0000 15.8818 0.0000
# 3 56.2706 52.6350 119.0737 0.0000 -16.3873 0.0000
# 4 0.0000 0.0000 0.0000 10.8685 0.0000 150.4075
# 5 -15.5723 15.8818 -16.3873 0.0000 44.9901 0.0000
# 6 0.0000 0.0000 0.0000 150.4075 0.0000 -866.2042
#
#
#
# Elastic Compliance Matrix: (Units=1/GPa)
#
#
# Indices 1 2 3 4 5 6 
#
# 1 0.009193 -0.004149 -0.001970 0.000000 0.003929 0.000000
# 2 -0.004149 0.009947 -0.003282 0.000000 -0.006143 0.000000
# 3 -0.001970 -0.003282 0.011417 0.000000 0.004635 0.000000
# 4 0.000000 0.000000 0.000000 0.027038 0.000000 0.004695
# 5 0.003929 -0.006143 0.004635 0.000000 0.027444 0.000000
# 6 0.000000 0.000000 0.000000 0.004695 0.000000 -0.000339
#
#
# Mechanical properties :
#
#
# Convention : Reuss Voigt Hill
#
# Bulk Modulus (GPa) = 85.05581 90.17963 87.61772
# Shear Modulus (GPa) = 46.54646 -145.04949 -49.25151
#
# Velocity S-wave (km/s) = 4.70576 -8.30700 -4.84056
# Velocity P-wave (km/s) = 8.36602 7.00757 3.23142
#
# Compressibility (1/GPa) = 0.01175699
#
# Stress axis : x y z
#
# Youngs Moduli (GPa) = 108.77635 100.53347 87.58561
#
# Poissons Ratio (x) = 0.41713 0.17251
# Poissons Ratio (y) = 0.45133 0.28741
# Poissons Ratio (z) = 0.21424 0.32990
#
# Static dielectric constant tensor:
#      x y z
#    x 2.039710 0.000000 -0.003230 
#    y 0.000000 1.738000 0.000000 
#    z -0.003230 0.000000 1.804600 
# 
# From -- ./inp_files/11872.got.cif
#   From: 2010.05.17/outbox.cif.g08.bks.cpg/sg5_6_cif.got.tgz:11872.got - 2010.06.03 18:56:24.
