data_PCOD9128097
_publ_section_title
;
Structure prediction by ZEFSAII (Michael W. Deem and Ramdas Pophale) SiO2 
 PCOD9128097
Probable space group: C 2
;
_chemical_formula_sum "Si O2"
_cell_formula_units_Z 26
_cell_length_a 7.285433
_cell_length_b 8.932002
_cell_length_c 19.055596
_cell_angle_alpha 90.000000
_cell_angle_beta 54.998348
_cell_angle_gamma 90.000000
_cell_volume 1015.739796
_symmetry_space_group_name_H-M "C 2"
_symmetry_group_IT_number 5
_symmetry_cell_setting 'monoclinic'
loop_
_space_group_symop_operation_xyz
x,y,z
-x,y,-z
1/2+x,1/2+y,z
1/2-x,1/2+y,-z
loop_
_atom_site_type_symbol
_atom_site_label
_atom_site_fract_x
_atom_site_fract_y
_atom_site_fract_z
Si Si1 0.331944 0.664740 0.475533
Si Si2 0.000000 0.846653 0.000000
Si Si3 0.461782 0.839466 0.314338
Si Si4 0.362962 0.036182 0.834470
Si Si5 0.252115 0.327357 0.922270
Si Si6 0.871929 0.030039 0.784318
Si Si7 0.961706 0.879875 0.379919
O O1 0.500000 0.625271 0.500000
O O2 0.452833 0.782029 0.396177
O O3 0.298560 0.513815 0.439759
O O4 0.123592 0.733308 0.562134
O O5 0.801198 0.943163 0.078681
O O6 0.111473 0.764795 0.041118
O O7 0.621675 0.966009 0.246754
O O8 0.521585 0.691183 0.255545
O O9 0.212089 0.898129 0.354520
O O10 0.616304 0.032609 0.810230
O O11 0.270703 0.203545 0.858012
O O12 0.355062 0.478944 0.868254
O O13 0.000000 0.351909 0.000000
O O14 0.009035 0.906108 0.709049
#
# Coordination Sequence:
#
# PCOD9128097 Si02
#       7
#     4   2   4   4   4   4   4
#     4  11  23  42  70 104 143 186 235 296 352 428
#     4  12  26  42  74 106 140 188 242 310 366 426
#     4  10  23  46  71 102 147 189 236 294 360 431
#     4  11  24  46  70 105 142 189 242 302 366 426
#     4  12  26  47  74 105 141 190 248 302 367 432
#     4  10  24  46  69 103 146 187 242 301 360 435
#     4  10  24  43  69 102 143 185 236 293 355 430
#
# _framework density 25.597107000000001
#
# number of rings (size 3 to 8) (size 9 to 14) (size 15 to 20)
#    0.000    1.231    2.308    2.308    0.000   13.538 
#    1.385    3.077    0.000    0.923    0.000    0.000 
#    0.000    0.000    0.000    0.000    0.000    0.000 
#
# Total GULP energy -72766.552459 kJ/mol
# GULP energy per Si atom -5597.427112 kJ/mol
# Density = 2.553885 g / cm^3
# Si number density = 25.597107 Si / 1000 Ang^3
#
#
#
# Elastic Constant Matrix: (Units=GPa)
#
#
# Indices 1 2 3 4 5 6 
#
# 1 58.1851 5.6070 37.0719 0.0000 -1.1743 0.0000
# 2 5.6070 66.7314 70.8402 0.0000 -5.1325 0.0000
# 3 37.0719 70.8402 157.5067 0.0000 -11.3743 0.0000
# 4 0.0000 0.0000 0.0000 57.1303 0.0000 -0.7819
# 5 -1.1743 -5.1325 -11.3743 0.0000 46.2007 0.0000
# 6 0.0000 0.0000 0.0000 -0.7819 0.0000 19.9673
#
#
#
# Elastic Compliance Matrix: (Units=1/GPa)
#
#
# Indices 1 2 3 4 5 6 
#
# 1 0.021787 0.006914 -0.008290 0.000000 -0.000719 0.000000
# 2 0.006914 0.030872 -0.015528 0.000000 -0.000218 0.000000
# 3 -0.008290 -0.015528 0.015418 0.000000 0.001860 0.000000
# 4 0.000000 0.000000 0.000000 0.017513 0.000000 0.000686
# 5 -0.000719 -0.000218 0.001860 0.000000 0.022060 0.000000
# 6 0.000000 0.000000 0.000000 0.000686 0.000000 0.050109
#
#
# Mechanical properties :
#
#
# Convention : Reuss Voigt Hill
#
# Bulk Modulus (GPa) = 29.17967 56.60681 42.89324
# Shear Modulus (GPa) = 24.63173 35.91991 30.27582
#
# Velocity S-wave (km/s) = 3.10544 3.75010 3.44289
# Velocity P-wave (km/s) = 4.92775 6.39637 5.70948
#
# Compressibility (1/GPa) = 0.03427043
#
# Stress axis : x y z
#
# Youngs Moduli (GPa) = 45.89814 32.39198 64.85830
#
# Poissons Ratio (x) = -0.22396 0.53765
# Poissons Ratio (y) = -0.31734 1.00712
# Poissons Ratio (z) = 0.38048 0.50298
#
# Static dielectric constant tensor:
#      x y z
#    x 1.992100 0.000000 -0.005520 
#    y 0.000000 1.997080 0.000000 
#    z -0.005520 0.000000 1.985320 
# 
# From -- ./inp_files/64373.got.cif
#   From: 2010.05.17/outbox.cif.g08.bks.cpg/sg5_33_cif.got.tgz:64373.got - 2010.06.03 18:56:24.
