data_PCOD9128014
_publ_section_title
;
Structure prediction by ZEFSAII (Michael W. Deem and Ramdas Pophale) SiO2 
 PCOD9128014
Probable space group: C 2
;
_chemical_formula_sum "Si O2"
_cell_formula_units_Z 24
_cell_length_a 11.149616
_cell_length_b 8.990140
_cell_length_c 11.780546
_cell_angle_alpha 90.000000
_cell_angle_beta 94.497969
_cell_angle_gamma 90.000000
_cell_volume 1177.205122
_symmetry_space_group_name_H-M "C 2"
_symmetry_group_IT_number 5
_symmetry_cell_setting 'monoclinic'
loop_
_space_group_symop_operation_xyz
x,y,z
-x,y,-z
1/2+x,1/2+y,z
1/2-x,1/2+y,-z
loop_
_atom_site_type_symbol
_atom_site_label
_atom_site_fract_x
_atom_site_fract_y
_atom_site_fract_z
Si Si1 0.424519 0.344280 0.288793
Si Si2 0.735997 0.177974 0.896933
Si Si3 0.202281 0.928652 0.279064
Si Si4 0.765949 0.607750 0.710703
Si Si5 0.376203 0.981030 0.924833
Si Si6 0.868377 0.592692 0.468272
O O1 0.379974 0.250880 0.175252
O O2 0.563583 0.389308 0.294132
O O3 0.342842 0.491858 0.288614
O O4 0.394572 0.239549 0.394504
O O5 0.824292 0.315470 0.921571
O O6 0.788776 0.054441 0.815891
O O7 0.706893 0.094111 0.010559
O O8 0.262277 0.772757 0.247421
O O9 0.276979 0.991109 0.390890
O O10 0.872625 0.538553 0.795445
O O11 0.808906 0.624606 0.584825
O O12 0.500000 0.984231 0.000000
O O13 0.000000 0.522281 0.500000
#
# Coordination Sequence:
#
# PCOD9128014 Si02
#       6
#     4   4   4   4   4   4
#     4  10  23  45  67  94 134 171 218 268 321 388
#     4  10  24  42  66  98 128 171 221 265 325 383
#     4  11  23  43  67  93 130 174 212 270 327 382
#     4  11  23  41  66  96 127 174 216 262 325 382
#     4  11  24  42  66  95 133 171 217 269 321 382
#     4  11  23  42  65  95 133 168 212 269 322 386
#
# _framework density 20.387269
#
# number of rings (size 3 to 8) (size 9 to 14) (size 15 to 20)
#    0.000    1.333    1.667    3.000    2.333    4.000 
#    9.000    0.833    0.000    0.000    0.000    0.000 
#    0.000    0.000    0.000    0.000    0.000    0.000 
#
# Total GULP energy -67075.824849 kJ/mol
# GULP energy per Si atom -5589.652071 kJ/mol
# Density = 2.034087 g / cm^3
# Si number density = 20.387269 Si / 1000 Ang^3
#
#
#
# Elastic Constant Matrix: (Units=GPa)
#
#
# Indices 1 2 3 4 5 6 
#
# 1 77.2006 51.4093 23.9874 0.0000 20.7674 0.0000
# 2 51.4093 153.8154 50.1992 0.0000 8.6196 0.0000
# 3 23.9874 50.1992 102.4071 0.0000 8.5062 0.0000
# 4 0.0000 0.0000 0.0000 25.8929 0.0000 5.1582
# 5 20.7674 8.6196 8.5062 0.0000 27.2345 0.0000
# 6 0.0000 0.0000 0.0000 5.1582 0.0000 32.8469
#
#
#
# Elastic Compliance Matrix: (Units=1/GPa)
#
#
# Indices 1 2 3 4 5 6 
#
# 1 0.020867 -0.005929 -0.000837 0.000000 -0.013774 0.000000
# 2 -0.005929 0.009469 -0.003470 0.000000 0.002608 0.000000
# 3 -0.000837 -0.003470 0.011824 0.000000 -0.001957 0.000000
# 4 0.000000 0.000000 0.000000 0.039868 0.000000 -0.006261
# 5 -0.013774 0.002608 -0.001957 0.000000 0.047007 0.000000
# 6 0.000000 0.000000 0.000000 -0.006261 0.000000 0.031427
#
#
# Mechanical properties :
#
#
# Convention : Reuss Voigt Hill
#
# Bulk Modulus (GPa) = 46.10730 64.95722 55.53226
# Shear Modulus (GPa) = 26.57254 31.05001 28.81128
#
# Velocity S-wave (km/s) = 3.61416 3.90681 3.76333
# Velocity P-wave (km/s) = 6.33096 7.23061 6.79569
#
# Compressibility (1/GPa) = 0.02168854
#
# Stress axis : x y z
#
# Youngs Moduli (GPa) = 47.92251 105.60586 84.57153
#
# Poissons Ratio (x) = 0.62616 0.07081
# Poissons Ratio (y) = 0.28414 0.29342
# Poissons Ratio (z) = 0.04012 0.36640
#
# Static dielectric constant tensor:
#      x y z
#    x 1.711520 0.000000 0.008670 
#    y 0.000000 1.707390 0.000000 
#    z 0.008670 0.000000 1.740160 
# 
# From -- ./inp_files/38420.got.cif
#   From: 2010.05.17/outbox.cif.g08.bks.cpg/sg5_20_cif.got.tgz:38420.got - 2010.06.03 18:56:24.
