data_PCOD9128932
_publ_section_title
;
Structure prediction by ZEFSAII (Michael W. Deem and Ramdas Pophale) SiO2 
 PCOD9128932
Probable space group: C 2
;
_chemical_formula_sum "Si O2"
_cell_formula_units_Z 14
_cell_length_a 5.273491
_cell_length_b 19.992472
_cell_length_c 5.189595
_cell_angle_alpha 90.000000
_cell_angle_beta 92.468525
_cell_angle_gamma 90.000000
_cell_volume 546.631902
_symmetry_space_group_name_H-M "C 2"
_symmetry_group_IT_number 5
_symmetry_cell_setting 'monoclinic'
loop_
_space_group_symop_operation_xyz
x,y,z
-x,y,-z
1/2+x,1/2+y,z
1/2-x,1/2+y,-z
loop_
_atom_site_type_symbol
_atom_site_label
_atom_site_fract_x
_atom_site_fract_y
_atom_site_fract_z
Si Si1 0.500000 0.205190 0.500000
Si Si2 0.758752 0.455774 0.174941
Si Si3 0.258941 0.808871 0.179570
Si Si4 0.667208 0.602500 0.264142
O O1 0.714348 0.253297 0.392396
O O2 0.393324 0.155422 0.277644
O O3 0.770640 0.383182 0.306122
O O4 0.754792 0.526123 0.319711
O O5 0.500000 0.455326 0.000000
O O6 0.000000 0.458575 0.000000
O O7 0.500000 0.799590 0.000000
O O8 0.000000 0.806878 0.000000
O O9 0.500000 0.621531 0.500000
O O10 0.500000 0.604674 0.000000
#
# Coordination Sequence:
#
# PCOD9128932 Si02
#       4
#     2   4   4   4
#     4  12  30  44  80 116 160 206 258 330 396 480
#     4   9  21  47  76 109 147 203 261 324 381 464
#     4  10  25  48  77 109 157 205 264 322 395 467
#     4  11  29  49  78 115 158 206 264 321 398 468
#
# _framework density 25.611384000000001
#
# number of rings (size 3 to 8) (size 9 to 14) (size 15 to 20)
#    0.000    1.714    0.000    0.000   18.000    0.000 
#    0.000    0.000    0.000    0.000    0.000    0.000 
#    0.000    0.000    0.000    0.000    0.000    0.000 
#
# Total GULP energy -39227.837496 kJ/mol
# GULP energy per Si atom -5603.976785 kJ/mol
# Density = 2.555309 g / cm^3
# Si number density = 25.611384 Si / 1000 Ang^3
#
#
#
# Elastic Constant Matrix: (Units=GPa)
#
#
# Indices 1 2 3 4 5 6 
#
# 1 174.2202 55.1476 47.8058 0.0000 -4.8136 0.0000
# 2 55.1476 267.3018 53.0869 0.0000 -10.7651 0.0000
# 3 47.8058 53.0869 95.2927 0.0000 2.9899 0.0000
# 4 0.0000 0.0000 0.0000 38.2672 0.0000 -6.2513
# 5 -4.8136 -10.7651 2.9899 0.0000 51.9534 0.0000
# 6 0.0000 0.0000 0.0000 -6.2513 0.0000 35.7526
#
#
#
# Elastic Compliance Matrix: (Units=1/GPa)
#
#
# Indices 1 2 3 4 5 6 
#
# 1 0.006832 -0.000786 -0.003010 0.000000 0.000643 0.000000
# 2 -0.000786 0.004350 -0.002059 0.000000 0.000947 0.000000
# 3 -0.003010 -0.002059 0.013197 0.000000 -0.001465 0.000000
# 4 0.000000 0.000000 0.000000 0.026900 0.000000 0.004704
# 5 0.000643 0.000947 -0.001465 0.000000 0.019588 0.000000
# 6 0.000000 0.000000 0.000000 0.004704 0.000000 0.028792
#
#
# Mechanical properties :
#
#
# Convention : Reuss Voigt Hill
#
# Bulk Modulus (GPa) = 78.92682 94.32168 86.62425
# Shear Modulus (GPa) = 43.25497 50.57959 46.91728
#
# Velocity S-wave (km/s) = 4.11408 4.44879 4.28470
# Velocity P-wave (km/s) = 7.31105 7.95594 7.64030
#
# Compressibility (1/GPa) = 0.01266996
#
# Stress axis : x y z
#
# Youngs Moduli (GPa) = 146.36277 229.86984 75.77477
#
# Poissons Ratio (x) = 0.18065 0.22808
# Poissons Ratio (y) = 0.11503 0.15602
# Poissons Ratio (z) = 0.44055 0.47329
#
# Static dielectric constant tensor:
#      x y z
#    x 1.980840 0.000000 0.080550 
#    y 0.000000 2.032640 0.000000 
#    z 0.080550 0.000000 2.029170 
# 
# From -- ./inp_files/383.got.cif
#   From: 2010.05.17/outbox.cif.g08.bks.cpg/sg5_1_cif.got.tgz:383.got - 2010.06.03 18:56:24.
