data_PCOD9128711
_publ_section_title
;
Structure prediction by ZEFSAII (Michael W. Deem and Ramdas Pophale) SiO2 
 PCOD9128711
Probable space group: C 2
;
_chemical_formula_sum "Si O2"
_cell_formula_units_Z 20
_cell_length_a 9.962034
_cell_length_b 9.623784
_cell_length_c 17.229100
_cell_angle_alpha 90.000000
_cell_angle_beta 149.933700
_cell_angle_gamma 90.000000
_cell_volume 827.552881
_symmetry_space_group_name_H-M "C 2"
_symmetry_group_IT_number 5
_symmetry_cell_setting 'monoclinic'
loop_
_space_group_symop_operation_xyz
x,y,z
-x,y,-z
1/2+x,1/2+y,z
1/2-x,1/2+y,-z
loop_
_atom_site_type_symbol
_atom_site_label
_atom_site_fract_x
_atom_site_fract_y
_atom_site_fract_z
Si Si1 0.547149 0.994190 0.170653
Si Si2 0.596303 0.790005 0.468801
Si Si3 0.543022 0.676935 0.880329
Si Si4 0.404958 0.571703 0.640368
Si Si5 0.741267 0.948293 0.822149
O O1 0.468274 0.838492 0.104249
O O2 0.828702 0.035126 0.275185
O O3 0.501824 0.979159 0.240601
O O4 0.332371 0.108114 0.036916
O O5 0.500000 0.721428 0.500000
O O6 0.751137 0.682550 0.491360
O O7 0.356645 0.846189 0.294080
O O8 0.754993 0.926735 0.573740
O O9 0.461993 0.643453 0.751068
O O10 0.348865 0.589079 0.838377
O O11 0.000000 0.892047 0.000000
#
# Coordination Sequence:
#
# PCOD9128711 Si02
#       5
#     4   4   4   4   4
#     4  11  27  45  78 109 147 191 250 300 370 433
#     4  12  28  47  74 106 149 198 246 304 368 430
#     4  11  25  48  74 109 150 192 242 309 365 436
#     4  12  29  46  75 106 151 196 252 295 367 441
#     4  10  24  48  74 102 146 190 240 306 360 427
#
# _framework density 24.167639999999999
#
# number of rings (size 3 to 8) (size 9 to 14) (size 15 to 20)
#    0.000    0.800    4.000    0.600   11.200    4.800 
#    0.000    0.000    0.000    0.000    0.000    0.000 
#    0.000    0.000    0.000    0.000    0.000    0.000 
#
# Total GULP energy -56016.974498 kJ/mol
# GULP energy per Si atom -5601.697450 kJ/mol
# Density = 2.411263 g / cm^3
# Si number density = 24.167640 Si / 1000 Ang^3
#
#
#
# Elastic Constant Matrix: (Units=GPa)
#
#
# Indices 1 2 3 4 5 6 
#
# 1 92.5709 7.3410 18.6330 -0.0001 -8.8978 0.0001
# 2 7.3410 109.3458 7.9057 0.0008 6.1287 0.0004
# 3 18.6330 7.9057 81.3399 0.0023 -10.3323 0.0011
# 4 -0.0001 0.0008 0.0023 35.4652 0.0009 -4.1681
# 5 -8.8978 6.1287 -10.3323 0.0009 44.6037 0.0003
# 6 0.0001 0.0004 0.0011 -4.1681 0.0003 41.2525
#
#
#
# Elastic Compliance Matrix: (Units=1/GPa)
#
#
# Indices 1 2 3 4 5 6 
#
# 1 0.011506 -0.000708 -0.002332 0.000000 0.001852 0.000000
# 2 -0.000708 0.009354 -0.000956 0.000000 -0.001648 0.000000
# 3 -0.002332 -0.000956 0.013269 -0.000001 0.002740 0.000000
# 4 0.000000 0.000000 -0.000001 0.028536 -0.000001 0.002883
# 5 0.001852 -0.001648 0.002740 -0.000001 0.023650 0.000000
# 6 0.000000 0.000000 0.000000 0.002883 0.000000 0.024532
#
#
# Mechanical properties :
#
#
# Convention : Reuss Voigt Hill
#
# Bulk Modulus (GPa) = 38.25842 39.00177 38.63010
# Shear Modulus (GPa) = 39.19970 40.88941 40.04455
#
# Velocity S-wave (km/s) = 4.03176 4.11774 4.07498
# Velocity P-wave (km/s) = 6.12685 6.22742 6.17734
#
# Compressibility (1/GPa) = 0.02613804
#
# Stress axis : x y z
#
# Youngs Moduli (GPa) = 86.91092 106.90235 75.36226
#
# Poissons Ratio (x) = 0.07566 0.17572
# Poissons Ratio (y) = 0.06151 0.07208
# Poissons Ratio (z) = 0.20265 0.10224
#
# Static dielectric constant tensor:
#      x y z
#    x 1.901590 0.000000 0.010270 
#    y 0.000000 1.926520 0.000000 
#    z 0.010270 0.000000 1.940270 
# 
# From -- ./inp_files/38225.got.cif
#   From: 2010.05.17/outbox.cif.g08.bks.cpg/sg5_20_cif.got.tgz:38225.got - 2010.06.03 18:56:24.
