data_PCOD9128658
_publ_section_title
;
Structure prediction by ZEFSAII (Michael W. Deem and Ramdas Pophale) SiO2 
 PCOD9128658
Probable space group: C 2
;
_chemical_formula_sum "Si O2"
_cell_formula_units_Z 30
_cell_length_a 21.265041
_cell_length_b 6.113887
_cell_length_c 14.255297
_cell_angle_alpha 90.000000
_cell_angle_beta 48.106761
_cell_angle_gamma 90.000000
_cell_volume 1379.623662
_symmetry_space_group_name_H-M "C 2"
_symmetry_group_IT_number 5
_symmetry_cell_setting 'monoclinic'
loop_
_space_group_symop_operation_xyz
x,y,z
-x,y,-z
1/2+x,1/2+y,z
1/2-x,1/2+y,-z
loop_
_atom_site_type_symbol
_atom_site_label
_atom_site_fract_x
_atom_site_fract_y
_atom_site_fract_z
Si Si1 0.958015 0.057520 0.278263
Si Si2 0.634425 0.808441 0.785101
Si Si3 0.000000 0.550856 0.000000
Si Si4 0.240302 0.951770 0.784676
Si Si5 0.343876 0.806039 0.514296
Si Si6 0.174824 0.669813 0.597838
Si Si7 0.087333 0.773859 0.065338
Si Si8 0.711394 0.053131 0.063125
O O1 0.937308 0.216356 0.212639
O O2 0.928700 0.175651 0.403807
O O3 0.887335 0.871660 0.334424
O O4 0.051305 0.961996 0.170098
O O5 0.701403 0.634143 0.754100
O O6 0.668409 0.014176 0.694508
O O7 0.582647 0.903007 0.923411
O O8 0.007556 0.701295 0.083082
O O9 0.291950 0.046838 0.821090
O O10 0.300766 0.802899 0.659045
O O11 0.158718 0.845688 0.918523
O O12 0.272669 0.734807 0.508008
O O13 0.353807 0.053722 0.469392
O O14 0.125059 0.583755 0.092287
O O15 0.753321 0.302541 0.998700
#
# Coordination Sequence:
#
# PCOD9128658 Si02
#       8
#     4   4   2   4   4   4   4   4
#     4  11  22  38  59  95 138 175 213 280 362 412
#     4  11  21  32  58  95 133 171 218 277 346 417
#     4  12  20  32  60 100 138 168 212 290 354 422
#     4  11  22  41  66 101 128 180 241 287 334 430
#     4  11  21  35  61  95 131 180 225 274 338 427
#     4  11  19  36  54  90 134 176 208 266 353 411
#     4  11  23  42  66  99 138 174 227 291 362 414
#     4  10  24  47  71 101 136 189 235 293 355 419
#
# _framework density 21.745059000000001
#
# number of rings (size 3 to 8) (size 9 to 14) (size 15 to 20)
#    0.000    1.067    4.000    4.000    0.000    2.133 
#    0.000    0.000    0.000    0.800    6.933    0.000 
#    0.000    0.000    0.000    0.000    0.000    0.000 
#
# Total GULP energy -83501.191812 kJ/mol
# GULP energy per Si atom -5566.746121 kJ/mol
# Density = 2.169557 g / cm^3
# Si number density = 21.745059 Si / 1000 Ang^3
#
#
#
# Elastic Constant Matrix: (Units=GPa)
#
#
# Indices 1 2 3 4 5 6 
#
# 1 66.7859 10.2241 18.1955 0.0035 19.4546 -0.0006
# 2 10.2241 68.7091 40.8504 0.0155 2.9299 -0.0106
# 3 18.1955 40.8504 144.0624 0.0216 6.4252 -0.0079
# 4 0.0035 0.0155 0.0216 36.9011 -0.0041 -4.8260
# 5 19.4546 2.9299 6.4252 -0.0041 19.5764 0.0008
# 6 -0.0006 -0.0106 -0.0079 -4.8260 0.0008 31.9043
#
#
#
# Elastic Compliance Matrix: (Units=1/GPa)
#
#
# Indices 1 2 3 4 5 6 
#
# 1 0.021650 -0.001515 -0.001375 -0.000003 -0.020837 0.000000
# 2 -0.001515 0.017631 -0.004828 -0.000004 0.000452 0.000004
# 3 -0.001375 -0.004828 0.008516 -0.000003 -0.000705 0.000000
# 4 -0.000003 -0.000004 -0.000003 0.027646 0.000010 0.004182
# 5 -0.020837 0.000452 -0.000705 0.000010 0.071953 -0.000001
# 6 0.000000 0.000004 0.000000 0.004182 -0.000001 0.031976
#
#
# Mechanical properties :
#
#
# Convention : Reuss Voigt Hill
#
# Bulk Modulus (GPa) = 30.90384 46.45525 38.67954
# Shear Modulus (GPa) = 24.31963 31.69553 28.00758
#
# Velocity S-wave (km/s) = 3.34787 3.82199 3.59276
# Velocity P-wave (km/s) = 5.40251 6.39428 5.91920
#
# Compressibility (1/GPa) = 0.03235844
#
# Stress axis : x y z
#
# Youngs Moduli (GPa) = 46.19034 56.71864 117.43005
#
# Poissons Ratio (x) = 0.08594 0.16152
# Poissons Ratio (y) = 0.06999 0.56697
# Poissons Ratio (z) = 0.06353 0.27385
#
# Static dielectric constant tensor:
#      x y z
#    x 1.760850 0.000000 -0.040420 
#    y 0.000000 1.929300 -0.000030 
#    z -0.040420 -0.000030 1.901930 
# 
# From -- ./inp_files/57458.got.cif
#   From: 2010.05.17/outbox.cif.g08.bks.cpg/sg5_29_cif.got.tgz:57458.got - 2010.06.03 18:56:24.
