data_PCOD9128184
_publ_section_title
;
Structure prediction by ZEFSAII (Michael W. Deem and Ramdas Pophale) SiO2 
 PCOD9128184
Probable space group: C 2
;
_chemical_formula_sum "Si O2"
_cell_formula_units_Z 28
_cell_length_a 14.194577
_cell_length_b 5.283025
_cell_length_c 14.360653
_cell_angle_alpha 90.000000
_cell_angle_beta 101.132219
_cell_angle_gamma 90.000000
_cell_volume 1056.646884
_symmetry_space_group_name_H-M "C 2"
_symmetry_group_IT_number 5
_symmetry_cell_setting 'monoclinic'
loop_
_space_group_symop_operation_xyz
x,y,z
-x,y,-z
1/2+x,1/2+y,z
1/2-x,1/2+y,-z
loop_
_atom_site_type_symbol
_atom_site_label
_atom_site_fract_x
_atom_site_fract_y
_atom_site_fract_z
Si Si1 0.370262 0.537650 0.329886
Si Si2 0.728824 0.406835 0.257162
Si Si3 0.010437 0.821247 0.205793
Si Si4 0.718652 0.243250 0.046320
Si Si5 0.777511 0.158472 0.563164
Si Si6 0.500000 0.293342 0.500000
Si Si7 0.000000 0.757118 0.000000
Si Si8 0.533311 0.913916 0.344712
O O1 0.261881 0.635181 0.305094
O O2 0.420703 0.390075 0.254349
O O3 0.247710 0.898878 0.494884
O O4 0.427395 0.804215 0.331045
O O5 0.614507 0.445906 0.237374
O O6 0.753213 0.363649 0.152463
O O7 0.765726 0.616619 0.339238
O O8 0.036665 0.534624 0.242631
O O9 0.984188 0.885756 0.095957
O O10 0.728337 0.488818 0.979891
O O11 0.607534 0.145886 0.035886
O O12 0.957067 0.629687 0.575691
O O13 0.915412 0.941269 0.433783
O O14 0.610672 0.711558 0.393398
#
# Coordination Sequence:
#
# PCOD9128184 Si02
#       8
#     4   4   4   4   4   2   2   4
#     4  11  24  45  73 104 148 202 256 319 383 463
#     4  11  26  48  76 109 155 205 258 325 396 460
#     4  10  23  49  70 108 154 199 257 324 392 471
#     4  11  27  51  82 120 157 204 270 325 397 484
#     4  12  29  48  77 111 158 209 261 322 391 469
#     4  10  26  44  72 102 154 204 266 318 392 456
#     4  10  24  48  80 112 156 210 252 332 404 464
#     4  11  25  45  69 104 150 197 257 320 380 466
#
# _framework density 26.498919999999998
#
# number of rings (size 3 to 8) (size 9 to 14) (size 15 to 20)
#    0.000    1.143    1.429    2.143    8.000    5.143 
#    5.143    0.000    0.000    0.000    0.000    0.000 
#    0.000    0.000    0.000    0.000    0.000    0.000 
#
# Total GULP energy -78095.902913 kJ/mol
# GULP energy per Si atom -5578.278779 kJ/mol
# Density = 2.643861 g / cm^3
# Si number density = 26.498920 Si / 1000 Ang^3
#
#
#
# Elastic Constant Matrix: (Units=GPa)
#
#
# Indices 1 2 3 4 5 6 
#
# 1 95.7146 -0.2771 28.0354 0.0000 9.9892 0.0000
# 2 -0.2771 110.8229 46.9553 0.0000 12.3666 0.0000
# 3 28.0354 46.9553 175.2737 0.0000 10.3283 0.0000
# 4 0.0000 0.0000 0.0000 -1.2114 0.0000 0.2266
# 5 9.9892 12.3666 10.3283 0.0000 39.6160 0.0000
# 6 0.0000 0.0000 0.0000 0.2266 0.0000 30.4639
#
#
#
# Elastic Compliance Matrix: (Units=1/GPa)
#
#
# Indices 1 2 3 4 5 6 
#
# 1 0.011307 0.001160 -0.001960 0.000000 -0.002702 0.000000
# 2 0.001160 0.010549 -0.002844 0.000000 -0.002844 0.000000
# 3 -0.001960 -0.002844 0.006804 0.000000 -0.000392 0.000000
# 4 0.000000 0.000000 0.000000 -0.824371 0.000000 0.006132
# 5 -0.002702 -0.002844 -0.000392 0.000000 0.026914 0.000000
# 6 0.000000 0.000000 0.000000 0.006132 0.000000 0.032780
#
#
# Mechanical properties :
#
#
# Convention : Reuss Voigt Hill
#
# Bulk Modulus (GPa) = 46.78993 59.02649 52.90821
# Shear Modulus (GPa) = -6.92899 34.24688 13.65895
#
# Velocity S-wave (km/s) = -1.61879 3.59888 2.27282
# Velocity P-wave (km/s) = 3.76851 6.29227 5.18625
#
# Compressibility (1/GPa) = 0.02137212
#
# Stress axis : x y z
#
# Youngs Moduli (GPa) = 88.43861 94.79885 146.97485
#
# Poissons Ratio (x) = -0.11000 0.28811
# Poissons Ratio (y) = -0.10262 0.41799
# Poissons Ratio (z) = 0.17336 0.26960
#
# Static dielectric constant tensor:
#      x y z
#    x 2.104110 0.000000 -0.048840 
#    y 0.000000 2.120690 0.000000 
#    z -0.048840 0.000000 2.143890 
# 
# From -- ./inp_files/60983.got.cif
#   From: 2010.05.17/outbox.cif.g08.bks.cpg/sg5_31_cif.got.tgz:60983.got - 2010.06.03 18:56:24.
