data_PCOD9128128
_publ_section_title
;
Structure prediction by ZEFSAII (Michael W. Deem and Ramdas Pophale) SiO2 
 PCOD9128128
Probable space group: C 2
;
_chemical_formula_sum "Si O2"
_cell_formula_units_Z 32
_cell_length_a 8.869095
_cell_length_b 22.220592
_cell_length_c 14.544385
_cell_angle_alpha 90.000000
_cell_angle_beta 149.287057
_cell_angle_gamma 90.000000
_cell_volume 1463.955035
_symmetry_space_group_name_H-M "C 2"
_symmetry_group_IT_number 5
_symmetry_cell_setting 'monoclinic'
loop_
_space_group_symop_operation_xyz
x,y,z
-x,y,-z
1/2+x,1/2+y,z
1/2-x,1/2+y,-z
loop_
_atom_site_type_symbol
_atom_site_label
_atom_site_fract_x
_atom_site_fract_y
_atom_site_fract_z
Si Si1 0.348497 0.268160 0.687016
Si Si2 0.696629 0.230500 0.693555
Si Si3 0.865742 0.035052 0.328520
Si Si4 0.570412 0.600946 0.139801
Si Si5 0.758218 0.816052 0.954625
Si Si6 0.806019 0.989615 0.677279
Si Si7 0.107435 0.433817 0.952855
Si Si8 0.546673 0.154423 0.126304
O O1 0.503468 0.264041 0.669438
O O2 0.390780 0.205292 0.765762
O O3 0.000000 0.280927 0.500000
O O4 0.542676 0.313152 0.849286
O O5 0.500000 0.224563 0.500000
O O6 0.761785 0.164570 0.769363
O O7 0.005333 0.264300 0.830754
O O8 0.795480 0.103451 0.262539
O O9 0.000000 0.034490 0.500000
O O10 0.071715 0.007680 0.358131
O O11 0.578135 0.992289 0.174224
O O12 0.733547 0.550615 0.284355
O O13 0.500000 0.580346 0.000000
O O14 0.252559 0.617684 0.013869
O O15 0.584635 0.879128 0.869952
O O16 0.000000 0.813074 0.000000
O O17 0.500000 0.956815 0.500000
O O18 0.054027 0.952983 0.860118
O O19 0.000000 0.417094 0.000000
O O20 0.500000 0.180586 0.000000
#
# Coordination Sequence:
#
# PCOD9128128 Si02
#       8
#     4   4   4   4   4   4   4   4
#     4  12  26  43  68 100 133 176 218 270 329 393
#     4  12  26  44  67  99 135 174 220 270 328 392
#     4  11  24  42  66  97 131 175 216 264 327 388
#     4  12  23  40  67  97 134 178 214 265 330 385
#     4  12  26  46  71  97 128 172 220 276 332 390
#     4  11  25  41  66  98 133 170 216 269 323 388
#     4  10  23  47  68  90 129 174 218 272 328 386
#     4  12  22  41  69  96 135 175 218 263 324 393
#
# _framework density 21.858595000000001
#
# number of rings (size 3 to 8) (size 9 to 14) (size 15 to 20)
#    0.000    0.500    5.000    3.375    3.500    4.500 
#    0.000    2.500    0.000    0.000    0.000    0.000 
#    0.000    0.000    0.000    0.000    0.000    0.000 
#
# Total GULP energy -89488.037604 kJ/mol
# GULP energy per Si atom -5593.002350 kJ/mol
# Density = 2.180884 g / cm^3
# Si number density = 21.858595 Si / 1000 Ang^3
#
#
#
# Elastic Constant Matrix: (Units=GPa)
#
#
# Indices 1 2 3 4 5 6 
#
# 1 86.8714 3.1769 24.9967 0.0009 -10.0748 0.0007
# 2 3.1769 76.7554 3.8995 0.0001 4.3362 0.0000
# 3 24.9967 3.8995 120.1045 0.0007 0.3400 0.0006
# 4 0.0009 0.0001 0.0007 -9.9234 0.0006 -16.2936
# 5 -10.0748 4.3362 0.3400 0.0006 44.4035 0.0004
# 6 0.0007 0.0000 0.0006 -16.2936 0.0004 14.9537
#
#
#
# Elastic Compliance Matrix: (Units=1/GPa)
#
#
# Indices 1 2 3 4 5 6 
#
# 1 0.012626 -0.000556 -0.002618 0.000001 0.002939 0.000000
# 2 -0.000556 0.013147 -0.000307 0.000000 -0.001408 0.000000
# 3 -0.002618 -0.000307 0.008883 0.000000 -0.000632 0.000000
# 4 0.000001 0.000000 0.000000 -0.036131 0.000001 -0.039369
# 5 0.002939 -0.001408 -0.000632 0.000001 0.023330 0.000000
# 6 0.000000 0.000000 0.000000 -0.039369 0.000000 0.023977
#
#
# Mechanical properties :
#
#
# Convention : Reuss Voigt Hill
#
# Bulk Modulus (GPa) = 36.10977 38.65303 37.38140
# Shear Modulus (GPa) = 80.61442 26.66396 53.63919
#
# Velocity S-wave (km/s) = 6.07948 3.49641 4.95908
# Velocity P-wave (km/s) = 8.11391 5.83279 7.06601
#
# Compressibility (1/GPa) = 0.02769334
#
# Stress axis : x y z
#
# Youngs Moduli (GPa) = 79.20320 76.06581 112.57811
#
# Poissons Ratio (x) = 0.04226 0.29473
# Poissons Ratio (y) = 0.04401 0.03459
# Poissons Ratio (z) = 0.20735 0.02337
#
# Static dielectric constant tensor:
#      x y z
#    x 1.860450 0.000000 0.041810 
#    y 0.000000 1.825580 0.000000 
#    z 0.041810 0.000000 1.783130 
# 
# From -- ./inp_files/51663.got.cif
#   From: 2010.05.17/outbox.cif.g08.bks.cpg/sg5_26_cif.got.tgz:51663.got - 2010.06.03 18:56:24.
