data_PCOD9128899
_publ_section_title
;
Structure prediction by ZEFSAII (Michael W. Deem and Ramdas Pophale) SiO2 
 PCOD9128899
Probable space group: C 2
;
_chemical_formula_sum "Si O2"
_cell_formula_units_Z 22
_cell_length_a 6.275311
_cell_length_b 13.443887
_cell_length_c 11.897680
_cell_angle_alpha 90.000000
_cell_angle_beta 104.281101
_cell_angle_gamma 90.000000
_cell_volume 972.724172
_symmetry_space_group_name_H-M "C 2"
_symmetry_group_IT_number 5
_symmetry_cell_setting 'monoclinic'
loop_
_space_group_symop_operation_xyz
x,y,z
-x,y,-z
1/2+x,1/2+y,z
1/2-x,1/2+y,-z
loop_
_atom_site_type_symbol
_atom_site_label
_atom_site_fract_x
_atom_site_fract_y
_atom_site_fract_z
Si Si1 0.033037 0.099610 0.854630
Si Si2 0.000000 0.931063 0.000000
Si Si3 0.718019 0.281858 0.867361
Si Si4 0.500000 0.936307 0.500000
Si Si5 0.000000 0.638822 0.000000
Si Si6 0.694462 0.315068 0.609702
Si Si7 0.636951 0.596899 0.404729
O O1 0.273564 0.087930 0.938307
O O2 0.928621 0.207944 0.874091
O O3 0.025995 0.089584 0.721320
O O4 0.906875 0.005288 0.891884
O O5 0.187723 0.864147 0.962266
O O6 0.542264 0.203665 0.893132
O O7 0.663017 0.329096 0.739003
O O8 0.409374 0.869482 0.589821
O O9 0.305068 0.006515 0.432153
O O10 0.500000 0.346867 0.500000
O O11 0.727663 0.197623 0.597388
O O12 0.500000 0.603661 0.500000
#
# Coordination Sequence:
#
# PCOD9128899 Si02
#       7
#     4   2   4   2   2   4   4
#     4  11  25  50  72 108 150 186 247 300 355 436
#     4  11  24  50  73 106 134 205 234 302 365 420
#     4  10  25  47  70 106 145 188 247 295 357 431
#     4  12  26  46  72 110 146 188 244 290 368 436
#     4  11  22  48  75  98 148 191 234 304 351 422
#     4  11  25  47  73 107 148 192 240 304 359 424
#     4  11  26  48  74 108 148 193 237 301 367 424
#
# _framework density 22.616896000000001
#
# number of rings (size 3 to 8) (size 9 to 14) (size 15 to 20)
#    0.000    1.091    3.636    0.545    7.636    0.000 
#   16.364    0.000    0.000    0.000    0.000    0.000 
#    0.000    0.000    0.000    0.000    0.000    0.000 
#
# Total GULP energy -61366.653393 kJ/mol
# GULP energy per Si atom -5578.786672 kJ/mol
# Density = 2.256542 g / cm^3
# Si number density = 22.616896 Si / 1000 Ang^3
#
#
#
# Elastic Constant Matrix: (Units=GPa)
#
#
# Indices 1 2 3 4 5 6 
#
# 1 69.4824 17.6167 59.9016 0.0000 -9.1908 0.0000
# 2 17.6167 102.1782 32.4684 0.0000 -5.4260 0.0000
# 3 59.9016 32.4684 188.8673 0.0000 -31.1428 0.0000
# 4 0.0000 0.0000 0.0000 -47.2057 0.0000 -4.5697
# 5 -9.1908 -5.4260 -31.1428 0.0000 37.8929 0.0000
# 6 0.0000 0.0000 0.0000 -4.5697 0.0000 7.1377
#
#
#
# Elastic Compliance Matrix: (Units=1/GPa)
#
#
# Indices 1 2 3 4 5 6 
#
# 1 0.020034 -0.001518 -0.006163 0.000000 -0.000423 0.000000
# 2 -0.001518 0.010467 -0.001309 0.000000 0.000055 0.000000
# 3 -0.006163 -0.001309 0.008325 0.000000 0.005160 0.000000
# 4 0.000000 0.000000 0.000000 -0.019948 0.000000 -0.012771
# 5 -0.000423 0.000055 0.005160 0.000000 0.030536 0.000000
# 6 0.000000 0.000000 0.000000 -0.012771 0.000000 0.131925
#
#
# Mechanical properties :
#
#
# Convention : Reuss Voigt Hill
#
# Bulk Modulus (GPa) = 47.96905 64.50014 56.23460
# Shear Modulus (GPa) = 24.24015 16.26773 20.25394
#
# Velocity S-wave (km/s) = 3.27734 2.68484 2.99577
# Velocity P-wave (km/s) = 5.96462 6.17994 6.07323
#
# Compressibility (1/GPa) = 0.02084677
#
# Stress axis : x y z
#
# Youngs Moduli (GPa) = 49.91475 95.53456 120.11717
#
# Poissons Ratio (x) = 0.14505 0.74027
# Poissons Ratio (y) = 0.07578 0.15722
# Poissons Ratio (z) = 0.30762 0.12504
#
# Static dielectric constant tensor:
#      x y z
#    x 1.855120 0.000000 0.019050 
#    y 0.000000 1.877350 0.000000 
#    z 0.019050 0.000000 1.852980 
# 
# From -- ./inp_files/33295.got.cif
#   From: 2010.05.17/outbox.cif.g08.bks.cpg/sg5_17_cif.got.tgz:33295.got - 2010.06.03 18:56:24.
