data_PCOD9128387
_publ_section_title
;
Structure prediction by ZEFSAII (Michael W. Deem and Ramdas Pophale) SiO2 
 PCOD9128387
Probable space group: C 2
;
_chemical_formula_sum "Si O2"
_cell_formula_units_Z 18
_cell_length_a 7.551925
_cell_length_b 15.142062
_cell_length_c 8.774806
_cell_angle_alpha 90.000000
_cell_angle_beta 127.827783
_cell_angle_gamma 90.000000
_cell_volume 792.554394
_symmetry_space_group_name_H-M "C 2"
_symmetry_group_IT_number 5
_symmetry_cell_setting 'monoclinic'
loop_
_space_group_symop_operation_xyz
x,y,z
-x,y,-z
1/2+x,1/2+y,z
1/2-x,1/2+y,-z
loop_
_atom_site_type_symbol
_atom_site_label
_atom_site_fract_x
_atom_site_fract_y
_atom_site_fract_z
Si Si1 0.725651 0.135970 0.181623
Si Si2 0.610050 0.253999 0.397503
Si Si3 0.294996 0.808492 0.008535
Si Si4 0.432636 0.909055 0.627680
Si Si5 0.000000 0.015606 0.500000
O O1 0.667047 0.173220 0.318336
O O2 0.768177 0.220222 0.096361
O O3 0.937031 0.074114 0.319161
O O4 0.500000 0.090458 0.000000
O O5 0.500000 0.229287 0.500000
O O6 0.829018 0.311791 0.542106
O O7 0.431778 0.314004 0.209222
O O8 0.358946 0.890242 0.150921
O O9 0.500000 0.797936 0.000000
O O10 0.500000 0.947440 0.500000
O O11 0.224942 0.960456 0.590538
#
# Coordination Sequence:
#
# PCOD9128387 Si02
#       5
#     4   4   4   4   2
#     4  10  24  43  66  95 135 171 221 275 328 392
#     4  11  21  40  71 101 123 170 226 278 330 382
#     4  11  21  39  71  98 124 169 228 275 322 387
#     4  12  24  42  67  98 133 179 218 274 330 391
#     4  12  26  44  64  96 144 178 210 270 338 400
#
# _framework density 22.711373999999999
#
# number of rings (size 3 to 8) (size 9 to 14) (size 15 to 20)
#    0.000    0.889    5.556    1.333    0.000    3.556 
#    4.000    0.000    0.000    0.000    0.000    0.000 
#    0.000    0.000    0.000    0.000    0.000    0.000 
#
# Total GULP energy -50341.258413 kJ/mol
# GULP energy per Si atom -5593.473157 kJ/mol
# Density = 2.265968 g / cm^3
# Si number density = 22.711374 Si / 1000 Ang^3
#
#
#
# Elastic Constant Matrix: (Units=GPa)
#
#
# Indices 1 2 3 4 5 6 
#
# 1 73.3996 -4.7508 8.2104 0.0000 -22.8847 0.0000
# 2 -4.7508 25.2249 17.0491 0.0000 -2.6345 0.0000
# 3 8.2104 17.0491 120.0852 0.0000 6.5566 0.0000
# 4 0.0000 0.0000 0.0000 11.6351 0.0000 11.7515
# 5 -22.8847 -2.6345 6.5566 0.0000 49.9609 0.0000
# 6 0.0000 0.0000 0.0000 11.7515 0.0000 12.5210
#
#
#
# Elastic Compliance Matrix: (Units=1/GPa)
#
#
# Indices 1 2 3 4 5 6 
#
# 1 0.016862 0.005679 -0.002414 0.000000 0.008340 0.000000
# 2 0.005679 0.046262 -0.007284 0.000000 0.005996 0.000000
# 3 -0.002414 -0.007284 0.009677 0.000000 -0.002760 0.000000
# 4 0.000000 0.000000 0.000000 1.650554 0.000000 -1.549111
# 5 0.008340 0.005996 -0.002760 0.000000 0.024514 0.000000
# 6 0.000000 0.000000 0.000000 -1.549111 0.000000 1.533769
#
#
# Mechanical properties :
#
#
# Convention : Reuss Voigt Hill
#
# Bulk Modulus (GPa) = 15.44112 28.85857 22.14985
# Shear Modulus (GPa) = 1.51000 28.03682 14.77341
#
# Velocity S-wave (km/s) = 0.81628 3.51733 2.55323
# Velocity P-wave (km/s) = 2.77525 5.40646 4.29720
#
# Compressibility (1/GPa) = 0.06476213
#
# Stress axis : x y z
#
# Youngs Moduli (GPa) = 59.30523 21.61603 103.33466
#
# Poissons Ratio (x) = -0.12275 0.24950
# Poissons Ratio (y) = -0.33677 0.75266
# Poissons Ratio (z) = 0.14319 0.15744
#
# Static dielectric constant tensor:
#      x y z
#    x 1.818110 0.000000 -0.001480 
#    y 0.000000 1.862430 0.000000 
#    z -0.001480 0.000000 1.912050 
# 
# From -- ./inp_files/15260.got.cif
#   From: 2010.05.17/outbox.cif.g08.bks.cpg/sg5_8_cif.got.tgz:15260.got - 2010.06.03 18:56:24.
