data_PCOD9128408
_publ_section_title
;
Structure prediction by ZEFSAII (Michael W. Deem and Ramdas Pophale) SiO2 
 PCOD9128408
Probable space group: C 2
;
_chemical_formula_sum "Si O2"
_cell_formula_units_Z 18
_cell_length_a 5.049061
_cell_length_b 25.611854
_cell_length_c 5.271475
_cell_angle_alpha 90.000000
_cell_angle_beta 92.179485
_cell_angle_gamma 90.000000
_cell_volume 681.191943
_symmetry_space_group_name_H-M "C 2"
_symmetry_group_IT_number 5
_symmetry_cell_setting 'monoclinic'
loop_
_space_group_symop_operation_xyz
x,y,z
-x,y,-z
1/2+x,1/2+y,z
1/2-x,1/2+y,-z
loop_
_atom_site_type_symbol
_atom_site_label
_atom_site_fract_x
_atom_site_fract_y
_atom_site_fract_z
Si Si1 0.683674 0.155610 0.756011
Si Si2 0.773360 0.930571 0.668805
Si Si3 0.500000 0.854512 0.000000
Si Si4 0.182659 0.769051 0.753150
Si Si5 0.683742 0.043960 0.756771
O O1 0.500000 0.155844 0.500000
O O2 0.822331 0.211866 0.756271
O O3 0.832056 0.099908 0.760947
O O4 0.500000 0.155123 0.000000
O O5 0.500000 0.932593 0.500000
O O6 0.000000 0.909102 0.500000
O O7 0.842531 0.990083 0.747492
O O8 0.719114 0.893161 0.899879
O O9 0.611580 0.815735 0.215921
O O10 0.000000 0.773209 0.500000
O O11 0.000000 0.771638 0.000000
O O12 0.500000 0.044903 0.500000
O O13 0.500000 0.040887 0.000000
#
# Coordination Sequence:
#
# PCOD9128408 Si02
#       5
#     4   4   2   4   4
#     4   8  15  33  66  99 136 186 236 302 370 444
#     4  11  27  47  74 109 149 199 256 312 380 450
#     4  12  28  44  74 108 154 198 260 308 376 456
#     4  10  24  43  71 105 146 196 251 307 379 446
#     4   9  17  38  69 102 141 185 242 304 375 444
#
# _framework density 26.424268999999999
#
# number of rings (size 3 to 8) (size 9 to 14) (size 15 to 20)
#    0.000    2.222    1.111    0.000    6.222    0.000 
#    0.000    0.000   44.000    0.000    0.000    0.000 
#    0.000    0.000    0.000    0.000    0.000    0.000 
#
# Total GULP energy -50443.105525 kJ/mol
# GULP energy per Si atom -5604.789503 kJ/mol
# Density = 2.636413 g / cm^3
# Si number density = 26.424269 Si / 1000 Ang^3
#
#
#
# Elastic Constant Matrix: (Units=GPa)
#
#
# Indices 1 2 3 4 5 6 
#
# 1 76.6296 30.9424 46.2449 0.0000 7.0190 0.0000
# 2 30.9424 266.5463 28.7885 0.0000 -2.0873 0.0000
# 3 46.2449 28.7885 200.1225 0.0000 5.2449 0.0000
# 4 0.0000 0.0000 0.0000 21.9654 0.0000 13.7342
# 5 7.0190 -2.0873 5.2449 0.0000 65.5774 0.0000
# 6 0.0000 0.0000 0.0000 13.7342 0.0000 -61.7976
#
#
#
# Elastic Compliance Matrix: (Units=1/GPa)
#
#
# Indices 1 2 3 4 5 6 
#
# 1 0.015840 -0.001482 -0.003409 0.000000 -0.001470 0.000000
# 2 -0.001482 0.003951 -0.000234 0.000000 0.000303 0.000000
# 3 -0.003409 -0.000234 0.005821 0.000000 -0.000108 0.000000
# 4 0.000000 0.000000 0.000000 0.039972 0.000000 0.008884
# 5 -0.001470 0.000303 -0.000108 0.000000 0.015425 0.000000
# 6 0.000000 0.000000 0.000000 0.008884 0.000000 -0.014208
#
#
# Mechanical properties :
#
#
# Convention : Reuss Voigt Hill
#
# Bulk Modulus (GPa) = 65.09076 83.91667 74.50371
# Shear Modulus (GPa) = 60.84825 34.30388 47.57607
#
# Velocity S-wave (km/s) = 4.80389 3.60696 4.24780
# Velocity P-wave (km/s) = 7.44690 7.01236 7.23289
#
# Compressibility (1/GPa) = 0.01536316
#
# Stress axis : x y z
#
# Youngs Moduli (GPa) = 63.13148 253.07578 171.78923
#
# Poissons Ratio (x) = 0.37510 0.58556
# Poissons Ratio (y) = 0.09357 0.04018
# Poissons Ratio (z) = 0.21519 0.05919
#
# Static dielectric constant tensor:
#      x y z
#    x 2.108390 0.000000 0.077290 
#    y 0.000000 2.096920 0.000000 
#    z 0.077290 0.000000 2.056180 
# 
# From -- ./inp_files/829.got.cif
#   From: 2010.05.17/outbox.cif.g08.bks.cpg/sg5_1_cif.got.tgz:829.got - 2010.06.03 18:56:24.
