data_PCOD9128609
_publ_section_title
;
Structure prediction by ZEFSAII (Michael W. Deem and Ramdas Pophale) SiO2 
 PCOD9128609
Probable space group: C 2
;
_chemical_formula_sum "Si O2"
_cell_formula_units_Z 26
_cell_length_a 12.844461
_cell_length_b 6.752572
_cell_length_c 21.498999
_cell_angle_alpha 90.000000
_cell_angle_beta 28.879222
_cell_angle_gamma 90.000000
_cell_volume 900.572931
_symmetry_space_group_name_H-M "C 2"
_symmetry_group_IT_number 5
_symmetry_cell_setting 'monoclinic'
loop_
_space_group_symop_operation_xyz
x,y,z
-x,y,-z
1/2+x,1/2+y,z
1/2-x,1/2+y,-z
loop_
_atom_site_type_symbol
_atom_site_label
_atom_site_fract_x
_atom_site_fract_y
_atom_site_fract_z
Si Si1 0.525386 0.554020 0.725940
Si Si2 0.601163 0.048772 0.785300
Si Si3 0.000000 0.629827 0.500000
Si Si4 0.457470 0.444868 0.411323
Si Si5 0.461508 0.677317 0.088748
Si Si6 0.855752 0.762896 0.013967
Si Si7 0.496937 0.997742 0.307846
O O1 0.766467 0.525696 0.625853
O O2 0.492070 0.397248 0.687748
O O3 0.506130 0.758235 0.696894
O O4 0.341593 0.608033 0.871688
O O5 0.548077 0.843427 0.852005
O O6 0.472246 0.208783 0.890113
O O7 0.853752 0.085515 0.663065
O O8 0.143676 0.003468 0.992732
O O9 0.018329 0.770011 0.550887
O O10 0.780523 0.534460 0.460362
O O11 0.232227 0.561437 0.208024
O O12 0.500000 0.773212 0.000000
O O13 0.442742 0.049338 0.264463
O O14 0.000000 0.731913 0.000000
#
# Coordination Sequence:
#
# PCOD9128609 Si02
#       7
#     4   4   2   4   4   4   4
#     4  11  22  45  71 104 151 195 242 322 372 440
#     4  12  24  45  76 105 150 204 245 312 389 442
#     4  10  24  46  72 106 146 200 252 306 382 456
#     4  11  22  40  76 101 143 201 244 305 380 440
#     4  11  25  46  69 108 152 197 247 313 384 446
#     4  11  22  46  73 109 153 187 257 316 368 461
#     4  11  24  43  68 106 149 190 257 309 364 465
#
# _framework density 28.870509999999999
#
# number of rings (size 3 to 8) (size 9 to 14) (size 15 to 20)
#    0.000    0.923    7.692    0.462    4.308    1.231 
#    0.000    4.615    0.000    5.538    0.000    0.000 
#    0.000    0.000    0.000    0.000    0.000    0.000 
#
# Total GULP energy -72801.231300 kJ/mol
# GULP energy per Si atom -5600.094715 kJ/mol
# Density = 2.880480 g / cm^3
# Si number density = 28.870510 Si / 1000 Ang^3
#
#
#
# Elastic Constant Matrix: (Units=GPa)
#
#
# Indices 1 2 3 4 5 6 
#
# 1 173.4271 41.6263 15.7234 -0.0003 -1.8047 0.0001
# 2 41.6263 71.3276 15.7169 -0.0004 -1.4940 0.0003
# 3 15.7234 15.7169 165.6880 -0.0035 2.8212 -0.0006
# 4 -0.0003 -0.0004 -0.0035 35.3299 -0.0007 1.7008
# 5 -1.8047 -1.4940 2.8212 -0.0007 56.9069 -0.0001
# 6 0.0001 0.0003 -0.0006 1.7008 -0.0001 68.7868
#
#
#
# Elastic Compliance Matrix: (Units=1/GPa)
#
#
# Indices 1 2 3 4 5 6 
#
# 1 0.006718 -0.003858 -0.000274 0.000000 0.000125 0.000000
# 2 -0.003858 0.016546 -0.001210 0.000000 0.000372 0.000000
# 3 -0.000274 -0.001210 0.006182 0.000001 -0.000347 0.000000
# 4 0.000000 0.000000 0.000001 0.028338 0.000000 -0.000701
# 5 0.000125 0.000372 -0.000347 0.000000 0.017603 0.000000
# 6 0.000000 0.000000 0.000000 -0.000701 0.000000 0.014555
#
#
# Mechanical properties :
#
#
# Convention : Reuss Voigt Hill
#
# Bulk Modulus (GPa) = 53.29532 61.84176 57.56854
# Shear Modulus (GPa) = 46.78170 54.69649 50.73910
#
# Velocity S-wave (km/s) = 4.02978 4.35736 4.19677
# Velocity P-wave (km/s) = 6.33659 6.83976 6.59298
#
# Compressibility (1/GPa) = 0.01876337
#
# Stress axis : x y z
#
# Youngs Moduli (GPa) = 148.85003 60.43937 161.75799
#
# Poissons Ratio (x) = 0.23316 0.04428
# Poissons Ratio (y) = 0.57422 0.19568
# Poissons Ratio (z) = 0.04075 0.07311
#
# Static dielectric constant tensor:
#      x y z
#    x 2.223600 0.000000 0.019120 
#    y 0.000000 2.416630 0.000000 
#    z 0.019120 0.000000 2.343970 
# 
# From -- ./inp_files/71659.got.cif
#   From: 2010.05.17/outbox.cif.g08.bks.cpg/sg5_36_cif.got.tgz:71659.got - 2010.06.03 18:56:24.
