data_PCOD9128173
_publ_section_title
;
Structure prediction by ZEFSAII (Michael W. Deem and Ramdas Pophale) SiO2 
 PCOD9128173
Probable space group: C 2
;
_chemical_formula_sum "Si O2"
_cell_formula_units_Z 20
_cell_length_a 16.299215
_cell_length_b 7.697506
_cell_length_c 13.368520
_cell_angle_alpha 90.000000
_cell_angle_beta 24.013776
_cell_angle_gamma 90.000000
_cell_volume 682.570965
_symmetry_space_group_name_H-M "C 2"
_symmetry_group_IT_number 5
_symmetry_cell_setting 'monoclinic'
loop_
_space_group_symop_operation_xyz
x,y,z
-x,y,-z
1/2+x,1/2+y,z
1/2-x,1/2+y,-z
loop_
_atom_site_type_symbol
_atom_site_label
_atom_site_fract_x
_atom_site_fract_y
_atom_site_fract_z
Si Si1 0.727394 0.481650 0.145499
Si Si2 0.266150 0.555485 0.630246
Si Si3 0.323060 0.672677 0.278256
Si Si4 0.012991 0.860149 0.105112
Si Si5 0.624723 0.075240 0.230409
O O1 0.506874 0.560866 0.370385
O O2 0.791511 0.543891 0.184865
O O3 0.707272 0.270740 0.163973
O O4 0.860155 0.550279 0.906131
O O5 0.217352 0.365701 0.642612
O O6 0.146481 0.704763 0.706550
O O7 0.408268 0.536299 0.261888
O O8 0.110531 0.591167 0.477240
O O9 0.500000 0.696186 0.000000
O O10 0.000000 0.874876 0.000000
O O11 0.243343 0.909965 0.878107
#
# Coordination Sequence:
#
# PCOD9128173 Si02
#       5
#     4   4   4   4   4
#     4  10  24  47  80 118 166 219 271 348 410 500
#     4  10  23  48  80 112 159 219 279 322 421 492
#     4  10  23  48  79 113 157 214 270 337 401 496
#     4  11  25  43  76 116 150 211 271 332 403 492
#     4  11  26  48  77 122 169 209 276 348 416 479
#
# _framework density 29.300981
#
# number of rings (size 3 to 8) (size 9 to 14) (size 15 to 20)
#    0.000    1.600    0.000    3.000    5.600    8.000 
#    7.200    2.000    0.000    0.000    0.000    0.000 
#    0.000    0.000    0.000    0.000    0.000    0.000 
#
# Total GULP energy -55989.135811 kJ/mol
# GULP energy per Si atom -5598.913581 kJ/mol
# Density = 2.923429 g / cm^3
# Si number density = 29.300981 Si / 1000 Ang^3
#
#
#
# Elastic Constant Matrix: (Units=GPa)
#
#
# Indices 1 2 3 4 5 6 
#
# 1 166.7135 73.3857 85.4680 -0.0006 -4.8750 0.0002
# 2 73.3857 203.0479 95.0798 -0.0008 -44.7099 0.0004
# 3 85.4680 95.0798 197.8652 -0.0021 -23.6645 0.0014
# 4 -0.0006 -0.0008 -0.0021 63.8914 0.0010 -6.6895
# 5 -4.8750 -44.7099 -23.6645 0.0010 54.4062 -0.0004
# 6 0.0002 0.0004 0.0014 -6.6895 -0.0004 50.0085
#
#
#
# Elastic Compliance Matrix: (Units=1/GPa)
#
#
# Indices 1 2 3 4 5 6 
#
# 1 0.008346 -0.002198 -0.002822 0.000000 -0.002286 0.000000
# 2 -0.002198 0.007942 -0.002226 0.000000 0.005362 0.000000
# 3 -0.002822 -0.002226 0.007483 0.000000 0.001173 0.000000
# 4 0.000000 0.000000 0.000000 0.015874 0.000000 0.002123
# 5 -0.002286 0.005362 0.001173 0.000000 0.023092 0.000000
# 6 0.000000 0.000000 0.000000 0.002123 0.000000 0.020281
#
#
# Mechanical properties :
#
#
# Convention : Reuss Voigt Hill
#
# Bulk Modulus (GPa) = 107.77302 119.49929 113.63616
# Shear Modulus (GPa) = 49.70070 54.57411 52.13740
#
# Velocity S-wave (km/s) = 4.12298 4.32039 4.22284
# Velocity P-wave (km/s) = 7.71534 8.10923 7.91474
#
# Compressibility (1/GPa) = 0.00927876
#
# Stress axis : x y z
#
# Youngs Moduli (GPa) = 119.81894 125.90842 133.64127
#
# Poissons Ratio (x) = 0.27679 0.37715
# Poissons Ratio (y) = 0.26340 0.29744
# Poissons Ratio (z) = 0.33814 0.28023
#
# Static dielectric constant tensor:
#      x y z
#    x 2.304330 0.000000 0.047650 
#    y 0.000000 2.422990 0.000000 
#    z 0.047650 0.000000 2.435530 
# 
# From -- ./inp_files/55633.got.cif
#   From: 2010.05.17/outbox.cif.g08.bks.cpg/sg5_28_cif.got.tgz:55633.got - 2010.06.03 18:56:24.
