data_PCOD9128660
_publ_section_title
;
Structure prediction by ZEFSAII (Michael W. Deem and Ramdas Pophale) SiO2 
 PCOD9128660
Probable space group: C 2
;
_chemical_formula_sum "Si O2"
_cell_formula_units_Z 20
_cell_length_a 16.771762
_cell_length_b 7.646209
_cell_length_c 10.603294
_cell_angle_alpha 90.000000
_cell_angle_beta 146.051305
_cell_angle_gamma 90.000000
_cell_volume 759.364355
_symmetry_space_group_name_H-M "C 2"
_symmetry_group_IT_number 5
_symmetry_cell_setting 'monoclinic'
loop_
_space_group_symop_operation_xyz
x,y,z
-x,y,-z
1/2+x,1/2+y,z
1/2-x,1/2+y,-z
loop_
_atom_site_type_symbol
_atom_site_label
_atom_site_fract_x
_atom_site_fract_y
_atom_site_fract_z
Si Si1 0.734545 0.376670 0.128463
Si Si2 0.448845 0.160020 0.801599
Si Si3 0.836681 0.278633 0.982656
Si Si4 0.594831 0.331615 0.500279
Si Si5 0.625078 0.714354 0.458016
O O1 0.775261 0.330933 0.038565
O O2 0.854359 0.301500 0.379031
O O3 0.585747 0.290386 0.975729
O O4 0.711045 0.581509 0.106104
O O5 0.429012 0.163922 0.620340
O O6 0.283633 0.215084 0.609680
O O7 0.500000 0.065315 0.000000
O O8 0.006406 0.307328 0.214908
O O9 0.752629 0.371754 0.761080
O O10 0.500000 0.312143 0.500000
O O11 0.564322 0.517466 0.392901
#
# Coordination Sequence:
#
# PCOD9128660 Si02
#       5
#     4   4   4   4   4
#     4  11  23  47  71 107 152 196 235 311 366 440
#     4  10  24  47  71 102 151 191 232 307 373 421
#     4  12  24  45  76 107 146 192 254 295 370 437
#     4  12  24  49  79 108 146 197 249 305 366 444
#     4  11  25  47  71 105 153 186 245 307 372 426
#
# _framework density 26.337819
#
# number of rings (size 3 to 8) (size 9 to 14) (size 15 to 20)
#    0.000    0.800    4.000    3.000    0.000    5.600 
#   21.600    0.000    0.000    0.000    0.000    0.000 
#    0.000    0.000    0.000    0.000    0.000    0.000 
#
# Total GULP energy -55785.582707 kJ/mol
# GULP energy per Si atom -5578.558271 kJ/mol
# Density = 2.627787 g / cm^3
# Si number density = 26.337819 Si / 1000 Ang^3
#
#
#
# Elastic Constant Matrix: (Units=GPa)
#
#
# Indices 1 2 3 4 5 6 
#
# 1 118.1192 13.7928 56.5833 0.0000 12.0531 0.0000
# 2 13.7928 -0.1016 36.0456 0.0000 1.5130 0.0000
# 3 56.5833 36.0456 207.4677 0.0000 -21.4794 0.0000
# 4 0.0000 0.0000 0.0000 42.4414 0.0000 -10.6262
# 5 12.0531 1.5130 -21.4794 0.0000 61.5123 0.0000
# 6 0.0000 0.0000 0.0000 -10.6262 0.0000 27.7590
#
#
#
# Elastic Compliance Matrix: (Units=1/GPa)
#
#
# Indices 1 2 3 4 5 6 
#
# 1 0.010193 0.003549 -0.003748 0.000000 -0.003393 0.000000
# 2 0.003549 -0.145216 0.025481 0.000000 0.011774 0.000000
# 3 -0.003748 0.025481 0.001480 0.000000 0.000624 0.000000
# 4 0.000000 0.000000 0.000000 0.026060 0.000000 0.009976
# 5 -0.003393 0.011774 0.000624 0.000000 0.016850 0.000000
# 6 0.000000 0.000000 0.000000 0.009976 0.000000 0.039843
#
#
# Mechanical properties :
#
#
# Convention : Reuss Voigt Hill
#
# Bulk Modulus (GPa) = -12.05132 59.81429 23.88149
# Shear Modulus (GPa) = -38.75564 40.94678 1.09557
#
# Velocity S-wave (km/s) = -3.84015 3.94722 0.64566
# Velocity P-wave (km/s) = 4.92422 6.59801 3.10530
#
# Compressibility (1/GPa) = -0.08297849
#
# Stress axis : x y z
#
# Youngs Moduli (GPa) = 98.10383 -6.88631 675.76457
#
# Poissons Ratio (x) = 0.02444 2.53277
# Poissons Ratio (y) = -0.34819 -17.21909
# Poissons Ratio (z) = 0.36769 0.17547
#
# Static dielectric constant tensor:
#      x y z
#    x 1.987340 0.000000 -0.000170 
#    y 0.000000 2.144060 0.000000 
#    z -0.000170 0.000000 2.253390 
# 
# From -- ./inp_files/38221.got.cif
#   From: 2010.05.17/outbox.cif.g08.bks.cpg/sg5_20_cif.got.tgz:38221.got - 2010.06.03 18:56:24.
