data_PCOD9128928
_publ_section_title
;
Structure prediction by ZEFSAII (Michael W. Deem and Ramdas Pophale) SiO2 
 PCOD9128928
Probable space group: C 2
;
_chemical_formula_sum "Si O2"
_cell_formula_units_Z 16
_cell_length_a 26.216884
_cell_length_b 4.631212
_cell_length_c 9.155211
_cell_angle_alpha 90.000000
_cell_angle_beta 152.301403
_cell_angle_gamma 90.000000
_cell_volume 516.689028
_symmetry_space_group_name_H-M "C 2"
_symmetry_group_IT_number 5
_symmetry_cell_setting 'monoclinic'
loop_
_space_group_symop_operation_xyz
x,y,z
-x,y,-z
1/2+x,1/2+y,z
1/2-x,1/2+y,-z
loop_
_atom_site_type_symbol
_atom_site_label
_atom_site_fract_x
_atom_site_fract_y
_atom_site_fract_z
Si Si1 0.385209 0.716910 0.270933
Si Si2 0.845781 0.677023 0.396421
Si Si3 0.173711 0.774981 0.095543
Si Si4 0.893294 0.026511 0.786311
O O1 0.500000 0.586215 0.500000
O O2 0.338886 0.459292 0.279187
O O3 0.592676 0.938485 0.536326
O O4 0.364867 0.007713 0.098186
O O5 0.719431 0.541520 0.106481
O O6 0.886253 0.760390 0.656425
O O7 0.098685 0.917769 0.028698
O O8 0.279952 0.685737 0.461567
O O9 0.000000 0.189731 0.000000
#
# Coordination Sequence:
#
# PCOD9128928 Si02
#       4
#     4   4   4   4
#     4  10  25  49  76 111 158 200 251 320 390 450
#     4  10  26  47  74 113 151 198 261 312 372 475
#     4  10  25  48  75 111 156 193 264 314 370 479
#     4  12  26  50  79 111 155 207 254 320 390 450
#
# _framework density 30.966404000000001
#
# number of rings (size 3 to 8) (size 9 to 14) (size 15 to 20)
#    1.500    0.000    2.500    0.000    7.000    3.000 
#    0.000    1.250    0.000    0.000    0.000    0.000 
#    0.000    0.000    0.000    0.000    0.000    0.000 
#
# Total GULP energy -44749.402756 kJ/mol
# GULP energy per Si atom -5593.675344 kJ/mol
# Density = 3.089592 g / cm^3
# Si number density = 30.966404 Si / 1000 Ang^3
#
#
#
# Elastic Constant Matrix: (Units=GPa)
#
#
# Indices 1 2 3 4 5 6 
#
# 1 284.3296 97.7284 81.6617 0.0000 -20.0935 0.0001
# 2 97.7284 236.8343 42.7650 0.0003 -37.9412 -0.0003
# 3 81.6617 42.7650 139.2169 0.0000 -23.2530 0.0000
# 4 0.0000 0.0003 0.0000 63.6335 0.0000 -13.5098
# 5 -20.0935 -37.9412 -23.2530 0.0000 90.0793 0.0000
# 6 0.0001 -0.0003 0.0000 -13.5098 0.0000 69.7545
#
#
#
# Elastic Compliance Matrix: (Units=1/GPa)
#
#
# Indices 1 2 3 4 5 6 
#
# 1 0.004702 -0.001555 -0.002314 0.000000 -0.000204 0.000000
# 2 -0.001555 0.005216 -0.000398 0.000000 0.001747 0.000000
# 3 -0.002314 -0.000398 0.008934 0.000000 0.001622 0.000000
# 4 0.000000 0.000000 0.000000 0.016389 0.000000 0.003174
# 5 -0.000204 0.001747 0.001622 0.000000 0.012211 0.000000
# 6 0.000000 0.000000 0.000000 0.003174 0.000000 0.014951
#
#
# Mechanical properties :
#
#
# Convention : Reuss Voigt Hill
#
# Bulk Modulus (GPa) = 96.93282 122.74344 109.83813
# Shear Modulus (GPa) = 67.22638 73.90851 70.56744
#
# Velocity S-wave (km/s) = 4.66440 4.89072 4.77890
# Velocity P-wave (km/s) = 7.77041 8.46261 8.12389
#
# Compressibility (1/GPa) = 0.01031642
#
# Stress axis : x y z
#
# Youngs Moduli (GPa) = 212.68498 191.72499 111.93356
#
# Poissons Ratio (x) = 0.29811 0.25905
# Poissons Ratio (y) = 0.33070 0.04458
# Poissons Ratio (z) = 0.49222 0.07637
#
# Static dielectric constant tensor:
#      x y z
#    x 2.384290 0.000000 0.201120 
#    y 0.000000 2.353440 0.000000 
#    z 0.201120 0.000000 2.521600 
# 
# From -- ./inp_files/31462.got.cif
#   From: 2010.05.17/outbox.cif.g08.bks.cpg/sg5_16_cif.got.tgz:31462.got - 2010.06.03 18:56:24.
