data_PCOD9128940
_publ_section_title
;
Structure prediction by ZEFSAII (Michael W. Deem and Ramdas Pophale) SiO2 
 PCOD9128940
Probable space group: C 2
;
_chemical_formula_sum "Si O2"
_cell_formula_units_Z 18
_cell_length_a 10.367291
_cell_length_b 11.056051
_cell_length_c 6.906234
_cell_angle_alpha 90.000000
_cell_angle_beta 79.137776
_cell_angle_gamma 90.000000
_cell_volume 777.418518
_symmetry_space_group_name_H-M "C 2"
_symmetry_group_IT_number 5
_symmetry_cell_setting 'monoclinic'
loop_
_space_group_symop_operation_xyz
x,y,z
-x,y,-z
1/2+x,1/2+y,z
1/2-x,1/2+y,-z
loop_
_atom_site_type_symbol
_atom_site_label
_atom_site_fract_x
_atom_site_fract_y
_atom_site_fract_z
Si Si1 0.836257 0.048730 0.281912
Si Si2 0.402827 0.022874 0.377979
Si Si3 0.517649 0.766901 0.225952
Si Si4 0.792114 0.669924 0.057072
Si Si5 0.000000 0.864399 0.000000
O O1 0.733513 0.004932 0.469825
O O2 0.918021 0.165005 0.329364
O O3 0.240649 0.090034 0.892487
O O4 0.939791 0.948616 0.183516
O O5 0.500000 0.090944 0.500000
O O6 0.475077 0.897557 0.309549
O O7 0.616996 0.279099 0.040939
O O8 0.668259 0.728135 0.204997
O O9 0.500000 0.766677 0.000000
O O10 0.873110 0.592267 0.188903
#
# Coordination Sequence:
#
# PCOD9128940 Si02
#       5
#     4   4   4   4   2
#     4  11  26  49  70 110 142 187 241 288 359 423
#     4  12  28  45  75 109 142 188 243 288 354 428
#     4  10  25  49  76 101 148 191 232 295 361 416
#     4  11  26  49  74 102 148 186 233 300 354 416
#     4  12  24  46  74 102 142 186 238 286 352 424
#
# _framework density 23.153552000000001
#
# number of rings (size 3 to 8) (size 9 to 14) (size 15 to 20)
#    0.000    0.889    3.333    2.667   17.111    0.000 
#    0.000    0.000    0.000    0.000    0.000    0.000 
#    0.000    0.000    0.000    0.000    0.000    0.000 
#
# Total GULP energy -50424.200542 kJ/mol
# GULP energy per Si atom -5602.688949 kJ/mol
# Density = 2.310085 g / cm^3
# Si number density = 23.153552 Si / 1000 Ang^3
#
#
#
# Elastic Constant Matrix: (Units=GPa)
#
#
# Indices 1 2 3 4 5 6 
#
# 1 100.7393 43.3297 10.1544 0.0000 3.5370 0.0000
# 2 43.3297 106.3209 25.5529 0.0000 -1.7681 0.0000
# 3 10.1544 25.5529 96.3300 0.0000 -15.4554 0.0000
# 4 0.0000 0.0000 0.0000 39.2444 0.0000 -26.6089
# 5 3.5370 -1.7681 -15.4554 0.0000 42.3081 0.0000
# 6 0.0000 0.0000 0.0000 -26.6089 0.0000 35.0298
#
#
#
# Elastic Compliance Matrix: (Units=1/GPa)
#
#
# Indices 1 2 3 4 5 6 
#
# 1 0.012102 -0.004910 -0.000179 0.000000 -0.001282 0.000000
# 2 -0.004910 0.012052 -0.002690 0.000000 -0.000069 0.000000
# 3 -0.000179 -0.002690 0.011789 0.000000 0.004209 0.000000
# 4 0.000000 0.000000 0.000000 0.052543 0.000000 0.039912
# 5 -0.001282 -0.000069 0.004209 0.000000 0.025278 0.000000
# 6 0.000000 0.000000 0.000000 0.039912 0.000000 0.058865
#
#
# Mechanical properties :
#
#
# Convention : Reuss Voigt Hill
#
# Bulk Modulus (GPa) = 49.05923 51.27379 50.16651
# Shear Modulus (GPa) = 25.64344 38.27333 31.95839
#
# Velocity S-wave (km/s) = 3.33158 4.07015 3.71924
# Velocity P-wave (km/s) = 6.00282 6.65442 6.33700
#
# Compressibility (1/GPa) = 0.02038352
#
# Stress axis : x y z
#
# Youngs Moduli (GPa) = 82.63356 82.97356 84.82616
#
# Poissons Ratio (x) = 0.40742 0.01517
# Poissons Ratio (y) = 0.40575 0.22822
# Poissons Ratio (z) = 0.01478 0.22323
#
# Static dielectric constant tensor:
#      x y z
#    x 1.891100 0.000000 -0.000510 
#    y 0.000000 1.851120 0.000000 
#    z -0.000510 0.000000 1.877290 
# 
# From -- ./inp_files/18903.got.cif
#   From: 2010.05.17/outbox.cif.g08.bks.cpg/sg5_10_cif.got.tgz:18903.got - 2010.06.03 18:56:24.
