data_PCOD9128367
_publ_section_title
;
Structure prediction by ZEFSAII (Michael W. Deem and Ramdas Pophale) SiO2 
 PCOD9128367
Probable space group: C 2
;
_chemical_formula_sum "Si O2"
_cell_formula_units_Z 20
_cell_length_a 20.545289
_cell_length_b 4.988351
_cell_length_c 8.624829
_cell_angle_alpha 90.000000
_cell_angle_beta 56.295560
_cell_angle_gamma 90.000000
_cell_volume 735.354380
_symmetry_space_group_name_H-M "C 2"
_symmetry_group_IT_number 5
_symmetry_cell_setting 'monoclinic'
loop_
_space_group_symop_operation_xyz
x,y,z
-x,y,-z
1/2+x,1/2+y,z
1/2-x,1/2+y,-z
loop_
_atom_site_type_symbol
_atom_site_label
_atom_site_fract_x
_atom_site_fract_y
_atom_site_fract_z
Si Si1 0.618923 0.621540 0.409517
Si Si2 0.532854 0.625152 0.205454
Si Si3 0.768265 0.436489 0.932279
Si Si4 0.739912 0.884342 0.608434
Si Si5 0.883452 0.642611 0.023097
O O1 0.571851 0.535814 0.318504
O O2 0.558454 0.640513 0.629764
O O3 0.689585 0.433035 0.365309
O O4 0.666253 0.883169 0.286834
O O5 0.565585 0.410739 0.039670
O O6 0.559728 0.920823 0.123584
O O7 0.807336 0.689588 0.006425
O O8 0.710816 0.689432 0.972822
O O9 0.766456 0.077796 0.431345
O O10 0.659448 0.022985 0.771065
#
# Coordination Sequence:
#
# PCOD9128367 Si02
#       5
#     4   4   4   4   4
#     4  10  24  43  68 101 136 162 223 264 340 386
#     4  10  24  42  71 101 128 169 204 292 334 382
#     4  11  21  35  68 102 127 168 207 288 329 375
#     4  12  28  43  65  94 131 180 221 266 310 394
#     4  11  23  42  65  98 131 167 226 261 339 380
#
# _framework density 27.197772000000001
#
# number of rings (size 3 to 8) (size 9 to 14) (size 15 to 20)
#    0.000    1.200    2.000    3.600    2.800   11.200 
#    0.000    6.000    0.000    0.000    0.000    0.000 
#    0.000    0.000    0.000    0.000    0.000    0.000 
#
# Total GULP energy -55877.865874 kJ/mol
# GULP energy per Si atom -5587.786587 kJ/mol
# Density = 2.713587 g / cm^3
# Si number density = 27.197772 Si / 1000 Ang^3
#
#
#
# Elastic Constant Matrix: (Units=GPa)
#
#
# Indices 1 2 3 4 5 6 
#
# 1 75.6781 32.4708 34.3403 0.0000 -17.3809 0.0000
# 2 32.4708 182.4550 26.4122 0.0000 -17.1344 0.0000
# 3 34.3403 26.4122 140.4292 0.0000 -60.8672 0.0000
# 4 0.0000 0.0000 0.0000 48.6489 0.0000 5.9606
# 5 -17.3809 -17.1344 -60.8672 0.0000 57.4643 0.0000
# 6 0.0000 0.0000 0.0000 5.9606 0.0000 20.0899
#
#
#
# Elastic Compliance Matrix: (Units=1/GPa)
#
#
# Indices 1 2 3 4 5 6 
#
# 1 0.015778 -0.002285 -0.003060 0.000000 0.000849 0.000000
# 2 -0.002285 0.005998 -0.000173 0.000000 0.000914 0.000000
# 3 -0.003060 -0.000173 0.013826 0.000000 0.013667 0.000000
# 4 0.000000 0.000000 0.000000 0.021331 0.000000 -0.006329
# 5 0.000849 0.000914 0.013667 0.000000 0.032408 0.000000
# 6 0.000000 0.000000 0.000000 -0.006329 0.000000 0.051654
#
#
# Mechanical properties :
#
#
# Convention : Reuss Voigt Hill
#
# Bulk Modulus (GPa) = 40.70904 65.00101 52.85502
# Shear Modulus (GPa) = 31.20681 45.59657 38.40169
#
# Velocity S-wave (km/s) = 3.39101 4.09893 3.76166
# Velocity P-wave (km/s) = 5.50747 6.80830 6.19214
#
# Compressibility (1/GPa) = 0.02456457
#
# Stress axis : x y z
#
# Youngs Moduli (GPa) = 63.37884 166.71139 72.32789
#
# Poissons Ratio (x) = 0.38097 0.22136
# Poissons Ratio (y) = 0.14483 0.01253
# Poissons Ratio (z) = 0.19397 0.02889
#
# Static dielectric constant tensor:
#      x y z
#    x 2.193650 0.000000 0.094910 
#    y 0.000000 2.139090 0.000000 
#    z 0.094910 0.000000 2.322830 
# 
# From -- ./inp_files/31336.got.cif
#   From: 2010.05.17/outbox.cif.g08.bks.cpg/sg5_16_cif.got.tgz:31336.got - 2010.06.03 18:56:24.
