data_PCOD9128726
_publ_section_title
;
Structure prediction by ZEFSAII (Michael W. Deem and Ramdas Pophale) SiO2 
 PCOD9128726
Probable space group: C 2
;
_chemical_formula_sum "Si O2"
_cell_formula_units_Z 28
_cell_length_a 17.587965
_cell_length_b 14.278259
_cell_length_c 5.210544
_cell_angle_alpha 90.000000
_cell_angle_beta 118.526001
_cell_angle_gamma 90.000000
_cell_volume 1149.649236
_symmetry_space_group_name_H-M "C 2"
_symmetry_group_IT_number 5
_symmetry_cell_setting 'monoclinic'
loop_
_space_group_symop_operation_xyz
x,y,z
-x,y,-z
1/2+x,1/2+y,z
1/2-x,1/2+y,-z
loop_
_atom_site_type_symbol
_atom_site_label
_atom_site_fract_x
_atom_site_fract_y
_atom_site_fract_z
Si Si1 0.393281 0.817690 0.483773
Si Si2 0.668818 0.975570 0.990158
Si Si3 0.000000 0.436293 0.000000
Si Si4 0.000000 0.811124 0.500000
Si Si5 0.273175 0.273713 0.573085
Si Si6 0.655471 0.182169 0.829907
Si Si7 0.644017 0.441271 0.454637
Si Si8 0.952366 0.122078 0.665143
O O1 0.348806 0.883709 0.206829
O O2 0.325524 0.804868 0.608521
O O3 0.412446 0.710790 0.452812
O O4 0.476231 0.870136 0.725121
O O5 0.655475 0.070415 0.804205
O O6 0.589979 0.986752 0.071211
O O7 0.767117 0.963552 0.247870
O O8 0.064857 0.736118 0.742163
O O9 0.066829 0.880267 0.461109
O O10 0.307421 0.227360 0.369721
O O11 0.325240 0.369459 0.714542
O O12 0.285091 0.205517 0.830519
O O13 0.609002 0.541775 0.320517
O O14 0.000000 0.073940 0.500000
O O15 0.000000 0.157200 0.000000
#
# Coordination Sequence:
#
# PCOD9128726 Si02
#       8
#     4   4   2   2   4   4   4   4
#     4  12  26  48  77 109 161 204 269 332 402 482
#     4  12  28  50  78 117 161 219 276 336 413 492
#     4  12  26  46  74 108 150 210 266 326 398 472
#     4  10  24  48  76 112 152 208 256 338 402 476
#     4  11  26  49  78 113 156 209 255 331 403 479
#     4  11  28  48  78 116 161 204 271 326 406 488
#     4  11  25  48  79 112 156 208 269 332 409 487
#     4  12  28  47  76 114 156 207 265 327 401 485
#
# _framework density 24.355253999999999
#
# number of rings (size 3 to 8) (size 9 to 14) (size 15 to 20)
#    0.000    0.571    2.857    3.857    6.000    6.286 
#    0.000    0.000    0.000    0.000    0.000    0.000 
#    0.000    0.000    0.000    0.000    0.000    0.000 
#
# Total GULP energy -78162.175963 kJ/mol
# GULP energy per Si atom -5583.012569 kJ/mol
# Density = 2.429982 g / cm^3
# Si number density = 24.355254 Si / 1000 Ang^3
#
#
#
# Elastic Constant Matrix: (Units=GPa)
#
#
# Indices 1 2 3 4 5 6 
#
# 1 120.9830 26.3567 23.0576 0.0000 12.9176 0.0000
# 2 26.3567 140.5221 17.0491 0.0000 -1.5667 0.0000
# 3 23.0576 17.0491 85.8983 0.0000 -2.7367 0.0000
# 4 0.0000 0.0000 0.0000 39.0957 0.0000 -7.0932
# 5 12.9176 -1.5667 -2.7367 0.0000 39.0466 0.0000
# 6 0.0000 0.0000 0.0000 -7.0932 0.0000 18.6034
#
#
#
# Elastic Compliance Matrix: (Units=1/GPa)
#
#
# Indices 1 2 3 4 5 6 
#
# 1 0.009395 -0.001517 -0.002327 0.000000 -0.003332 0.000000
# 2 -0.001517 0.007538 -0.001066 0.000000 0.000730 0.000000
# 3 -0.002327 -0.001066 0.012529 0.000000 0.001605 0.000000
# 4 0.000000 0.000000 0.000000 0.027479 0.000000 0.010477
# 5 -0.003332 0.000730 0.001605 0.000000 0.026855 0.000000
# 6 0.000000 0.000000 0.000000 0.010477 0.000000 0.057748
#
#
# Mechanical properties :
#
#
# Convention : Reuss Voigt Hill
#
# Bulk Modulus (GPa) = 50.90868 53.37003 52.13936
# Shear Modulus (GPa) = 31.66314 38.07847 34.87080
#
# Velocity S-wave (km/s) = 3.60954 3.95835 3.78796
# Velocity P-wave (km/s) = 6.19028 6.54615 6.37070
#
# Compressibility (1/GPa) = 0.01964301
#
# Stress axis : x y z
#
# Youngs Moduli (GPa) = 106.43493 132.65597 79.81480
#
# Poissons Ratio (x) = 0.20125 0.18573
# Poissons Ratio (y) = 0.16147 0.08506
# Poissons Ratio (z) = 0.24768 0.14138
#
# Static dielectric constant tensor:
#      x y z
#    x 2.100640 0.000000 -0.007940 
#    y 0.000000 1.937920 0.000000 
#    z -0.007940 0.000000 1.897710 
# 
# From -- ./inp_files/8704.got.cif
#   From: 2010.05.17/outbox.cif.g08.bks.cpg/sg5_5_cif.got.tgz:8704.got - 2010.06.03 18:56:24.
