data_PCOD9128021
_publ_section_title
;
Structure prediction by ZEFSAII (Michael W. Deem and Ramdas Pophale) SiO2 
 PCOD9128021
Probable space group: C 2
;
_chemical_formula_sum "Si O2"
_cell_formula_units_Z 24
_cell_length_a 25.151905
_cell_length_b 5.752441
_cell_length_c 17.643505
_cell_angle_alpha 90.000000
_cell_angle_beta 156.135338
_cell_angle_gamma 90.000000
_cell_volume 1032.784683
_symmetry_space_group_name_H-M "C 2"
_symmetry_group_IT_number 5
_symmetry_cell_setting 'monoclinic'
loop_
_space_group_symop_operation_xyz
x,y,z
-x,y,-z
1/2+x,1/2+y,z
1/2-x,1/2+y,-z
loop_
_atom_site_type_symbol
_atom_site_label
_atom_site_fract_x
_atom_site_fract_y
_atom_site_fract_z
Si Si1 0.781794 0.667290 0.579601
Si Si2 0.049437 0.453264 0.981696
Si Si3 0.341924 0.647081 0.015831
Si Si4 0.929506 0.180989 0.567812
Si Si5 0.931757 0.840104 0.340659
Si Si6 0.286017 0.743674 0.242889
O O1 0.730394 0.417658 0.478471
O O2 0.688183 0.703963 0.528397
O O3 0.931158 0.611474 0.796223
O O4 0.091852 0.272305 0.971373
O O5 0.181307 0.604208 0.158001
O O6 0.000000 0.363869 0.000000
O O7 0.197409 0.719312 0.857488
O O8 0.302475 0.400641 0.927352
O O9 0.439476 0.709324 0.211338
O O10 0.889110 0.331491 0.441404
O O11 0.957244 0.921080 0.572092
O O12 0.000000 0.715078 0.500000
O O13 0.867198 0.070794 0.294902
#
# Coordination Sequence:
#
# PCOD9128021 Si02
#       6
#     4   4   4   4   4   4
#     4  12  26  48  72 109 150 190 254 307 367 457
#     4  11  23  43  67  99 145 185 237 306 367 444
#     4  11  24  44  69 104 135 191 245 303 372 459
#     4  11  23  46  70 103 142 191 242 308 374 446
#     4   9  23  45  63  98 139 176 244 301 365 442
#     4  10  23  45  68  97 143 183 244 303 372 445
#
# _framework density 23.238143000000001
#
# number of rings (size 3 to 8) (size 9 to 14) (size 15 to 20)
#    0.000    1.333    3.333    1.000    2.333    4.000 
#    3.000    0.000    0.000    0.000    0.000    0.000 
#    0.000    0.000    0.000    0.000    0.000    0.000 
#
# Total GULP energy -66816.428748 kJ/mol
# GULP energy per Si atom -5568.035729 kJ/mol
# Density = 2.318525 g / cm^3
# Si number density = 23.238143 Si / 1000 Ang^3
#
#
#
# Elastic Constant Matrix: (Units=GPa)
#
#
# Indices 1 2 3 4 5 6 
#
# 1 35.8962 9.0933 -12.4593 0.0000 -6.7615 0.0000
# 2 9.0933 56.7055 4.5092 0.0001 -8.8875 0.0000
# 3 -12.4593 4.5092 119.7327 0.0000 -10.4419 0.0000
# 4 0.0000 0.0001 0.0000 -24.1484 0.0000 12.8023
# 5 -6.7615 -8.8875 -10.4419 0.0000 40.2368 0.0000
# 6 0.0000 0.0000 0.0000 12.8023 0.0000 29.9082
#
#
#
# Elastic Compliance Matrix: (Units=1/GPa)
#
#
# Indices 1 2 3 4 5 6 
#
# 1 0.031346 -0.004508 0.003892 0.000000 0.005282 0.000000
# 2 -0.004508 0.018930 -0.000904 0.000000 0.003189 0.000000
# 3 0.003892 -0.000904 0.009035 0.000000 0.002799 0.000000
# 4 0.000000 0.000000 0.000000 -0.033751 0.000000 0.014447
# 5 0.005282 0.003189 0.002799 0.000000 0.027171 0.000000
# 6 0.000000 0.000000 0.000000 0.014447 0.000000 0.027251
#
#
# Mechanical properties :
#
#
# Convention : Reuss Voigt Hill
#
# Bulk Modulus (GPa) = 17.77124 23.84675 20.80900
# Shear Modulus (GPa) = 49.12601 23.27873 36.20237
#
# Velocity S-wave (km/s) = 4.60284 3.16847 3.95129
# Velocity P-wave (km/s) = 5.99268 4.86516 5.45811
#
# Compressibility (1/GPa) = 0.05627069
#
# Stress axis : x y z
#
# Youngs Moduli (GPa) = 31.90198 52.82719 110.67927
#
# Poissons Ratio (x) = 0.23816 -0.43079
# Poissons Ratio (y) = 0.14383 0.10005
# Poissons Ratio (z) = -0.12417 0.04775
#
# Static dielectric constant tensor:
#      x y z
#    x 2.040880 0.000000 -0.085670 
#    y 0.000000 1.965420 0.000000 
#    z -0.085670 0.000000 1.906710 
# 
# From -- ./inp_files/67680.got.cif
#   From: 2010.05.17/outbox.cif.g08.bks.cpg/sg5_34_cif.got.tgz:67680.got - 2010.06.03 18:56:24.
