data_PCOD9128214
_publ_section_title
;
Structure prediction by ZEFSAII (Michael W. Deem and Ramdas Pophale) SiO2 
 PCOD9128214
Probable space group: C 2
;
_chemical_formula_sum "Si O2"
_cell_formula_units_Z 18
_cell_length_a 8.924893
_cell_length_b 6.165611
_cell_length_c 21.566822
_cell_angle_alpha 90.000000
_cell_angle_beta 143.568679
_cell_angle_gamma 90.000000
_cell_volume 704.771749
_symmetry_space_group_name_H-M "C 2"
_symmetry_group_IT_number 5
_symmetry_cell_setting 'monoclinic'
loop_
_space_group_symop_operation_xyz
x,y,z
-x,y,-z
1/2+x,1/2+y,z
1/2-x,1/2+y,-z
loop_
_atom_site_type_symbol
_atom_site_label
_atom_site_fract_x
_atom_site_fract_y
_atom_site_fract_z
Si Si1 0.500000 0.860281 0.500000
Si Si2 0.795377 0.552641 0.880893
Si Si3 0.745797 0.943405 0.708358
Si Si4 0.419048 0.899137 0.790016
Si Si5 0.763612 0.456422 0.603677
O O1 0.714395 0.683061 0.550445
O O2 0.635247 0.968106 0.602787
O O3 0.545115 0.401398 0.803564
O O4 0.689558 0.794403 0.861429
O O5 0.908440 0.530978 0.849801
O O6 0.000000 0.491357 0.000000
O O7 0.513616 0.830922 0.666551
O O8 0.260126 0.677768 0.747232
O O9 0.297095 0.003497 0.687868
O O10 0.500000 0.343868 0.500000
#
# Coordination Sequence:
#
# PCOD9128214 Si02
#       5
#     2   4   4   4   4
#     4  10  24  36  70 104 154 190 246 300 384 452
#     4  10  25  49  73 103 143 195 261 312 379 433
#     4  10  24  41  67 103 147 196 245 308 371 456
#     4  10  25  46  70 102 146 190 253 304 372 448
#     4  10  25  37  67 105 147 195 242 304 381 452
#
# _framework density 25.540185000000001
#
# number of rings (size 3 to 8) (size 9 to 14) (size 15 to 20)
#    2.000    0.000    0.000    1.333   10.889    1.778 
#    4.000    0.000    0.000    0.000    0.000    0.000 
#    0.000    0.000    0.000    0.000    0.000    0.000 
#
# Total GULP energy -50120.305163 kJ/mol
# GULP energy per Si atom -5568.922796 kJ/mol
# Density = 2.548205 g / cm^3
# Si number density = 25.540185 Si / 1000 Ang^3
#
#
#
# Elastic Constant Matrix: (Units=GPa)
#
#
# Indices 1 2 3 4 5 6 
#
# 1 170.1932 31.5213 111.6391 0.0000 -15.0095 0.0000
# 2 31.5213 40.4189 26.4697 0.0000 -3.8098 0.0000
# 3 111.6391 26.4697 215.6354 0.0000 -26.2053 0.0000
# 4 0.0000 0.0000 0.0000 32.0436 0.0000 3.0703
# 5 -15.0095 -3.8098 -26.2053 0.0000 37.9972 0.0000
# 6 0.0000 0.0000 0.0000 3.0703 0.0000 37.3235
#
#
#
# Elastic Compliance Matrix: (Units=1/GPa)
#
#
# Indices 1 2 3 4 5 6 
#
# 1 0.009632 -0.004612 -0.004382 0.000000 0.000321 0.000000
# 2 -0.004612 0.029119 -0.001150 0.000000 0.000305 0.000000
# 3 -0.004382 -0.001150 0.007447 0.000000 0.003290 0.000000
# 4 0.000000 0.000000 0.000000 0.031455 0.000000 -0.002588
# 5 0.000321 0.000305 0.003290 0.000000 0.028744 0.000000
# 6 0.000000 0.000000 0.000000 -0.002588 0.000000 0.027006
#
#
# Mechanical properties :
#
#
# Convention : Reuss Voigt Hill
#
# Bulk Modulus (GPa) = 38.59279 85.05642 61.82461
# Shear Modulus (GPa) = 30.80186 38.58068 34.69127
#
# Velocity S-wave (km/s) = 3.47654 3.89084 3.68951
# Velocity P-wave (km/s) = 5.59093 7.31848 6.51225
#
# Compressibility (1/GPa) = 0.02591158
#
# Stress axis : x y z
#
# Youngs Moduli (GPa) = 103.81583 34.34137 134.28378
#
# Poissons Ratio (x) = 0.15839 0.58841
# Poissons Ratio (y) = 0.47882 0.15437
# Poissons Ratio (z) = 0.45490 0.03948
#
# Static dielectric constant tensor:
#      x y z
#    x 2.086040 0.000000 0.064460 
#    y 0.000000 2.293150 0.000000 
#    z 0.064460 0.000000 1.943610 
# 
# From -- ./inp_files/67885.got.cif
#   From: 2010.05.17/outbox.cif.g08.bks.cpg/sg5_34_cif.got.tgz:67885.got - 2010.06.03 18:56:24.
