data_PCOD9128623
_publ_section_title
;
Structure prediction by ZEFSAII (Michael W. Deem and Ramdas Pophale) SiO2 
 PCOD9128623
Probable space group: C 2
;
_chemical_formula_sum "Si O2"
_cell_formula_units_Z 28
_cell_length_a 13.531710
_cell_length_b 5.264586
_cell_length_c 18.031485
_cell_angle_alpha 90.000000
_cell_angle_beta 58.736408
_cell_angle_gamma 90.000000
_cell_volume 1098.012324
_symmetry_space_group_name_H-M "C 2"
_symmetry_group_IT_number 5
_symmetry_cell_setting 'monoclinic'
loop_
_space_group_symop_operation_xyz
x,y,z
-x,y,-z
1/2+x,1/2+y,z
1/2-x,1/2+y,-z
loop_
_atom_site_type_symbol
_atom_site_label
_atom_site_fract_x
_atom_site_fract_y
_atom_site_fract_z
Si Si1 0.356866 0.571080 0.675906
Si Si2 0.578105 0.554165 0.102541
Si Si3 0.320265 0.138195 0.455831
Si Si4 0.500000 0.342386 0.500000
Si Si5 0.000000 0.704677 0.000000
Si Si6 0.526079 0.346276 0.721384
Si Si7 0.798695 0.576275 0.774163
Si Si8 0.316912 0.840256 0.062804
O O1 0.404092 0.519857 0.575957
O O2 0.473061 0.540511 0.681301
O O3 0.282869 0.327199 0.730121
O O4 0.300139 0.830309 0.723325
O O5 0.477310 0.503557 0.201028
O O6 0.694269 0.470747 0.099399
O O7 0.551888 0.370178 0.044857
O O8 0.621311 0.800241 0.040640
O O9 0.269156 0.857214 0.483322
O O10 0.433965 0.172645 0.464377
O O11 0.361095 0.219643 0.357305
O O12 0.901952 0.524299 0.072010
O O13 0.426956 0.124302 0.760082
O O14 0.709298 0.594979 0.876740
#
# Coordination Sequence:
#
# PCOD9128623 Si02
#       8
#     4   4   4   2   2   4   4   4
#     4   9  20  38  68 101 130 187 228 283 349 420
#     4  11  23  45  72  98 141 188 232 287 358 411
#     4  11  26  47  73 106 142 184 239 291 360 427
#     4  10  24  46  74 100 148 180 236 294 364 406
#     4  12  26  44  66 106 136 180 244 286 344 426
#     4   8  22  41  69 100 140 186 227 297 345 418
#     4   9  21  38  68 100 139 182 233 279 354 416
#     4  11  24  42  70 100 138 191 227 297 346 414
#
# _framework density 25.500626
#
# number of rings (size 3 to 8) (size 9 to 14) (size 15 to 20)
#    0.857    1.143    1.429    0.429    8.000    2.286 
#    2.571    1.429    0.000    0.000    0.000    0.000 
#    0.000    0.000    0.000    0.000    0.000    0.000 
#
# Total GULP energy -78248.011296 kJ/mol
# GULP energy per Si atom -5589.143664 kJ/mol
# Density = 2.544259 g / cm^3
# Si number density = 25.500626 Si / 1000 Ang^3
#
#
#
# Elastic Constant Matrix: (Units=GPa)
#
#
# Indices 1 2 3 4 5 6 
#
# 1 69.3883 4.0967 -3.2191 0.0001 -13.8184 0.0020
# 2 4.0967 73.0801 -3.8868 0.0012 -4.4231 0.0047
# 3 -3.2191 -3.8868 128.9357 -0.0001 -5.9614 0.0001
# 4 0.0001 0.0012 -0.0001 18.8911 -0.0002 2.9000
# 5 -13.8184 -4.4231 -5.9614 -0.0002 23.4668 -0.0001
# 6 0.0020 0.0047 0.0001 2.9000 -0.0001 11.2222
#
#
#
# Elastic Compliance Matrix: (Units=1/GPa)
#
#
# Indices 1 2 3 4 5 6 
#
# 1 0.016427 -0.000280 0.000857 0.000000 0.009838 -0.000003
# 2 -0.000280 0.013884 0.000531 0.000000 0.002587 -0.000006
# 3 0.000857 0.000531 0.007914 0.000000 0.002615 0.000000
# 4 0.000000 0.000000 0.000000 0.055122 0.000001 -0.014244
# 5 0.009838 0.002587 0.002615 0.000001 0.049558 -0.000003
# 6 -0.000003 -0.000006 0.000000 -0.014244 -0.000003 0.092790
#
#
# Mechanical properties :
#
#
# Convention : Reuss Voigt Hill
#
# Bulk Modulus (GPa) = 24.72738 29.48731 27.10734
# Shear Modulus (GPa) = 20.24616 29.01023 24.62819
#
# Velocity S-wave (km/s) = 2.82076 3.37653 3.11108
# Velocity P-wave (km/s) = 4.50852 5.17588 4.85369
#
# Compressibility (1/GPa) = 0.04044101
#
# Stress axis : x y z
#
# Youngs Moduli (GPa) = 60.87500 72.02469 126.35665
#
# Poissons Ratio (x) = 0.02016 -0.10823
# Poissons Ratio (y) = 0.01704 -0.06712
# Poissons Ratio (z) = -0.05214 -0.03826
#
# Static dielectric constant tensor:
#      x y z
#    x 2.009170 0.000000 0.004040 
#    y 0.000000 2.019240 0.000000 
#    z 0.004040 0.000000 2.042630 
# 
# From -- ./inp_files/61062.got.cif
#   From: 2010.05.17/outbox.cif.g08.bks.cpg/sg5_31_cif.got.tgz:61062.got - 2010.06.03 18:56:24.
