data_PCOD9128572
_publ_section_title
;
Structure prediction by ZEFSAII (Michael W. Deem and Ramdas Pophale) SiO2 
 PCOD9128572
Probable space group: C 2
;
_chemical_formula_sum "Si O2"
_cell_formula_units_Z 24
_cell_length_a 18.826639
_cell_length_b 10.937302
_cell_length_c 13.777448
_cell_angle_alpha 90.000000
_cell_angle_beta 158.699160
_cell_angle_gamma 90.000000
_cell_volume 1030.564562
_symmetry_space_group_name_H-M "C 2"
_symmetry_group_IT_number 5
_symmetry_cell_setting 'monoclinic'
loop_
_space_group_symop_operation_xyz
x,y,z
-x,y,-z
1/2+x,1/2+y,z
1/2-x,1/2+y,-z
loop_
_atom_site_type_symbol
_atom_site_label
_atom_site_fract_x
_atom_site_fract_y
_atom_site_fract_z
Si Si1 0.866583 0.057070 0.014859
Si Si2 0.418314 0.828528 0.004179
Si Si3 0.078220 0.671789 0.786900
Si Si4 0.000000 0.659044 0.000000
Si Si5 0.819410 0.514646 0.588890
Si Si6 0.500000 0.337308 0.500000
Si Si7 0.274718 0.806580 0.217882
O O1 0.088526 0.011700 0.306557
O O2 0.877469 0.187675 0.976236
O O3 0.748822 0.082706 0.964183
O O4 0.751185 0.952322 0.811282
O O5 0.212130 0.900182 0.758057
O O6 0.500000 0.836903 0.000000
O O7 0.580652 0.881759 0.283717
O O8 0.897674 0.594545 0.599012
O O9 0.015767 0.755401 0.617080
O O10 0.166096 0.756464 0.983338
O O11 0.086103 0.578339 0.196284
O O12 0.169934 0.743593 0.174348
O O13 0.500000 0.773559 0.500000
#
# Coordination Sequence:
#
# PCOD9128572 Si02
#       7
#     4   4   4   2   4   2   4
#     4  11  27  41  71  99 138 185 230 290 345 409
#     4  11  25  43  69 101 140 182 234 290 341 418
#     4  10  25  46  71 100 139 181 235 290 343 416
#     4  10  24  46  70 102 134 186 230 284 344 420
#     4  11  24  45  70 101 139 184 232 286 349 410
#     4  10  24  46  68 102 134 180 234 282 348 400
#     4  11  26  46  72 102 141 183 232 287 348 418
#
# _framework density 23.288207
#
# number of rings (size 3 to 8) (size 9 to 14) (size 15 to 20)
#    0.000    1.333    0.833    2.000   17.500    1.333 
#    6.000    0.000    0.000    0.000    0.000    0.000 
#    0.000    0.000    0.000    0.000    0.000    0.000 
#
# Total GULP energy -67206.884042 kJ/mol
# GULP energy per Si atom -5600.573670 kJ/mol
# Density = 2.323520 g / cm^3
# Si number density = 23.288207 Si / 1000 Ang^3
#
#
#
# Elastic Constant Matrix: (Units=GPa)
#
#
# Indices 1 2 3 4 5 6 
#
# 1 113.7980 17.5866 25.0127 0.0001 19.1220 0.0006
# 2 17.5866 66.2932 -6.9058 0.0000 3.1486 0.0005
# 3 25.0127 -6.9058 103.9384 0.0001 33.9041 0.0007
# 4 0.0001 0.0000 0.0001 30.0757 0.0001 5.9610
# 5 19.1220 3.1486 33.9041 0.0001 48.3848 0.0005
# 6 0.0006 0.0005 0.0007 5.9610 0.0005 23.4805
#
#
#
# Elastic Compliance Matrix: (Units=1/GPa)
#
#
# Indices 1 2 3 4 5 6 
#
# 1 0.010024 -0.002721 -0.001761 0.000000 -0.002550 0.000000
# 2 -0.002721 0.016111 0.002225 0.000000 -0.001532 0.000000
# 3 -0.001761 0.002225 0.012980 0.000000 -0.008544 0.000000
# 4 0.000000 0.000000 0.000000 0.035011 0.000000 -0.008888
# 5 -0.002550 -0.001532 -0.008544 0.000000 0.027762 0.000000
# 6 0.000000 0.000000 0.000000 -0.008888 0.000000 0.044845
#
#
# Mechanical properties :
#
#
# Convention : Reuss Voigt Hill
#
# Bulk Modulus (GPa) = 28.90222 39.49076 34.19649
# Shear Modulus (GPa) = 30.71615 36.94394 33.83004
#
# Velocity S-wave (km/s) = 3.63569 3.98726 3.81552
# Velocity P-wave (km/s) = 5.48287 6.17996 5.84182
#
# Compressibility (1/GPa) = 0.03459942
#
# Stress axis : x y z
#
# Youngs Moduli (GPa) = 99.76344 62.06929 77.04332
#
# Poissons Ratio (x) = 0.16892 0.13568
# Poissons Ratio (y) = 0.27150 -0.17143
# Poissons Ratio (z) = 0.17570 -0.13811
#
# Static dielectric constant tensor:
#      x y z
#    x 1.846840 0.000000 0.020290 
#    y 0.000000 1.904900 0.000000 
#    z 0.020290 0.000000 1.868810 
# 
# From -- ./inp_files/57066.got.cif
#   From: 2010.05.17/outbox.cif.g08.bks.cpg/sg5_29_cif.got.tgz:57066.got - 2010.06.03 18:56:24.
