data_PCOD9128700
_publ_section_title
;
Structure prediction by ZEFSAII (Michael W. Deem and Ramdas Pophale) SiO2 
 PCOD9128700
Probable space group: C 2
;
_chemical_formula_sum "Si O2"
_cell_formula_units_Z 20
_cell_length_a 7.972230
_cell_length_b 8.681915
_cell_length_c 12.397209
_cell_angle_alpha 90.000000
_cell_angle_beta 66.629507
_cell_angle_gamma 90.000000
_cell_volume 787.666857
_symmetry_space_group_name_H-M "C 2"
_symmetry_group_IT_number 5
_symmetry_cell_setting 'monoclinic'
loop_
_space_group_symop_operation_xyz
x,y,z
-x,y,-z
1/2+x,1/2+y,z
1/2-x,1/2+y,-z
loop_
_atom_site_type_symbol
_atom_site_label
_atom_site_fract_x
_atom_site_fract_y
_atom_site_fract_z
Si Si1 0.211177 0.343970 0.363062
Si Si2 0.619197 0.569626 0.548461
Si Si3 0.164478 0.492956 0.036848
Si Si4 0.874840 0.801827 0.820575
Si Si5 0.040007 0.293949 0.753425
O O1 0.215618 0.476373 0.449064
O O2 0.172041 0.195017 0.446086
O O3 0.410835 0.311120 0.261024
O O4 0.063258 0.391459 0.312152
O O5 0.500000 0.460645 0.500000
O O6 0.539831 0.637738 0.681840
O O7 0.183633 0.635815 0.113589
O O8 0.091472 0.336165 0.113528
O O9 0.329030 0.435133 0.919976
O O10 0.000000 0.543040 0.000000
O O11 0.740339 0.824139 0.751282
#
# Coordination Sequence:
#
# PCOD9128700 Si02
#       5
#     4   4   4   4   4
#     4  11  26  46  74 102 144 189 232 292 359 410
#     4  10  25  45  71 108 142 183 242 288 347 430
#     4  10  25  45  71 108 142 183 242 288 347 430
#     4  11  26  46  74 102 144 189 232 292 359 410
#     4  10  24  48  70 106 140 180 244 290 340 432
#
# _framework density 25.391445999999998
#
# number of rings (size 3 to 8) (size 9 to 14) (size 15 to 20)
#    0.000    1.600    0.000    1.200   11.200    3.200 
#    7.200    0.000    0.000    0.000    0.000    0.000 
#    0.000    0.000    0.000    0.000    0.000    0.000 
#
# Total GULP energy -55724.679296 kJ/mol
# GULP energy per Si atom -5572.467930 kJ/mol
# Density = 2.533365 g / cm^3
# Si number density = 25.391446 Si / 1000 Ang^3
#
#
#
# Elastic Constant Matrix: (Units=GPa)
#
#
# Indices 1 2 3 4 5 6 
#
# 1 117.4456 33.0905 92.5614 0.0000 19.6016 0.0000
# 2 33.0905 58.2354 48.6432 0.0000 -1.5938 0.0000
# 3 92.5614 48.6432 154.7414 0.0000 -15.4806 0.0000
# 4 0.0000 0.0000 0.0000 54.3824 0.0000 7.7428
# 5 19.6016 -1.5938 -15.4806 0.0000 69.3670 0.0000
# 6 0.0000 0.0000 0.0000 7.7428 0.0000 10.8968
#
#
#
# Elastic Compliance Matrix: (Units=1/GPa)
#
#
# Indices 1 2 3 4 5 6 
#
# 1 0.020146 -0.001225 -0.012518 0.000000 -0.008515 0.000000
# 2 -0.001225 0.023446 -0.006699 0.000000 -0.000610 0.000000
# 3 -0.012518 -0.006699 0.016769 0.000000 0.007126 0.000000
# 4 0.000000 0.000000 0.000000 0.020458 0.000000 -0.014536
# 5 -0.008515 -0.000610 0.007126 0.000000 0.018398 0.000000
# 6 0.000000 0.000000 0.000000 -0.014536 0.000000 0.102099
#
#
# Mechanical properties :
#
#
# Convention : Reuss Voigt Hill
#
# Bulk Modulus (GPa) = 51.33779 75.44583 63.39181
# Shear Modulus (GPa) = 20.10524 37.33772 28.72148
#
# Velocity S-wave (km/s) = 2.81697 3.83885 3.36690
# Velocity P-wave (km/s) = 5.55363 7.03041 6.33520
#
# Compressibility (1/GPa) = 0.01947883
#
# Stress axis : x y z
#
# Youngs Moduli (GPa) = 49.63747 42.65057 59.63506
#
# Poissons Ratio (x) = 0.05223 0.74649
# Poissons Ratio (y) = 0.06079 0.39949
# Poissons Ratio (z) = 0.62134 0.28571
#
# Static dielectric constant tensor:
#      x y z
#    x 2.183070 0.000000 -0.074570 
#    y 0.000000 2.176250 0.000000 
#    z -0.074570 0.000000 1.982570 
# 
# From -- ./inp_files/35155.got.cif
#   From: 2010.05.17/outbox.cif.g08.bks.cpg/sg5_18_cif.got.tgz:35155.got - 2010.06.03 18:56:24.
