data_PCOD9128508
_publ_section_title
;
Structure prediction by ZEFSAII (Michael W. Deem and Ramdas Pophale) SiO2 
 PCOD9128508
Probable space group: C 2
;
_chemical_formula_sum "Si O2"
_cell_formula_units_Z 20
_cell_length_a 15.568082
_cell_length_b 11.213461
_cell_length_c 5.114099
_cell_angle_alpha 90.000000
_cell_angle_beta 71.122231
_cell_angle_gamma 90.000000
_cell_volume 844.757189
_symmetry_space_group_name_H-M "C 2"
_symmetry_group_IT_number 5
_symmetry_cell_setting 'monoclinic'
loop_
_space_group_symop_operation_xyz
x,y,z
-x,y,-z
1/2+x,1/2+y,z
1/2-x,1/2+y,-z
loop_
_atom_site_type_symbol
_atom_site_label
_atom_site_fract_x
_atom_site_fract_y
_atom_site_fract_z
Si Si1 0.269135 0.053040 0.388351
Si Si2 0.901717 0.137766 0.733476
Si Si3 0.359031 0.123630 0.811845
Si Si4 0.401172 0.882896 0.980506
Si Si5 0.500000 0.475166 0.000000
Si Si6 0.000000 0.816510 0.500000
O O1 0.168160 0.067135 0.380290
O O2 0.284164 0.089411 0.670733
O O3 0.323144 0.930035 0.259684
O O4 0.322096 0.143933 0.139716
O O5 0.000000 0.151525 0.500000
O O6 0.920730 0.059820 0.971657
O O7 0.869261 0.268849 0.849650
O O8 0.417171 0.232007 0.656912
O O9 0.415587 0.000965 0.790645
O O10 0.500000 0.852585 0.000000
O O11 0.523182 0.394234 0.729589
#
# Coordination Sequence:
#
# PCOD9128508 Si02
#       6
#     4   4   4   4   2   2
#     4  10  26  46  72 115 146 193 253 306 379 438
#     4  12  28  50  76 110 157 200 254 310 384 452
#     4  10  24  45  75 111 146 190 256 304 377 426
#     4  10  24  44  82 111 149 194 256 313 372 446
#     4  12  28  46  70 108 144 210 244 302 382 440
#     4  12  24  46  76 104 158 196 246 308 368 466
#
# _framework density 23.675439000000001
#
# number of rings (size 3 to 8) (size 9 to 14) (size 15 to 20)
#    1.200    0.000    2.000    2.400    8.400    3.200 
#    3.600    0.000    0.000    0.000    0.000    0.000 
#    0.000    0.000    0.000    0.000    0.000    0.000 
#
# Total GULP energy -55880.739388 kJ/mol
# GULP energy per Si atom -5588.073939 kJ/mol
# Density = 2.362155 g / cm^3
# Si number density = 23.675439 Si / 1000 Ang^3
#
#
#
# Elastic Constant Matrix: (Units=GPa)
#
#
# Indices 1 2 3 4 5 6 
#
# 1 62.4744 3.6977 -13.2632 0.0000 2.0940 0.0000
# 2 3.6977 111.0858 23.6566 0.0000 -4.4197 0.0000
# 3 -13.2632 23.6566 76.9048 0.0000 10.8178 0.0000
# 4 0.0000 0.0000 0.0000 29.6297 0.0000 -7.2444
# 5 2.0940 -4.4197 10.8178 0.0000 40.8476 0.0000
# 6 0.0000 0.0000 0.0000 -7.2444 0.0000 69.0377
#
#
#
# Elastic Compliance Matrix: (Units=1/GPa)
#
#
# Indices 1 2 3 4 5 6 
#
# 1 0.016928 -0.001416 0.003634 0.000000 -0.001984 0.000000
# 2 -0.001416 0.009895 -0.003582 0.000000 0.002092 0.000000
# 3 0.003634 -0.003582 0.015386 0.000000 -0.004649 0.000000
# 4 0.000000 0.000000 0.000000 0.034639 0.000000 0.003635
# 5 -0.001984 0.002092 -0.004649 0.000000 0.026040 0.000000
# 6 0.000000 0.000000 0.000000 0.003635 0.000000 0.014866
#
#
# Mechanical properties :
#
#
# Convention : Reuss Voigt Hill
#
# Bulk Modulus (GPa) = 25.32907 30.96079 28.14493
# Shear Modulus (GPa) = 37.41286 43.66127 40.53707
#
# Velocity S-wave (km/s) = 3.97954 4.29903 4.14236
# Velocity P-wave (km/s) = 5.64245 6.14392 5.89852
#
# Compressibility (1/GPa) = 0.03948032
#
# Stress axis : x y z
#
# Youngs Moduli (GPa) = 59.07235 101.05772 64.99534
#
# Poissons Ratio (x) = 0.14313 -0.23621
# Poissons Ratio (y) = 0.08367 0.23284
# Poissons Ratio (z) = -0.21468 0.36203
#
# Static dielectric constant tensor:
#      x y z
#    x 1.923960 0.000000 -0.047930 
#    y 0.000000 1.857460 0.000000 
#    z -0.047930 0.000000 1.912030 
# 
# From -- ./inp_files/6587.got.cif
#   From: 2010.05.17/outbox.cif.g08.bks.cpg/sg5_4_cif.got.tgz:6587.got - 2010.06.03 18:56:24.
