data_PCOD9128276
_publ_section_title
;
Structure prediction by ZEFSAII (Michael W. Deem and Ramdas Pophale) SiO2 
 PCOD9128276
Probable space group: C 2
;
_chemical_formula_sum "Si O2"
_cell_formula_units_Z 20
_cell_length_a 6.686843
_cell_length_b 20.247752
_cell_length_c 9.181096
_cell_angle_alpha 90.000000
_cell_angle_beta 49.241796
_cell_angle_gamma 90.000000
_cell_volume 941.583351
_symmetry_space_group_name_H-M "C 2"
_symmetry_group_IT_number 5
_symmetry_cell_setting 'monoclinic'
loop_
_space_group_symop_operation_xyz
x,y,z
-x,y,-z
1/2+x,1/2+y,z
1/2-x,1/2+y,-z
loop_
_atom_site_type_symbol
_atom_site_label
_atom_site_fract_x
_atom_site_fract_y
_atom_site_fract_z
Si Si1 0.786911 0.102290 0.936328
Si Si2 0.303153 0.041442 0.721194
Si Si3 0.797777 0.400716 0.827017
Si Si4 0.500000 0.813975 0.000000
Si Si5 0.000000 0.304255 0.500000
Si Si6 0.203307 0.218162 0.671934
O O1 0.997958 0.042425 0.808948
O O2 0.962934 0.165685 0.806755
O O3 0.500000 0.099893 0.000000
O O4 0.715413 0.095073 0.141043
O O5 0.500000 0.057993 0.500000
O O6 0.411392 0.972627 0.735437
O O7 0.813276 0.353235 0.679914
O O8 0.500000 0.416559 0.000000
O O9 0.902746 0.361225 0.916450
O O10 0.303039 0.764754 0.180904
O O11 0.867464 0.260382 0.438477
O O12 0.500000 0.194282 0.500000
#
# Coordination Sequence:
#
# PCOD9128276 Si02
#       6
#     4   4   4   2   2   4
#     4  11  26  45  69 101 134 184 227 280 340 395
#     4  11  24  44  68  98 140 177 225 279 333 402
#     4  11  21  41  67  98 138 177 218 273 336 405
#     4  10  24  40  70 104 136 176 222 278 344 402
#     4  10  24  40  70 104 134 178 222 276 344 402
#     4  11  24  46  70 101 138 176 230 282 335 403
#
# _framework density 21.240818000000001
#
# number of rings (size 3 to 8) (size 9 to 14) (size 15 to 20)
#    0.000    1.200    3.000    3.000    1.400   10.400 
#    0.000    0.000    0.000    0.000    0.000    0.000 
#    0.000    0.000    0.000    0.000    0.000    0.000 
#
# Total GULP energy -55721.708814 kJ/mol
# GULP energy per Si atom -5572.170881 kJ/mol
# Density = 2.119247 g / cm^3
# Si number density = 21.240818 Si / 1000 Ang^3
#
#
#
# Elastic Constant Matrix: (Units=GPa)
#
#
# Indices 1 2 3 4 5 6 
#
# 1 94.9594 44.4692 67.5446 0.0000 -9.4609 0.0000
# 2 44.4692 126.1244 64.6988 0.0000 9.8375 0.0000
# 3 67.5446 64.6988 197.0126 0.0000 4.3009 0.0000
# 4 0.0000 0.0000 0.0000 39.1028 0.0000 0.0072
# 5 -9.4609 9.8375 4.3009 0.0000 36.8325 0.0000
# 6 0.0000 0.0000 0.0000 0.0072 0.0000 26.6662
#
#
#
# Elastic Compliance Matrix: (Units=1/GPa)
#
#
# Indices 1 2 3 4 5 6 
#
# 1 0.015981 -0.003849 -0.004338 0.000000 0.005639 0.000000
# 2 -0.003849 0.010641 -0.002097 0.000000 -0.003586 0.000000
# 3 -0.004338 -0.002097 0.007282 0.000000 -0.001405 0.000000
# 4 0.000000 0.000000 0.000000 0.025574 0.000000 -0.000007
# 5 0.005639 -0.003586 -0.001405 0.000000 0.029720 0.000000
# 6 0.000000 0.000000 0.000000 -0.000007 0.000000 0.037501
#
#
# Mechanical properties :
#
#
# Convention : Reuss Voigt Hill
#
# Bulk Modulus (GPa) = 74.98109 85.72463 80.35286
# Shear Modulus (GPa) = 32.95729 36.61257 34.78493
#
# Velocity S-wave (km/s) = 3.94331 4.15624 4.05117
# Velocity P-wave (km/s) = 7.49066 7.96734 7.73267
#
# Compressibility (1/GPa) = 0.01333670
#
# Stress axis : x y z
#
# Youngs Moduli (GPa) = 62.57503 93.97611 137.32028
#
# Poissons Ratio (x) = 0.36173 0.59569
# Poissons Ratio (y) = 0.24086 0.28790
# Poissons Ratio (z) = 0.27145 0.19703
#
# Static dielectric constant tensor:
#      x y z
#    x 1.786740 0.000000 0.000420 
#    y 0.000000 1.832460 0.000000 
#    z 0.000420 0.000000 1.699910 
# 
# From -- ./inp_files/12416.got.cif
#   From: 2010.05.17/outbox.cif.g08.bks.cpg/sg5_7_cif.got.tgz:12416.got - 2010.06.03 18:56:24.
