data_PCOD9128490
_publ_section_title
;
Structure prediction by ZEFSAII (Michael W. Deem and Ramdas Pophale) SiO2 
 PCOD9128490
Probable space group: C 2
;
_chemical_formula_sum "Si O2"
_cell_formula_units_Z 26
_cell_length_a 18.469295
_cell_length_b 5.054142
_cell_length_c 23.624880
_cell_angle_alpha 90.000000
_cell_angle_beta 150.896884
_cell_angle_gamma 90.000000
_cell_volume 1072.619446
_symmetry_space_group_name_H-M "C 2"
_symmetry_group_IT_number 5
_symmetry_cell_setting 'monoclinic'
loop_
_space_group_symop_operation_xyz
x,y,z
-x,y,-z
1/2+x,1/2+y,z
1/2-x,1/2+y,-z
loop_
_atom_site_type_symbol
_atom_site_label
_atom_site_fract_x
_atom_site_fract_y
_atom_site_fract_z
Si Si1 0.178795 0.332370 0.425446
Si Si2 0.244135 0.135113 0.357497
Si Si3 0.991060 0.799359 0.149615
Si Si4 0.743205 0.009977 0.259190
Si Si5 0.255383 0.139927 0.073000
Si Si6 0.000000 0.324270 0.500000
Si Si7 0.339865 0.647039 0.200624
O O1 0.205036 0.613981 0.471970
O O2 0.211854 0.358631 0.381043
O O3 0.016872 0.202192 0.324162
O O4 0.239406 0.230484 0.289157
O O5 0.113241 0.924975 0.274663
O O6 0.404280 0.007375 0.476225
O O7 0.881006 0.613496 0.110040
O O8 0.896840 0.040669 0.059006
O O9 0.086708 0.646417 0.168061
O O10 0.778947 0.036595 0.218167
O O11 0.879210 0.154419 0.384439
O O12 0.283794 0.433385 0.116088
O O13 0.279188 0.932071 0.139930
#
# Coordination Sequence:
#
# PCOD9128490 Si02
#       7
#     4   4   4   4   4   2   4
#     4  12  27  45  75 110 151 197 255 310 378 445
#     4  11  25  46  75 110 148 205 252 313 383 465
#     4  11  27  49  77 107 143 206 254 313 380 469
#     4  11  27  47  75 111 155 198 256 312 393 459
#     4  12  27  51  78 108 150 200 260 311 384 444
#     4  10  24  44  74 106 148 202 252 304 374 470
#     4  12  28  49  75 114 154 195 250 328 377 451
#
# _framework density 24.239726000000001
#
# number of rings (size 3 to 8) (size 9 to 14) (size 15 to 20)
#    0.000    0.615    1.538    4.154   17.231    0.615 
#    0.000    0.000    0.000    0.000    0.000    0.000 
#    0.000    0.000    0.000    0.000    0.000    0.000 
#
# Total GULP energy -72801.896207 kJ/mol
# GULP energy per Si atom -5600.145862 kJ/mol
# Density = 2.418456 g / cm^3
# Si number density = 24.239726 Si / 1000 Ang^3
#
#
#
# Elastic Constant Matrix: (Units=GPa)
#
#
# Indices 1 2 3 4 5 6 
#
# 1 106.0143 -12.8936 25.5728 0.0013 -3.5415 0.0080
# 2 -12.8936 82.6702 14.7164 0.0028 1.2314 0.0185
# 3 25.5728 14.7164 84.5944 -0.0008 26.2686 0.0021
# 4 0.0013 0.0028 -0.0008 42.0228 -0.0003 -0.8669
# 5 -3.5415 1.2314 26.2686 -0.0003 37.6957 0.0016
# 6 0.0080 0.0185 0.0021 -0.8669 0.0016 38.1570
#
#
#
# Elastic Compliance Matrix: (Units=1/GPa)
#
#
# Indices 1 2 3 4 5 6 
#
# 1 0.011178 0.002613 -0.005275 -0.000001 0.004640 -0.000004
# 2 0.002613 0.013153 -0.003855 -0.000001 0.002502 -0.000007
# 3 -0.005275 -0.003855 0.018123 0.000001 -0.012999 0.000003
# 4 -0.000001 -0.000001 0.000001 0.023808 0.000000 0.000541
# 5 0.004640 0.002502 -0.012999 0.000000 0.035941 -0.000003
# 6 -0.000004 -0.000007 0.000003 0.000541 -0.000003 0.026220
#
#
# Mechanical properties :
#
#
# Convention : Reuss Voigt Hill
#
# Bulk Modulus (GPa) = 33.99023 36.45221 35.22122
# Shear Modulus (GPa) = 33.05536 39.96731 36.51134
#
# Velocity S-wave (km/s) = 3.69682 4.06499 3.88527
# Velocity P-wave (km/s) = 5.68110 6.09123 5.88974
#
# Compressibility (1/GPa) = 0.02942022
#
# Stress axis : x y z
#
# Youngs Moduli (GPa) = 89.46239 76.02934 55.17956
#
# Poissons Ratio (x) = -0.19868 0.29105
# Poissons Ratio (y) = -0.23378 0.21272
# Poissons Ratio (z) = 0.47188 0.29310
#
# Static dielectric constant tensor:
#      x y z
#    x 1.927940 0.000000 -0.021960 
#    y 0.000000 1.928130 0.000000 
#    z -0.021960 0.000000 1.920650 
# 
# From -- ./inp_files/69024.got.cif
#   From: 2010.05.17/outbox.cif.g08.bks.cpg/sg5_35_cif.got.tgz:69024.got - 2010.06.03 18:56:24.
