data_PCOD9128565
_publ_section_title
;
Structure prediction by ZEFSAII (Michael W. Deem and Ramdas Pophale) SiO2 
 PCOD9128565
Probable space group: C 2
;
_chemical_formula_sum "Si O2"
_cell_formula_units_Z 18
_cell_length_a 11.410905
_cell_length_b 9.934780
_cell_length_c 6.722180
_cell_angle_alpha 90.000000
_cell_angle_beta 83.452430
_cell_angle_gamma 90.000000
_cell_volume 757.088289
_symmetry_space_group_name_H-M "C 2"
_symmetry_group_IT_number 5
_symmetry_cell_setting 'monoclinic'
loop_
_space_group_symop_operation_xyz
x,y,z
-x,y,-z
1/2+x,1/2+y,z
1/2-x,1/2+y,-z
loop_
_atom_site_type_symbol
_atom_site_label
_atom_site_fract_x
_atom_site_fract_y
_atom_site_fract_z
Si Si1 0.797125 0.477670 0.558548
Si Si2 0.088269 0.934271 0.321141
Si Si3 0.784304 0.087112 0.032463
Si Si4 0.000000 0.681550 0.500000
Si Si5 0.378150 0.860052 0.919897
O O1 0.714178 0.417457 0.408006
O O2 0.870961 0.373713 0.681979
O O3 0.889597 0.588733 0.469442
O O4 0.710229 0.548226 0.737350
O O5 0.033765 0.784646 0.315936
O O6 0.000000 0.001037 0.500000
O O7 0.113882 0.020295 0.121828
O O8 0.786211 0.244450 0.995388
O O9 0.665302 0.006440 0.999656
O O10 0.500000 0.826115 0.000000
#
# Coordination Sequence:
#
# PCOD9128565 Si02
#       5
#     4   4   4   2   4
#     4  10  25  43  70  99 135 186 226 285 347 413
#     4  10  25  43  70  99 135 186 226 285 347 413
#     4  10  24  46  66 102 140 174 238 282 344 420
#     4  10  24  46  66 102 140 174 238 282 344 420
#     4  10  25  43  70  99 135 186 226 285 347 413
#
# _framework density 23.775296999999998
#
# number of rings (size 3 to 8) (size 9 to 14) (size 15 to 20)
#    2.000    0.000    0.000    1.333    9.333    0.000 
#    2.000    3.333    0.000    0.000    0.000    0.000 
#    0.000    0.000    0.000    0.000    0.000    0.000 
#
# Total GULP energy -50175.774684 kJ/mol
# GULP energy per Si atom -5575.086076 kJ/mol
# Density = 2.372118 g / cm^3
# Si number density = 23.775297 Si / 1000 Ang^3
#
#
#
# Elastic Constant Matrix: (Units=GPa)
#
#
# Indices 1 2 3 4 5 6 
#
# 1 85.0922 26.7021 46.2426 0.0000 -2.5769 0.0000
# 2 26.7021 102.3740 27.6321 0.0000 2.5078 0.0000
# 3 46.2426 27.6321 85.8934 0.0000 -1.3236 0.0000
# 4 0.0000 0.0000 0.0000 25.4173 0.0000 -27.2155
# 5 -2.5769 2.5078 -1.3236 0.0000 31.9172 0.0000
# 6 0.0000 0.0000 0.0000 -27.2155 0.0000 47.6890
#
#
#
# Elastic Compliance Matrix: (Units=1/GPa)
#
#
# Indices 1 2 3 4 5 6 
#
# 1 0.017081 -0.002198 -0.008470 0.000000 0.001201 0.000000
# 2 -0.002198 0.011011 -0.002376 0.000000 -0.001141 0.000000
# 3 -0.008470 -0.002376 0.016970 0.000000 0.000207 0.000000
# 4 0.000000 0.000000 0.000000 0.101155 0.000000 0.057728
# 5 0.001201 -0.001141 0.000207 0.000000 0.031526 0.000000
# 6 0.000000 0.000000 0.000000 0.057728 0.000000 0.053914
#
#
# Mechanical properties :
#
#
# Convention : Reuss Voigt Hill
#
# Bulk Modulus (GPa) = 52.70845 52.72367 52.71606
# Shear Modulus (GPa) = 18.93425 32.52356 25.72891
#
# Velocity S-wave (km/s) = 2.82509 3.70260 3.29320
# Velocity P-wave (km/s) = 5.73228 6.36419 6.05648
#
# Compressibility (1/GPa) = 0.01897229
#
# Stress axis : x y z
#
# Youngs Moduli (GPa) = 58.54349 90.81955 58.92696
#
# Poissons Ratio (x) = 0.19966 0.49913
# Poissons Ratio (y) = 0.12870 0.14002
# Poissons Ratio (z) = 0.49588 0.21581
#
# Static dielectric constant tensor:
#      x y z
#    x 1.872630 0.000000 -0.054310 
#    y 0.000000 1.894240 0.000000 
#    z -0.054310 0.000000 1.961630 
# 
# From -- ./inp_files/18021.got.cif
#   From: 2010.05.17/outbox.cif.g08.bks.cpg/sg5_10_cif.got.tgz:18021.got - 2010.06.03 18:56:24.
