data_PCOD9128017
_publ_section_title
;
Structure prediction by ZEFSAII (Michael W. Deem and Ramdas Pophale) SiO2 
 PCOD9128017
Probable space group: C 2
;
_chemical_formula_sum "Si O2"
_cell_formula_units_Z 28
_cell_length_a 7.885763
_cell_length_b 12.419258
_cell_length_c 14.371323
_cell_angle_alpha 90.000000
_cell_angle_beta 63.387081
_cell_angle_gamma 90.000000
_cell_volume 1258.344364
_symmetry_space_group_name_H-M "C 2"
_symmetry_group_IT_number 5
_symmetry_cell_setting 'monoclinic'
loop_
_space_group_symop_operation_xyz
x,y,z
-x,y,-z
1/2+x,1/2+y,z
1/2-x,1/2+y,-z
loop_
_atom_site_type_symbol
_atom_site_label
_atom_site_fract_x
_atom_site_fract_y
_atom_site_fract_z
Si Si1 0.637831 0.957680 0.759758
Si Si2 0.937850 0.223936 0.387131
Si Si3 0.837729 0.657432 0.114772
Si Si4 0.187806 0.743443 0.261553
Si Si5 0.217234 0.373752 0.233690
Si Si6 0.782636 0.633539 0.380655
Si Si7 0.051463 0.076388 0.882119
O O1 0.794796 0.871967 0.752425
O O2 0.438379 0.896651 0.807471
O O3 0.611225 0.057504 0.832935
O O4 0.665518 0.008443 0.648903
O O5 0.805769 0.223332 0.329028
O O6 0.808121 0.186503 0.504908
O O7 0.075855 0.330952 0.351758
O O8 0.108293 0.138514 0.349580
O O9 0.828603 0.768979 0.173233
O O10 0.637100 0.624813 0.118154
O O11 0.000000 0.669554 0.000000
O O12 0.296657 0.674075 0.157323
O O13 0.976069 0.699367 0.320580
O O14 0.349759 0.479081 0.201278
O O15 0.000000 0.041747 0.000000
#
# Coordination Sequence:
#
# PCOD9128017 Si02
#       7
#     4   4   4   4   4   4   4
#     4  11  23  45  70 103 139 184 237 299 353 433
#     4  10  23  45  68 105 142 181 243 296 356 433
#     4  12  26  44  70 100 142 186 241 299 364 434
#     4  11  24  46  72 104 147 187 243 301 354 441
#     4  11  23  48  67  99 143 179 235 304 349 425
#     4  11  22  45  72 100 145 187 238 295 370 418
#     4  12  25  45  70 102 143 191 241 296 364 432
#
# _framework density 22.251458
#
# number of rings (size 3 to 8) (size 9 to 14) (size 15 to 20)
#    0.000    0.857    5.714    1.714    2.000    0.571 
#   12.857    2.857    0.000    0.000    0.000    0.000 
#    0.000    0.000    0.000    0.000    0.000    0.000 
#
# Total GULP energy -77995.210089 kJ/mol
# GULP energy per Si atom -5571.086435 kJ/mol
# Density = 2.220081 g / cm^3
# Si number density = 22.251458 Si / 1000 Ang^3
#
#
#
# Elastic Constant Matrix: (Units=GPa)
#
#
# Indices 1 2 3 4 5 6 
#
# 1 96.2464 15.9798 20.7307 0.0000 -22.6179 0.0000
# 2 15.9798 152.7706 46.5433 0.0000 -20.7775 0.0000
# 3 20.7307 46.5433 114.8550 0.0000 -26.7385 0.0000
# 4 0.0000 0.0000 0.0000 22.7411 0.0000 5.5310
# 5 -22.6179 -20.7775 -26.7385 0.0000 40.8330 0.0000
# 6 0.0000 0.0000 0.0000 5.5310 0.0000 37.3816
#
#
#
# Elastic Compliance Matrix: (Units=1/GPa)
#
#
# Indices 1 2 3 4 5 6 
#
# 1 0.012003 -0.000226 -0.000653 0.000000 0.006106 0.000000
# 2 -0.000226 0.007635 -0.002570 0.000000 0.002077 0.000000
# 3 -0.000653 -0.002570 0.011182 0.000000 0.005653 0.000000
# 4 0.000000 0.000000 0.000000 0.045615 0.000000 -0.006749
# 5 0.006106 0.002077 0.005653 0.000000 0.032630 0.000000
# 6 0.000000 0.000000 0.000000 -0.006749 0.000000 0.027750
#
#
# Mechanical properties :
#
#
# Convention : Reuss Voigt Hill
#
# Bulk Modulus (GPa) = 41.80320 58.93108 50.36714
# Shear Modulus (GPa) = 32.96274 38.89903 35.93089
#
# Velocity S-wave (km/s) = 3.85304 4.18563 4.02277
# Velocity P-wave (km/s) = 6.21466 7.06406 6.65293
#
# Compressibility (1/GPa) = 0.02392161
#
# Stress axis : x y z
#
# Youngs Moduli (GPa) = 83.31154 130.98044 89.43114
#
# Poissons Ratio (x) = 0.02960 0.05844
# Poissons Ratio (y) = 0.01883 0.22979
# Poissons Ratio (z) = 0.05444 0.33656
#
# Static dielectric constant tensor:
#      x y z
#    x 1.839400 0.000000 0.037510 
#    y 0.000000 1.863160 0.000000 
#    z 0.037510 0.000000 1.912440 
# 
# From -- ./inp_files/50409.got.cif
#   From: 2010.05.17/outbox.cif.g08.bks.cpg/sg5_26_cif.got.tgz:50409.got - 2010.06.03 18:56:24.
