data_PCOD9128705
_publ_section_title
;
Structure prediction by ZEFSAII (Michael W. Deem and Ramdas Pophale) SiO2 
 PCOD9128705
Probable space group: C 2
;
_chemical_formula_sum "Si O2"
_cell_formula_units_Z 28
_cell_length_a 19.762938
_cell_length_b 10.777750
_cell_length_c 5.280593
_cell_angle_alpha 90.000000
_cell_angle_beta 97.300306
_cell_angle_gamma 90.000000
_cell_volume 1115.648714
_symmetry_space_group_name_H-M "C 2"
_symmetry_group_IT_number 5
_symmetry_cell_setting 'monoclinic'
loop_
_space_group_symop_operation_xyz
x,y,z
-x,y,-z
1/2+x,1/2+y,z
1/2-x,1/2+y,-z
loop_
_atom_site_type_symbol
_atom_site_label
_atom_site_fract_x
_atom_site_fract_y
_atom_site_fract_z
Si Si1 0.059458 0.819340 0.324620
Si Si2 0.684235 0.412424 0.659120
Si Si3 0.746233 0.221675 0.023161
Si Si4 0.889556 0.170483 0.266535
Si Si5 0.449261 0.063691 0.683204
Si Si6 0.500000 0.533509 0.000000
Si Si7 0.705298 0.066513 0.504946
Si Si8 0.000000 0.337694 0.500000
O O1 0.129644 0.820633 0.511390
O O2 0.060179 0.690267 0.162693
O O3 0.000000 0.850793 0.500000
O O4 0.054347 0.937834 0.143323
O O5 0.709456 0.350264 0.931502
O O6 0.645508 0.544083 0.653739
O O7 0.750896 0.442094 0.525225
O O8 0.729754 0.132432 0.774424
O O9 0.827956 0.237198 0.090059
O O10 0.721330 0.153577 0.266710
O O11 0.929934 0.261366 0.471644
O O12 0.954320 0.122510 0.143674
O O13 0.500000 0.123575 0.500000
O O14 0.374790 0.035861 0.539284
O O15 0.490405 0.935612 0.729373
#
# Coordination Sequence:
#
# PCOD9128705 Si02
#       8
#     4   4   4   4   4   2   4   2
#     4  11  21  43  71 108 144 187 254 310 381 444
#     4  11  24  45  76 107 152 195 254 319 385 451
#     4  11  27  47  73 111 153 193 258 312 383 461
#     4  11  25  44  69 112 143 202 243 322 377 468
#     4   9  23  46  73 106 148 203 250 320 370 459
#     4  12  24  38  76 108 144 188 250 320 386 448
#     4  11  25  47  76 110 152 199 251 314 390 450
#     4  10  24  48  72 100 158 190 260 296 396 454
#
# _framework density 25.097505999999999
#
# number of rings (size 3 to 8) (size 9 to 14) (size 15 to 20)
#    0.429    0.857    2.857    1.714    2.000    9.143 
#    0.000    0.714    0.000    0.000    0.000    0.000 
#    0.000    0.000    0.000    0.000    0.000    0.000 
#
# Total GULP energy -78063.130622 kJ/mol
# GULP energy per Si atom -5575.937902 kJ/mol
# Density = 2.504038 g / cm^3
# Si number density = 25.097506 Si / 1000 Ang^3
#
#
#
# Elastic Constant Matrix: (Units=GPa)
#
#
# Indices 1 2 3 4 5 6 
#
# 1 134.3515 4.4819 17.3875 0.0000 24.0093 0.0000
# 2 4.4819 94.0492 20.1402 0.0000 4.7066 0.0000
# 3 17.3875 20.1402 98.6370 0.0000 15.9781 0.0000
# 4 0.0000 0.0000 0.0000 -7.9151 0.0000 1.1974
# 5 24.0093 4.7066 15.9781 0.0000 43.4325 0.0000
# 6 0.0000 0.0000 0.0000 1.1974 0.0000 37.8654
#
#
#
# Elastic Compliance Matrix: (Units=1/GPa)
#
#
# Indices 1 2 3 4 5 6 
#
# 1 0.008313 -0.000017 -0.000763 0.000000 -0.004313 0.000000
# 2 -0.000017 0.011125 -0.002206 0.000000 -0.000385 0.000000
# 3 -0.000763 -0.002206 0.011289 0.000000 -0.003492 0.000000
# 4 0.000000 0.000000 0.000000 -0.125740 0.000000 0.003976
# 5 -0.004313 -0.000385 -0.003492 0.000000 0.026735 0.000000
# 6 0.000000 0.000000 0.000000 0.003976 0.000000 0.026284
#
#
# Mechanical properties :
#
#
# Convention : Reuss Voigt Hill
#
# Bulk Modulus (GPa) = 40.39705 45.67300 43.03503
# Shear Modulus (GPa) = -180.05375 33.67843 -73.18766
#
# Velocity S-wave (km/s) = -8.47924 3.66717 -5.40598
# Velocity P-wave (km/s) = 8.92929 6.01404 4.66710
#
# Compressibility (1/GPa) = 0.02475428
#
# Stress axis : x y z
#
# Youngs Moduli (GPa) = 120.28986 89.88557 88.58261
#
# Poissons Ratio (x) = 0.00152 0.06762
# Poissons Ratio (y) = 0.00203 0.19544
# Poissons Ratio (z) = 0.09182 0.19832
#
# Static dielectric constant tensor:
#      x y z
#    x 2.090850 0.000000 0.105890 
#    y 0.000000 2.063480 0.000000 
#    z 0.105890 0.000000 2.179580 
# 
# From -- ./inp_files/9612.got.cif
#   From: 2010.05.17/outbox.cif.g08.bks.cpg/sg5_5_cif.got.tgz:9612.got - 2010.06.03 18:56:24.
