data_PCOD9128318
_publ_section_title
;
Structure prediction by ZEFSAII (Michael W. Deem and Ramdas Pophale) SiO2 
 PCOD9128318
Probable space group: C 2
;
_chemical_formula_sum "Si O2"
_cell_formula_units_Z 26
_cell_length_a 4.915214
_cell_length_b 13.480227
_cell_length_c 18.321369
_cell_angle_alpha 90.000000
_cell_angle_beta 63.845431
_cell_angle_gamma 90.000000
_cell_volume 1089.643302
_symmetry_space_group_name_H-M "C 2"
_symmetry_group_IT_number 5
_symmetry_cell_setting 'monoclinic'
loop_
_space_group_symop_operation_xyz
x,y,z
-x,y,-z
1/2+x,1/2+y,z
1/2-x,1/2+y,-z
loop_
_atom_site_type_symbol
_atom_site_label
_atom_site_fract_x
_atom_site_fract_y
_atom_site_fract_z
Si Si1 0.577285 0.250000 0.406845
Si Si2 0.790081 0.354569 0.662376
Si Si3 0.500000 0.812651 0.000000
Si Si4 0.312583 0.601856 0.800152
Si Si5 0.247796 0.476186 0.077717
Si Si6 0.039252 0.809011 0.840354
Si Si7 0.978290 0.566605 0.694236
O O1 0.500000 0.234296 0.500000
O O2 0.370767 0.336548 0.395569
O O3 0.503605 0.153977 0.366839
O O4 0.929054 0.279844 0.360504
O O5 0.534671 0.332710 0.754699
O O6 0.935910 0.461542 0.660003
O O7 0.325087 0.885895 0.967418
O O8 0.743930 0.766614 0.916644
O O9 0.266919 0.717804 0.820712
O O10 0.662015 0.582656 0.774684
O O11 0.057898 0.537836 0.872285
O O12 0.241030 0.574796 0.723623
O O13 0.359289 0.412020 0.134202
O O14 0.500000 0.534925 0.000000
#
# Coordination Sequence:
#
# PCOD9128318 Si02
#       7
#     4   4   2   4   4   4   4
#     4  12  27  48  72 108 145 180 233 296 359 426
#     4  12  25  46  78 103 142 191 232 290 349 431
#     4  10  24  42  64  96 144 188 232 304 342 408
#     4  12  25  41  73 101 135 185 239 291 343 419
#     4  10  24  44  61 101 139 189 233 301 348 407
#     4  11  23  42  69  99 141 183 244 282 354 407
#     4  12  25  46  72 106 133 184 233 289 351 422
#
# _framework density 23.861015999999999
#
# number of rings (size 3 to 8) (size 9 to 14) (size 15 to 20)
#    0.000    0.615    4.615    2.308    7.538    1.231 
#    4.154    0.000    0.000    0.000    0.000    0.000 
#    0.000    0.000    0.000    0.000    0.000    0.000 
#
# Total GULP energy -72698.308346 kJ/mol
# GULP energy per Si atom -5592.177565 kJ/mol
# Density = 2.380671 g / cm^3
# Si number density = 23.861016 Si / 1000 Ang^3
#
#
#
# Elastic Constant Matrix: (Units=GPa)
#
#
# Indices 1 2 3 4 5 6 
#
# 1 62.9228 -6.2255 1.6059 0.0000 5.7656 0.0000
# 2 -6.2255 85.3547 23.3349 0.0000 -3.7169 0.0000
# 3 1.6059 23.3349 97.1763 0.0000 5.4494 0.0000
# 4 0.0000 0.0000 0.0000 254.0914 0.0000 78.3740
# 5 5.7656 -3.7169 5.4494 0.0000 31.0295 0.0000
# 6 0.0000 0.0000 0.0000 78.3740 0.0000 44.2389
#
#
#
# Elastic Compliance Matrix: (Units=1/GPa)
#
#
# Indices 1 2 3 4 5 6 
#
# 1 0.016276 0.001172 -0.000393 0.000000 -0.002815 0.000000
# 2 0.001172 0.012754 -0.003187 0.000000 0.001870 0.000000
# 3 -0.000393 -0.003187 0.011190 0.000000 -0.002274 0.000000
# 4 0.000000 0.000000 0.000000 0.008677 0.000000 -0.015373
# 5 -0.002815 0.001870 -0.002274 0.000000 0.033374 0.000000
# 6 0.000000 0.000000 0.000000 -0.015373 0.000000 0.049839
#
#
# Mechanical properties :
#
#
# Convention : Reuss Voigt Hill
#
# Bulk Modulus (GPa) = 28.24441 31.43160 29.83800
# Shear Modulus (GPa) = 33.61866 80.98785 57.30326
#
# Velocity S-wave (km/s) = 3.75765 5.83225 4.90587
# Velocity P-wave (km/s) = 5.53980 7.65212 6.67998
#
# Compressibility (1/GPa) = 0.03540524
#
# Stress axis : x y z
#
# Youngs Moduli (GPa) = 61.43870 78.40713 89.36687
#
# Poissons Ratio (x) = -0.09188 0.03508
# Poissons Ratio (y) = -0.07200 0.28480
# Poissons Ratio (z) = 0.02412 0.24987
#
# Static dielectric constant tensor:
#      x y z
#    x -2.264700 0.000000 -2.904210 
#    y 0.000000 1.911840 0.000000 
#    z -2.904210 0.000000 0.029280 
# 
# From -- ./inp_files/58731.got.cif
#   From: 2010.05.17/outbox.cif.g08.bks.cpg/sg5_30_cif.got.tgz:58731.got - 2010.06.03 18:56:24.
