data_PCOD9128472
_publ_section_title
;
Structure prediction by ZEFSAII (Michael W. Deem and Ramdas Pophale) SiO2 
 PCOD9128472
Probable space group: C 2
;
_chemical_formula_sum "Si O2"
_cell_formula_units_Z 20
_cell_length_a 8.651582
_cell_length_b 6.643796
_cell_length_c 16.874932
_cell_angle_alpha 90.000000
_cell_angle_beta 128.489106
_cell_angle_gamma 90.000000
_cell_volume 759.213443
_symmetry_space_group_name_H-M "C 2"
_symmetry_group_IT_number 5
_symmetry_cell_setting 'monoclinic'
loop_
_space_group_symop_operation_xyz
x,y,z
-x,y,-z
1/2+x,1/2+y,z
1/2-x,1/2+y,-z
loop_
_atom_site_type_symbol
_atom_site_label
_atom_site_fract_x
_atom_site_fract_y
_atom_site_fract_z
Si Si1 0.000000 0.232391 0.500000
Si Si2 0.879684 0.749813 0.334525
Si Si3 0.262462 0.874218 0.560267
Si Si4 0.834471 0.000792 0.170556
Si Si5 0.307192 0.429956 0.818354
Si Si6 0.500000 0.739311 0.000000
O O1 0.057205 0.359743 0.442364
O O2 0.184927 0.083784 0.570523
O O3 0.730272 0.727499 0.362111
O O4 0.078729 0.812007 0.443690
O O5 0.808534 0.924600 0.252603
O O6 0.626610 0.061608 0.726999
O O7 0.772685 0.237042 0.159154
O O8 0.184114 0.391972 0.061383
O O9 0.044811 0.909389 0.208995
O O10 0.441442 0.584754 0.912200
#
# Coordination Sequence:
#
# PCOD9128472 Si02
#       6
#     2   4   4   4   4   2
#     4  10  24  44  72 102 146 200 264 304 370 442
#     4   9  24  48  70 114 152 205 258 320 376 454
#     4  10  24  48  72 108 152 207 253 311 377 446
#     4  11  26  46  75 113 150 197 258 314 389 458
#     4  11  26  45  79 108 154 197 256 318 385 460
#     4  10  26  44  74 108 154 192 252 314 392 462
#
# _framework density 26.343052
#
# number of rings (size 3 to 8) (size 9 to 14) (size 15 to 20)
#    0.000    2.000    0.000    0.600   11.200   13.600 
#    0.000    0.000    0.000    0.000    0.000    0.000 
#    0.000    0.000    0.000    0.000    0.000    0.000 
#
# Total GULP energy -55791.279628 kJ/mol
# GULP energy per Si atom -5579.127963 kJ/mol
# Density = 2.628309 g / cm^3
# Si number density = 26.343052 Si / 1000 Ang^3
#
#
#
# Elastic Constant Matrix: (Units=GPa)
#
#
# Indices 1 2 3 4 5 6 
#
# 1 134.1809 34.7081 9.5666 0.0000 9.0617 0.0000
# 2 34.7081 131.7147 27.6419 0.0000 -0.9404 0.0000
# 3 9.5666 27.6419 104.3467 0.0000 -10.3778 0.0000
# 4 0.0000 0.0000 0.0000 51.5404 0.0000 -5.6302
# 5 9.0617 -0.9404 -10.3778 0.0000 37.6585 0.0000
# 6 0.0000 0.0000 0.0000 -5.6302 0.0000 39.2228
#
#
#
# Elastic Compliance Matrix: (Units=1/GPa)
#
#
# Indices 1 2 3 4 5 6 
#
# 1 0.008164 -0.002081 -0.000409 0.000000 -0.002129 0.000000
# 2 -0.002081 0.008575 -0.002066 0.000000 0.000145 0.000000
# 3 -0.000409 -0.002066 0.010460 0.000000 0.002929 0.000000
# 4 0.000000 0.000000 0.000000 0.019711 0.000000 0.002829
# 5 -0.002129 0.000145 0.002929 0.000000 0.027878 0.000000
# 6 0.000000 0.000000 0.000000 0.002829 0.000000 0.025902
#
#
# Mechanical properties :
#
#
# Convention : Reuss Voigt Hill
#
# Bulk Modulus (GPa) = 55.28988 57.11949 56.20468
# Shear Modulus (GPa) = 43.16675 45.57272 44.36974
#
# Velocity S-wave (km/s) = 4.05240 4.16380 4.10848
# Velocity P-wave (km/s) = 6.55209 6.69674 6.62481
#
# Compressibility (1/GPa) = 0.01808649
#
# Stress axis : x y z
#
# Youngs Moduli (GPa) = 122.49265 116.61650 95.60533
#
# Poissons Ratio (x) = 0.24263 0.03911
# Poissons Ratio (y) = 0.25486 0.19756
# Poissons Ratio (z) = 0.05011 0.24097
#
# Static dielectric constant tensor:
#      x y z
#    x 2.328790 0.000000 0.122410 
#    y 0.000000 2.231380 0.000000 
#    z 0.122410 0.000000 2.100410 
# 
# From -- ./inp_files/64264.got.cif
#   From: 2010.05.17/outbox.cif.g08.bks.cpg/sg5_33_cif.got.tgz:64264.got - 2010.06.03 18:56:24.
