data_PCOD9128954
_publ_section_title
;
Structure prediction by ZEFSAII (Michael W. Deem and Ramdas Pophale) SiO2 
 PCOD9128954
Probable space group: C 2
;
_chemical_formula_sum "Si O2"
_cell_formula_units_Z 24
_cell_length_a 27.240136
_cell_length_b 6.114241
_cell_length_c 15.088919
_cell_angle_alpha 90.000000
_cell_angle_beta 154.392922
_cell_angle_gamma 90.000000
_cell_volume 1086.155119
_symmetry_space_group_name_H-M "C 2"
_symmetry_group_IT_number 5
_symmetry_cell_setting 'monoclinic'
loop_
_space_group_symop_operation_xyz
x,y,z
-x,y,-z
1/2+x,1/2+y,z
1/2-x,1/2+y,-z
loop_
_atom_site_type_symbol
_atom_site_label
_atom_site_fract_x
_atom_site_fract_y
_atom_site_fract_z
Si Si1 0.701655 0.491590 0.723671
Si Si2 0.188554 0.049189 0.339328
Si Si3 0.105704 0.748821 0.045378
Si Si4 0.000000 0.216129 0.500000
Si Si5 0.377068 0.320702 0.591392
Si Si6 0.700825 0.851009 0.944450
Si Si7 0.500000 0.901857 0.000000
O O1 0.780278 0.692328 0.820728
O O2 0.588787 0.570207 0.589627
O O3 0.663730 0.371837 0.572965
O O4 0.780350 0.354304 0.919066
O O5 0.135207 0.887853 0.180083
O O6 0.177418 0.974206 0.421827
O O7 0.317223 0.093584 0.520368
O O8 0.107121 0.256244 0.199140
O O9 0.010993 0.841592 0.824794
O O10 0.043784 0.541082 0.988261
O O11 0.077654 0.348167 0.696821
O O12 0.750586 0.602443 0.999881
#
# Coordination Sequence:
#
# PCOD9128954 Si02
#       7
#     4   4   4   2   4   4   2
#     4  11  27  45  74 113 139 189 251 305 370 446
#     4  12  24  44  70 101 150 197 238 296 356 441
#     4  12  25  45  66 105 146 194 243 297 354 434
#     4  10  26  52  78 104 150 190 242 314 384 442
#     4  12  24  42  72 103 146 194 241 296 372 426
#     4  10  25  50  79 108 147 190 248 314 378 447
#     4  12  20  46  68  92 154 192 234 304 344 422
#
# _framework density 22.096291999999998
#
# number of rings (size 3 to 8) (size 9 to 14) (size 15 to 20)
#    0.000    0.667    5.000    2.000    0.000   16.000 
#    0.000    0.000    0.000    0.000    0.000    0.000 
#    0.000    0.000    0.000    0.000    0.000    0.000 
#
# Total GULP energy -66924.145386 kJ/mol
# GULP energy per Si atom -5577.012116 kJ/mol
# Density = 2.204600 g / cm^3
# Si number density = 22.096292 Si / 1000 Ang^3
#
#
#
# Elastic Constant Matrix: (Units=GPa)
#
#
# Indices 1 2 3 4 5 6 
#
# 1 41.8627 -3.4143 197.2021 0.0000 -21.1689 0.0000
# 2 -3.4143 57.9890 99.5260 0.0000 -11.5964 0.0000
# 3 197.2021 99.5260 -67.5914 0.0000 -10.9046 0.0000
# 4 0.0000 0.0000 0.0000 29.4707 0.0000 7.3586
# 5 -21.1689 -11.5964 -10.9046 0.0000 60.0243 0.0000
# 6 0.0000 0.0000 0.0000 7.3586 0.0000 1.6662
#
#
#
# Elastic Compliance Matrix: (Units=1/GPa)
#
#
# Indices 1 2 3 4 5 6 
#
# 1 0.004736 -0.006488 0.004078 0.000000 0.001158 -0.000001
# 2 -0.006488 0.014092 0.001701 0.000000 0.000743 0.000000
# 3 0.004078 0.001701 -0.000659 0.000000 0.001647 0.000001
# 4 0.000000 0.000000 0.000000 -0.330222 0.000000 1.458408
# 5 0.001158 0.000743 0.001647 0.000000 0.017511 0.000000
# 6 -0.000001 0.000000 0.000001 1.458408 0.000000 -5.840813
#
#
# Mechanical properties :
#
#
# Convention : Reuss Voigt Hill
#
# Bulk Modulus (GPa) = 59.70214 68.76530 64.23372
# Shear Modulus (GPa) = -0.81588 0.82868 0.00640
#
# Velocity S-wave (km/s) = -0.60831 0.61306 0.05388
# Velocity P-wave (km/s) = 5.15600 5.62934 5.39786
#
# Compressibility (1/GPa) = 0.01674982
#
# Stress axis : x y z
#
# Youngs Moduli (GPa) = 211.15108 70.96312 -1516.64798
#
# Poissons Ratio (x) = 0.46040 6.18415
# Poissons Ratio (y) = 1.36992 2.57989
# Poissons Ratio (z) = -0.86097 -0.12071
#
# Static dielectric constant tensor:
#      x y z
#    x 1.791450 0.000000 -0.004040 
#    y 0.000000 1.952870 0.000000 
#    z -0.004040 0.000000 1.940740 
# 
# From -- ./inp_files/58029.got.cif
#   From: 2010.05.17/outbox.cif.g08.bks.cpg/sg5_30_cif.got.tgz:58029.got - 2010.06.03 18:56:24.
