data_PCOD9128496
_publ_section_title
;
Structure prediction by ZEFSAII (Michael W. Deem and Ramdas Pophale) SiO2 
 PCOD9128496
Probable space group: C 2
;
_chemical_formula_sum "Si O2"
_cell_formula_units_Z 20
_cell_length_a 8.172491
_cell_length_b 12.132966
_cell_length_c 8.714211
_cell_angle_alpha 90.000000
_cell_angle_beta 94.169309
_cell_angle_gamma 90.000000
_cell_volume 861.784438
_symmetry_space_group_name_H-M "C 2"
_symmetry_group_IT_number 5
_symmetry_cell_setting 'monoclinic'
loop_
_space_group_symop_operation_xyz
x,y,z
-x,y,-z
1/2+x,1/2+y,z
1/2-x,1/2+y,-z
loop_
_atom_site_type_symbol
_atom_site_label
_atom_site_fract_x
_atom_site_fract_y
_atom_site_fract_z
Si Si1 0.548052 0.685380 0.175899
Si Si2 0.862908 0.832554 0.187434
Si Si3 0.258548 0.482325 0.896947
Si Si4 0.000000 0.654602 0.000000
Si Si5 0.000000 0.850629 0.500000
Si Si6 0.653412 0.816581 0.623886
O O1 0.701447 0.764308 0.223608
O O2 0.605881 0.560274 0.170260
O O3 0.405222 0.709945 0.285107
O O4 0.500000 0.717855 0.000000
O O5 0.928493 0.899478 0.337317
O O6 0.820896 0.902145 0.034363
O O7 0.993138 0.738340 0.143374
O O8 0.173719 0.412223 0.755596
O O9 0.148039 0.571992 0.978479
O O10 0.171650 0.798241 0.447550
O O11 0.500000 0.843513 0.500000
#
# Coordination Sequence:
#
# PCOD9128496 Si02
#       6
#     4   4   4   2   2   4
#     4  11  24  47  80 110 148 207 258 319 383 452
#     4  11  23  48  72 109 156 196 255 319 376 452
#     4  11  25  47  80 111 146 207 261 311 380 455
#     4  10  24  44  76 110 140 200 258 306 370 454
#     4  12  28  44  76 112 156 208 240 314 396 446
#     4  12  26  52  77 112 164 199 253 325 383 454
#
# _framework density 23.207661999999999
#
# number of rings (size 3 to 8) (size 9 to 14) (size 15 to 20)
#    0.000    0.800    4.000    2.400    7.000    0.000 
#    9.000    0.000    0.000    0.000    0.000    0.000 
#    0.000    0.000    0.000    0.000    0.000    0.000 
#
# Total GULP energy -55783.803487 kJ/mol
# GULP energy per Si atom -5578.380349 kJ/mol
# Density = 2.315484 g / cm^3
# Si number density = 23.207662 Si / 1000 Ang^3
#
#
#
# Elastic Constant Matrix: (Units=GPa)
#
#
# Indices 1 2 3 4 5 6 
#
# 1 131.8168 39.6867 85.2952 0.0000 -31.0041 0.0000
# 2 39.6867 97.6364 67.4697 0.0000 -8.2305 0.0000
# 3 85.2952 67.4697 175.9712 0.0000 25.2333 0.0000
# 4 0.0000 0.0000 0.0000 7.2281 0.0000 -10.9726
# 5 -31.0041 -8.2305 25.2333 0.0000 65.0515 0.0000
# 6 0.0000 0.0000 0.0000 -10.9726 0.0000 44.8892
#
#
#
# Elastic Compliance Matrix: (Units=1/GPa)
#
#
# Indices 1 2 3 4 5 6 
#
# 1 0.016787 0.001417 -0.010433 0.000000 0.012227 0.000000
# 2 0.001417 0.015146 -0.007270 0.000000 0.005412 0.000000
# 3 -0.010433 -0.007270 0.015219 0.000000 -0.011796 0.000000
# 4 0.000000 0.000000 0.000000 0.219973 0.000000 0.053769
# 5 0.012227 0.005412 -0.011796 0.000000 0.026460 0.000000
# 6 0.000000 0.000000 0.000000 0.053769 0.000000 0.035420
#
#
# Mechanical properties :
#
#
# Convention : Reuss Voigt Hill
#
# Bulk Modulus (GPa) = 68.59231 87.81419 78.20325
# Shear Modulus (GPa) = 13.64492 37.63194 25.63843
#
# Velocity S-wave (km/s) = 2.42740 4.03119 3.32737
# Velocity P-wave (km/s) = 6.12180 7.71932 6.96650
#
# Compressibility (1/GPa) = 0.01457889
#
# Stress axis : x y z
#
# Youngs Moduli (GPa) = 59.57140 66.02333 65.70829
#
# Poissons Ratio (x) = -0.09356 0.68555
# Poissons Ratio (y) = -0.08442 0.47771
# Poissons Ratio (z) = 0.62152 0.48000
#
# Static dielectric constant tensor:
#      x y z
#    x 2.024530 0.000000 -0.014160 
#    y 0.000000 1.842830 0.000000 
#    z -0.014160 0.000000 1.877010 
# 
# From -- ./inp_files/14322.got.cif
#   From: 2010.05.17/outbox.cif.g08.bks.cpg/sg5_8_cif.got.tgz:14322.got - 2010.06.03 18:56:24.
