data_PCOD9128545
_publ_section_title
;
Structure prediction by ZEFSAII (Michael W. Deem and Ramdas Pophale) SiO2 
 PCOD9128545
Probable space group: C 2
;
_chemical_formula_sum "Si O2"
_cell_formula_units_Z 20
_cell_length_a 26.620232
_cell_length_b 4.785648
_cell_length_c 11.114000
_cell_angle_alpha 90.000000
_cell_angle_beta 148.685381
_cell_angle_gamma 90.000000
_cell_volume 735.879505
_symmetry_space_group_name_H-M "C 2"
_symmetry_group_IT_number 5
_symmetry_cell_setting 'monoclinic'
loop_
_space_group_symop_operation_xyz
x,y,z
-x,y,-z
1/2+x,1/2+y,z
1/2-x,1/2+y,-z
loop_
_atom_site_type_symbol
_atom_site_label
_atom_site_fract_x
_atom_site_fract_y
_atom_site_fract_z
Si Si1 0.000000 0.725670 0.000000
Si Si2 0.228913 0.275935 0.749707
Si Si3 0.340878 0.802521 0.047667
Si Si4 0.500000 0.498175 0.500000
Si Si5 0.984399 0.062899 0.721048
Si Si6 0.799619 0.489288 0.650441
O O1 0.990742 0.907727 0.859932
O O2 0.906244 0.537048 0.822017
O O3 0.257264 0.590503 0.835240
O O4 0.279233 0.137284 0.735106
O O5 0.288967 0.091899 0.969694
O O6 0.116946 0.220436 0.497944
O O7 0.404863 0.690612 0.289505
O O8 0.424323 0.767004 0.115082
O O9 0.491957 0.363140 0.615780
O O10 0.768476 0.170316 0.578536
#
# Coordination Sequence:
#
# PCOD9128545 Si02
#       6
#     2   4   4   2   4   4
#     4  12  24  44  74 106 150 188 234 304 350 418
#     4  12  24  44  74 102 143 187 235 293 354 420
#     4  10  25  46  70 106 138 181 241 292 347 422
#     4   8  22  52  68 108 140 188 240 294 350 434
#     4  10  24  45  72 106 142 192 235 296 355 420
#     4  12  26  43  67 104 145 189 238 286 358 428
#
# _framework density 27.178363999999998
#
# number of rings (size 3 to 8) (size 9 to 14) (size 15 to 20)
#    1.200    0.000    4.000    1.200    0.000    6.400 
#    0.000    0.000    0.000    0.000    0.000    0.000 
#    0.000    0.000    0.000    0.000    0.000    0.000 
#
# Total GULP energy -56011.330550 kJ/mol
# GULP energy per Si atom -5601.133055 kJ/mol
# Density = 2.711650 g / cm^3
# Si number density = 27.178364 Si / 1000 Ang^3
#
#
#
# Elastic Constant Matrix: (Units=GPa)
#
#
# Indices 1 2 3 4 5 6 
#
# 1 147.9687 18.5521 63.3302 0.0000 -2.0071 0.0000
# 2 18.5521 93.3698 29.5885 0.0000 11.9401 0.0000
# 3 63.3302 29.5885 150.6028 0.0000 31.3925 0.0000
# 4 0.0000 0.0000 0.0000 12.0072 0.0000 -8.7576
# 5 -2.0071 11.9401 31.3925 0.0000 87.8670 0.0000
# 6 0.0000 0.0000 0.0000 -8.7576 0.0000 13.8720
#
#
#
# Elastic Compliance Matrix: (Units=1/GPa)
#
#
# Indices 1 2 3 4 5 6 
#
# 1 0.008482 -0.000700 -0.003770 0.000000 0.001636 0.000000
# 2 -0.000700 0.011533 -0.001774 0.000000 -0.000949 0.000000
# 3 -0.003770 -0.001774 0.009229 0.000000 -0.003142 0.000000
# 4 0.000000 0.000000 0.000000 0.154361 0.000000 0.097451
# 5 0.001636 -0.000949 -0.003142 0.000000 0.012670 0.000000
# 6 0.000000 0.000000 0.000000 0.097451 0.000000 0.133611
#
#
# Mechanical properties :
#
#
# Convention : Reuss Voigt Hill
#
# Bulk Modulus (GPa) = 59.67957 68.32031 63.99994
# Shear Modulus (GPa) = 14.36959 41.44726 27.90843
#
# Velocity S-wave (km/s) = 2.30187 3.90937 3.20795
# Velocity P-wave (km/s) = 5.39175 6.75055 6.10905
#
# Compressibility (1/GPa) = 0.01675615
#
# Stress axis : x y z
#
# Youngs Moduli (GPa) = 117.90056 86.71070 108.35587
#
# Poissons Ratio (x) = 0.06067 0.40852
# Poissons Ratio (y) = 0.08250 0.19218
# Poissons Ratio (z) = 0.44451 0.15379
#
# Static dielectric constant tensor:
#      x y z
#    x 2.249500 0.000000 -0.153510 
#    y 0.000000 2.052010 0.000000 
#    z -0.153510 0.000000 2.153240 
# 
# From -- ./inp_files/40903.got.cif
#   From: 2010.05.17/outbox.cif.g08.bks.cpg/sg5_21_cif.got.tgz:40903.got - 2010.06.03 18:56:24.
