data_PCOD9128456
_publ_section_title
;
Structure prediction by ZEFSAII (Michael W. Deem and Ramdas Pophale) SiO2 
 PCOD9128456
Probable space group: C 2
;
_chemical_formula_sum "Si O2"
_cell_formula_units_Z 28
_cell_length_a 15.138526
_cell_length_b 6.132924
_cell_length_c 15.022558
_cell_angle_alpha 90.000000
_cell_angle_beta 118.636772
_cell_angle_gamma 90.000000
_cell_volume 1224.134323
_symmetry_space_group_name_H-M "C 2"
_symmetry_group_IT_number 5
_symmetry_cell_setting 'monoclinic'
loop_
_space_group_symop_operation_xyz
x,y,z
-x,y,-z
1/2+x,1/2+y,z
1/2-x,1/2+y,-z
loop_
_atom_site_type_symbol
_atom_site_label
_atom_site_fract_x
_atom_site_fract_y
_atom_site_fract_z
Si Si1 0.171665 0.981630 0.858938
Si Si2 0.344089 0.729990 0.831321
Si Si3 0.500000 0.087148 0.500000
Si Si4 0.145849 0.225689 0.500983
Si Si5 0.000000 0.505817 0.000000
Si Si6 0.677962 0.334425 0.063334
Si Si7 0.975522 0.845788 0.660025
Si Si8 0.687993 0.981613 0.358559
O O1 0.252309 0.827063 0.846686
O O2 0.060900 0.928348 0.769198
O O3 0.215316 0.223082 0.863690
O O4 0.180743 0.952965 0.969773
O O5 0.352185 0.483789 0.867881
O O6 0.327665 0.799845 0.722869
O O7 0.448438 0.849732 0.904161
O O8 0.586634 0.922887 0.514913
O O9 0.525422 0.229052 0.598474
O O10 0.212861 0.349305 0.460366
O O11 0.210784 0.114787 0.608890
O O12 0.080097 0.053001 0.412706
O O13 0.908801 0.653569 0.989779
O O14 0.901117 0.660576 0.667977
#
# Coordination Sequence:
#
# PCOD9128456 Si02
#       8
#     4   4   2   4   2   4   4   4
#     4  11  25  44  72 104 142 186 240 294 370 412
#     4  11  25  43  73 106 143 186 236 301 356 440
#     4  10  26  44  72 102 142 192 236 292 354 416
#     4  11  24  46  72 102 148 183 234 304 349 435
#     4  10  24  44  70 104 136 188 232 292 358 418
#     4  11  23  48  71 105 142 185 237 306 350 433
#     4  11  25  47  71 106 143 192 241 297 351 445
#     4  11  25  46  71 105 140 189 239 293 370 414
#
# _framework density 22.873308000000002
#
# number of rings (size 3 to 8) (size 9 to 14) (size 15 to 20)
#    0.000    1.143    2.857    1.714    4.000    6.857 
#    2.571    0.000    0.000    0.000    0.000    0.000 
#    0.000    0.000    0.000    0.000    0.000    0.000 
#
# Total GULP energy -78235.399613 kJ/mol
# GULP energy per Si atom -5588.242829 kJ/mol
# Density = 2.282125 g / cm^3
# Si number density = 22.873308 Si / 1000 Ang^3
#
#
#
# Elastic Constant Matrix: (Units=GPa)
#
#
# Indices 1 2 3 4 5 6 
#
# 1 43.5834 28.8324 39.4287 0.0000 9.6502 0.0000
# 2 28.8324 104.1599 36.5444 0.0000 7.3232 0.0000
# 3 39.4287 36.5444 100.3035 0.0000 8.9688 0.0000
# 4 0.0000 0.0000 0.0000 28.5226 0.0000 12.6605
# 5 9.6502 7.3232 8.9688 0.0000 32.1402 0.0000
# 6 0.0000 0.0000 0.0000 12.6605 0.0000 25.5022
#
#
#
# Elastic Compliance Matrix: (Units=1/GPa)
#
#
# Indices 1 2 3 4 5 6 
#
# 1 0.040295 -0.006101 -0.012984 0.000000 -0.007086 0.000000
# 2 -0.006101 0.011995 -0.001940 0.000000 -0.000360 0.000000
# 3 -0.012984 -0.001940 0.015786 0.000000 -0.000065 0.000000
# 4 0.000000 0.000000 0.000000 0.044969 0.000000 -0.022325
# 5 -0.007086 -0.000360 -0.000065 0.000000 0.033341 0.000000
# 6 0.000000 0.000000 0.000000 -0.022325 0.000000 0.050296
#
#
# Mechanical properties :
#
#
# Convention : Reuss Voigt Hill
#
# Bulk Modulus (GPa) = 38.41992 50.85087 44.63539
# Shear Modulus (GPa) = 20.20960 26.78242 23.49601
#
# Velocity S-wave (km/s) = 2.97567 3.42556 3.20851
# Velocity P-wave (km/s) = 5.35159 6.15839 5.76911
#
# Compressibility (1/GPa) = 0.02602817
#
# Stress axis : x y z
#
# Youngs Moduli (GPa) = 24.81694 83.36604 63.34683
#
# Poissons Ratio (x) = 0.50858 0.82246
# Poissons Ratio (y) = 0.15140 0.12289
# Poissons Ratio (z) = 0.32221 0.16173
#
# Static dielectric constant tensor:
#      x y z
#    x 1.791290 0.000000 0.098190 
#    y 0.000000 1.891100 0.000000 
#    z 0.098190 0.000000 1.714870 
# 
# From -- ./inp_files/55515.got.cif
#   From: 2010.05.17/outbox.cif.g08.bks.cpg/sg5_28_cif.got.tgz:55515.got - 2010.06.03 18:56:24.
