data_PCOD9128197
_publ_section_title
;
Structure prediction by ZEFSAII (Michael W. Deem and Ramdas Pophale) SiO2 
 PCOD9128197
Probable space group: C 2
;
_chemical_formula_sum "Si O2"
_cell_formula_units_Z 32
_cell_length_a 15.300464
_cell_length_b 23.361230
_cell_length_c 8.671549
_cell_angle_alpha 90.000000
_cell_angle_beta 149.215833
_cell_angle_gamma 90.000000
_cell_volume 1586.360628
_symmetry_space_group_name_H-M "C 2"
_symmetry_group_IT_number 5
_symmetry_cell_setting 'monoclinic'
loop_
_space_group_symop_operation_xyz
x,y,z
-x,y,-z
1/2+x,1/2+y,z
1/2-x,1/2+y,-z
loop_
_atom_site_type_symbol
_atom_site_label
_atom_site_fract_x
_atom_site_fract_y
_atom_site_fract_z
Si Si1 0.508123 0.731120 0.696029
Si Si2 0.810827 0.931047 0.772906
Si Si3 0.351810 0.549364 0.669294
Si Si4 0.815767 0.651014 0.770595
Si Si5 0.179607 0.647812 0.851700
Si Si6 0.002211 0.357459 0.820995
Si Si7 0.892402 0.045852 0.205293
Si Si8 0.182829 0.924704 0.848482
O O1 0.500000 0.741203 0.500000
O O2 0.344304 0.693266 0.495002
O O3 0.507491 0.791646 0.778168
O O4 0.681088 0.695141 0.983072
O O5 0.667213 0.889030 0.493418
O O6 0.777825 0.995742 0.654668
O O7 0.808789 0.922821 0.953752
O O8 0.000000 0.916656 0.000000
O O9 0.226353 0.594508 0.397143
O O10 0.468017 0.524617 0.705583
O O11 0.500000 0.578103 0.000000
O O12 0.831452 0.642341 0.979118
O O13 0.000000 0.674301 0.000000
O O14 0.000000 0.658617 0.500000
O O15 0.258131 0.586810 0.921816
O O16 0.165304 0.389833 0.996888
O O17 0.000000 0.361604 0.000000
O O18 0.000000 0.079543 0.500000
O O19 0.804820 0.993187 0.158299
O O20 0.000000 0.906924 0.500000
#
# Coordination Sequence:
#
# PCOD9128197 Si02
#       8
#     4   4   4   4   4   4   4   4
#     4  10  23  50  69  89 135 178 225 281 335 393
#     4  11  23  44  66  99 136 178 223 273 334 397
#     4  11  22  40  66 100 140 179 214 275 338 398
#     4  11  25  41  67 102 132 173 223 278 335 395
#     4  11  24  41  69 100 130 179 226 270 335 405
#     4  12  28  44  70 102 131 179 230 279 335 402
#     4  11  20  41  67  96 140 179 215 272 338 396
#     4  11  24  43  69  97 136 179 221 277 334 397
#
# _framework density 20.171958
#
# number of rings (size 3 to 8) (size 9 to 14) (size 15 to 20)
#    0.000    1.000    5.000    2.250    3.500    5.000 
#    0.000    2.500    0.000    0.000    0.000    0.000 
#    0.000    0.000    0.000    0.000    0.000    0.000 
#
# Total GULP energy -89339.925988 kJ/mol
# GULP energy per Si atom -5583.745374 kJ/mol
# Density = 2.012605 g / cm^3
# Si number density = 20.171958 Si / 1000 Ang^3
#
#
#
# Elastic Constant Matrix: (Units=GPa)
#
#
# Indices 1 2 3 4 5 6 
#
# 1 137.5894 73.9673 73.7998 0.0000 3.6496 0.0000
# 2 73.9673 102.5844 82.0069 0.0000 4.2771 0.0000
# 3 73.7998 82.0069 182.3338 0.0000 3.0325 0.0000
# 4 0.0000 0.0000 0.0000 18.3877 0.0000 -7.9916
# 5 3.6496 4.2771 3.0325 0.0000 35.8230 0.0000
# 6 0.0000 0.0000 0.0000 -7.9916 0.0000 19.6561
#
#
#
# Elastic Compliance Matrix: (Units=1/GPa)
#
#
# Indices 1 2 3 4 5 6 
#
# 1 0.012136 -0.007522 -0.001525 0.000000 -0.000209 0.000000
# 2 -0.007522 0.019938 -0.005904 0.000000 -0.001114 0.000000
# 3 -0.001525 -0.005904 0.008755 0.000000 0.000119 0.000000
# 4 0.000000 0.000000 0.000000 0.066057 0.000000 0.026857
# 5 -0.000209 -0.001114 0.000119 0.000000 0.028059 0.000000
# 6 0.000000 0.000000 0.000000 0.026857 0.000000 0.061794
#
#
# Mechanical properties :
#
#
# Convention : Reuss Voigt Hill
#
# Bulk Modulus (GPa) = 91.52734 98.00618 94.76676
# Shear Modulus (GPa) = 21.71224 27.62226 24.66725
#
# Velocity S-wave (km/s) = 3.28435 3.70447 3.50072
# Velocity P-wave (km/s) = 7.73658 8.18464 7.96376
#
# Compressibility (1/GPa) = 0.01092570
#
# Stress axis : x y z
#
# Youngs Moduli (GPa) = 82.40266 50.15458 114.21596
#
# Poissons Ratio (x) = 0.37727 0.17420
# Poissons Ratio (y) = 0.61985 0.67437
# Poissons Ratio (z) = 0.12568 0.29613
#
# Static dielectric constant tensor:
#      x y z
#    x 1.757340 0.000000 -0.034260 
#    y 0.000000 1.723900 0.000000 
#    z -0.034260 0.000000 1.737330 
# 
# From -- ./inp_files/25684.got.cif
#   From: 2010.05.17/outbox.cif.g08.bks.cpg/sg5_13_cif.got.tgz:25684.got - 2010.06.03 18:56:24.
