data_PCOD9128692
_publ_section_title
;
Structure prediction by ZEFSAII (Michael W. Deem and Ramdas Pophale) SiO2 
 PCOD9128692
Probable space group: C 2
;
_chemical_formula_sum "Si O2"
_cell_formula_units_Z 22
_cell_length_a 7.369612
_cell_length_b 12.252988
_cell_length_c 10.846577
_cell_angle_alpha 90.000000
_cell_angle_beta 111.827787
_cell_angle_gamma 90.000000
_cell_volume 909.222788
_symmetry_space_group_name_H-M "C 2"
_symmetry_group_IT_number 5
_symmetry_cell_setting 'monoclinic'
loop_
_space_group_symop_operation_xyz
x,y,z
-x,y,-z
1/2+x,1/2+y,z
1/2-x,1/2+y,-z
loop_
_atom_site_type_symbol
_atom_site_label
_atom_site_fract_x
_atom_site_fract_y
_atom_site_fract_z
Si Si1 0.801127 0.595440 0.331208
Si Si2 0.882119 0.269701 0.344846
Si Si3 0.000000 0.397776 0.000000
Si Si4 0.752751 0.319489 0.726332
Si Si5 0.230757 0.541778 0.400634
Si Si6 0.190383 0.942193 0.124923
O O1 0.884924 0.717841 0.336434
O O2 0.717097 0.565336 0.443446
O O3 0.659313 0.556477 0.187501
O O4 0.997632 0.526568 0.353663
O O5 0.791034 0.150609 0.343570
O O6 0.729092 0.353425 0.243889
O O7 0.000000 0.301838 0.500000
O O8 0.054698 0.269337 0.289687
O O9 0.825576 0.337004 0.883107
O O10 0.123932 0.454225 0.921474
O O11 0.694601 0.432009 0.646066
O O12 0.000000 0.912336 0.000000
#
# Coordination Sequence:
#
# PCOD9128692 Si02
#       6
#     4   4   2   4   4   4
#     4  11  24  44  73 103 146 186 245 316 368 445
#     4  11  22  48  73 105 146 191 244 318 378 437
#     4  10  24  48  68  96 160 194 238 322 352 448
#     4  11  24  46  68 102 147 186 245 308 368 442
#     4  11  24  45  72 105 141 192 240 315 376 436
#     4  11  26  48  76 112 147 206 256 305 386 456
#
# _framework density 24.196491000000002
#
# number of rings (size 3 to 8) (size 9 to 14) (size 15 to 20)
#    0.000    1.091    5.455    1.091    3.818    1.455 
#    8.182    0.000    0.000    0.000    0.000    0.000 
#    0.000    0.000    0.000    0.000    0.000    0.000 
#
# Total GULP energy -61396.912315 kJ/mol
# GULP energy per Si atom -5581.537483 kJ/mol
# Density = 2.414142 g / cm^3
# Si number density = 24.196491 Si / 1000 Ang^3
#
#
#
# Elastic Constant Matrix: (Units=GPa)
#
#
# Indices 1 2 3 4 5 6 
#
# 1 48.4259 28.0708 5.5587 0.0000 -3.5746 0.0000
# 2 28.0708 184.6696 85.8924 0.0000 -10.1455 0.0000
# 3 5.5587 85.8924 167.4175 0.0000 -7.1803 0.0000
# 4 0.0000 0.0000 0.0000 30.9671 0.0000 -9.6289
# 5 -3.5746 -10.1455 -7.1803 0.0000 42.8404 0.0000
# 6 0.0000 0.0000 0.0000 -9.6289 0.0000 31.6005
#
#
#
# Elastic Compliance Matrix: (Units=1/GPa)
#
#
# Indices 1 2 3 4 5 6 
#
# 1 0.022933 -0.004059 0.001372 0.000000 0.001182 0.000000
# 2 -0.004059 0.007881 -0.003871 0.000000 0.000879 0.000000
# 3 0.001372 -0.003871 0.007936 0.000000 0.000528 0.000000
# 4 0.000000 0.000000 0.000000 0.035672 0.000000 0.010870
# 5 0.001182 0.000879 0.000528 0.000000 0.023738 0.000000
# 6 0.000000 0.000000 0.000000 0.010870 0.000000 0.034957
#
#
# Mechanical properties :
#
#
# Convention : Reuss Voigt Hill
#
# Bulk Modulus (GPa) = 39.01135 71.06187 55.03661
# Shear Modulus (GPa) = 32.30461 39.81435 36.05948
#
# Velocity S-wave (km/s) = 3.65786 4.06083 3.86460
# Velocity P-wave (km/s) = 5.83075 7.17074 6.53518
#
# Compressibility (1/GPa) = 0.02563356
#
# Stress axis : x y z
#
# Youngs Moduli (GPa) = 43.60577 126.89336 126.00814
#
# Poissons Ratio (x) = 0.51505 -0.17284
# Poissons Ratio (y) = 0.17699 0.48773
# Poissons Ratio (z) = -0.05981 0.49116
#
# Static dielectric constant tensor:
#      x y z
#    x 2.036560 0.000000 0.049520 
#    y 0.000000 2.143250 0.000000 
#    z 0.049520 0.000000 1.964120 
# 
# From -- ./inp_files/35243.got.cif
#   From: 2010.05.17/outbox.cif.g08.bks.cpg/sg5_18_cif.got.tgz:35243.got - 2010.06.03 18:56:24.
