data_PCOD9128479
_publ_section_title
;
Structure prediction by ZEFSAII (Michael W. Deem and Ramdas Pophale) SiO2 
 PCOD9128479
Probable space group: C 2
;
_chemical_formula_sum "Si O2"
_cell_formula_units_Z 20
_cell_length_a 18.174418
_cell_length_b 8.392127
_cell_length_c 4.917610
_cell_angle_alpha 90.000000
_cell_angle_beta 89.999929
_cell_angle_gamma 90.000000
_cell_volume 750.043830
_symmetry_space_group_name_H-M "C 2"
_symmetry_group_IT_number 5
_symmetry_cell_setting 'monoclinic'
loop_
_space_group_symop_operation_xyz
x,y,z
-x,y,-z
1/2+x,1/2+y,z
1/2-x,1/2+y,-z
loop_
_atom_site_type_symbol
_atom_site_label
_atom_site_fract_x
_atom_site_fract_y
_atom_site_fract_z
Si Si1 0.219658 0.876310 0.675939
Si Si2 0.780342 0.532872 0.175939
Si Si3 0.945711 0.204591 0.750000
Si Si4 0.086604 0.546914 0.430219
Si Si5 0.586604 0.362268 0.069782
O O1 0.250181 0.704591 0.749999
O O2 0.236198 0.908465 0.363306
O O3 0.263801 0.000718 0.863306
O O4 0.137202 0.874870 0.799810
O O5 0.862797 0.534311 0.299808
O O6 0.000000 0.179048 0.500000
O O7 0.904953 0.372248 0.706368
O O8 0.904953 0.036934 0.793631
O O9 0.000000 0.230135 0.000000
O O10 0.104176 0.704591 0.250001
O O11 0.000000 0.560757 0.500000
O O12 0.500000 0.348425 0.000000
#
# Coordination Sequence:
#
# PCOD9128479 Si02
#       5
#     4   4   4   4   4
#     4  12  28  52  78 115 156 206 258 317 394 465
#     4  12  28  52  78 115 156 206 258 317 394 465
#     4  10  24  44  72 116 154 194 248 316 396 452
#     4  11  24  48  81 114 154 201 263 324 386 460
#     4  11  24  48  81 114 154 201 263 324 386 460
#
# _framework density 26.665106000000002
#
# number of rings (size 3 to 8) (size 9 to 14) (size 15 to 20)
#    0.000    0.800    0.000    6.000    2.800    9.600 
#   21.600    0.000    0.000    0.000    0.000    0.000 
#    0.000    0.000    0.000    0.000    0.000    0.000 
#
# Total GULP energy -56060.897607 kJ/mol
# GULP energy per Si atom -5606.089761 kJ/mol
# Density = 2.660442 g / cm^3
# Si number density = 26.665106 Si / 1000 Ang^3
#
#
#
# Elastic Constant Matrix: (Units=GPa)
#
#
# Indices 1 2 3 4 5 6 
#
# 1 169.6873 17.2204 8.5333 0.0000 0.0000 0.0000
# 2 17.2204 197.3256 -1.1715 0.0000 -0.0002 0.0000
# 3 8.5333 -1.1715 81.2405 0.0000 -0.0002 0.0000
# 4 0.0000 0.0000 0.0000 64.1439 0.0000 0.0001
# 5 0.0000 -0.0002 -0.0002 0.0000 54.0684 0.0000
# 6 0.0000 0.0000 0.0000 0.0001 0.0000 53.5069
#
#
#
# Elastic Compliance Matrix: (Units=1/GPa)
#
#
# Indices 1 2 3 4 5 6 
#
# 1 0.005978 -0.000526 -0.000636 0.000000 0.000000 0.000000
# 2 -0.000526 0.005114 0.000129 0.000000 0.000000 0.000000
# 3 -0.000636 0.000129 0.012378 0.000000 0.000000 0.000000
# 4 0.000000 0.000000 0.000000 0.015590 0.000000 0.000000
# 5 0.000000 0.000000 0.000000 0.000000 0.018495 0.000000
# 6 0.000000 0.000000 0.000000 0.000000 0.000000 0.018689
#
#
# Mechanical properties :
#
#
# Convention : Reuss Voigt Hill
#
# Bulk Modulus (GPa) = 46.71495 55.26863 50.99179
# Shear Modulus (GPa) = 58.51751 62.58860 60.55306
#
# Velocity S-wave (km/s) = 4.68967 4.85006 4.77054
# Velocity P-wave (km/s) = 6.84698 7.22053 7.03623
#
# Compressibility (1/GPa) = 0.02140642
#
# Stress axis : x y z
#
# Youngs Moduli (GPa) = 167.26649 195.52663 80.79011
#
# Poissons Ratio (x) = 0.10275 0.05135
# Poissons Ratio (y) = 0.08790 -0.01042
# Poissons Ratio (z) = 0.10631 -0.02521
#
# Static dielectric constant tensor:
#      x y z
#    x 2.123300 0.000000 0.000000 
#    y 0.000000 2.059960 0.000000 
#    z 0.000000 0.000000 2.094990 
# 
# From -- ./inp_files/8031.got.cif
#   From: 2010.05.17/outbox.cif.g08.bks.cpg/sg5_5_cif.got.tgz:8031.got - 2010.06.03 18:56:24.
