data_PCOD9128850
_publ_section_title
;
Structure prediction by ZEFSAII (Michael W. Deem and Ramdas Pophale) SiO2 
 PCOD9128850
Probable space group: C 2
;
_chemical_formula_sum "Si O2"
_cell_formula_units_Z 22
_cell_length_a 12.185795
_cell_length_b 13.446979
_cell_length_c 14.588439
_cell_angle_alpha 90.000000
_cell_angle_beta 25.164896
_cell_angle_gamma 90.000000
_cell_volume 1016.496872
_symmetry_space_group_name_H-M "C 2"
_symmetry_group_IT_number 5
_symmetry_cell_setting 'monoclinic'
loop_
_space_group_symop_operation_xyz
x,y,z
-x,y,-z
1/2+x,1/2+y,z
1/2-x,1/2+y,-z
loop_
_atom_site_type_symbol
_atom_site_label
_atom_site_fract_x
_atom_site_fract_y
_atom_site_fract_z
Si Si1 0.000000 0.696341 0.500000
Si Si2 0.777333 0.558647 0.314046
Si Si3 0.108815 0.577172 0.232632
Si Si4 0.727062 0.850182 0.162770
Si Si5 0.000000 0.252027 0.500000
Si Si6 0.417576 0.760889 0.923920
Si Si7 0.500000 0.915121 0.000000
O O1 0.038154 0.627411 0.381907
O O2 0.268678 0.756494 0.310258
O O3 0.500000 0.512620 0.500000
O O4 0.737816 0.674080 0.318439
O O5 0.955971 0.492844 0.115835
O O6 0.860611 0.559493 0.355785
O O7 0.227422 0.468788 0.153722
O O8 0.300477 0.653005 0.035272
O O9 0.512706 0.816320 0.398979
O O10 0.671804 0.800039 0.106950
O O11 0.000000 0.821581 0.000000
O O12 0.326135 0.835192 0.074537
#
# Coordination Sequence:
#
# PCOD9128850 Si02
#       7
#     2   4   4   4   2   4   2
#     4  12  25  45  72 100 148 180 247 293 352 424
#     4  10  26  46  70 106 139 189 244 290 354 426
#     4  12  25  47  71 107 144 189 240 296 357 425
#     4  12  26  46  72 104 145 189 236 290 363 421
#     4  10  25  45  68 104 138 184 235 289 358 410
#     4  12  27  46  74 105 143 193 235 304 349 424
#     4  12  24  48  72 100 142 186 246 292 354 418
#
# _framework density 21.642959000000001
#
# number of rings (size 3 to 8) (size 9 to 14) (size 15 to 20)
#    0.545    0.000    3.636    3.818    5.091    0.000 
#    9.818    0.000    0.000    0.000    0.000    0.000 
#    0.000    0.000    0.000    0.000    0.000    0.000 
#
# Total GULP energy -61348.720716 kJ/mol
# GULP energy per Si atom -5577.156429 kJ/mol
# Density = 2.159370 g / cm^3
# Si number density = 21.642959 Si / 1000 Ang^3
#
#
#
# Elastic Constant Matrix: (Units=GPa)
#
#
# Indices 1 2 3 4 5 6 
#
# 1 196.2403 57.1533 41.6494 0.0097 9.5830 0.0191
# 2 57.1533 146.0235 43.0631 0.0514 20.9801 0.0599
# 3 41.6494 43.0631 41.9080 0.0205 -1.6104 0.0380
# 4 0.0097 0.0514 0.0205 21.7099 -0.0037 21.5878
# 5 9.5830 20.9801 -1.6104 -0.0037 43.1380 -0.0146
# 6 0.0191 0.0599 0.0380 21.5878 -0.0146 57.8696
#
#
#
# Elastic Compliance Matrix: (Units=1/GPa)
#
#
# Indices 1 2 3 4 5 6 
#
# 1 0.006616 -0.000624 -0.005987 0.000003 -0.001390 0.000001
# 2 -0.000624 0.011185 -0.011092 -0.000018 -0.005715 0.000001
# 3 -0.005987 -0.011092 0.041528 0.000005 0.008275 -0.000013
# 4 0.000003 -0.000018 0.000005 0.073224 0.000005 -0.027316
# 5 -0.001390 -0.005715 0.008275 0.000005 0.026579 0.000006
# 6 0.000001 0.000001 -0.000013 -0.027316 0.000006 0.027470
#
#
# Mechanical properties :
#
#
# Convention : Reuss Voigt Hill
#
# Bulk Modulus (GPa) = 41.80345 74.21148 58.00746
# Shear Modulus (GPa) = 21.74067 40.69725 31.21896
#
# Velocity S-wave (km/s) = 3.17285 4.34105 3.80208
# Velocity P-wave (km/s) = 5.72534 7.71296 6.79225
#
# Compressibility (1/GPa) = 0.02392147
#
# Stress axis : x y z
#
# Youngs Moduli (GPa) = 151.14453 89.40643 24.07991
#
# Poissons Ratio (x) = 0.05581 0.14418
# Poissons Ratio (y) = 0.09434 0.26710
# Poissons Ratio (z) = 0.90496 0.99174
#
# Static dielectric constant tensor:
#      x y z
#    x 1.779260 0.000000 -0.035830 
#    y 0.000000 1.772880 0.000000 
#    z -0.035830 0.000000 1.800030 
# 
# From -- ./inp_files/52866.got.cif
#   From: 2010.05.17/outbox.cif.g08.bks.cpg/sg5_27_cif.got.tgz:52866.got - 2010.06.03 18:56:24.
