data_PCOD9128548
_publ_section_title
;
Structure prediction by ZEFSAII (Michael W. Deem and Ramdas Pophale) SiO2 
 PCOD9128548
Probable space group: C 2
;
_chemical_formula_sum "Si O2"
_cell_formula_units_Z 28
_cell_length_a 19.981059
_cell_length_b 7.961867
_cell_length_c 14.731130
_cell_angle_alpha 90.000000
_cell_angle_beta 150.265232
_cell_angle_gamma 90.000000
_cell_volume 1162.354544
_symmetry_space_group_name_H-M "C 2"
_symmetry_group_IT_number 5
_symmetry_cell_setting 'monoclinic'
loop_
_space_group_symop_operation_xyz
x,y,z
-x,y,-z
1/2+x,1/2+y,z
1/2-x,1/2+y,-z
loop_
_atom_site_type_symbol
_atom_site_label
_atom_site_fract_x
_atom_site_fract_y
_atom_site_fract_z
Si Si1 0.943414 0.907190 0.727849
Si Si2 0.164846 0.276788 0.438079
Si Si3 0.650458 0.302181 0.839179
Si Si4 0.877128 0.388481 0.418888
Si Si5 0.180300 0.107582 0.103249
Si Si6 0.741004 0.646730 0.865568
Si Si7 0.483894 0.949030 0.081472
O O1 0.825369 0.801957 0.636094
O O2 0.003435 0.807679 0.711753
O O3 0.875762 0.084049 0.620760
O O4 0.071024 0.973224 0.937604
O O5 0.090731 0.342545 0.440998
O O6 0.110287 0.383578 0.288078
O O7 0.705732 0.160819 0.836302
O O8 0.662572 0.481716 0.805235
O O9 0.753602 0.277878 0.045282
O O10 0.760288 0.527531 0.280230
O O11 0.817881 0.228476 0.294035
O O12 0.000000 0.443272 0.500000
O O13 0.104004 0.278806 0.035000
O O14 0.892136 0.578929 0.028201
O O15 0.500000 0.019804 0.000000
#
# Coordination Sequence:
#
# PCOD9128548 Si02
#       7
#     4   4   4   4   4   4   4
#     4  11  24  45  72 103 146 189 243 297 365 429
#     4  11  29  44  72 107 149 191 242 307 363 431
#     4  11  21  44  75 100 138 196 245 293 354 433
#     4  12  27  44  70 110 147 187 247 303 360 434
#     4  10  24  45  73 101 137 195 242 290 366 433
#     4  11  23  42  75 100 140 189 245 294 358 433
#     4  10  26  49  72  99 144 189 240 292 368 443
#
# _framework density 24.089036
#
# number of rings (size 3 to 8) (size 9 to 14) (size 15 to 20)
#    0.000    1.143    2.857    0.857   14.000    0.000 
#    0.000    1.429    0.000    0.000    0.000    0.000 
#    0.000    0.000    0.000    0.000    0.000    0.000 
#
# Total GULP energy -78311.022559 kJ/mol
# GULP energy per Si atom -5593.644469 kJ/mol
# Density = 2.403421 g / cm^3
# Si number density = 24.089036 Si / 1000 Ang^3
#
#
#
# Elastic Constant Matrix: (Units=GPa)
#
#
# Indices 1 2 3 4 5 6 
#
# 1 80.0877 -6.2265 18.7819 0.0000 4.8333 0.0000
# 2 -6.2265 68.9827 30.9433 0.0000 -3.0683 0.0000
# 3 18.7819 30.9433 73.0902 0.0000 9.6885 0.0000
# 4 0.0000 0.0000 0.0000 22.2349 0.0000 7.0159
# 5 4.8333 -3.0683 9.6885 0.0000 41.1776 0.0000
# 6 0.0000 0.0000 0.0000 7.0159 0.0000 28.8645
#
#
#
# Elastic Compliance Matrix: (Units=1/GPa)
#
#
# Indices 1 2 3 4 5 6 
#
# 1 0.013955 0.003516 -0.005050 0.000000 -0.000188 0.000000
# 2 0.003516 0.019203 -0.009464 0.000000 0.003245 0.000000
# 3 -0.005050 -0.009464 0.019612 0.000000 -0.004727 0.000000
# 4 0.000000 0.000000 0.000000 0.048710 0.000000 -0.011840
# 5 -0.000188 0.003245 -0.004727 0.000000 0.025661 0.000000
# 6 0.000000 0.000000 0.000000 -0.011840 0.000000 0.037522
#
#
# Mechanical properties :
#
#
# Convention : Reuss Voigt Hill
#
# Bulk Modulus (GPa) = 32.49181 34.35090 33.42135
# Shear Modulus (GPa) = 25.39135 30.36619 27.87877
#
# Velocity S-wave (km/s) = 3.25015 3.55432 3.40563
# Velocity P-wave (km/s) = 5.25378 5.57989 5.41929
#
# Compressibility (1/GPa) = 0.03077699
#
# Stress axis : x y z
#
# Youngs Moduli (GPa) = 71.65724 52.07480 50.98807
#
# Poissons Ratio (x) = -0.18312 0.25749
# Poissons Ratio (y) = -0.25198 0.48253
# Poissons Ratio (z) = 0.36186 0.49281
#
# Static dielectric constant tensor:
#      x y z
#    x 1.954620 0.000000 0.023580 
#    y 0.000000 1.927380 0.000000 
#    z 0.023580 0.000000 1.897410 
# 
# From -- ./inp_files/56931.got.cif
#   From: 2010.05.17/outbox.cif.g08.bks.cpg/sg5_29_cif.got.tgz:56931.got - 2010.06.03 18:56:24.
