data_PCOD9128274
_publ_section_title
;
Structure prediction by ZEFSAII (Michael W. Deem and Ramdas Pophale) SiO2 
 PCOD9128274
Probable space group: C 2
;
_chemical_formula_sum "Si O2"
_cell_formula_units_Z 24
_cell_length_a 15.799136
_cell_length_b 8.908738
_cell_length_c 20.078889
_cell_angle_alpha 90.000000
_cell_angle_beta 158.613255
_cell_angle_gamma 90.000000
_cell_volume 1030.573511
_symmetry_space_group_name_H-M "C 2"
_symmetry_group_IT_number 5
_symmetry_cell_setting 'monoclinic'
loop_
_space_group_symop_operation_xyz
x,y,z
-x,y,-z
1/2+x,1/2+y,z
1/2-x,1/2+y,-z
loop_
_atom_site_type_symbol
_atom_site_label
_atom_site_fract_x
_atom_site_fract_y
_atom_site_fract_z
Si Si1 0.846831 0.422810 0.777270
Si Si2 0.000000 0.230239 0.000000
Si Si3 0.940426 0.617639 0.253432
Si Si4 0.162204 0.335778 0.481131
Si Si5 0.727963 0.448520 0.977528
Si Si6 0.000000 0.190322 0.500000
Si Si7 0.013589 0.213790 0.233295
O O1 0.821102 0.325603 0.824199
O O2 0.703858 0.573287 0.668152
O O3 0.123456 0.454609 0.980873
O O4 0.817405 0.310809 0.691493
O O5 0.822483 0.134968 0.913907
O O6 0.903649 0.527259 0.158696
O O7 0.090126 0.506952 0.410807
O O8 0.075331 0.772597 0.337215
O O9 0.072102 0.284887 0.487548
O O10 0.043475 0.242545 0.332831
O O11 0.756700 0.280166 0.025153
O O12 0.497427 0.542639 0.799861
#
# Coordination Sequence:
#
# PCOD9128274 Si02
#       7
#     4   2   4   4   4   2   4
#     4  10  24  40  69  96 136 185 227 290 337 423
#     4  12  26  44  72 110 140 180 240 294 354 412
#     4  11  24  48  70 103 144 188 230 292 352 423
#     4  11  25  46  73 101 142 187 234 292 350 422
#     4   9  18  42  61  93 130 175 225 272 340 405
#     4  12  24  46  64 108 140 178 248 288 348 414
#     4   9  20  39  65  96 126 182 218 280 340 409
#
# _framework density 23.288004999999998
#
# number of rings (size 3 to 8) (size 9 to 14) (size 15 to 20)
#    1.000    0.667    3.333    0.000    7.000    1.333 
#    9.000    0.000    0.000    0.000    0.000    0.000 
#    0.000    0.000    0.000    0.000    0.000    0.000 
#
# Total GULP energy -66812.021467 kJ/mol
# GULP energy per Si atom -5567.668456 kJ/mol
# Density = 2.323500 g / cm^3
# Si number density = 23.288005 Si / 1000 Ang^3
#
#
#
# Elastic Constant Matrix: (Units=GPa)
#
#
# Indices 1 2 3 4 5 6 
#
# 1 89.2162 20.0215 17.1564 0.0157 0.5320 -0.0044
# 2 20.0215 102.5733 20.7491 0.0098 7.9513 -0.0111
# 3 17.1564 20.7491 68.1107 -0.0005 -1.1714 -0.0116
# 4 0.0157 0.0098 -0.0005 44.6309 -0.0034 -11.6869
# 5 0.5320 7.9513 -1.1714 -0.0034 35.4661 -0.0009
# 6 -0.0044 -0.0111 -0.0116 -11.6869 -0.0009 19.8525
#
#
#
# Elastic Compliance Matrix: (Units=1/GPa)
#
#
# Indices 1 2 3 4 5 6 
#
# 1 0.012104 -0.001874 -0.002475 -0.000005 0.000157 -0.000003
# 2 -0.001874 0.010894 -0.002890 -0.000001 -0.002510 0.000003
# 3 -0.002475 -0.002890 0.016207 0.000004 0.001220 0.000010
# 4 -0.000005 -0.000001 0.000004 0.026489 0.000003 0.015594
# 5 0.000157 -0.002510 0.001220 0.000003 0.028797 0.000003
# 6 -0.000003 0.000003 0.000010 0.015594 0.000003 0.059551
#
#
# Mechanical properties :
#
#
# Convention : Reuss Voigt Hill
#
# Bulk Modulus (GPa) = 40.44213 41.75046 41.09630
# Shear Modulus (GPa) = 28.28639 33.45479 30.87059
#
# Velocity S-wave (km/s) = 3.48894 3.79432 3.64483
# Velocity P-wave (km/s) = 5.79949 6.09612 5.94965
#
# Compressibility (1/GPa) = 0.02472669
#
# Stress axis : x y z
#
# Youngs Moduli (GPa) = 82.61473 91.79312 61.70236
#
# Poissons Ratio (x) = 0.17203 0.15273
# Poissons Ratio (y) = 0.15483 0.17831
# Poissons Ratio (z) = 0.20450 0.26527
#
# Static dielectric constant tensor:
#      x y z
#    x 1.833420 0.000000 -0.034190 
#    y 0.000000 1.934020 0.000000 
#    z -0.034190 0.000000 1.975860 
# 
# From -- ./inp_files/69122.got.cif
#   From: 2010.05.17/outbox.cif.g08.bks.cpg/sg5_35_cif.got.tgz:69122.got - 2010.06.03 18:56:24.
