data_PCOD9128337
_publ_section_title
;
Structure prediction by ZEFSAII (Michael W. Deem and Ramdas Pophale) SiO2 
 PCOD9128337
Probable space group: C 2
;
_chemical_formula_sum "Si O2"
_cell_formula_units_Z 16
_cell_length_a 6.280579
_cell_length_b 8.702686
_cell_length_c 11.891910
_cell_angle_alpha 90.000000
_cell_angle_beta 106.388374
_cell_angle_gamma 90.000000
_cell_volume 623.578751
_symmetry_space_group_name_H-M "C 2"
_symmetry_group_IT_number 5
_symmetry_cell_setting 'monoclinic'
loop_
_space_group_symop_operation_xyz
x,y,z
-x,y,-z
1/2+x,1/2+y,z
1/2-x,1/2+y,-z
loop_
_atom_site_type_symbol
_atom_site_label
_atom_site_fract_x
_atom_site_fract_y
_atom_site_fract_z
Si Si1 0.935183 0.242790 0.268288
Si Si2 0.254284 0.943183 0.047961
Si Si3 0.317773 0.233560 0.168371
Si Si4 0.839995 0.936844 0.371084
O O1 0.777037 0.322712 0.153637
O O2 0.090474 0.371041 0.351891
O O3 0.834652 0.113563 0.332000
O O4 0.122180 0.162968 0.217120
O O5 0.398655 0.090475 0.106622
O O6 0.284120 0.855695 0.934515
O O7 0.000000 0.996582 0.000000
O O8 0.435930 0.335326 0.281400
O O9 0.000000 0.918844 0.500000
#
# Coordination Sequence:
#
# PCOD9128337 Si02
#       4
#     4   4   4   4
#     4  10  25  47  69 105 142 196 243 305 370 438
#     4  12  23  39  71 107 153 188 249 307 378 442
#     4  10  24  42  67 102 150 187 249 299 379 431
#     4  10  24  49  72 101 147 191 254 301 369 437
#
# _framework density 25.658345000000001
#
# number of rings (size 3 to 8) (size 9 to 14) (size 15 to 20)
#    1.500    0.000    0.000    5.250    3.500    2.000 
#    4.500    0.000    0.000    0.000    0.000    0.000 
#    0.000    0.000    0.000    0.000    0.000    0.000 
#
# Total GULP energy -44672.278232 kJ/mol
# GULP energy per Si atom -5584.034779 kJ/mol
# Density = 2.559995 g / cm^3
# Si number density = 25.658345 Si / 1000 Ang^3
#
#
#
# Elastic Constant Matrix: (Units=GPa)
#
#
# Indices 1 2 3 4 5 6 
#
# 1 38.5528 35.2164 20.5453 0.0000 11.2337 0.0000
# 2 35.2164 192.5059 103.1309 0.0000 9.0306 0.0000
# 3 20.5453 103.1309 244.7022 0.0000 38.7512 0.0000
# 4 0.0000 0.0000 0.0000 37.5444 0.0000 9.0096
# 5 11.2337 9.0306 38.7512 0.0000 31.7293 0.0000
# 6 0.0000 0.0000 0.0000 9.0096 0.0000 33.9635
#
#
#
# Elastic Compliance Matrix: (Units=1/GPa)
#
#
# Indices 1 2 3 4 5 6 
#
# 1 0.034865 -0.006841 0.001986 0.000000 -0.012823 0.000000
# 2 -0.006841 0.008147 -0.003565 0.000000 0.004457 0.000000
# 3 0.001986 -0.003565 0.006661 0.000000 -0.007824 0.000000
# 4 0.000000 0.000000 0.000000 0.028446 0.000000 -0.007546
# 5 -0.012823 0.004457 -0.007824 0.000000 0.044344 0.000000
# 6 0.000000 0.000000 0.000000 -0.007546 0.000000 0.031445
#
#
# Mechanical properties :
#
#
# Convention : Reuss Voigt Hill
#
# Bulk Modulus (GPa) = 30.45576 88.17181 59.31378
# Shear Modulus (GPa) = 27.51917 41.77199 34.64558
#
# Velocity S-wave (km/s) = 3.27849 4.03924 3.67858
# Velocity P-wave (km/s) = 5.12122 7.49615 6.41947
#
# Compressibility (1/GPa) = 0.03283451
#
# Stress axis : x y z
#
# Youngs Moduli (GPa) = 28.68208 122.74658 150.11946
#
# Poissons Ratio (x) = 0.83968 -0.29820
# Poissons Ratio (y) = 0.19621 0.53518
# Poissons Ratio (z) = -0.05698 0.43760
#
# Static dielectric constant tensor:
#      x y z
#    x 2.297110 0.000000 -0.021460 
#    y 0.000000 1.988820 0.000000 
#    z -0.021460 0.000000 1.945140 
# 
# From -- ./inp_files/13558.got.cif
#   From: 2010.05.17/outbox.cif.g08.bks.cpg/sg5_7_cif.got.tgz:13558.got - 2010.06.03 18:56:24.
