data_PCOD9128437
_publ_section_title
;
Structure prediction by ZEFSAII (Michael W. Deem and Ramdas Pophale) SiO2 
 PCOD9128437
Probable space group: C 2
;
_chemical_formula_sum "Si O2"
_cell_formula_units_Z 20
_cell_length_a 7.631913
_cell_length_b 12.644306
_cell_length_c 16.447190
_cell_angle_alpha 90.000000
_cell_angle_beta 39.988375
_cell_angle_gamma 90.000000
_cell_volume 1019.958685
_symmetry_space_group_name_H-M "C 2"
_symmetry_group_IT_number 5
_symmetry_cell_setting 'monoclinic'
loop_
_space_group_symop_operation_xyz
x,y,z
-x,y,-z
1/2+x,1/2+y,z
1/2-x,1/2+y,-z
loop_
_atom_site_type_symbol
_atom_site_label
_atom_site_fract_x
_atom_site_fract_y
_atom_site_fract_z
Si Si1 0.000000 0.546460 0.000000
Si Si2 0.485789 0.015000 0.302288
Si Si3 0.000000 0.171975 0.500000
Si Si4 0.495407 0.658075 0.099007
Si Si5 0.180393 0.394615 0.793875
Si Si6 0.804403 0.845741 0.491962
O O1 0.219907 0.618877 0.966737
O O2 0.146789 0.470673 0.882510
O O3 0.492427 0.944310 0.218834
O O4 0.398063 0.937940 0.406618
O O5 0.236813 0.097510 0.380816
O O6 0.759404 0.080543 0.215876
O O7 0.136050 0.246420 0.519521
O O8 0.424680 0.777635 0.148581
O O9 0.500000 0.650725 0.000000
O O10 0.489492 0.384454 0.651323
O O11 0.000000 0.821126 0.500000
#
# Coordination Sequence:
#
# PCOD9128437 Si02
#       6
#     2   4   2   4   4   4
#     4  12  28  42  70  98 132 188 230 272 336 398
#     4  11  24  46  69 102 140 170 228 282 334 405
#     4  12  22  44  72  98 140 178 208 286 348 390
#     4  12  26  46  68  99 139 183 225 279 330 400
#     4  11  23  46  68 100 136 175 233 273 333 404
#     4  10  24  44  67 105 136 173 224 279 334 412
#
# _framework density 19.608639
#
# number of rings (size 3 to 8) (size 9 to 14) (size 15 to 20)
#    0.000    0.800    8.000    0.000    2.800    4.800 
#    1.800    0.000    0.000    0.000    0.000    0.000 
#    0.000    0.000    0.000    0.000    0.000    0.000 
#
# Total GULP energy -55921.690493 kJ/mol
# GULP energy per Si atom -5592.169049 kJ/mol
# Density = 1.956401 g / cm^3
# Si number density = 19.608639 Si / 1000 Ang^3
#
#
#
# Elastic Constant Matrix: (Units=GPa)
#
#
# Indices 1 2 3 4 5 6 
#
# 1 104.5839 66.4047 62.5740 0.0002 -9.2442 -0.0005
# 2 66.4047 133.2375 53.2540 0.0005 4.2898 -0.0006
# 3 62.5740 53.2540 106.6892 0.0009 13.4578 0.0003
# 4 0.0002 0.0005 0.0009 25.1700 -0.0002 4.2798
# 5 -9.2442 4.2898 13.4578 -0.0002 29.7482 -0.0001
# 6 -0.0005 -0.0006 0.0003 4.2798 -0.0001 20.3177
#
#
#
# Elastic Compliance Matrix: (Units=1/GPa)
#
#
# Indices 1 2 3 4 5 6 
#
# 1 0.021389 -0.006769 -0.010740 0.000000 0.012482 0.000000
# 2 -0.006769 0.011537 -0.001393 0.000000 -0.003137 0.000000
# 3 -0.010740 -0.001393 0.017778 -0.000001 -0.011179 0.000000
# 4 0.000000 0.000000 -0.000001 0.041206 0.000001 -0.008680
# 5 0.012482 -0.003137 -0.011179 0.000001 0.043004 0.000000
# 6 0.000000 0.000000 0.000000 -0.008680 0.000000 0.051046
#
#
# Mechanical properties :
#
#
# Convention : Reuss Voigt Hill
#
# Bulk Modulus (GPa) = 77.52606 78.77512 78.15059
# Shear Modulus (GPa) = 21.92366 25.86571 23.89469
#
# Velocity S-wave (km/s) = 3.34737 3.63588 3.49460
# Velocity P-wave (km/s) = 7.38663 7.60835 7.49831
#
# Compressibility (1/GPa) = 0.01289889
#
# Stress axis : x y z
#
# Youngs Moduli (GPa) = 46.75260 86.67932 56.25024
#
# Poissons Ratio (x) = 0.58675 0.60416
# Poissons Ratio (y) = 0.31648 0.07834
# Poissons Ratio (z) = 0.50215 0.12072
#
# Static dielectric constant tensor:
#      x y z
#    x 1.672700 0.000000 0.007360 
#    y 0.000000 1.659590 0.000000 
#    z 0.007360 0.000000 1.694150 
# 
# From -- ./inp_files/14268.got.cif
#   From: 2010.05.17/outbox.cif.g08.bks.cpg/sg5_8_cif.got.tgz:14268.got - 2010.06.03 18:56:24.
