data_PCOD9128595
_publ_section_title
;
Structure prediction by ZEFSAII (Michael W. Deem and Ramdas Pophale) SiO2 
 PCOD9128595
Probable space group: C 2
;
_chemical_formula_sum "Si O2"
_cell_formula_units_Z 18
_cell_length_a 6.466577
_cell_length_b 7.084854
_cell_length_c 12.873553
_cell_angle_alpha 90.000000
_cell_angle_beta 94.627804
_cell_angle_gamma 90.000000
_cell_volume 587.875827
_symmetry_space_group_name_H-M "C 2"
_symmetry_group_IT_number 5
_symmetry_cell_setting 'monoclinic'
loop_
_space_group_symop_operation_xyz
x,y,z
-x,y,-z
1/2+x,1/2+y,z
1/2-x,1/2+y,-z
loop_
_atom_site_type_symbol
_atom_site_label
_atom_site_fract_x
_atom_site_fract_y
_atom_site_fract_z
Si Si1 0.500000 0.567981 0.000000
Si Si2 0.790309 0.627348 0.206040
Si Si3 0.000000 0.070554 0.500000
Si Si4 0.000000 0.564327 0.000000
Si Si5 0.764160 0.839470 0.642177
Si Si6 0.278923 0.556594 0.168515
O O1 0.258551 0.569445 0.040764
O O2 0.500000 0.325528 0.000000
O O3 0.500000 0.810950 0.000000
O O4 0.845280 0.528418 0.316789
O O5 0.557726 0.571014 0.153434
O O6 0.778575 0.849167 0.214820
O O7 0.970787 0.566629 0.134096
O O8 0.173860 0.213972 0.546828
O O9 0.042588 0.939069 0.403653
O O10 0.749475 0.715618 0.745936
#
# Coordination Sequence:
#
# PCOD9128595 Si02
#       6
#     2   4   2   2   4   4
#     4  10  24  46  70 126 172 204 260 306 418 502
#     4  11  26  46  77 119 166 216 257 333 401 520
#     4  12  34  64  84 122 158 222 290 390 400 488
#     4  10  26  38  78 122 172 208 258 314 410 510
#     4  12  32  56  86 116 160 216 296 346 438 468
#     4  11  26  46  77 119 166 216 257 333 401 520
#
# _framework density 30.618711999999999
#
# number of rings (size 3 to 8) (size 9 to 14) (size 15 to 20)
#    0.000    0.889    0.000    2.667   28.000    0.889 
#    0.000    0.000    0.000    0.000    0.000    0.000 
#    0.000    0.000    0.000    0.000    0.000    0.000 
#
# Total GULP energy -50284.340962 kJ/mol
# GULP energy per Si atom -5587.148996 kJ/mol
# Density = 3.054902 g / cm^3
# Si number density = 30.618712 Si / 1000 Ang^3
#
#
#
# Elastic Constant Matrix: (Units=GPa)
#
#
# Indices 1 2 3 4 5 6 
#
# 1 179.0100 67.0422 44.9571 0.0000 1.3216 0.0000
# 2 67.0422 306.4566 73.8308 0.0000 -2.8202 0.0000
# 3 44.9571 73.8308 171.5024 0.0000 -19.0092 0.0000
# 4 0.0000 0.0000 0.0000 71.8137 0.0000 -1.2719
# 5 1.3216 -2.8202 -19.0092 0.0000 67.5262 0.0000
# 6 0.0000 0.0000 0.0000 -1.2719 0.0000 83.8474
#
#
#
# Elastic Compliance Matrix: (Units=1/GPa)
#
#
# Indices 1 2 3 4 5 6 
#
# 1 0.006309 -0.001085 -0.001244 0.000000 -0.000519 0.000000
# 2 -0.001085 0.003833 -0.001389 0.000000 -0.000210 0.000000
# 3 -0.001244 -0.001389 0.006969 0.000000 0.001928 0.000000
# 4 0.000000 0.000000 0.000000 0.013929 0.000000 0.000211
# 5 -0.000519 -0.000210 0.001928 0.000000 0.015353 0.000000
# 6 0.000000 0.000000 0.000000 0.000211 0.000000 0.011930
#
#
# Mechanical properties :
#
#
# Convention : Reuss Voigt Hill
#
# Bulk Modulus (GPa) = 103.36827 114.29214 108.83021
# Shear Modulus (GPa) = 72.48086 76.04672 74.26379
#
# Velocity S-wave (km/s) = 4.87067 4.98905 4.93022
# Velocity P-wave (km/s) = 8.09101 8.40215 8.24804
#
# Compressibility (1/GPa) = 0.00967415
#
# Stress axis : x y z
#
# Youngs Moduli (GPa) = 158.50344 260.87835 143.50093
#
# Poissons Ratio (x) = 0.28311 0.17854
# Poissons Ratio (y) = 0.17201 0.19931
# Poissons Ratio (z) = 0.19721 0.36234
#
# Static dielectric constant tensor:
#      x y z
#    x -1.744390 0.000000 2.833020 
#    y 0.000000 2.259310 0.000000 
#    z 2.833020 0.000000 1.077430 
# 
# From -- ./inp_files/49748.got.cif
#   From: 2010.05.17/outbox.cif.g08.bks.cpg/sg5_25_cif.got.tgz:49748.got - 2010.06.03 18:56:24.
