data_PCOD9128636
_publ_section_title
;
Structure prediction by ZEFSAII (Michael W. Deem and Ramdas Pophale) SiO2 
 PCOD9128636
Probable space group: C 2
;
_chemical_formula_sum "Si O2"
_cell_formula_units_Z 30
_cell_length_a 10.257778
_cell_length_b 15.985133
_cell_length_c 12.629039
_cell_angle_alpha 90.000000
_cell_angle_beta 145.417745
_cell_angle_gamma 90.000000
_cell_volume 1175.367452
_symmetry_space_group_name_H-M "C 2"
_symmetry_group_IT_number 5
_symmetry_cell_setting 'monoclinic'
loop_
_space_group_symop_operation_xyz
x,y,z
-x,y,-z
1/2+x,1/2+y,z
1/2-x,1/2+y,-z
loop_
_atom_site_type_symbol
_atom_site_label
_atom_site_fract_x
_atom_site_fract_y
_atom_site_fract_z
Si Si1 0.475297 0.957120 0.662888
Si Si2 0.987142 0.915634 0.373749
Si Si3 0.104004 0.206317 0.861104
Si Si4 0.235830 0.748647 0.828867
Si Si5 0.000000 0.191604 0.500000
Si Si6 0.678033 0.024718 0.021398
Si Si7 0.705879 0.134877 0.497015
Si Si8 0.758438 0.816778 0.782072
O O1 0.662036 0.909534 0.717499
O O2 0.252191 0.898108 0.525674
O O3 0.380297 0.041160 0.547938
O O4 0.577999 0.982791 0.847506
O O5 0.824057 0.833813 0.271257
O O6 0.884412 0.971961 0.211187
O O7 0.000000 0.954429 0.500000
O O8 0.102237 0.261043 0.755277
O O9 0.841461 0.173713 0.688163
O O10 0.248336 0.120266 0.952747
O O11 0.234646 0.268547 0.027330
O O12 0.024415 0.687355 0.674734
O O13 0.500000 0.713465 0.000000
O O14 0.110420 0.134624 0.479434
O O15 0.215154 0.257471 0.653989
O O16 0.500000 0.026936 0.000000
O O17 0.000000 0.815816 0.000000
#
# Coordination Sequence:
#
# PCOD9128636 Si02
#       8
#     4   4   4   4   2   4   4   4
#     4  12  26  45  70 112 148 183 245 309 379 443
#     4  12  26  43  69 107 147 186 234 302 380 440
#     4  11  24  46  73 105 139 194 255 303 363 444
#     4  12  28  46  71 102 151 202 243 296 371 464
#     4  10  24  46  76 104 136 190 248 310 366 430
#     4  12  24  42  73 107 144 184 239 317 375 436
#     4  11  25  46  76 107 144 189 250 310 369 442
#     4  11  25  44  72 101 145 190 239 301 365 450
#
# _framework density 25.523933
#
# number of rings (size 3 to 8) (size 9 to 14) (size 15 to 20)
#    0.000    0.533    4.000    4.000    8.400    1.600 
#    0.000    0.000    0.000    0.000    0.000    0.000 
#    0.000    0.000    0.000    0.000    0.000    0.000 
#
# Total GULP energy -83746.990829 kJ/mol
# GULP energy per Si atom -5583.132722 kJ/mol
# Density = 2.546584 g / cm^3
# Si number density = 25.523933 Si / 1000 Ang^3
#
#
#
# Elastic Constant Matrix: (Units=GPa)
#
#
# Indices 1 2 3 4 5 6 
#
# 1 28.1881 -6.8694 14.7032 0.0002 2.1427 -0.0001
# 2 -6.8694 84.1939 44.3240 0.0004 6.1282 0.0001
# 3 14.7032 44.3240 177.0284 0.0013 2.1529 0.0008
# 4 0.0002 0.0004 0.0013 42.4439 0.0005 5.4013
# 5 2.1427 6.1282 2.1529 0.0005 25.3713 0.0002
# 6 -0.0001 0.0001 0.0008 5.4013 0.0002 -6.4155
#
#
#
# Elastic Compliance Matrix: (Units=1/GPa)
#
#
# Indices 1 2 3 4 5 6 
#
# 1 0.039784 0.006081 -0.004773 0.000000 -0.004424 -0.000001
# 2 0.006081 0.014845 -0.004176 0.000000 -0.003745 -0.000001
# 3 -0.004773 -0.004176 0.007081 0.000000 0.000811 0.000001
# 4 0.000000 0.000000 0.000000 0.021281 -0.000001 0.017917
# 5 -0.004424 -0.003745 0.000811 -0.000001 0.040624 0.000001
# 6 -0.000001 -0.000001 0.000001 0.017917 0.000001 -0.140789
#
#
# Mechanical properties :
#
#
# Convention : Reuss Voigt Hill
#
# Bulk Modulus (GPa) = 17.86600 43.74734 30.80667
# Shear Modulus (GPa) = 692.61360 28.09679 360.35519
#
# Velocity S-wave (km/s) = 16.49083 3.32143 11.89495
# Velocity P-wave (km/s) = 19.22529 5.64678 14.16859
#
# Compressibility (1/GPa) = 0.05597223
#
# Stress axis : x y z
#
# Youngs Moduli (GPa) = 25.13596 67.36437 141.22281
#
# Poissons Ratio (x) = -0.40962 0.67404
# Poissons Ratio (y) = -0.15284 0.58978
# Poissons Ratio (z) = 0.11997 0.28133
#
# Static dielectric constant tensor:
#      x y z
#    x 3.259240 0.000000 -0.498220 
#    y 0.000000 2.180260 0.000000 
#    z -0.498220 0.000000 2.340530 
# 
# From -- ./inp_files/53428.got.cif
#   From: 2010.05.17/outbox.cif.g08.bks.cpg/sg5_27_cif.got.tgz:53428.got - 2010.06.03 18:56:24.
