data_PCOD9128084
_publ_section_title
;
Structure prediction by ZEFSAII (Michael W. Deem and Ramdas Pophale) SiO2 
 PCOD9128084
Probable space group: C 2
;
_chemical_formula_sum "Si O2"
_cell_formula_units_Z 28
_cell_length_a 13.012997
_cell_length_b 5.177654
_cell_length_c 17.844156
_cell_angle_alpha 90.000000
_cell_angle_beta 116.844664
_cell_angle_gamma 90.000000
_cell_volume 1072.717018
_symmetry_space_group_name_H-M "C 2"
_symmetry_group_IT_number 5
_symmetry_cell_setting 'monoclinic'
loop_
_space_group_symop_operation_xyz
x,y,z
-x,y,-z
1/2+x,1/2+y,z
1/2-x,1/2+y,-z
loop_
_atom_site_type_symbol
_atom_site_label
_atom_site_fract_x
_atom_site_fract_y
_atom_site_fract_z
Si Si1 0.196440 0.751250 0.466397
Si Si2 0.325233 0.288086 0.309908
Si Si3 0.388034 0.069053 0.705267
Si Si4 0.077105 0.205984 0.774546
Si Si5 0.500000 0.164334 0.500000
Si Si6 0.000000 0.186806 0.000000
Si Si7 0.379949 0.459899 0.818553
Si Si8 0.689744 0.800651 0.958664
O O1 0.299193 0.540555 0.500079
O O2 0.147793 0.782221 0.366630
O O3 0.111377 0.572689 0.490048
O O4 0.221513 0.386888 0.328581
O O5 0.367717 0.495812 0.261798
O O6 0.429773 0.265376 0.403181
O O7 0.249508 0.060594 0.244010
O O8 0.392839 0.169118 0.792260
O O9 0.504787 0.939002 0.714742
O O10 0.166845 0.318124 0.863664
O O11 0.977239 0.088812 0.796168
O O12 0.922396 0.023034 0.915885
O O13 0.080251 0.360973 0.974036
O O14 0.715595 0.501744 0.983872
#
# Coordination Sequence:
#
# PCOD9128084 Si02
#       8
#     4   4   4   4   2   2   4   4
#     4  12  28  50  74 109 151 193 254 314 371 459
#     4  11  24  45  71 110 144 200 256 313 378 465
#     4  11  25  43  73 103 154 194 249 320 382 452
#     4  10  25  43  71 102 148 196 251 311 389 448
#     4  12  26  46  78 104 148 202 252 306 392 442
#     4  10  24  46  76 102 152 198 250 312 382 448
#     4  10  23  46  68 107 147 197 250 319 379 453
#     4  11  26  46  72 111 148 194 251 311 374 460
#
# _framework density 26.101945000000001
#
# number of rings (size 3 to 8) (size 9 to 14) (size 15 to 20)
#    0.000    1.143    1.429    2.571   10.000    4.571 
#    0.000    0.000    0.000    0.000    0.000    0.000 
#    0.000    0.000    0.000    0.000    0.000    0.000 
#
# Total GULP energy -78086.176959 kJ/mol
# GULP energy per Si atom -5577.584069 kJ/mol
# Density = 2.604254 g / cm^3
# Si number density = 26.101945 Si / 1000 Ang^3
#
#
#
# Elastic Constant Matrix: (Units=GPa)
#
#
# Indices 1 2 3 4 5 6 
#
# 1 91.7413 15.6360 40.2741 0.0000 -0.7973 0.0000
# 2 15.6360 78.9932 29.3912 0.0000 2.7746 0.0000
# 3 40.2741 29.3912 165.5785 0.0000 -8.9148 0.0000
# 4 0.0000 0.0000 0.0000 27.2833 0.0000 -6.1147
# 5 -0.7973 2.7746 -8.9148 0.0000 44.8370 0.0000
# 6 0.0000 0.0000 0.0000 -6.1147 0.0000 39.0420
#
#
#
# Elastic Compliance Matrix: (Units=1/GPa)
#
#
# Indices 1 2 3 4 5 6 
#
# 1 0.012353 -0.001407 -0.002768 0.000000 -0.000244 0.000000
# 2 -0.001407 0.013794 -0.002177 0.000000 -0.001311 0.000000
# 3 -0.002768 -0.002177 0.007181 0.000000 0.001513 0.000000
# 4 0.000000 0.000000 0.000000 0.037986 0.000000 0.005949
# 5 -0.000244 -0.001311 0.001513 0.000000 0.022681 0.000000
# 6 0.000000 0.000000 0.000000 0.005949 0.000000 0.026545
#
#
# Mechanical properties :
#
#
# Convention : Reuss Voigt Hill
#
# Bulk Modulus (GPa) = 48.48716 56.32397 52.40556
# Shear Modulus (GPa) = 35.68441 38.96658 37.32550
#
# Velocity S-wave (km/s) = 3.70147 3.86795 3.78562
# Velocity P-wave (km/s) = 6.07324 6.44774 6.26329
#
# Compressibility (1/GPa) = 0.02062402
#
# Stress axis : x y z
#
# Youngs Moduli (GPa) = 80.95182 72.49634 139.26389
#
# Poissons Ratio (x) = 0.10198 0.38549
# Poissons Ratio (y) = 0.11387 0.30317
# Poissons Ratio (z) = 0.22408 0.15782
#
# Static dielectric constant tensor:
#      x y z
#    x 2.122370 0.000000 0.047400 
#    y 0.000000 2.124830 0.000000 
#    z 0.047400 0.000000 2.023760 
# 
# From -- ./inp_files/61162.got.cif
#   From: 2010.05.17/outbox.cif.g08.bks.cpg/sg5_31_cif.got.tgz:61162.got - 2010.06.03 18:56:24.
