data_PCOD9128291
_publ_section_title
;
Structure prediction by ZEFSAII (Michael W. Deem and Ramdas Pophale) SiO2 
 PCOD9128291
Probable space group: C 2
;
_chemical_formula_sum "Si O2"
_cell_formula_units_Z 28
_cell_length_a 7.787472
_cell_length_b 15.200420
_cell_length_c 10.524486
_cell_angle_alpha 90.000000
_cell_angle_beta 66.182440
_cell_angle_gamma 90.000000
_cell_volume 1139.714836
_symmetry_space_group_name_H-M "C 2"
_symmetry_group_IT_number 5
_symmetry_cell_setting 'monoclinic'
loop_
_space_group_symop_operation_xyz
x,y,z
-x,y,-z
1/2+x,1/2+y,z
1/2-x,1/2+y,-z
loop_
_atom_site_type_symbol
_atom_site_label
_atom_site_fract_x
_atom_site_fract_y
_atom_site_fract_z
Si Si1 0.720392 0.171470 0.474966
Si Si2 0.045368 0.869968 0.790646
Si Si3 0.297052 0.553854 0.224711
Si Si4 0.500000 0.989301 0.000000
Si Si5 0.863800 0.535130 0.296801
Si Si6 0.308612 0.867826 0.476732
Si Si7 0.210000 0.328025 0.048396
Si Si8 0.500000 0.681057 0.000000
O O1 0.500000 0.180354 0.500000
O O2 0.819222 0.103886 0.350192
O O3 0.721744 0.121846 0.610811
O O4 0.814018 0.266559 0.433053
O O5 0.132489 0.866558 0.626186
O O6 0.182513 0.825920 0.852348
O O7 0.061048 0.972519 0.823835
O O8 0.848037 0.826599 0.884186
O O9 0.078941 0.530418 0.282214
O O10 0.336804 0.619604 0.098542
O O11 0.387842 0.921598 0.943187
O O12 0.626789 0.039883 0.859307
O O13 0.781775 0.443314 0.378083
O O14 0.500000 0.886370 0.500000
O O15 0.070742 0.247507 0.085090
#
# Coordination Sequence:
#
# PCOD9128291 Si02
#       8
#     4   4   4   2   4   4   4   2
#     4  10  25  44  67  99 134 177 239 280 347 411
#     4  11  22  45  69  93 137 188 226 269 356 417
#     4  11  22  43  70  93 133 187 228 275 349 418
#     4  11  22  42  74  93 138 174 234 291 342 395
#     4  11  23  47  68 101 134 188 228 290 347 414
#     4  12  23  43  71  98 138 180 227 286 340 412
#     4  10  24  41  66 104 129 179 233 281 342 411
#     4  11  26  40  70 103 138 174 238 297 332 413
#
# _framework density 24.567549
#
# number of rings (size 3 to 8) (size 9 to 14) (size 15 to 20)
#    0.000    1.143    4.286    1.286   10.000    0.000 
#    5.143    0.714    0.000    0.000    0.000    0.000 
#    0.000    0.000    0.000    0.000    0.000    0.000 
#
# Total GULP energy -78303.026241 kJ/mol
# GULP energy per Si atom -5593.073303 kJ/mol
# Density = 2.451163 g / cm^3
# Si number density = 24.567549 Si / 1000 Ang^3
#
#
#
# Elastic Constant Matrix: (Units=GPa)
#
#
# Indices 1 2 3 4 5 6 
#
# 1 28.7782 3.7705 -7.0014 0.0000 -6.7871 0.0000
# 2 3.7705 105.1292 29.5620 0.0000 5.7433 0.0000
# 3 -7.0014 29.5620 128.8304 0.0000 6.1402 0.0000
# 4 0.0000 0.0000 0.0000 -0.7252 0.0000 -18.2098
# 5 -6.7871 5.7433 6.1402 0.0000 22.8759 0.0000
# 6 0.0000 0.0000 0.0000 -18.2098 0.0000 15.9865
#
#
#
# Elastic Compliance Matrix: (Units=1/GPa)
#
#
# Indices 1 2 3 4 5 6 
#
# 1 0.038307 -0.002599 0.002133 0.000000 0.011446 0.000000
# 2 -0.002599 0.010431 -0.002404 0.000000 -0.002745 0.000000
# 3 0.002133 -0.002404 0.008479 0.000000 -0.001040 0.000000
# 4 0.000000 0.000000 0.000000 -0.046582 0.000000 -0.053060
# 5 0.011446 -0.002745 -0.001040 0.000000 0.048078 0.000000
# 6 0.000000 0.000000 0.000000 -0.053060 0.000000 0.002113
#
#
# Mechanical properties :
#
#
# Convention : Reuss Voigt Hill
#
# Bulk Modulus (GPa) = 19.42602 35.04444 27.23523
# Shear Modulus (GPa) = 59.71815 23.38789 41.55302
#
# Velocity S-wave (km/s) = 4.93564 3.08877 4.11710
# Velocity P-wave (km/s) = 6.35649 5.19771 5.80608
#
# Compressibility (1/GPa) = 0.05147736
#
# Stress axis : x y z
#
# Youngs Moduli (GPa) = 26.10466 95.86568 117.93520
#
# Poissons Ratio (x) = 0.24915 -0.25152
# Poissons Ratio (y) = 0.06784 0.28352
# Poissons Ratio (z) = -0.05567 0.23046
#
# Static dielectric constant tensor:
#      x y z
#    x 1.951810 0.000000 0.013090 
#    y 0.000000 1.930750 0.000000 
#    z 0.013090 0.000000 1.999560 
# 
# From -- ./inp_files/36331.got.cif
#   From: 2010.05.17/outbox.cif.g08.bks.cpg/sg5_19_cif.got.tgz:36331.got - 2010.06.03 18:56:24.
