data_PCOD9128659
_publ_section_title
;
Structure prediction by ZEFSAII (Michael W. Deem and Ramdas Pophale) SiO2 
 PCOD9128659
Probable space group: C 2
;
_chemical_formula_sum "Si O2"
_cell_formula_units_Z 22
_cell_length_a 11.293737
_cell_length_b 10.506300
_cell_length_c 14.517649
_cell_angle_alpha 90.000000
_cell_angle_beta 147.987833
_cell_angle_gamma 90.000000
_cell_volume 913.147685
_symmetry_space_group_name_H-M "C 2"
_symmetry_group_IT_number 5
_symmetry_cell_setting 'monoclinic'
loop_
_space_group_symop_operation_xyz
x,y,z
-x,y,-z
1/2+x,1/2+y,z
1/2-x,1/2+y,-z
loop_
_atom_site_type_symbol
_atom_site_label
_atom_site_fract_x
_atom_site_fract_y
_atom_site_fract_z
Si Si1 0.323215 0.553330 0.821064
Si Si2 0.493453 0.905717 0.724345
Si Si3 0.431351 0.297997 0.083449
Si Si4 0.160315 0.530307 0.187847
Si Si5 0.473825 0.374607 0.651190
Si Si6 0.500000 0.187409 0.500000
O O1 0.125766 0.518485 0.760947
O O2 0.443156 0.422272 0.872101
O O3 0.224022 0.606693 0.661100
O O4 0.500000 0.630310 0.000000
O O5 0.294353 0.875623 0.523042
O O6 0.382995 0.952114 0.747004
O O7 0.682203 0.801284 0.875187
O O8 0.574699 0.173103 0.153795
O O9 0.422481 0.325997 0.185854
O O10 0.407124 0.502503 0.309917
O O11 0.000000 0.483429 0.000000
O O12 0.514922 0.272316 0.599235
#
# Coordination Sequence:
#
# PCOD9128659 Si02
#       6
#     4   4   4   4   4   2
#     4  10  24  47  71 102 143 193 252 311 381 452
#     4  11  23  48  72 106 145 194 249 314 381 450
#     4  11  26  49  75 110 149 199 255 317 384 464
#     4  12  24  49  77 111 152 201 254 318 388 461
#     4  12  26  47  73 108 153 196 253 315 384 455
#     4  12  24  44  66 102 142 194 246 308 372 456
#
# _framework density 24.092490000000002
#
# number of rings (size 3 to 8) (size 9 to 14) (size 15 to 20)
#    0.000    0.727    3.636    3.818    0.000    5.091 
#   26.182    0.000    0.000    0.000    0.000    0.000 
#    0.000    0.000    0.000    0.000    0.000    0.000 
#
# Total GULP energy -61477.315994 kJ/mol
# GULP energy per Si atom -5588.846909 kJ/mol
# Density = 2.403765 g / cm^3
# Si number density = 24.092490 Si / 1000 Ang^3
#
#
#
# Elastic Constant Matrix: (Units=GPa)
#
#
# Indices 1 2 3 4 5 6 
#
# 1 105.2730 17.6983 28.1154 0.0009 -13.8260 -0.0001
# 2 17.6983 84.3327 43.8059 0.0009 7.8917 0.0005
# 3 28.1154 43.8059 139.5007 0.0028 12.5078 0.0004
# 4 0.0009 0.0009 0.0028 35.7426 0.0011 5.3429
# 5 -13.8260 7.8917 12.5078 0.0011 47.1574 0.0003
# 6 -0.0001 0.0005 0.0004 5.3429 0.0003 1.1853
#
#
#
# Elastic Compliance Matrix: (Units=1/GPa)
#
#
# Indices 1 2 3 4 5 6 
#
# 1 0.010834 -0.001585 -0.002043 -0.000001 0.003984 0.000006
# 2 -0.001585 0.014470 -0.004062 0.000002 -0.001809 -0.000015
# 3 -0.002043 -0.004062 0.009064 -0.000001 -0.002323 0.000005
# 4 -0.000001 0.000002 -0.000001 0.085779 0.000000 -0.386671
# 5 0.003984 -0.001809 -0.002323 0.000000 0.023292 -0.000004
# 6 0.000006 -0.000015 0.000005 -0.386671 -0.000004 2.586710
#
#
# Mechanical properties :
#
#
# Convention : Reuss Voigt Hill
#
# Bulk Modulus (GPa) = 52.66620 56.48284 54.57452
# Shear Modulus (GPa) = 1.81695 32.78284 17.29990
#
# Velocity S-wave (km/s) = 0.86936 3.69278 2.68257
# Velocity P-wave (km/s) = 4.78698 6.45579 5.68298
#
# Compressibility (1/GPa) = 0.01898751
#
# Stress axis : x y z
#
# Youngs Moduli (GPa) = 92.29819 69.10952 110.32592
#
# Poissons Ratio (x) = 0.10956 0.22539
# Poissons Ratio (y) = 0.14632 0.44815
# Poissons Ratio (z) = 0.18856 0.28073
#
# Static dielectric constant tensor:
#      x y z
#    x 1.963550 0.000000 0.045600 
#    y 0.000000 2.001030 0.000000 
#    z 0.045600 0.000000 2.130320 
# 
# From -- ./inp_files/52916.got.cif
#   From: 2010.05.17/outbox.cif.g08.bks.cpg/sg5_27_cif.got.tgz:52916.got - 2010.06.03 18:56:24.
