data_PCOD9128874
_publ_section_title
;
Structure prediction by ZEFSAII (Michael W. Deem and Ramdas Pophale) SiO2 
 PCOD9128874
Probable space group: C 2
;
_chemical_formula_sum "Si O2"
_cell_formula_units_Z 30
_cell_length_a 8.015325
_cell_length_b 15.593210
_cell_length_c 11.738730
_cell_angle_alpha 90.000000
_cell_angle_beta 107.192046
_cell_angle_gamma 90.000000
_cell_volume 1401.607385
_symmetry_space_group_name_H-M "C 2"
_symmetry_group_IT_number 5
_symmetry_cell_setting 'monoclinic'
loop_
_space_group_symop_operation_xyz
x,y,z
-x,y,-z
1/2+x,1/2+y,z
1/2-x,1/2+y,-z
loop_
_atom_site_type_symbol
_atom_site_label
_atom_site_fract_x
_atom_site_fract_y
_atom_site_fract_z
Si Si1 0.130790 0.440180 0.694886
Si Si2 0.604678 0.240566 0.409592
Si Si3 0.500000 0.807598 0.500000
Si Si4 0.976000 0.604598 0.215415
Si Si5 0.306145 0.689569 0.002917
Si Si6 0.317128 0.881291 0.035442
Si Si7 0.013243 0.933768 0.370307
Si Si8 0.724886 0.528035 0.856588
O O1 0.006380 0.371363 0.609549
O O2 0.064173 0.536044 0.695556
O O3 0.166232 0.405743 0.829112
O O4 0.300648 0.447879 0.650738
O O5 0.500000 0.206784 0.500000
O O6 0.584415 0.179280 0.297259
O O7 0.502435 0.330083 0.363301
O O8 0.813098 0.258462 0.468117
O O9 0.079718 0.548761 0.143840
O O10 0.812858 0.645244 0.116976
O O11 0.237977 0.785226 0.015195
O O12 0.328493 0.621480 0.109438
O O13 0.500000 0.702361 0.000000
O O14 0.500000 0.880064 0.000000
O O15 0.209929 0.956480 0.951387
O O16 0.000000 0.957619 0.500000
O O17 0.875272 0.987793 0.270392
#
# Coordination Sequence:
#
# PCOD9128874 Si02
#       8
#     4   4   2   4   4   4   4   4
#     4  11  24  44  73  98 139 187 246 292 368 431
#     4  10  25  47  72 103 145 188 250 306 364 441
#     4  10  26  48  70 102 142 202 248 298 376 438
#     4  12  25  44  68 108 143 184 240 308 366 439
#     4  11  25  43  69 104 145 186 241 294 372 442
#     4  11  23  43  71 102 137 188 227 297 363 439
#     4  10  25  46  70 102 140 195 241 298 363 437
#     4  12  24  44  69 104 146 183 242 296 368 438
#
# _framework density 21.403995999999999
#
# number of rings (size 3 to 8) (size 9 to 14) (size 15 to 20)
#    0.000    1.067    2.667    2.000   10.267    2.133 
#    6.000    0.000    0.000    0.000    0.000    0.000 
#    0.000    0.000    0.000    0.000    0.000    0.000 
#
# Total GULP energy -83739.922463 kJ/mol
# GULP energy per Si atom -5582.661498 kJ/mol
# Density = 2.135528 g / cm^3
# Si number density = 21.403996 Si / 1000 Ang^3
#
#
#
# Elastic Constant Matrix: (Units=GPa)
#
#
# Indices 1 2 3 4 5 6 
#
# 1 76.1984 36.6789 43.7755 0.0000 4.0910 0.0000
# 2 36.6789 123.7004 64.7970 0.0000 1.1690 0.0000
# 3 43.7755 64.7970 156.3880 0.0000 0.0218 0.0000
# 4 0.0000 0.0000 0.0000 69.3173 0.0000 -8.3659
# 5 4.0910 1.1690 0.0218 0.0000 37.3070 0.0000
# 6 0.0000 0.0000 0.0000 -8.3659 0.0000 27.5416
#
#
#
# Elastic Compliance Matrix: (Units=1/GPa)
#
#
# Indices 1 2 3 4 5 6 
#
# 1 0.016668 -0.003170 -0.003352 0.000000 -0.001726 0.000000
# 2 -0.003170 0.010932 -0.003642 0.000000 0.000007 0.000000
# 3 -0.003352 -0.003642 0.008842 0.000000 0.000477 0.000000
# 4 0.000000 0.000000 0.000000 0.014975 0.000000 0.004549
# 5 -0.001726 0.000007 0.000477 0.000000 0.026993 0.000000
# 6 0.000000 0.000000 0.000000 0.004549 0.000000 0.037690
#
#
# Mechanical properties :
#
#
# Convention : Reuss Voigt Hill
#
# Bulk Modulus (GPa) = 62.06126 71.86551 66.96339
# Shear Modulus (GPa) = 35.26098 40.90219 38.08159
#
# Velocity S-wave (km/s) = 4.06322 4.37620 4.22261
# Velocity P-wave (km/s) = 7.14641 7.69308 7.42478
#
# Compressibility (1/GPa) = 0.01611311
#
# Stress axis : x y z
#
# Youngs Moduli (GPa) = 59.99532 91.47658 113.10232
#
# Poissons Ratio (x) = 0.29000 0.37911
# Poissons Ratio (y) = 0.19020 0.41192
# Poissons Ratio (z) = 0.20110 0.33316
#
# Static dielectric constant tensor:
#      x y z
#    x 1.290730 0.000000 0.374150 
#    y 0.000000 1.849960 0.000000 
#    z 0.374150 0.000000 1.542350 
# 
# From -- ./inp_files/36217.got.cif
#   From: 2010.05.17/outbox.cif.g08.bks.cpg/sg5_19_cif.got.tgz:36217.got - 2010.06.03 18:56:24.
