data_PCOD9128278
_publ_section_title
;
Structure prediction by ZEFSAII (Michael W. Deem and Ramdas Pophale) SiO2 
 PCOD9128278
Probable space group: C 2
;
_chemical_formula_sum "Si O2"
_cell_formula_units_Z 28
_cell_length_a 14.365285
_cell_length_b 5.174341
_cell_length_c 20.501677
_cell_angle_alpha 90.000000
_cell_angle_beta 131.531654
_cell_angle_gamma 90.000000
_cell_volume 1140.781394
_symmetry_space_group_name_H-M "C 2"
_symmetry_group_IT_number 5
_symmetry_cell_setting 'monoclinic'
loop_
_space_group_symop_operation_xyz
x,y,z
-x,y,-z
1/2+x,1/2+y,z
1/2-x,1/2+y,-z
loop_
_atom_site_type_symbol
_atom_site_label
_atom_site_fract_x
_atom_site_fract_y
_atom_site_fract_z
Si Si1 0.113500 0.289220 0.854744
Si Si2 0.291416 0.499939 0.843743
Si Si3 0.619140 0.092587 0.301570
Si Si4 0.757662 0.614323 0.325709
Si Si5 0.832171 0.370000 0.539927
Si Si6 0.500000 0.241020 0.000000
Si Si7 0.776854 0.400735 0.953531
Si Si8 0.000000 0.386585 0.500000
O O1 0.184018 0.305802 0.817678
O O2 0.990998 0.456992 0.791071
O O3 0.132300 0.985235 0.877304
O O4 0.189877 0.370265 0.955384
O O5 0.258387 0.612758 0.759490
O O6 0.431094 0.393679 0.910290
O O7 0.291617 0.680615 0.906980
O O8 0.733505 0.905875 0.336827
O O9 0.597328 0.010013 0.366964
O O10 0.660971 0.387681 0.306814
O O11 0.894318 0.540802 0.412072
O O12 0.746090 0.613460 0.476147
O O13 0.919904 0.267000 0.522280
O O14 0.387420 0.087340 0.979753
#
# Coordination Sequence:
#
# PCOD9128278 Si02
#       8
#     4   4   4   4   4   2   4   2
#     4  11  25  42  69  98 148 191 253 314 386 454
#     4  11  25  44  65 107 142 196 256 315 384 466
#     4  12  27  50  75 112 152 196 255 321 380 473
#     4  12  29  47  78 111 149 202 257 316 395 451
#     4  12  25  51  78 120 153 200 254 315 397 460
#     4  10  24  40  70  94 140 188 248 320 374 460
#     4  11  23  43  65 103 137 200 247 316 387 451
#     4  12  26  54  84 112 160 202 256 326 390 480
#
# _framework density 24.54458
#
# number of rings (size 3 to 8) (size 9 to 14) (size 15 to 20)
#    0.000    0.571    4.286    2.143   10.000    2.286 
#    2.571    0.000    0.000    0.000    0.000    0.000 
#    0.000    0.000    0.000    0.000    0.000    0.000 
#
# Total GULP energy -77996.095540 kJ/mol
# GULP energy per Si atom -5571.149681 kJ/mol
# Density = 2.448872 g / cm^3
# Si number density = 24.544580 Si / 1000 Ang^3
#
#
#
# Elastic Constant Matrix: (Units=GPa)
#
#
# Indices 1 2 3 4 5 6 
#
# 1 99.2777 11.8419 16.5189 0.0000 -19.7901 0.0000
# 2 11.8419 62.4635 -3.7851 -0.0001 -1.1337 0.0002
# 3 16.5189 -3.7851 93.7237 0.0000 -12.8743 0.0000
# 4 0.0000 -0.0001 0.0000 3.3950 0.0000 3.7042
# 5 -19.7901 -1.1337 -12.8743 0.0000 49.3869 0.0000
# 6 0.0000 0.0002 0.0000 3.7042 0.0000 -9.5659
#
#
#
# Elastic Compliance Matrix: (Units=1/GPa)
#
#
# Indices 1 2 3 4 5 6 
#
# 1 0.011410 -0.002181 -0.001533 0.000000 0.004122 0.000000
# 2 -0.002181 0.016480 0.001018 0.000000 -0.000230 0.000000
# 3 -0.001533 0.001018 0.011305 0.000000 0.002356 0.000000
# 4 0.000000 0.000000 0.000000 0.207067 0.000000 0.080183
# 5 0.004122 -0.000230 0.002356 0.000000 0.022509 0.000000
# 6 0.000000 0.000000 0.000000 0.080183 0.000000 -0.073489
#
#
# Mechanical properties :
#
#
# Convention : Reuss Voigt Hill
#
# Bulk Modulus (GPa) = 29.58264 33.84626 31.71445
# Shear Modulus (GPa) = 23.59151 24.03581 23.81366
#
# Velocity S-wave (km/s) = 3.10364 3.13273 3.11822
# Velocity P-wave (km/s) = 4.99221 5.18700 5.09054
#
# Compressibility (1/GPa) = 0.03380361
#
# Stress axis : x y z
#
# Youngs Moduli (GPa) = 87.64453 60.67821 88.45970
#
# Poissons Ratio (x) = 0.13235 0.13559
# Poissons Ratio (y) = 0.19116 -0.09008
# Poissons Ratio (z) = 0.13434 -0.06179
#
# Static dielectric constant tensor:
#      x y z
#    x 2.132800 0.000000 -0.088460 
#    y 0.000000 2.199960 0.000000 
#    z -0.088460 0.000000 2.085310 
# 
# From -- ./inp_files/65715.got.cif
#   From: 2010.05.17/outbox.cif.g08.bks.cpg/sg5_33_cif.got.tgz:65715.got - 2010.06.03 18:56:24.
