data_PCOD9128511
_publ_section_title
;
Structure prediction by ZEFSAII (Michael W. Deem and Ramdas Pophale) SiO2 
 PCOD9128511
Probable space group: C 2
;
_chemical_formula_sum "Si O2"
_cell_formula_units_Z 20
_cell_length_a 10.869115
_cell_length_b 9.793836
_cell_length_c 8.713018
_cell_angle_alpha 90.000000
_cell_angle_beta 106.523562
_cell_angle_gamma 90.000000
_cell_volume 889.200389
_symmetry_space_group_name_H-M "C 2"
_symmetry_group_IT_number 5
_symmetry_cell_setting 'monoclinic'
loop_
_space_group_symop_operation_xyz
x,y,z
-x,y,-z
1/2+x,1/2+y,z
1/2-x,1/2+y,-z
loop_
_atom_site_type_symbol
_atom_site_label
_atom_site_fract_x
_atom_site_fract_y
_atom_site_fract_z
Si Si1 0.366661 0.107540 0.537448
Si Si2 0.301439 0.253889 0.045374
Si Si3 0.138408 0.114056 0.214951
Si Si4 0.893115 0.413721 0.838968
Si Si5 0.082660 0.817821 0.225666
O O1 0.500000 0.078615 0.500000
O O2 0.247833 0.092719 0.381808
O O3 0.366536 0.264711 0.595009
O O4 0.365505 0.013259 0.688643
O O5 0.214026 0.132196 0.080314
O O6 0.234425 0.379622 0.109660
O O7 0.447223 0.242891 0.153943
O O8 0.316009 0.275863 0.870180
O O9 0.068798 0.260496 0.208126
O O10 0.057094 0.977674 0.195465
O O11 0.000000 0.459644 0.000000
#
# Coordination Sequence:
#
# PCOD9128511 Si02
#       5
#     4   4   4   4   4
#     4  12  24  42  68 100 146 187 228 293 366 415
#     4   9  24  42  68 100 134 181 240 286 346 415
#     4  10  24  45  65 102 138 182 242 283 355 425
#     4  10  25  44  69 102 144 179 245 292 347 427
#     4  11  23  42  76  94 139 188 235 291 353 426
#
# _framework density 22.492115999999999
#
# number of rings (size 3 to 8) (size 9 to 14) (size 15 to 20)
#    1.200    0.400    2.000    1.200   11.200    0.000 
#    0.000    1.000    0.000    0.000    0.000    0.000 
#    0.000    0.000    0.000    0.000    0.000    0.000 
#
# Total GULP energy -55806.053760 kJ/mol
# GULP energy per Si atom -5580.605376 kJ/mol
# Density = 2.244092 g / cm^3
# Si number density = 22.492116 Si / 1000 Ang^3
#
#
#
# Elastic Constant Matrix: (Units=GPa)
#
#
# Indices 1 2 3 4 5 6 
#
# 1 58.9310 2.6750 24.0593 0.0000 -13.8783 0.0000
# 2 2.6750 107.1300 9.8747 0.0000 -5.0631 0.0000
# 3 24.0593 9.8747 82.5280 0.0000 2.4900 0.0000
# 4 0.0000 0.0000 0.0000 40.6437 0.0000 -10.5374
# 5 -13.8783 -5.0631 2.4900 0.0000 34.7959 0.0000
# 6 0.0000 0.0000 0.0000 -10.5374 0.0000 15.0564
#
#
#
# Elastic Compliance Matrix: (Units=1/GPa)
#
#
# Indices 1 2 3 4 5 6 
#
# 1 0.021874 0.000512 -0.006718 0.000000 0.009280 0.000000
# 2 0.000512 0.009525 -0.001340 0.000000 0.001686 0.000000
# 3 -0.006718 -0.001340 0.014354 0.000000 -0.003902 0.000000
# 4 0.000000 0.000000 0.000000 0.030058 0.000000 0.021036
# 5 0.009280 0.001686 -0.003902 0.000000 0.032965 0.000000
# 6 0.000000 0.000000 0.000000 0.021036 0.000000 0.081139
#
#
# Mechanical properties :
#
#
# Convention : Reuss Voigt Hill
#
# Bulk Modulus (GPa) = 32.61577 35.75635 34.18606
# Shear Modulus (GPa) = 23.23132 32.23119 27.73125
#
# Velocity S-wave (km/s) = 3.21731 3.78960 3.51512
# Velocity P-wave (km/s) = 5.32296 5.92283 5.63089
#
# Compressibility (1/GPa) = 0.03066002
#
# Stress axis : x y z
#
# Youngs Moduli (GPa) = 45.71673 104.98863 69.66879
#
# Poissons Ratio (x) = -0.05371 0.46804
# Poissons Ratio (y) = -0.02339 0.09333
# Poissons Ratio (z) = 0.30713 0.14065
#
# Static dielectric constant tensor:
#      x y z
#    x 1.786210 0.000000 0.016770 
#    y 0.000000 1.928240 0.000000 
#    z 0.016770 0.000000 1.830360 
# 
# From -- ./inp_files/18359.got.cif
#   From: 2010.05.17/outbox.cif.g08.bks.cpg/sg5_10_cif.got.tgz:18359.got - 2010.06.03 18:56:24.
