data_PCOD9128177
_publ_section_title
;
Structure prediction by ZEFSAII (Michael W. Deem and Ramdas Pophale) SiO2 
 PCOD9128177
Probable space group: C 2
;
_chemical_formula_sum "Si O2"
_cell_formula_units_Z 20
_cell_length_a 33.760557
_cell_length_b 4.707644
_cell_length_c 9.999848
_cell_angle_alpha 90.000000
_cell_angle_beta 153.920262
_cell_angle_gamma 90.000000
_cell_volume 698.691731
_symmetry_space_group_name_H-M "C 2"
_symmetry_group_IT_number 5
_symmetry_cell_setting 'monoclinic'
loop_
_space_group_symop_operation_xyz
x,y,z
-x,y,-z
1/2+x,1/2+y,z
1/2-x,1/2+y,-z
loop_
_atom_site_type_symbol
_atom_site_label
_atom_site_fract_x
_atom_site_fract_y
_atom_site_fract_z
Si Si1 0.323750 0.489840 0.312914
Si Si2 0.645059 0.797999 0.269954
Si Si3 0.596970 0.268336 0.957260
Si Si4 0.293451 0.535094 0.921214
Si Si5 0.044885 0.523582 0.303280
O O1 0.242393 0.352731 0.155679
O O2 0.406046 0.289650 0.612079
O O3 0.280234 0.881219 0.397116
O O4 0.298214 0.397471 0.083248
O O5 0.628088 0.480532 0.170650
O O6 0.657197 0.989297 0.172645
O O7 0.619905 0.780609 0.539301
O O8 0.548859 0.899800 0.034425
O O9 0.616253 0.451852 0.884481
O O10 0.496826 0.150479 0.682417
#
# Coordination Sequence:
#
# PCOD9128177 Si02
#       5
#     4   4   4   4   4
#     4  12  27  48  71 117 164 213 244 335 407 495
#     4  10  23  48  81 113 146 208 270 337 378 474
#     4  10  23  48  82 113 146 207 270 337 376 473
#     4  12  28  48  78 120 165 201 272 327 414 469
#     4  10  23  52  72 111 155 205 278 308 413 464
#
# _framework density 28.624929999999999
#
# number of rings (size 3 to 8) (size 9 to 14) (size 15 to 20)
#    1.200    0.000    2.000    2.400    0.000   11.200 
#    3.600    4.000    0.000    0.000    0.000    0.000 
#    0.000    0.000    0.000    0.000    0.000    0.000 
#
# Total GULP energy -55830.280742 kJ/mol
# GULP energy per Si atom -5583.028074 kJ/mol
# Density = 2.855978 g / cm^3
# Si number density = 28.624930 Si / 1000 Ang^3
#
#
#
# Elastic Constant Matrix: (Units=GPa)
#
#
# Indices 1 2 3 4 5 6 
#
# 1 181.5108 59.0189 34.4745 0.0000 28.9497 0.0000
# 2 59.0189 199.0952 38.7137 0.0000 14.4732 0.0000
# 3 34.4745 38.7137 127.0665 0.0000 9.2879 0.0000
# 4 0.0000 0.0000 0.0000 42.7848 0.0000 7.3976
# 5 28.9497 14.4732 9.2879 0.0000 60.5702 0.0000
# 6 0.0000 0.0000 0.0000 7.3976 0.0000 55.9669
#
#
#
# Elastic Compliance Matrix: (Units=1/GPa)
#
#
# Indices 1 2 3 4 5 6 
#
# 1 0.006652 -0.001559 -0.001137 0.000000 -0.002632 0.000000
# 2 -0.001559 0.005770 -0.001303 0.000000 -0.000434 0.000000
# 3 -0.001137 -0.001303 0.008609 0.000000 -0.000465 0.000000
# 4 0.000000 0.000000 0.000000 0.023919 0.000000 -0.003162
# 5 -0.002632 -0.000434 -0.000465 0.000000 0.017943 0.000000
# 6 0.000000 0.000000 0.000000 -0.003162 0.000000 0.018286
#
#
# Mechanical properties :
#
#
# Convention : Reuss Voigt Hill
#
# Bulk Modulus (GPa) = 76.73495 85.78741 81.26118
# Shear Modulus (GPa) = 53.46260 56.89540 55.17900
#
# Velocity S-wave (km/s) = 4.32637 4.46311 4.39527
# Velocity P-wave (km/s) = 7.19874 7.52287 7.36259
#
# Compressibility (1/GPa) = 0.01303187
#
# Stress axis : x y z
#
# Youngs Moduli (GPa) = 150.32545 173.31286 116.15092
#
# Poissons Ratio (x) = 0.27027 0.13210
# Poissons Ratio (y) = 0.23443 0.15136
# Poissons Ratio (z) = 0.17096 0.22585
#
# Static dielectric constant tensor:
#      x y z
#    x 2.513230 0.000000 0.005060 
#    y 0.000000 2.363180 0.000000 
#    z 0.005060 0.000000 2.251730 
# 
# From -- ./inp_files/48236.got.cif
#   From: 2010.05.17/outbox.cif.g08.bks.cpg/sg5_25_cif.got.tgz:48236.got - 2010.06.03 18:56:24.
