data_PCOD9128391
_publ_section_title
;
Structure prediction by ZEFSAII (Michael W. Deem and Ramdas Pophale) SiO2 
 PCOD9128391
Probable space group: C 2
;
_chemical_formula_sum "Si O2"
_cell_formula_units_Z 24
_cell_length_a 10.000154
_cell_length_b 12.203162
_cell_length_c 14.416746
_cell_angle_alpha 90.000000
_cell_angle_beta 148.328233
_cell_angle_gamma 90.000000
_cell_volume 923.738218
_symmetry_space_group_name_H-M "C 2"
_symmetry_group_IT_number 5
_symmetry_cell_setting 'monoclinic'
loop_
_space_group_symop_operation_xyz
x,y,z
-x,y,-z
1/2+x,1/2+y,z
1/2-x,1/2+y,-z
loop_
_atom_site_type_symbol
_atom_site_label
_atom_site_fract_x
_atom_site_fract_y
_atom_site_fract_z
Si Si1 0.546456 0.296030 0.139675
Si Si2 0.208001 0.642964 0.749335
Si Si3 0.017252 0.423520 0.675515
Si Si4 0.174294 0.089373 0.383345
Si Si5 0.499451 0.854860 0.867742
Si Si6 0.222806 0.078493 0.708719
O O1 0.812435 0.359602 0.297378
O O2 0.590238 0.176339 0.207817
O O3 0.500000 0.293135 0.000000
O O4 0.305184 0.347111 0.049623
O O5 0.181145 0.535434 0.799948
O O6 0.327377 0.589498 0.726913
O O7 0.359743 0.756247 0.838625
O O8 0.910656 0.666374 0.553475
O O9 0.951505 0.354703 0.727594
O O10 0.768446 0.473527 0.480784
O O11 0.916370 0.118505 0.280441
O O12 0.375829 0.969497 0.821553
O O13 0.000000 0.062920 0.500000
#
# Coordination Sequence:
#
# PCOD9128391 Si02
#       6
#     4   4   4   4   4   4
#     4  10  24  43  67  91 140 189 223 280 359 425
#     4   9  20  38  66  93 134 178 224 283 350 410
#     4   9  19  40  64  94 127 180 231 274 337 424
#     4   9  19  35  62 101 130 170 221 295 343 398
#     4  11  23  41  68  94 138 185 228 277 364 421
#     4  12  24  39  70 107 136 172 243 298 334 421
#
# _framework density 25.981387999999999
#
# number of rings (size 3 to 8) (size 9 to 14) (size 15 to 20)
#    1.000    1.000    1.667    2.000    4.667    2.667 
#    0.000    1.667    0.000    0.000    0.000    0.000 
#    0.000    0.000    0.000    0.000    0.000    0.000 
#
# Total GULP energy -67036.552930 kJ/mol
# GULP energy per Si atom -5586.379411 kJ/mol
# Density = 2.592225 g / cm^3
# Si number density = 25.981388 Si / 1000 Ang^3
#
#
#
# Elastic Constant Matrix: (Units=GPa)
#
#
# Indices 1 2 3 4 5 6 
#
# 1 90.5327 29.4861 22.4065 0.0008 11.7273 0.0003
# 2 29.4861 137.9689 29.2413 0.0033 11.5108 0.0006
# 3 22.4065 29.2413 56.8703 0.0122 7.0626 0.0038
# 4 0.0008 0.0033 0.0122 22.9997 0.0025 29.2513
# 5 11.7273 11.5108 7.0626 0.0025 37.4801 0.0005
# 6 0.0003 0.0006 0.0038 29.2513 0.0005 25.9704
#
#
#
# Elastic Compliance Matrix: (Units=1/GPa)
#
#
# Indices 1 2 3 4 5 6 
#
# 1 0.012920 -0.001709 -0.003865 -0.000004 -0.002789 0.000004
# 2 -0.001709 0.008474 -0.003509 -0.000001 -0.001407 0.000001
# 3 -0.003865 -0.003509 0.021121 0.000015 -0.001693 -0.000020
# 4 -0.000004 -0.000001 0.000015 -0.100534 0.000004 0.113234
# 5 -0.002789 -0.001407 -0.001693 0.000004 0.028305 -0.000004
# 6 0.000004 0.000001 -0.000020 0.113234 -0.000004 -0.089034
#
#
# Mechanical properties :
#
#
# Convention : Reuss Voigt Hill
#
# Bulk Modulus (GPa) = 41.07015 49.73774 45.40394
# Shear Modulus (GPa) = -54.07593 30.90590 -11.58502
#
# Velocity S-wave (km/s) = -4.56711 3.45271 -2.11392
# Velocity P-wave (km/s) = 3.45970 5.92285 3.39931
#
# Compressibility (1/GPa) = 0.02434859
#
# Stress axis : x y z
#
# Youngs Moduli (GPa) = 77.39684 118.00218 47.34551
#
# Poissons Ratio (x) = 0.20171 0.18300
# Poissons Ratio (y) = 0.13230 0.16614
# Poissons Ratio (z) = 0.29916 0.41409
#
# Static dielectric constant tensor:
#      x y z
#    x 2.063990 0.000000 -0.070140 
#    y 0.000000 2.085600 0.000000 
#    z -0.070140 0.000000 2.047130 
# 
# From -- ./inp_files/65257.got.cif
#   From: 2010.05.17/outbox.cif.g08.bks.cpg/sg5_33_cif.got.tgz:65257.got - 2010.06.03 18:56:24.
