data_PCOD9128396
_publ_section_title
;
Structure prediction by ZEFSAII (Michael W. Deem and Ramdas Pophale) SiO2 
 PCOD9128396
Probable space group: C 2
;
_chemical_formula_sum "Si O2"
_cell_formula_units_Z 14
_cell_length_a 5.792985
_cell_length_b 21.130510
_cell_length_c 4.912463
_cell_angle_alpha 90.000000
_cell_angle_beta 93.169425
_cell_angle_gamma 90.000000
_cell_volume 600.408559
_symmetry_space_group_name_H-M "C 2"
_symmetry_group_IT_number 5
_symmetry_cell_setting 'monoclinic'
loop_
_space_group_symop_operation_xyz
x,y,z
-x,y,-z
1/2+x,1/2+y,z
1/2-x,1/2+y,-z
loop_
_atom_site_type_symbol
_atom_site_label
_atom_site_fract_x
_atom_site_fract_y
_atom_site_fract_z
Si Si1 0.500000 0.472731 0.000000
Si Si2 0.847807 0.565055 0.727492
Si Si3 0.000000 0.890059 0.500000
Si Si4 0.500000 0.184241 0.500000
Si Si5 0.830960 0.282115 0.734242
O O1 0.346192 0.519541 0.173335
O O2 0.601677 0.428823 0.247927
O O3 0.807674 0.634776 0.601382
O O4 0.000000 0.532839 0.500000
O O5 0.000000 0.578101 0.000000
O O6 0.802111 0.846521 0.352892
O O7 0.629085 0.229203 0.722876
O O8 0.000000 0.265092 0.500000
O O9 0.000000 0.287389 0.000000
#
# Coordination Sequence:
#
# PCOD9128396 Si02
#       5
#     2   4   2   2   4
#     4  12  24  46  76 100 150 196 232 298 368 416
#     4  10  24  43  68 108 149 184 236 291 356 441
#     4  11  26  46  70 108 144 185 256 296 340 447
#     4   9  26  46  72 110 150 173 248 296 354 451
#     4  11  25  45  76 103 140 193 236 304 366 410
#
# _framework density 23.317456
#
# number of rings (size 3 to 8) (size 9 to 14) (size 15 to 20)
#    0.857    0.571    0.000    3.429    4.000    9.143 
#    0.000    0.000    0.000    0.000    0.000    0.000 
#    0.000    0.000    0.000    0.000    0.000    0.000 
#
# Total GULP energy -39044.913596 kJ/mol
# GULP energy per Si atom -5577.844799 kJ/mol
# Density = 2.326438 g / cm^3
# Si number density = 23.317456 Si / 1000 Ang^3
#
#
#
# Elastic Constant Matrix: (Units=GPa)
#
#
# Indices 1 2 3 4 5 6 
#
# 1 95.6652 67.8493 66.3648 0.0000 -6.2130 0.0000
# 2 67.8493 152.8782 79.0103 0.0000 7.3084 0.0000
# 3 66.3648 79.0103 197.0353 0.0000 1.9340 0.0000
# 4 0.0000 0.0000 0.0000 19.3917 0.0000 -4.5575
# 5 -6.2130 7.3084 1.9340 0.0000 62.7186 0.0000
# 6 0.0000 0.0000 0.0000 -4.5575 0.0000 34.6391
#
#
#
# Elastic Compliance Matrix: (Units=1/GPa)
#
#
# Indices 1 2 3 4 5 6 
#
# 1 0.017254 -0.006006 -0.003428 0.000000 0.002515 0.000000
# 2 -0.006006 0.010389 -0.002126 0.000000 -0.001740 0.000000
# 3 -0.003428 -0.002126 0.007085 0.000000 -0.000310 0.000000
# 4 0.000000 0.000000 0.000000 0.053214 0.000000 0.007001
# 5 0.002515 -0.001740 -0.000310 0.000000 0.016406 0.000000
# 6 0.000000 0.000000 0.000000 0.007001 0.000000 0.029790
#
#
# Mechanical properties :
#
#
# Convention : Reuss Voigt Hill
#
# Bulk Modulus (GPa) = 86.14314 96.89195 91.51755
# Shear Modulus (GPa) = 31.03146 38.84018 34.93582
#
# Velocity S-wave (km/s) = 3.65201 4.08574 3.87495
# Velocity P-wave (km/s) = 7.40315 7.99383 7.70415
#
# Compressibility (1/GPa) = 0.01160859
#
# Stress axis : x y z
#
# Youngs Moduli (GPa) = 57.95679 96.25906 141.14010
#
# Poissons Ratio (x) = 0.57817 0.48378
# Poissons Ratio (y) = 0.34811 0.30002
# Poissons Ratio (z) = 0.19866 0.20461
#
# Static dielectric constant tensor:
#      x y z
#    x 1.814250 0.000000 -0.058160 
#    y 0.000000 1.938100 0.000000 
#    z -0.058160 0.000000 1.811470 
# 
# From -- ./inp_files/689.got.cif
#   From: 2010.05.17/outbox.cif.g08.bks.cpg/sg5_1_cif.got.tgz:689.got - 2010.06.03 18:56:24.
