data_PCOD9128409
_publ_section_title
;
Structure prediction by ZEFSAII (Michael W. Deem and Ramdas Pophale) SiO2 
 PCOD9128409
Probable space group: C 2
;
_chemical_formula_sum "Si O2"
_cell_formula_units_Z 22
_cell_length_a 15.262052
_cell_length_b 8.420843
_cell_length_c 7.267785
_cell_angle_alpha 90.000000
_cell_angle_beta 95.776422
_cell_angle_gamma 90.000000
_cell_volume 929.308045
_symmetry_space_group_name_H-M "C 2"
_symmetry_group_IT_number 5
_symmetry_cell_setting 'monoclinic'
loop_
_space_group_symop_operation_xyz
x,y,z
-x,y,-z
1/2+x,1/2+y,z
1/2-x,1/2+y,-z
loop_
_atom_site_type_symbol
_atom_site_label
_atom_site_fract_x
_atom_site_fract_y
_atom_site_fract_z
Si Si1 0.740512 0.580000 0.599033
Si Si2 0.827457 0.989351 0.795463
Si Si3 0.074622 0.287852 0.669630
Si Si4 0.225623 0.810217 0.878191
Si Si5 0.407729 0.156993 0.396688
Si Si6 0.500000 0.602592 0.000000
O O1 0.695753 0.480595 0.422381
O O2 0.665719 0.709216 0.624721
O O3 0.757878 0.464126 0.773394
O O4 0.832656 0.640288 0.537139
O O5 0.785717 0.159017 0.849147
O O6 0.928840 0.000256 0.873290
O O7 0.784034 0.855312 0.912697
O O8 0.081711 0.478211 0.679997
O O9 0.000000 0.252754 0.500000
O O10 0.047284 0.211649 0.857266
O O11 0.131062 0.768597 0.769417
O O12 0.500000 0.209945 0.500000
#
# Coordination Sequence:
#
# PCOD9128409 Si02
#       6
#     4   4   4   4   4   2
#     4  11  23  46  72 100 142 187 231 287 350 414
#     4  11  26  44  69 106 135 189 229 285 353 407
#     4  11  23  45  72 103 142 186 235 281 346 424
#     4  11  26  44  68 100 146 181 233 289 342 419
#     4  10  24  43  71 107 137 187 234 287 352 405
#     4  12  24  42  74 104 136 186 232 278 348 418
#
# _framework density 23.673528999999998
#
# number of rings (size 3 to 8) (size 9 to 14) (size 15 to 20)
#    0.000    1.091    3.636    2.182    7.636    5.091 
#    0.000    4.545    0.000    0.000    0.000    0.000 
#    0.000    0.000    0.000    0.000    0.000    0.000 
#
# Total GULP energy -61666.676108 kJ/mol
# GULP energy per Si atom -5606.061464 kJ/mol
# Density = 2.361965 g / cm^3
# Si number density = 23.673529 Si / 1000 Ang^3
#
#
#
# Elastic Constant Matrix: (Units=GPa)
#
#
# Indices 1 2 3 4 5 6 
#
# 1 127.7490 6.2020 39.5482 0.0000 23.2884 0.0000
# 2 6.2020 54.1072 1.1814 0.0000 4.9826 0.0000
# 3 39.5482 1.1814 111.5685 0.0000 -2.5220 0.0000
# 4 0.0000 0.0000 0.0000 33.3706 0.0000 10.4306
# 5 23.2884 4.9826 -2.5220 0.0000 35.1752 0.0000
# 6 0.0000 0.0000 0.0000 10.4306 0.0000 30.3358
#
#
#
# Elastic Compliance Matrix: (Units=1/GPa)
#
#
# Indices 1 2 3 4 5 6 
#
# 1 0.010312 -0.000451 -0.003810 0.000000 -0.007036 0.000000
# 2 -0.000451 0.018753 -0.000092 0.000000 -0.002365 0.000000
# 3 -0.003810 -0.000092 0.010389 0.000000 0.003280 0.000000
# 4 0.000000 0.000000 0.000000 0.033575 0.000000 -0.011544
# 5 -0.007036 -0.002365 0.003280 0.000000 0.033658 0.000000
# 6 0.000000 0.000000 0.000000 -0.011544 0.000000 0.036934
#
#
# Mechanical properties :
#
#
# Convention : Reuss Voigt Hill
#
# Bulk Modulus (GPa) = 32.52191 43.03196 37.77694
# Shear Modulus (GPa) = 30.75508 36.20921 33.48214
#
# Velocity S-wave (km/s) = 3.60826 3.91515 3.76484
# Velocity P-wave (km/s) = 5.57915 6.21728 5.90684
#
# Compressibility (1/GPa) = 0.03074850
#
# Stress axis : x y z
#
# Youngs Moduli (GPa) = 96.97616 53.32403 96.25921
#
# Poissons Ratio (x) = 0.02404 0.36670
# Poissons Ratio (y) = 0.04372 0.00888
# Poissons Ratio (z) = 0.36944 0.00492
#
# Static dielectric constant tensor:
#      x y z
#    x 1.887920 0.000000 0.016970 
#    y 0.000000 1.904200 0.000000 
#    z 0.016970 0.000000 1.877340 
# 
# From -- ./inp_files/22847.got.cif
#   From: 2010.05.17/outbox.cif.g08.bks.cpg/sg5_12_cif.got.tgz:22847.got - 2010.06.03 18:56:24.
