data_PCOD9128828
_publ_section_title
;
Structure prediction by ZEFSAII (Michael W. Deem and Ramdas Pophale) SiO2 
 PCOD9128828
Probable space group: C 2
;
_chemical_formula_sum "Si O2"
_cell_formula_units_Z 30
_cell_length_a 12.202820
_cell_length_b 8.822561
_cell_length_c 13.362424
_cell_angle_alpha 90.000000
_cell_angle_beta 88.268212
_cell_angle_gamma 90.000000
_cell_volume 1437.943138
_symmetry_space_group_name_H-M "C 2"
_symmetry_group_IT_number 5
_symmetry_cell_setting 'monoclinic'
loop_
_space_group_symop_operation_xyz
x,y,z
-x,y,-z
1/2+x,1/2+y,z
1/2-x,1/2+y,-z
loop_
_atom_site_type_symbol
_atom_site_label
_atom_site_fract_x
_atom_site_fract_y
_atom_site_fract_z
Si Si1 0.630819 0.567160 0.357431
Si Si2 0.627549 0.978668 0.880772
Si Si3 0.425579 0.366244 0.358823
Si Si4 0.768592 0.765604 0.748625
Si Si5 0.380143 0.026498 0.880071
Si Si6 0.244067 0.548076 0.445234
Si Si7 0.239463 0.766927 0.789603
Si Si8 0.000000 0.609397 0.500000
O O1 0.504579 0.512139 0.365455
O O2 0.685249 0.415060 0.308203
O O3 0.687438 0.604954 0.461207
O O4 0.665343 0.706252 0.287126
O O5 0.504528 0.997248 0.844878
O O6 0.705933 0.117904 0.850112
O O7 0.672532 0.829111 0.823416
O O8 0.622793 0.996821 0.000733
O O9 0.313894 0.397506 0.422344
O O10 0.375448 0.324134 0.254112
O O11 0.484142 0.222642 0.406571
O O12 0.847556 0.683827 0.827076
O O13 0.746913 0.648925 0.656759
O O14 0.292571 0.906232 0.843531
O O15 0.116238 0.527356 0.478219
#
# Coordination Sequence:
#
# PCOD9128828 Si02
#       8
#     4   4   4   4   4   4   4   2
#     4  11  24  41  65  98 135 175 221 268 322 392
#     4  10  25  44  66  99 133 164 224 285 332 395
#     4  12  22  42  62  91 133 174 219 269 315 387
#     4  11  23  42  69  97 130 175 221 271 333 393
#     4  11  23  44  69  96 130 174 218 280 341 393
#     4  12  23  39  66  96 132 181 215 263 326 388
#     4  11  24  41  68  96 128 176 220 267 335 394
#     4  12  24  42  64  92 138 178 218 272 318 388
#
# _framework density 20.863135
#
# number of rings (size 3 to 8) (size 9 to 14) (size 15 to 20)
#    0.000    0.800    5.333    1.600    1.867    0.000 
#    0.000    1.333    0.000    6.400    0.000    0.000 
#    0.000    0.000    0.000    0.000    0.000    0.000 
#
# Total GULP energy -83597.385389 kJ/mol
# GULP energy per Si atom -5573.159026 kJ/mol
# Density = 2.081565 g / cm^3
# Si number density = 20.863135 Si / 1000 Ang^3
#
#
#
# Elastic Constant Matrix: (Units=GPa)
#
#
# Indices 1 2 3 4 5 6 
#
# 1 112.4629 50.0961 31.3255 0.0000 0.8327 0.0000
# 2 50.0961 13.6667 17.0076 0.0000 7.3389 0.0000
# 3 31.3255 17.0076 79.8321 0.0000 6.2905 0.0000
# 4 0.0000 0.0000 0.0000 -2.2814 0.0000 3.4697
# 5 0.8327 7.3389 6.2905 0.0000 33.6566 0.0000
# 6 0.0000 0.0000 0.0000 3.4697 0.0000 41.0105
#
#
#
# Elastic Compliance Matrix: (Units=1/GPa)
#
#
# Indices 1 2 3 4 5 6 
#
# 1 -0.008829 0.043086 -0.005066 0.000000 -0.008230 0.000000
# 2 0.043086 -0.098644 0.002535 0.000000 0.019970 0.000000
# 3 -0.005066 0.002535 0.014217 0.000000 -0.003085 0.000000
# 4 0.000000 0.000000 0.000000 -0.388360 0.000000 0.032858
# 5 -0.008230 0.019970 -0.003085 0.000000 0.026138 0.000000
# 6 0.000000 0.000000 0.000000 0.032858 0.000000 0.021604
#
#
# Mechanical properties :
#
#
# Convention : Reuss Voigt Hill
#
# Bulk Modulus (GPa) = -82.33643 44.75779 -18.78932
# Shear Modulus (GPa) = -9.63332 21.64599 6.00634
#
# Velocity S-wave (km/s) = -2.15114 3.22456 1.69858
# Velocity P-wave (km/s) = 6.76170 5.94671 2.27566
#
# Compressibility (1/GPa) = -0.01214529
#
# Stress axis : x y z
#
# Youngs Moduli (GPa) = -113.26670 -10.13749 70.33661
#
# Poissons Ratio (x) = 0.43679 0.35635
# Poissons Ratio (y) = 4.88026 -0.17829
# Poissons Ratio (z) = -0.57386 0.02570
#
# Static dielectric constant tensor:
#      x y z
#    x 1.773510 0.000000 -0.030000 
#    y 0.000000 1.770460 0.000000 
#    z -0.030000 0.000000 1.822210 
# 
# From -- ./inp_files/52288.got.cif
#   From: 2010.05.17/outbox.cif.g08.bks.cpg/sg5_27_cif.got.tgz:52288.got - 2010.06.03 18:56:24.
