data_PCOD9128648
_publ_section_title
;
Structure prediction by ZEFSAII (Michael W. Deem and Ramdas Pophale) SiO2 
 PCOD9128648
Probable space group: C 2
;
_chemical_formula_sum "Si O2"
_cell_formula_units_Z 18
_cell_length_a 17.374540
_cell_length_b 8.383833
_cell_length_c 5.014653
_cell_angle_alpha 90.000000
_cell_angle_beta 110.457062
_cell_angle_gamma 90.000000
_cell_volume 684.393685
_symmetry_space_group_name_H-M "C 2"
_symmetry_group_IT_number 5
_symmetry_cell_setting 'monoclinic'
loop_
_space_group_symop_operation_xyz
x,y,z
-x,y,-z
1/2+x,1/2+y,z
1/2-x,1/2+y,-z
loop_
_atom_site_type_symbol
_atom_site_label
_atom_site_fract_x
_atom_site_fract_y
_atom_site_fract_z
Si Si1 0.728848 0.622300 0.595904
Si Si2 0.057429 0.668946 0.830058
Si Si3 0.353069 0.944314 0.430003
Si Si4 0.000000 0.232181 0.500000
Si Si5 0.871079 0.014456 0.040036
O O1 0.817313 0.571545 0.593707
O O2 0.695192 0.519817 0.800733
O O3 0.715831 0.805783 0.663985
O O4 0.668966 0.588815 0.271390
O O5 0.123957 0.542295 0.805734
O O6 0.000000 0.697873 0.500000
O O7 0.096394 0.837100 0.958062
O O8 0.000000 0.613565 0.000000
O O9 0.436197 0.844774 0.579133
O O10 0.054352 0.123658 0.760465
#
# Coordination Sequence:
#
# PCOD9128648 Si02
#       5
#     4   4   4   2   4
#     4  11  27  48  80 111 166 208 270 319 416 474
#     4  12  26  45  76 113 156 201 266 328 391 467
#     4  11  26  51  76 119 158 212 263 334 397 478
#     4  10  24  46  80 114 160 202 272 328 406 462
#     4  11  25  49  78 117 154 218 259 335 396 491
#
# _framework density 26.300650999999998
#
# number of rings (size 3 to 8) (size 9 to 14) (size 15 to 20)
#    0.000    0.889    2.222    2.667    3.111   12.444 
#    0.000    0.000    0.000    0.000    0.000    0.000 
#    0.000    0.000    0.000    0.000    0.000    0.000 
#
# Total GULP energy -50522.138565 kJ/mol
# GULP energy per Si atom -5613.570952 kJ/mol
# Density = 2.624079 g / cm^3
# Si number density = 26.300651 Si / 1000 Ang^3
#
#
#
# Elastic Constant Matrix: (Units=GPa)
#
#
# Indices 1 2 3 4 5 6 
#
# 1 221.1395 105.6337 55.8491 0.0000 -25.2080 0.0000
# 2 105.6337 191.6535 55.9157 0.0000 -16.0747 0.0000
# 3 55.8491 55.9157 179.3114 0.0000 -7.3009 0.0000
# 4 0.0000 0.0000 0.0000 31.3824 0.0000 -4.7057
# 5 -25.2080 -16.0747 -7.3009 0.0000 62.8923 0.0000
# 6 0.0000 0.0000 0.0000 -4.7057 0.0000 63.8953
#
#
#
# Elastic Compliance Matrix: (Units=1/GPa)
#
#
# Indices 1 2 3 4 5 6 
#
# 1 0.006454 -0.003136 -0.000964 0.000000 0.001674 0.000000
# 2 -0.003136 0.007365 -0.001301 0.000000 0.000475 0.000000
# 3 -0.000964 -0.001301 0.006283 0.000000 0.000010 0.000000
# 4 0.000000 0.000000 0.000000 0.032221 0.000000 0.002373
# 5 0.001674 0.000475 0.000010 0.000000 0.016693 0.000000
# 6 0.000000 0.000000 0.000000 0.002373 0.000000 0.015825
#
#
# Mechanical properties :
#
#
# Convention : Reuss Voigt Hill
#
# Bulk Modulus (GPa) = 107.51167 114.10016 110.80592
# Shear Modulus (GPa) = 50.63573 56.61438 53.62506
#
# Velocity S-wave (km/s) = 4.39254 4.64463 4.52034
# Velocity P-wave (km/s) = 8.16656 8.49945 8.33466
#
# Compressibility (1/GPa) = 0.00930132
#
# Stress axis : x y z
#
# Youngs Moduli (GPa) = 154.93866 135.77071 159.15204
#
# Poissons Ratio (x) = 0.42573 0.15347
# Poissons Ratio (y) = 0.48583 0.20703
# Poissons Ratio (z) = 0.14941 0.17661
#
# Static dielectric constant tensor:
#      x y z
#    x 2.088120 0.000000 0.080660 
#    y 0.000000 2.010750 0.000000 
#    z 0.080660 0.000000 2.052740 
# 
# From -- ./inp_files/9170.got.cif
#   From: 2010.05.17/outbox.cif.g08.bks.cpg/sg5_5_cif.got.tgz:9170.got - 2010.06.03 18:56:24.
