data_PCOD9128469
_publ_section_title
;
Structure prediction by ZEFSAII (Michael W. Deem and Ramdas Pophale) SiO2 
 PCOD9128469
Probable space group: C 2
;
_chemical_formula_sum "Si O2"
_cell_formula_units_Z 18
_cell_length_a 5.256176
_cell_length_b 25.799021
_cell_length_c 5.094281
_cell_angle_alpha 90.000000
_cell_angle_beta 88.313389
_cell_angle_gamma 90.000000
_cell_volume 690.506593
_symmetry_space_group_name_H-M "C 2"
_symmetry_group_IT_number 5
_symmetry_cell_setting 'monoclinic'
loop_
_space_group_symop_operation_xyz
x,y,z
-x,y,-z
1/2+x,1/2+y,z
1/2-x,1/2+y,-z
loop_
_atom_site_type_symbol
_atom_site_label
_atom_site_fract_x
_atom_site_fract_y
_atom_site_fract_z
Si Si1 0.256789 0.329970 0.316767
Si Si2 0.256141 0.553419 0.318886
Si Si3 0.828520 0.667868 0.762811
Si Si4 0.244944 0.943122 0.682862
Si Si5 0.500000 0.747654 0.000000
O O1 0.500000 0.323603 0.500000
O O2 0.263290 0.387121 0.182356
O O3 0.000000 0.328446 0.500000
O O4 0.215205 0.285521 0.106407
O O5 0.500000 0.553932 0.500000
O O6 0.256852 0.608658 0.178552
O O7 0.256324 0.498308 0.167481
O O8 0.000000 0.553346 0.500000
O O9 0.602084 0.708802 0.774316
O O10 0.000000 0.668988 0.500000
O O11 0.000000 0.683520 0.000000
O O12 0.500000 0.943147 0.500000
O O13 0.000000 0.943599 0.500000
#
# Coordination Sequence:
#
# PCOD9128469 Si02
#       5
#     4   4   4   4   2
#     4  10  24  44  71 104 145 195 250 310 378 446
#     4   9  19  39  70 102 142 185 240 305 375 444
#     4  11  29  49  73 109 151 198 255 310 379 448
#     4   8  15  35  66  99 136 183 236 302 371 442
#     4  12  30  44  74 108 154 198 260 308 376 456
#
# _framework density 26.067819
#
# number of rings (size 3 to 8) (size 9 to 14) (size 15 to 20)
#    0.000    2.222    0.000    0.000   12.444    0.000 
#    2.000    0.000    0.000    0.000    0.000    0.000 
#    0.000    0.000    0.000    0.000    0.000    0.000 
#
# Total GULP energy -50391.921543 kJ/mol
# GULP energy per Si atom -5599.102394 kJ/mol
# Density = 2.600849 g / cm^3
# Si number density = 26.067819 Si / 1000 Ang^3
#
#
#
# Elastic Constant Matrix: (Units=GPa)
#
#
# Indices 1 2 3 4 5 6 
#
# 1 192.7709 39.8520 42.4084 0.0000 -0.3619 0.0000
# 2 39.8520 306.9770 40.7200 0.0000 3.5001 0.0000
# 3 42.4084 40.7200 78.0794 0.0000 -7.0820 0.0000
# 4 0.0000 0.0000 0.0000 16.7454 0.0000 35.2338
# 5 -0.3619 3.5001 -7.0820 0.0000 55.0637 0.0000
# 6 0.0000 0.0000 0.0000 35.2338 0.0000 -56.5721
#
#
#
# Elastic Compliance Matrix: (Units=1/GPa)
#
#
# Indices 1 2 3 4 5 6 
#
# 1 0.005936 -0.000360 -0.003066 0.000000 -0.000332 0.000000
# 2 -0.000360 0.003533 -0.001687 0.000000 -0.000444 0.000000
# 3 -0.003066 -0.001687 0.015542 0.000000 0.002086 0.000000
# 4 0.000000 0.000000 0.000000 0.025847 0.000000 0.016098
# 5 -0.000332 -0.000444 0.002086 0.000000 0.018455 0.000000
# 6 0.000000 0.000000 0.000000 0.016098 0.000000 -0.007651
#
#
# Mechanical properties :
#
#
# Convention : Reuss Voigt Hill
#
# Bulk Modulus (GPa) = 67.64241 91.53202 79.58721
# Shear Modulus (GPa) = 65.08875 33.37051 49.22963
#
# Velocity S-wave (km/s) = 5.00232 3.58179 4.35043
# Velocity P-wave (km/s) = 7.70514 7.23152 7.47208
#
# Compressibility (1/GPa) = 0.01478362
#
# Stress axis : x y z
#
# Youngs Moduli (GPa) = 168.46603 283.02947 64.34102
#
# Poissons Ratio (x) = 0.10191 0.19730
# Poissons Ratio (y) = 0.06066 0.10857
# Poissons Ratio (z) = 0.51659 0.47757
#
# Static dielectric constant tensor:
#      x y z
#    x 2.075000 0.000000 0.086780 
#    y 0.000000 2.092260 0.000000 
#    z 0.086780 0.000000 2.385550 
# 
# From -- ./inp_files/878.got.cif
#   From: 2010.05.17/outbox.cif.g08.bks.cpg/sg5_1_cif.got.tgz:878.got - 2010.06.03 18:56:24.
