data_PCOD9128747
_publ_section_title
;
Structure prediction by ZEFSAII (Michael W. Deem and Ramdas Pophale) SiO2 
 PCOD9128747
Probable space group: C 2
;
_chemical_formula_sum "Si O2"
_cell_formula_units_Z 24
_cell_length_a 13.953989
_cell_length_b 9.422521
_cell_length_c 7.502378
_cell_angle_alpha 90.000000
_cell_angle_beta 78.083144
_cell_angle_gamma 90.000000
_cell_volume 965.166647
_symmetry_space_group_name_H-M "C 2"
_symmetry_group_IT_number 5
_symmetry_cell_setting 'monoclinic'
loop_
_space_group_symop_operation_xyz
x,y,z
-x,y,-z
1/2+x,1/2+y,z
1/2-x,1/2+y,-z
loop_
_atom_site_type_symbol
_atom_site_label
_atom_site_fract_x
_atom_site_fract_y
_atom_site_fract_z
Si Si1 0.500000 0.868320 0.000000
Si Si2 0.500000 0.137887 0.500000
Si Si3 0.352910 0.632198 0.665013
Si Si4 0.187810 0.446602 0.321236
Si Si5 0.611964 0.322923 0.756763
Si Si6 0.059439 0.114773 0.735388
Si Si7 0.680223 0.076825 0.968897
O O1 0.454464 0.761064 0.160252
O O2 0.411331 0.972930 0.992537
O O3 0.595382 0.033429 0.438663
O O4 0.539065 0.238803 0.649199
O O5 0.456055 0.574305 0.686854
O O6 0.359926 0.635860 0.449757
O O7 0.263455 0.550170 0.788789
O O8 0.353200 0.795161 0.732834
O O9 0.284467 0.373519 0.376879
O O10 0.222045 0.553706 0.150451
O O11 0.578712 0.474676 0.838495
O O12 0.638401 0.225960 0.915381
#
# Coordination Sequence:
#
# PCOD9128747 Si02
#       7
#     2   2   4   4   4   4   4
#     4  12  26  46  82 110 160 220 278 346 428 514
#     4  12  26  54  82 120 176 218 292 360 436 520
#     4  10  24  49  77 108 165 209 284 343 418 506
#     4  11  26  49  78 119 162 229 278 353 424 522
#     4  11  29  49  78 126 164 219 282 363 430 511
#     4  11  25  48  75 119 156 211 278 351 420 502
#     4  11  26  50  73 120 160 225 275 348 423 519
#
# _framework density 24.866173
#
# number of rings (size 3 to 8) (size 9 to 14) (size 15 to 20)
#    0.000    1.000    1.667    3.000    9.333    3.333 
#   15.000    0.000    0.000    0.000    0.000    0.000 
#    0.000    0.000    0.000    0.000    0.000    0.000 
#
# Total GULP energy -66858.141870 kJ/mol
# GULP energy per Si atom -5571.511822 kJ/mol
# Density = 2.480958 g / cm^3
# Si number density = 24.866173 Si / 1000 Ang^3
#
#
#
# Elastic Constant Matrix: (Units=GPa)
#
#
# Indices 1 2 3 4 5 6 
#
# 1 83.8526 48.5880 16.3070 0.0000 -12.4899 0.0000
# 2 48.5880 128.8009 27.7862 0.0000 4.2031 0.0000
# 3 16.3070 27.7862 90.7509 0.0000 -22.9911 0.0000
# 4 0.0000 0.0000 0.0000 36.9812 0.0000 1.3235
# 5 -12.4899 4.2031 -22.9911 0.0000 42.3897 0.0000
# 6 0.0000 0.0000 0.0000 1.3235 0.0000 38.9868
#
#
#
# Elastic Compliance Matrix: (Units=1/GPa)
#
#
# Indices 1 2 3 4 5 6 
#
# 1 0.016455 -0.006502 0.000493 0.000000 0.005761 0.000000
# 2 -0.006502 0.011128 -0.003482 0.000000 -0.004908 0.000000
# 3 0.000493 -0.003482 0.014052 0.000000 0.008112 0.000000
# 4 0.000000 0.000000 0.000000 0.027074 0.000000 -0.000919
# 5 0.005761 -0.004908 0.008112 0.000000 0.030174 0.000000
# 6 0.000000 0.000000 0.000000 -0.000919 0.000000 0.025681
#
#
# Mechanical properties :
#
#
# Convention : Reuss Voigt Hill
#
# Bulk Modulus (GPa) = 44.14308 54.30742 49.22525
# Shear Modulus (GPa) = 33.09136 37.71977 35.40556
#
# Velocity S-wave (km/s) = 3.65194 3.89898 3.77748
# Velocity P-wave (km/s) = 5.96431 6.49282 6.23417
#
# Compressibility (1/GPa) = 0.02265361
#
# Stress axis : x y z
#
# Youngs Moduli (GPa) = 60.77066 89.86316 71.16514
#
# Poissons Ratio (x) = 0.58428 -0.03511
# Poissons Ratio (y) = 0.39513 0.24781
# Poissons Ratio (z) = -0.02998 0.31292
#
# Static dielectric constant tensor:
#      x y z
#    x 2.179620 0.000000 0.100860 
#    y 0.000000 1.930150 0.000000 
#    z 0.100860 0.000000 2.096480 
# 
# From -- ./inp_files/22817.got.cif
#   From: 2010.05.17/outbox.cif.g08.bks.cpg/sg5_12_cif.got.tgz:22817.got - 2010.06.03 18:56:24.
