data_PCOD9128997
_publ_section_title
;
Structure prediction by ZEFSAII (Michael W. Deem and Ramdas Pophale) SiO2 
 PCOD9128997
Probable space group: C 2
;
_chemical_formula_sum "Si O2"
_cell_formula_units_Z 30
_cell_length_a 18.377129
_cell_length_b 5.406248
_cell_length_c 13.612079
_cell_angle_alpha 90.000000
_cell_angle_beta 109.507629
_cell_angle_gamma 90.000000
_cell_volume 1274.747470
_symmetry_space_group_name_H-M "C 2"
_symmetry_group_IT_number 5
_symmetry_cell_setting 'monoclinic'
loop_
_space_group_symop_operation_xyz
x,y,z
-x,y,-z
1/2+x,1/2+y,z
1/2-x,1/2+y,-z
loop_
_atom_site_type_symbol
_atom_site_label
_atom_site_fract_x
_atom_site_fract_y
_atom_site_fract_z
Si Si1 0.208012 0.609600 0.448551
Si Si2 0.284014 0.563795 0.134812
Si Si3 0.070026 0.122347 0.225579
Si Si4 0.959667 0.625152 0.666038
Si Si5 0.631194 0.172182 0.723384
Si Si6 0.000000 0.315969 0.000000
Si Si7 0.728681 0.391661 0.267031
Si Si8 0.640445 0.928673 0.943372
O O1 0.245443 0.344263 0.486555
O O2 0.117521 0.625320 0.434364
O O3 0.209997 0.673785 0.333711
O O4 0.234222 0.787495 0.159633
O O5 0.354995 0.654103 0.100187
O O6 0.324549 0.430582 0.244830
O O7 0.220395 0.434051 0.039546
O O8 0.044720 0.869288 0.267092
O O9 0.162165 0.092735 0.252952
O O10 0.046180 0.366763 0.276084
O O11 0.034713 0.153466 0.102613
O O12 0.042937 0.650038 0.653390
O O13 0.686811 0.006457 0.681854
O O14 0.634845 0.088425 0.841226
O O15 0.069186 0.470819 0.982561
#
# Coordination Sequence:
#
# PCOD9128997 Si02
#       8
#     4   4   4   4   4   2   4   4
#     4  11  25  49  80 103 133 169 230 291 368 444
#     4  11  23  40  64  93 143 192 240 275 342 403
#     4  11  25  42  65 102 140 189 236 280 336 410
#     4  11  25  47  71 101 139 180 226 291 360 409
#     4  11  23  42  67  95 145 182 235 279 342 405
#     4  12  24  36  62  98 146 180 250 282 334 376
#     4  10  26  42  72  98 134 186 232 287 355 427
#     4  11  23  38  57  97 136 192 234 285 314 397
#
# _framework density 23.534071000000001
#
# number of rings (size 3 to 8) (size 9 to 14) (size 15 to 20)
#    0.000    1.067    2.667    3.200   13.067    1.600 
#    0.000    0.667    0.000    0.000    0.000    0.000 
#    0.000    0.000    0.000    0.000    0.000    0.000 
#
# Total GULP energy -83785.152527 kJ/mol
# GULP energy per Si atom -5585.676835 kJ/mol
# Density = 2.348051 g / cm^3
# Si number density = 23.534071 Si / 1000 Ang^3
#
#
#
# Elastic Constant Matrix: (Units=GPa)
#
#
# Indices 1 2 3 4 5 6 
#
# 1 151.6877 18.9074 0.5459 0.0000 18.8186 0.0000
# 2 18.9074 98.4626 10.1861 0.0000 5.5021 0.0000
# 3 0.5459 10.1861 47.0754 0.0000 19.7366 0.0000
# 4 0.0000 0.0000 0.0000 22.3786 0.0000 -7.1776
# 5 18.8186 5.5021 19.7366 0.0000 38.0125 0.0000
# 6 0.0000 0.0000 0.0000 -7.1776 0.0000 24.9507
#
#
#
# Elastic Compliance Matrix: (Units=1/GPa)
#
#
# Indices 1 2 3 4 5 6 
#
# 1 0.007316 -0.001370 0.002105 0.000000 -0.004517 0.000000
# 2 -0.001370 0.010651 -0.002463 0.000000 0.000416 0.000000
# 3 0.002105 -0.002463 0.028171 0.000000 -0.015312 0.000000
# 4 0.000000 0.000000 0.000000 0.049228 0.000000 0.014161
# 5 -0.004517 0.000416 -0.015312 0.000000 0.036433 0.000000
# 6 0.000000 0.000000 0.000000 0.014161 0.000000 0.044153
#
#
# Mechanical properties :
#
#
# Convention : Reuss Voigt Hill
#
# Bulk Modulus (GPa) = 23.42913 39.61163 31.52038
# Shear Modulus (GPa) = 25.82182 34.90744 30.36463
#
# Velocity S-wave (km/s) = 3.31601 3.85551 3.59589
# Velocity P-wave (km/s) = 4.96369 6.05707 5.53743
#
# Compressibility (1/GPa) = 0.04268192
#
# Stress axis : x y z
#
# Youngs Moduli (GPa) = 136.68556 93.88930 35.49770
#
# Poissons Ratio (x) = 0.12865 -0.07473
# Poissons Ratio (y) = 0.18730 0.08743
# Poissons Ratio (z) = -0.28776 0.23124
#
# Static dielectric constant tensor:
#      x y z
#    x 1.880600 0.000000 0.032140 
#    y 0.000000 1.973740 0.000000 
#    z 0.032140 0.000000 1.908970 
# 
# From -- ./inp_files/55445.got.cif
#   From: 2010.05.17/outbox.cif.g08.bks.cpg/sg5_28_cif.got.tgz:55445.got - 2010.06.03 18:56:24.
