data_PCOD9128676
_publ_section_title
;
Structure prediction by ZEFSAII (Michael W. Deem and Ramdas Pophale) SiO2 
 PCOD9128676
Probable space group: C 2
;
_chemical_formula_sum "Si O2"
_cell_formula_units_Z 16
_cell_length_a 9.295450
_cell_length_b 9.692018
_cell_length_c 7.188196
_cell_angle_alpha 90.000000
_cell_angle_beta 55.790684
_cell_angle_gamma 90.000000
_cell_volume 535.555353
_symmetry_space_group_name_H-M "C 2"
_symmetry_group_IT_number 5
_symmetry_cell_setting 'monoclinic'
loop_
_space_group_symop_operation_xyz
x,y,z
-x,y,-z
1/2+x,1/2+y,z
1/2-x,1/2+y,-z
loop_
_atom_site_type_symbol
_atom_site_label
_atom_site_fract_x
_atom_site_fract_y
_atom_site_fract_z
Si Si1 0.227414 0.246560 0.524334
Si Si2 0.384447 0.854655 0.803026
Si Si3 0.829563 0.623742 0.992480
Si Si4 0.028912 0.973909 0.751398
O O1 0.168613 0.288963 0.355907
O O2 0.404898 0.332284 0.392090
O O3 0.071316 0.318828 0.748319
O O4 0.182583 0.086964 0.595299
O O5 0.239986 0.770683 0.024066
O O6 0.382615 0.017734 0.794508
O O7 0.651012 0.544250 0.188895
O O8 0.000000 0.632228 0.000000
O O9 0.000000 0.962827 0.000000
#
# Coordination Sequence:
#
# PCOD9128676 Si02
#       4
#     4   4   4   4
#     4  10  24  47  77 114 158 209 269 327 397 477
#     4  10  24  47  75 112 163 205 266 331 391 480
#     4  11  26  46  81 116 161 217 262 331 411 473
#     4  11  24  50  85 115 163 212 267 335 403 477
#
# _framework density 29.875530000000001
#
# number of rings (size 3 to 8) (size 9 to 14) (size 15 to 20)
#    0.000    1.500    2.500    0.000    7.000    4.000 
#    0.000    0.000   16.500    0.000    0.000    0.000 
#    0.000    0.000    0.000    0.000    0.000    0.000 
#
# Total GULP energy -44645.502541 kJ/mol
# GULP energy per Si atom -5580.687818 kJ/mol
# Density = 2.980753 g / cm^3
# Si number density = 29.875530 Si / 1000 Ang^3
#
#
#
# Elastic Constant Matrix: (Units=GPa)
#
#
# Indices 1 2 3 4 5 6 
#
# 1 231.7857 41.9133 86.0057 0.0000 -24.9122 0.0000
# 2 41.9133 145.7103 73.4141 0.0000 13.9697 0.0000
# 3 86.0057 73.4141 146.2182 0.0000 -30.4439 0.0000
# 4 0.0000 0.0000 0.0000 62.1195 0.0000 -17.0952
# 5 -24.9122 13.9697 -30.4439 0.0000 77.4389 0.0000
# 6 0.0000 0.0000 0.0000 -17.0952 0.0000 42.5192
#
#
#
# Elastic Compliance Matrix: (Units=1/GPa)
#
#
# Indices 1 2 3 4 5 6 
#
# 1 0.005541 -0.000092 -0.003091 0.000000 0.000584 0.000000
# 2 -0.000092 0.010331 -0.006020 0.000000 -0.004260 0.000000
# 3 -0.003091 -0.006020 0.012742 0.000000 0.005101 0.000000
# 4 0.000000 0.000000 0.000000 0.018101 0.000000 0.007278
# 5 0.000584 -0.004260 0.005101 0.000000 0.015875 0.000000
# 6 0.000000 0.000000 0.000000 0.007278 0.000000 0.026445
#
#
# Mechanical properties :
#
#
# Convention : Reuss Voigt Hill
#
# Bulk Modulus (GPa) = 97.97107 102.93117 100.45112
# Shear Modulus (GPa) = 45.10918 57.90761 51.50839
#
# Velocity S-wave (km/s) = 3.88996 4.40738 4.15673
# Velocity P-wave (km/s) = 7.28286 7.77356 7.53220
#
# Compressibility (1/GPa) = 0.01020710
#
# Stress axis : x y z
#
# Youngs Moduli (GPa) = 180.48006 96.79825 78.48274
#
# Poissons Ratio (x) = 0.00894 0.24260
# Poissons Ratio (y) = 0.01667 0.47243
# Poissons Ratio (z) = 0.55789 0.58268
#
# Static dielectric constant tensor:
#      x y z
#    x 2.288260 0.000000 -0.137760 
#    y 0.000000 2.409710 0.000000 
#    z -0.137760 0.000000 3.260790 
# 
# From -- ./inp_files/18892.got.cif
#   From: 2010.05.17/outbox.cif.g08.bks.cpg/sg5_10_cif.got.tgz:18892.got - 2010.06.03 18:56:24.
