data_PCOD9128621
_publ_section_title
;
Structure prediction by ZEFSAII (Michael W. Deem and Ramdas Pophale) SiO2 
 PCOD9128621
Probable space group: C 2
;
_chemical_formula_sum "Si O2"
_cell_formula_units_Z 18
_cell_length_a 11.710377
_cell_length_b 9.129958
_cell_length_c 7.628855
_cell_angle_alpha 90.000000
_cell_angle_beta 74.104818
_cell_angle_gamma 90.000000
_cell_volume 784.454374
_symmetry_space_group_name_H-M "C 2"
_symmetry_group_IT_number 5
_symmetry_cell_setting 'monoclinic'
loop_
_space_group_symop_operation_xyz
x,y,z
-x,y,-z
1/2+x,1/2+y,z
1/2-x,1/2+y,-z
loop_
_atom_site_type_symbol
_atom_site_label
_atom_site_fract_x
_atom_site_fract_y
_atom_site_fract_z
Si Si1 0.868639 0.690710 0.119473
Si Si2 0.246184 0.997034 0.899278
Si Si3 0.500000 0.669100 0.000000
Si Si4 0.590971 0.778904 0.608201
Si Si5 0.218233 0.560283 0.505564
O O1 0.862627 0.653639 0.328057
O O2 0.779546 0.825018 0.113925
O O3 0.823786 0.549754 0.029397
O O4 0.000000 0.728174 0.000000
O O5 0.301534 0.060779 0.695275
O O6 0.116715 0.070573 0.974740
O O7 0.475897 0.763837 0.181815
O O8 0.500000 0.830136 0.500000
O O9 0.649390 0.624441 0.529547
O O10 0.697844 0.893957 0.573111
#
# Coordination Sequence:
#
# PCOD9128621 Si02
#       5
#     4   4   2   4   4
#     4  12  28  46  72 104 140 185 236 284 346 415
#     4  11  26  49  71 103 142 184 232 289 348 410
#     4  10  24  46  74 100 142 182 230 290 348 404
#     4  11  25  46  70 100 139 182 228 286 346 406
#     4  11  26  46  70 104 141 178 237 283 341 417
#
# _framework density 22.945885000000001
#
# number of rings (size 3 to 8) (size 9 to 14) (size 15 to 20)
#    0.000    0.889    3.333    1.333   10.889    0.000 
#    0.000    1.111    0.000    0.000    0.000    0.000 
#    0.000    0.000    0.000    0.000    0.000    0.000 
#
# Total GULP energy -50348.601980 kJ/mol
# GULP energy per Si atom -5594.289109 kJ/mol
# Density = 2.289366 g / cm^3
# Si number density = 22.945885 Si / 1000 Ang^3
#
#
#
# Elastic Constant Matrix: (Units=GPa)
#
#
# Indices 1 2 3 4 5 6 
#
# 1 53.5006 33.4760 34.2493 0.0000 -7.9622 0.0000
# 2 33.4760 107.4050 50.3444 0.0000 -1.1354 0.0000
# 3 34.2493 50.3444 191.2527 0.0000 -16.5902 0.0000
# 4 0.0000 0.0000 0.0000 22.5330 0.0000 -11.1652
# 5 -7.9622 -1.1354 -16.5902 0.0000 18.3152 0.0000
# 6 0.0000 0.0000 0.0000 -11.1652 0.0000 29.9703
#
#
#
# Elastic Compliance Matrix: (Units=1/GPa)
#
#
# Indices 1 2 3 4 5 6 
#
# 1 0.025651 -0.006970 -0.001985 0.000000 0.008921 0.000000
# 2 -0.006970 0.012585 -0.002453 0.000000 -0.004472 0.000000
# 3 -0.001985 -0.002453 0.006665 0.000000 0.005023 0.000000
# 4 0.000000 0.000000 0.000000 0.054426 0.000000 0.020276
# 5 0.008921 -0.004472 0.005023 0.000000 0.062750 0.000000
# 6 0.000000 0.000000 0.000000 0.020276 0.000000 0.040920
#
#
# Mechanical properties :
#
#
# Convention : Reuss Voigt Hill
#
# Bulk Modulus (GPa) = 45.27649 65.36641 55.32145
# Shear Modulus (GPa) = 21.44301 29.76961 25.60631
#
# Velocity S-wave (km/s) = 3.06028 3.60583 3.34420
# Velocity P-wave (km/s) = 5.67995 6.77385 6.25087
#
# Compressibility (1/GPa) = 0.02208652
#
# Stress axis : x y z
#
# Youngs Moduli (GPa) = 38.98470 79.45733 150.02769
#
# Poissons Ratio (x) = 0.55384 0.29779
# Poissons Ratio (y) = 0.27173 0.36795
# Poissons Ratio (z) = 0.07738 0.19488
#
# Static dielectric constant tensor:
#      x y z
#    x 1.798460 0.000000 -0.003510 
#    y 0.000000 1.867250 0.000000 
#    z -0.003510 0.000000 1.837550 
# 
# From -- ./inp_files/18225.got.cif
#   From: 2010.05.17/outbox.cif.g08.bks.cpg/sg5_10_cif.got.tgz:18225.got - 2010.06.03 18:56:24.
