data_PCOD9128579
_publ_section_title
;
Structure prediction by ZEFSAII (Michael W. Deem and Ramdas Pophale) SiO2 
 PCOD9128579
Probable space group: C 2
;
_chemical_formula_sum "Si O2"
_cell_formula_units_Z 24
_cell_length_a 14.718639
_cell_length_b 10.133583
_cell_length_c 14.412669
_cell_angle_alpha 90.000000
_cell_angle_beta 152.152898
_cell_angle_gamma 90.000000
_cell_volume 1004.147901
_symmetry_space_group_name_H-M "C 2"
_symmetry_group_IT_number 5
_symmetry_cell_setting 'monoclinic'
loop_
_space_group_symop_operation_xyz
x,y,z
-x,y,-z
1/2+x,1/2+y,z
1/2-x,1/2+y,-z
loop_
_atom_site_type_symbol
_atom_site_label
_atom_site_fract_x
_atom_site_fract_y
_atom_site_fract_z
Si Si1 0.500000 0.453871 0.000000
Si Si2 0.426764 0.989299 0.341188
Si Si3 0.680022 0.242329 0.521368
Si Si4 0.397307 0.806456 0.136730
Si Si5 0.858127 0.490312 0.937104
Si Si6 0.501964 0.234613 0.159126
Si Si7 0.500000 0.454326 0.500000
O O1 0.700776 0.526548 0.155882
O O2 0.530809 0.356679 0.116118
O O3 0.500000 0.916459 0.500000
O O4 0.563968 0.114955 0.451836
O O5 0.446821 0.898358 0.269435
O O6 0.623781 0.253381 0.361820
O O7 0.610312 0.362051 0.523971
O O8 0.913118 0.234951 0.730785
O O9 0.222338 0.716507 0.011550
O O10 0.305719 0.901040 0.976650
O O11 0.661820 0.530456 0.706445
O O12 0.013241 0.600707 0.110929
O O13 0.000000 0.403771 0.000000
#
# Coordination Sequence:
#
# PCOD9128579 Si02
#       7
#     2   4   4   4   4   4   2
#     4  10  24  46  68  94 142 184 232 296 342 424
#     4  11  24  44  67 100 136 186 237 286 353 424
#     4  12  24  42  69 102 139 184 230 285 359 423
#     4  11  25  43  69 102 143 182 233 296 351 425
#     4  12  24  45  71 102 141 184 236 291 355 419
#     4  11  24  45  70 102 137 184 234 290 357 417
#     4  12  26  44  70 106 144 184 236 292 354 424
#
# _framework density 23.900860999999999
#
# number of rings (size 3 to 8) (size 9 to 14) (size 15 to 20)
#    0.000    0.667    6.667    1.000    0.000    4.000 
#    7.500    0.000    0.000    0.000    0.000    0.000 
#    0.000    0.000    0.000    0.000    0.000    0.000 
#
# Total GULP energy -67080.726678 kJ/mol
# GULP energy per Si atom -5590.060557 kJ/mol
# Density = 2.384646 g / cm^3
# Si number density = 23.900861 Si / 1000 Ang^3
#
#
#
# Elastic Constant Matrix: (Units=GPa)
#
#
# Indices 1 2 3 4 5 6 
#
# 1 112.4281 9.2387 47.0533 0.0004 4.3035 0.0001
# 2 9.2387 30.9466 18.7552 0.0002 8.9545 0.0001
# 3 47.0533 18.7552 128.0421 0.0005 -1.8785 0.0002
# 4 0.0004 0.0002 0.0005 22.3692 0.0003 5.8961
# 5 4.3035 8.9545 -1.8785 0.0003 77.2781 0.0001
# 6 0.0001 0.0001 0.0002 5.8961 0.0001 19.8918
#
#
#
# Elastic Compliance Matrix: (Units=1/GPa)
#
#
# Indices 1 2 3 4 5 6 
#
# 1 0.010560 -0.000682 -0.003789 0.000000 -0.000601 0.000000
# 2 -0.000682 0.036949 -0.005226 0.000000 -0.004370 0.000000
# 3 -0.003789 -0.005226 0.009983 0.000000 0.001059 0.000000
# 4 0.000000 0.000000 0.000000 0.048493 0.000000 -0.014374
# 5 -0.000601 -0.004370 0.001059 0.000000 0.013506 0.000000
# 6 0.000000 0.000000 0.000000 -0.014374 0.000000 0.054532
#
#
# Mechanical properties :
#
#
# Convention : Reuss Voigt Hill
#
# Bulk Modulus (GPa) = 26.24811 46.83456 36.54134
# Shear Modulus (GPa) = 24.25811 36.99912 30.62862
#
# Velocity S-wave (km/s) = 3.18928 3.93876 3.58367
# Velocity P-wave (km/s) = 4.95660 6.35004 5.69609
#
# Compressibility (1/GPa) = 0.03809798
#
# Stress axis : x y z
#
# Youngs Moduli (GPa) = 94.70095 27.06436 100.16578
#
# Poissons Ratio (x) = 0.01846 0.37957
# Poissons Ratio (y) = 0.06458 0.52343
# Poissons Ratio (z) = 0.35886 0.14143
#
# Static dielectric constant tensor:
#      x y z
#    x 1.939240 0.000000 -0.019920 
#    y 0.000000 1.867490 0.000000 
#    z -0.019920 0.000000 1.925660 
# 
# From -- ./inp_files/54518.got.cif
#   From: 2010.05.17/outbox.cif.g08.bks.cpg/sg5_28_cif.got.tgz:54518.got - 2010.06.03 18:56:24.
