data_PCOD9128897
_publ_section_title
;
Structure prediction by ZEFSAII (Michael W. Deem and Ramdas Pophale) SiO2 
 PCOD9128897
Probable space group: C 2
;
_chemical_formula_sum "Si O2"
_cell_formula_units_Z 26
_cell_length_a 14.432927
_cell_length_b 8.503437
_cell_length_c 18.666313
_cell_angle_alpha 90.000000
_cell_angle_beta 31.131823
_cell_angle_gamma 90.000000
_cell_volume 1184.419151
_symmetry_space_group_name_H-M "C 2"
_symmetry_group_IT_number 5
_symmetry_cell_setting 'monoclinic'
loop_
_space_group_symop_operation_xyz
x,y,z
-x,y,-z
1/2+x,1/2+y,z
1/2-x,1/2+y,-z
loop_
_atom_site_type_symbol
_atom_site_label
_atom_site_fract_x
_atom_site_fract_y
_atom_site_fract_z
Si Si1 0.315836 0.477270 0.423904
Si Si2 0.291210 0.439353 0.159049
Si Si3 0.500000 0.983410 0.000000
Si Si4 0.166949 0.759641 0.179493
Si Si5 0.803260 0.299640 0.627812
Si Si6 0.969087 0.322074 0.288595
Si Si7 0.009870 0.577597 0.154572
O O1 0.487014 0.359635 0.313159
O O2 0.201149 0.425987 0.431498
O O3 0.177005 0.440602 0.579207
O O4 0.388349 0.651211 0.359386
O O5 0.198469 0.607510 0.207366
O O6 0.266223 0.385402 0.256025
O O7 0.164768 0.325840 0.195791
O O8 0.500000 0.445454 0.000000
O O9 0.670376 0.873239 0.905623
O O10 0.502086 0.081234 0.923995
O O11 0.153324 0.681180 0.107254
O O12 0.671184 0.159039 0.700826
O O13 0.000000 0.232892 0.500000
O O14 0.006245 0.397761 0.185687
#
# Coordination Sequence:
#
# PCOD9128897 Si02
#       7
#     4   4   2   4   4   4   4
#     4  11  24  44  74 104 148 196 252 322 378 451
#     4  11  24  43  71 102 149 192 244 307 375 449
#     4  12  26  46  76 104 154 204 256 310 388 448
#     4  10  25  47  69 106 151 193 259 310 375 466
#     4  11  24  44  71 108 145 194 254 302 378 461
#     4  11  24  45  71 104 147 195 247 316 385 445
#     4  10  27  45  70 106 150 197 257 313 377 459
#
# _framework density 21.951687
#
# number of rings (size 3 to 8) (size 9 to 14) (size 15 to 20)
#    0.000    1.231    2.308    2.769    5.385    6.154 
#    0.000    0.769    0.000    0.000    0.000    0.000 
#    0.000    0.000    0.000    0.000    0.000    0.000 
#
# Total GULP energy -72494.822687 kJ/mol
# GULP energy per Si atom -5576.524822 kJ/mol
# Density = 2.190172 g / cm^3
# Si number density = 21.951687 Si / 1000 Ang^3
#
#
#
# Elastic Constant Matrix: (Units=GPa)
#
#
# Indices 1 2 3 4 5 6 
#
# 1 123.8409 37.7282 39.2675 0.0000 14.4201 0.0000
# 2 37.7282 107.1640 31.8282 0.0000 1.8476 0.0000
# 3 39.2675 31.8282 76.4332 0.0000 -6.3235 0.0000
# 4 0.0000 0.0000 0.0000 35.1225 0.0000 -1.3351
# 5 14.4201 1.8476 -6.3235 0.0000 46.2410 0.0000
# 6 0.0000 0.0000 0.0000 -1.3351 0.0000 23.6064
#
#
#
# Elastic Compliance Matrix: (Units=1/GPa)
#
#
# Indices 1 2 3 4 5 6 
#
# 1 0.010786 -0.002267 -0.004924 0.000000 -0.003946 0.000000
# 2 -0.002267 0.011175 -0.003507 0.000000 -0.000219 0.000000
# 3 -0.004924 -0.003507 0.017409 0.000000 0.004056 0.000000
# 4 0.000000 0.000000 0.000000 0.028533 0.000000 0.001614
# 5 -0.003946 -0.000219 0.004056 0.000000 0.023420 0.000000
# 6 0.000000 0.000000 0.000000 0.001614 0.000000 0.042453
#
#
# Mechanical properties :
#
#
# Convention : Reuss Voigt Hill
#
# Bulk Modulus (GPa) = 55.63435 58.34286 56.98861
# Shear Modulus (GPa) = 31.02445 34.23493 32.62969
#
# Velocity S-wave (km/s) = 3.76347 3.95341 3.85961
# Velocity P-wave (km/s) = 6.65462 6.89020 6.77343
#
# Compressibility (1/GPa) = 0.01797451
#
# Stress axis : x y z
#
# Youngs Moduli (GPa) = 92.70998 89.48587 57.44176
#
# Poissons Ratio (x) = 0.20286 0.28284
# Poissons Ratio (y) = 0.21017 0.20144
# Poissons Ratio (z) = 0.45650 0.31382
#
# Static dielectric constant tensor:
#      x y z
#    x 1.794420 0.000000 -0.016650 
#    y 0.000000 1.848920 0.000000 
#    z -0.016650 0.000000 1.781460 
# 
# From -- ./inp_files/65857.got.cif
#   From: 2010.05.17/outbox.cif.g08.bks.cpg/sg5_33_cif.got.tgz:65857.got - 2010.06.03 18:56:24.
