data_PCOD9128696
_publ_section_title
;
Structure prediction by ZEFSAII (Michael W. Deem and Ramdas Pophale) SiO2 
 PCOD9128696
Probable space group: C 2
;
_chemical_formula_sum "Si O2"
_cell_formula_units_Z 22
_cell_length_a 10.089689
_cell_length_b 11.810813
_cell_length_c 12.638147
_cell_angle_alpha 90.000000
_cell_angle_beta 145.564299
_cell_angle_gamma 90.000000
_cell_volume 851.645802
_symmetry_space_group_name_H-M "C 2"
_symmetry_group_IT_number 5
_symmetry_cell_setting 'monoclinic'
loop_
_space_group_symop_operation_xyz
x,y,z
-x,y,-z
1/2+x,1/2+y,z
1/2-x,1/2+y,-z
loop_
_atom_site_type_symbol
_atom_site_label
_atom_site_fract_x
_atom_site_fract_y
_atom_site_fract_z
Si Si1 0.274593 0.506720 0.196602
Si Si2 0.188932 0.331049 0.314841
Si Si3 0.139370 0.152205 0.933917
Si Si4 0.260617 0.433815 0.866988
Si Si5 0.500000 0.897718 0.500000
Si Si6 0.950872 0.792722 0.695768
O O1 0.273400 0.446919 0.312923
O O2 0.394672 0.405872 0.210469
O O3 0.376983 0.617570 0.202908
O O4 0.000000 0.518814 0.000000
O O5 0.369220 0.279974 0.519286
O O6 0.943866 0.365832 0.209659
O O7 0.081936 0.228797 0.175751
O O8 0.147630 0.036165 0.003373
O O9 0.387143 0.206433 0.134173
O O10 0.122546 0.470831 0.670903
O O11 0.500000 0.365668 0.000000
O O12 0.708360 0.819127 0.594455
#
# Coordination Sequence:
#
# PCOD9128696 Si02
#       6
#     4   4   4   4   2   4
#     4  12  24  49  76 110 157 199 254 320 387 455
#     4  11  26  50  71 111 152 197 250 319 383 453
#     4  12  25  44  77 110 142 203 250 308 383 459
#     4  11  24  44  71 101 147 189 247 306 376 454
#     4  10  24  48  70 100 148 194 242 318 376 446
#     4  11  26  49  73 107 155 194 252 323 378 462
#
# _framework density 25.832336000000002
#
# number of rings (size 3 to 8) (size 9 to 14) (size 15 to 20)
#    0.000    0.727    3.636    2.727    2.545    8.000 
#    3.273    0.000    0.000    0.000    0.000    0.000 
#    0.000    0.000    0.000    0.000    0.000    0.000 
#
# Total GULP energy -61366.983468 kJ/mol
# GULP energy per Si atom -5578.816679 kJ/mol
# Density = 2.577354 g / cm^3
# Si number density = 25.832336 Si / 1000 Ang^3
#
#
#
# Elastic Constant Matrix: (Units=GPa)
#
#
# Indices 1 2 3 4 5 6 
#
# 1 103.3870 29.3425 23.5011 0.0013 7.2510 -0.0003
# 2 29.3425 73.9795 41.2968 0.0015 -12.0223 0.0001
# 3 23.5011 41.2968 131.5494 0.0051 -23.5133 0.0006
# 4 0.0013 0.0015 0.0051 30.6038 0.0027 -0.3478
# 5 7.2510 -12.0223 -23.5133 0.0027 47.3552 -0.0001
# 6 -0.0003 0.0001 0.0006 -0.3478 -0.0001 17.6588
#
#
#
# Elastic Compliance Matrix: (Units=1/GPa)
#
#
# Indices 1 2 3 4 5 6 
#
# 1 0.011460 -0.004393 -0.001296 0.000000 -0.003514 0.000000
# 2 -0.004393 0.018208 -0.004373 0.000000 0.003124 0.000000
# 3 -0.001296 -0.004373 0.009924 -0.000002 0.004016 0.000000
# 4 0.000000 0.000000 -0.000002 0.032683 -0.000003 0.000644
# 5 -0.003514 0.003124 0.004016 -0.000003 0.024442 0.000000
# 6 0.000000 0.000000 0.000000 0.000644 0.000000 0.056642
#
#
# Mechanical properties :
#
#
# Convention : Reuss Voigt Hill
#
# Bulk Modulus (GPa) = 51.36582 55.24407 53.30494
# Shear Modulus (GPa) = 27.78198 33.44192 30.61195
#
# Velocity S-wave (km/s) = 3.28300 3.60193 3.44615
# Velocity P-wave (km/s) = 5.85647 6.22339 6.04271
#
# Compressibility (1/GPa) = 0.01946820
#
# Stress axis : x y z
#
# Youngs Moduli (GPa) = 87.25815 54.91999 100.76712
#
# Poissons Ratio (x) = 0.24125 0.13063
# Poissons Ratio (y) = 0.38331 0.44065
# Poissons Ratio (z) = 0.11312 0.24016
#
# Static dielectric constant tensor:
#      x y z
#    x 2.295350 0.000000 -0.087650 
#    y 0.000000 2.082550 0.000000 
#    z -0.087650 0.000000 2.047230 
# 
# From -- ./inp_files/52907.got.cif
#   From: 2010.05.17/outbox.cif.g08.bks.cpg/sg5_27_cif.got.tgz:52907.got - 2010.06.03 18:56:24.
