data_PCOD9128780
_publ_section_title
;
Structure prediction by ZEFSAII (Michael W. Deem and Ramdas Pophale) SiO2 
 PCOD9128780
Probable space group: C 2
;
_chemical_formula_sum "Si O2"
_cell_formula_units_Z 28
_cell_length_a 11.680055
_cell_length_b 8.634523
_cell_length_c 13.200440
_cell_angle_alpha 90.000000
_cell_angle_beta 79.965751
_cell_angle_gamma 90.000000
_cell_volume 1310.923201
_symmetry_space_group_name_H-M "C 2"
_symmetry_group_IT_number 5
_symmetry_cell_setting 'monoclinic'
loop_
_space_group_symop_operation_xyz
x,y,z
-x,y,-z
1/2+x,1/2+y,z
1/2-x,1/2+y,-z
loop_
_atom_site_type_symbol
_atom_site_label
_atom_site_fract_x
_atom_site_fract_y
_atom_site_fract_z
Si Si1 0.500000 0.581890 0.500000
Si Si2 0.149729 0.287852 0.220194
Si Si3 0.679860 0.795454 0.985233
Si Si4 0.500000 0.048488 0.000000
Si Si5 0.421787 0.317171 0.875432
Si Si6 0.824697 0.953360 0.687431
Si Si7 0.901707 0.273681 0.340936
Si Si8 0.143752 0.030210 0.828370
O O1 0.423762 0.478276 0.587674
O O2 0.416079 0.694765 0.448178
O O3 0.249392 0.416155 0.210485
O O4 0.028972 0.338308 0.290555
O O5 0.188791 0.124422 0.261863
O O6 0.131328 0.260255 0.103420
O O7 0.813594 0.846058 0.966890
O O8 0.671235 0.649627 0.913694
O O9 0.606369 0.938343 0.954802
O O10 0.532908 0.152035 0.091761
O O11 0.369785 0.340168 0.770679
O O12 0.528206 0.433299 0.868769
O O13 0.705264 0.889606 0.658739
O O14 0.881086 0.133452 0.266092
#
# Coordination Sequence:
#
# PCOD9128780 Si02
#       8
#     2   4   4   2   4   4   4   4
#     4  10  24  52  78 106 138 186 238 320 386 428
#     4  11  27  43  73 106 150 196 241 295 358 437
#     4  12  28  43  66 109 151 207 240 295 345 435
#     4  12  30  40  68 102 158 202 258 284 352 426
#     4  12  27  44  68 109 144 201 248 293 354 436
#     4  11  26  51  76 106 147 187 245 312 372 444
#     4  11  25  50  75 106 142 184 243 310 375 443
#     4  12  26  44  72 104 149 194 248 296 359 426
#
# _framework density 21.358993000000002
#
# number of rings (size 3 to 8) (size 9 to 14) (size 15 to 20)
#    0.000    0.571    4.286    2.571    8.000    4.571 
#    0.000    0.000    0.000    0.000    0.000    0.000 
#    0.000    0.000    0.000    0.000    0.000    0.000 
#
# Total GULP energy -78408.130436 kJ/mol
# GULP energy per Si atom -5600.580745 kJ/mol
# Density = 2.131038 g / cm^3
# Si number density = 21.358993 Si / 1000 Ang^3
#
#
#
# Elastic Constant Matrix: (Units=GPa)
#
#
# Indices 1 2 3 4 5 6 
#
# 1 133.7738 62.8759 16.7772 0.0000 -13.0369 0.0000
# 2 62.8759 114.6281 24.4792 0.0000 -14.7999 0.0000
# 3 16.7772 24.4792 81.2572 0.0000 -6.7285 0.0000
# 4 0.0000 0.0000 0.0000 31.1973 0.0000 7.1494
# 5 -13.0369 -14.7999 -6.7285 0.0000 31.9716 0.0000
# 6 0.0000 0.0000 0.0000 7.1494 0.0000 52.3241
#
#
#
# Elastic Compliance Matrix: (Units=1/GPa)
#
#
# Indices 1 2 3 4 5 6 
#
# 1 0.010165 -0.005287 -0.000372 0.000000 0.001619 0.000000
# 2 -0.005287 0.012548 -0.002428 0.000000 0.003142 0.000000
# 3 -0.000372 -0.002428 0.013240 0.000000 0.001511 0.000000
# 4 0.000000 0.000000 0.000000 0.033090 0.000000 -0.004521
# 5 0.001619 0.003142 0.001511 0.000000 0.033710 0.000000
# 6 0.000000 0.000000 0.000000 -0.004521 0.000000 0.019729
#
#
# Mechanical properties :
#
#
# Convention : Reuss Voigt Hill
#
# Bulk Modulus (GPa) = 50.56087 59.76930 55.16508
# Shear Modulus (GPa) = 34.42332 38.13374 36.27853
#
# Velocity S-wave (km/s) = 4.01890 4.22995 4.12577
# Velocity P-wave (km/s) = 6.72746 7.20421 6.96991
#
# Compressibility (1/GPa) = 0.01977814
#
# Stress axis : x y z
#
# Youngs Moduli (GPa) = 98.37906 79.69287 75.52841
#
# Poissons Ratio (x) = 0.42135 0.02809
# Poissons Ratio (y) = 0.52014 0.18342
# Poissons Ratio (z) = 0.03659 0.19353
#
# Static dielectric constant tensor:
#      x y z
#    x 1.813100 0.000000 0.006020 
#    y 0.000000 1.769480 0.000000 
#    z 0.006020 0.000000 1.762880 
# 
# From -- ./inp_files/52257.got.cif
#   From: 2010.05.17/outbox.cif.g08.bks.cpg/sg5_27_cif.got.tgz:52257.got - 2010.06.03 18:56:24.
