data_PCOD9128884
_publ_section_title
;
Structure prediction by ZEFSAII (Michael W. Deem and Ramdas Pophale) SiO2 
 PCOD9128884
Probable space group: C 2
;
_chemical_formula_sum "Si O2"
_cell_formula_units_Z 20
_cell_length_a 8.004708
_cell_length_b 11.110659
_cell_length_c 10.762150
_cell_angle_alpha 90.000000
_cell_angle_beta 123.091827
_cell_angle_gamma 90.000000
_cell_volume 801.905055
_symmetry_space_group_name_H-M "C 2"
_symmetry_group_IT_number 5
_symmetry_cell_setting 'monoclinic'
loop_
_space_group_symop_operation_xyz
x,y,z
-x,y,-z
1/2+x,1/2+y,z
1/2-x,1/2+y,-z
loop_
_atom_site_type_symbol
_atom_site_label
_atom_site_fract_x
_atom_site_fract_y
_atom_site_fract_z
Si Si1 0.617264 0.665990 0.859116
Si Si2 0.154152 0.737246 0.446254
Si Si3 0.827329 0.017569 0.355780
Si Si4 0.808747 0.645491 0.193279
Si Si5 0.013321 0.393269 0.698801
O O1 0.606187 0.570080 0.745956
O O2 0.396240 0.680915 0.824741
O O3 0.660592 0.791347 0.806452
O O4 0.761122 0.629876 0.028724
O O5 0.266498 0.620306 0.432441
O O6 0.339697 0.830316 0.541115
O O7 0.000000 0.710192 0.500000
O O8 0.978291 0.748532 0.273103
O O9 0.000000 0.948467 0.500000
O O10 0.633144 0.940095 0.252710
O O11 0.873664 0.517743 0.283483
#
# Coordination Sequence:
#
# PCOD9128884 Si02
#       5
#     4   4   4   4   4
#     4  11  24  50  69 106 147 178 240 296 346 428
#     4  11  21  46  69 104 141 182 236 294 340 421
#     4  11  23  43  71 107 138 183 238 287 346 433
#     4  10  25  46  74 104 145 185 234 294 352 424
#     4  11  24  45  71 101 137 196 224 288 367 394
#
# _framework density 24.940611000000001
#
# number of rings (size 3 to 8) (size 9 to 14) (size 15 to 20)
#    0.000    1.200    4.000    0.600    0.000    6.400 
#   25.200    6.000    0.000    0.000    0.000    0.000 
#    0.000    0.000    0.000    0.000    0.000    0.000 
#
# Total GULP energy -55700.295570 kJ/mol
# GULP energy per Si atom -5570.029557 kJ/mol
# Density = 2.488384 g / cm^3
# Si number density = 24.940611 Si / 1000 Ang^3
#
#
#
# Elastic Constant Matrix: (Units=GPa)
#
#
# Indices 1 2 3 4 5 6 
#
# 1 71.9954 6.7322 34.3769 0.0000 -6.4350 0.0000
# 2 6.7322 110.7720 46.9351 0.0000 -1.1042 0.0000
# 3 34.3769 46.9351 135.4902 0.0000 3.7964 0.0000
# 4 0.0000 0.0000 0.0000 18.4809 0.0000 18.1893
# 5 -6.4350 -1.1042 3.7964 0.0000 27.7726 0.0000
# 6 0.0000 0.0000 0.0000 18.1893 0.0000 30.4183
#
#
#
# Elastic Compliance Matrix: (Units=1/GPa)
#
#
# Indices 1 2 3 4 5 6 
#
# 1 0.016411 0.001013 -0.004640 0.000000 0.004477 0.000000
# 2 0.001013 0.010667 -0.003986 0.000000 0.001204 0.000000
# 3 -0.004640 -0.003986 0.010012 0.000000 -0.002602 0.000000
# 4 0.000000 0.000000 0.000000 0.131505 0.000000 -0.078637
# 5 0.004477 0.001204 -0.002602 0.000000 0.037448 0.000000
# 6 0.000000 0.000000 0.000000 -0.078637 0.000000 0.079897
#
#
# Mechanical properties :
#
#
# Convention : Reuss Voigt Hill
#
# Bulk Modulus (GPa) = 45.73806 54.92734 50.33270
# Shear Modulus (GPa) = 16.20990 30.68194 23.44592
#
# Velocity S-wave (km/s) = 2.55216 3.51123 3.06938
# Velocity P-wave (km/s) = 5.20224 6.20559 5.72593
#
# Compressibility (1/GPa) = 0.02186363
#
# Stress axis : x y z
#
# Youngs Moduli (GPa) = 60.93528 93.74849 99.88381
#
# Poissons Ratio (x) = -0.09500 0.46349
# Poissons Ratio (y) = -0.06175 0.39813
# Poissons Ratio (z) = 0.28276 0.37368
#
# Static dielectric constant tensor:
#      x y z
#    x 2.015080 0.000000 0.012270 
#    y 0.000000 2.044000 0.000000 
#    z 0.012270 0.000000 2.031860 
# 
# From -- ./inp_files/35520.got.cif
#   From: 2010.05.17/outbox.cif.g08.bks.cpg/sg5_18_cif.got.tgz:35520.got - 2010.06.03 18:56:24.
