data_PCOD9128421
_publ_section_title
;
Structure prediction by ZEFSAII (Michael W. Deem and Ramdas Pophale) SiO2 
 PCOD9128421
Probable space group: C 2
;
_chemical_formula_sum "Si O2"
_cell_formula_units_Z 22
_cell_length_a 12.343891
_cell_length_b 13.746533
_cell_length_c 11.602359
_cell_angle_alpha 90.000000
_cell_angle_beta 152.288571
_cell_angle_gamma 90.000000
_cell_volume 915.507543
_symmetry_space_group_name_H-M "C 2"
_symmetry_group_IT_number 5
_symmetry_cell_setting 'monoclinic'
loop_
_space_group_symop_operation_xyz
x,y,z
-x,y,-z
1/2+x,1/2+y,z
1/2-x,1/2+y,-z
loop_
_atom_site_type_symbol
_atom_site_label
_atom_site_fract_x
_atom_site_fract_y
_atom_site_fract_z
Si Si1 0.500000 0.239581 0.500000
Si Si2 0.462131 0.565113 0.600337
Si Si3 0.000000 0.351605 0.500000
Si Si4 0.341969 0.902166 0.585066
Si Si5 0.500000 0.236931 0.000000
Si Si6 0.371264 0.204607 0.628682
Si Si7 0.683828 0.901721 0.085757
O O1 0.448292 0.180419 0.569894
O O2 0.304349 0.317661 0.274929
O O3 0.500000 0.581043 0.500000
O O4 0.243742 0.498264 0.433243
O O5 0.390313 0.663995 0.594575
O O6 0.666628 0.490542 0.822745
O O7 0.939723 0.417416 0.551697
O O8 0.754176 0.292789 0.244739
O O9 0.139000 0.822202 0.386662
O O10 0.545621 0.855171 0.851633
O O11 0.500519 0.183830 0.127102
O O12 0.500000 0.947617 0.000000
#
# Coordination Sequence:
#
# PCOD9128421 Si02
#       7
#     2   4   2   4   2   4   4
#     4  12  22  47  73 104 140 192 250 303 381 444
#     4  12  25  45  68 109 141 190 257 299 373 452
#     4  10  24  43  77 104 150 200 242 299 393 450
#     4  11  24  46  72 103 144 197 240 315 375 446
#     4  10  24  48  70 116 148 198 248 306 378 456
#     4  11  25  44  76 106 151 188 248 312 376 451
#     4  12  20  44  78 100 139 192 255 308 371 441
#
# _framework density 24.030387000000001
#
# number of rings (size 3 to 8) (size 9 to 14) (size 15 to 20)
#    0.000    0.727    6.364    1.091    7.636    2.182 
#    3.273    0.000    4.000    0.000    0.000    0.000 
#    0.000    0.000    0.000    0.000    0.000    0.000 
#
# Total GULP energy -61261.767400 kJ/mol
# GULP energy per Si atom -5569.251582 kJ/mol
# Density = 2.397569 g / cm^3
# Si number density = 24.030387 Si / 1000 Ang^3
#
#
#
# Elastic Constant Matrix: (Units=GPa)
#
#
# Indices 1 2 3 4 5 6 
#
# 1 237.5340 40.7930 56.5400 0.0001 -18.7617 0.0000
# 2 40.7930 84.7433 24.3336 0.0000 2.2453 0.0000
# 3 56.5400 24.3336 108.1788 0.0002 -9.8806 0.0001
# 4 0.0001 0.0000 0.0002 15.2004 0.0002 4.0950
# 5 -18.7617 2.2453 -9.8806 0.0002 46.6752 0.0001
# 6 0.0000 0.0000 0.0001 4.0950 0.0001 39.9712
#
#
#
# Elastic Compliance Matrix: (Units=1/GPa)
#
#
# Indices 1 2 3 4 5 6 
#
# 1 0.005182 -0.001933 -0.002116 0.000000 0.001728 0.000000
# 2 -0.001933 0.013406 -0.002177 0.000000 -0.001883 0.000000
# 3 -0.002116 -0.002177 0.010984 0.000000 0.001579 0.000000
# 4 0.000000 0.000000 0.000000 0.067655 0.000000 -0.006931
# 5 0.001728 -0.001883 0.001579 0.000000 0.022544 0.000000
# 6 0.000000 0.000000 0.000000 -0.006931 0.000000 0.025728
#
#
# Mechanical properties :
#
#
# Convention : Reuss Voigt Hill
#
# Bulk Modulus (GPa) = 58.41141 74.86547 66.63844
# Shear Modulus (GPa) = 30.55174 40.95532 35.75353
#
# Velocity S-wave (km/s) = 3.56951 4.13281 3.86145
# Velocity P-wave (km/s) = 6.43029 7.34817 6.90450
#
# Compressibility (1/GPa) = 0.01711994
#
# Stress axis : x y z
#
# Youngs Moduli (GPa) = 192.97780 74.59483 91.04324
#
# Poissons Ratio (x) = 0.14417 0.19263
# Poissons Ratio (y) = 0.37297 0.19823
# Poissons Ratio (z) = 0.40830 0.16242
#
# Static dielectric constant tensor:
#      x y z
#    x 2.003410 0.000000 0.038890 
#    y 0.000000 1.873190 0.000000 
#    z 0.038890 0.000000 2.000450 
# 
# From -- ./inp_files/7034.got.cif
#   From: 2010.05.17/outbox.cif.g08.bks.cpg/sg5_4_cif.got.tgz:7034.got - 2010.06.03 18:56:24.
