data_PCOD9128517
_publ_section_title
;
Structure prediction by ZEFSAII (Michael W. Deem and Ramdas Pophale) SiO2 
 PCOD9128517
Probable space group: C 2
;
_chemical_formula_sum "Si O2"
_cell_formula_units_Z 30
_cell_length_a 7.487454
_cell_length_b 12.369423
_cell_length_c 13.388074
_cell_angle_alpha 90.000000
_cell_angle_beta 106.683491
_cell_angle_gamma 90.000000
_cell_volume 1187.747892
_symmetry_space_group_name_H-M "C 2"
_symmetry_group_IT_number 5
_symmetry_cell_setting 'monoclinic'
loop_
_space_group_symop_operation_xyz
x,y,z
-x,y,-z
1/2+x,1/2+y,z
1/2-x,1/2+y,-z
loop_
_atom_site_type_symbol
_atom_site_label
_atom_site_fract_x
_atom_site_fract_y
_atom_site_fract_z
Si Si1 0.000000 0.321780 0.500000
Si Si2 0.297326 0.055625 0.077555
Si Si3 0.101856 0.900905 0.723347
Si Si4 0.685997 0.986523 0.413588
Si Si5 0.716052 0.162198 0.562585
Si Si6 0.495429 0.831132 0.881161
Si Si7 0.519231 0.177266 0.728334
Si Si8 0.574047 0.598377 0.855595
O O1 0.989266 0.409377 0.589259
O O2 0.842980 0.241850 0.518257
O O3 0.425976 0.144684 0.151302
O O4 0.104281 0.069323 0.105462
O O5 0.381807 0.938059 0.110847
O O6 0.253101 0.071697 0.954073
O O7 0.162929 0.916996 0.619597
O O8 0.059901 0.017300 0.761549
O O9 0.287366 0.859794 0.812226
O O10 0.958946 0.802076 0.712333
O O11 0.241067 0.043231 0.474327
O O12 0.621253 0.085749 0.333322
O O13 0.500000 0.181927 0.500000
O O14 0.696633 0.168110 0.679278
O O15 0.571622 0.726185 0.835842
O O16 0.500000 0.802320 0.000000
#
# Coordination Sequence:
#
# PCOD9128517 Si02
#       8
#     2   4   4   4   4   4   4   4
#     4  12  22  48  76  94 142 196 224 290 366 406
#     4  11  23  41  66  96 131 184 216 282 341 393
#     4  12  24  41  71  98 132 180 223 279 345 411
#     4  11  24  44  68 105 140 173 235 288 345 420
#     4  10  24  45  67 105 141 178 234 295 345 420
#     4  12  22  43  67  93 134 178 226 279 336 404
#     4  11  21  43  68  95 138 175 221 287 336 397
#     4  11  25  43  63 101 139 168 234 277 335 418
#
# _framework density 25.257884000000001
#
# number of rings (size 3 to 8) (size 9 to 14) (size 15 to 20)
#    0.000    0.800    8.667    0.000    0.000    3.200 
#    6.000    0.000    0.000    0.000    0.000    0.000 
#    0.000    0.000    0.000    0.000    0.000    0.000 
#
# Total GULP energy -83868.226468 kJ/mol
# GULP energy per Si atom -5591.215098 kJ/mol
# Density = 2.520040 g / cm^3
# Si number density = 25.257884 Si / 1000 Ang^3
#
#
#
# Elastic Constant Matrix: (Units=GPa)
#
#
# Indices 1 2 3 4 5 6 
#
# 1 41.3975 32.1759 16.8078 0.0000 -9.5990 0.0000
# 2 32.1759 176.8208 10.6534 0.0000 -17.2468 0.0000
# 3 16.8078 10.6534 77.5652 0.0000 -9.3011 0.0000
# 4 0.0000 0.0000 0.0000 49.0099 0.0000 -15.3945
# 5 -9.5990 -17.2468 -9.3011 0.0000 34.6633 0.0000
# 6 0.0000 0.0000 0.0000 -15.3945 0.0000 49.6734
#
#
#
# Elastic Compliance Matrix: (Units=1/GPa)
#
#
# Indices 1 2 3 4 5 6 
#
# 1 0.031317 -0.004902 -0.005544 0.000000 0.004746 0.000000
# 2 -0.004902 0.006728 0.000389 0.000000 0.002095 0.000000
# 3 -0.005544 0.000389 0.014341 0.000000 0.002506 0.000000
# 4 0.000000 0.000000 0.000000 0.022605 0.000000 0.007005
# 5 0.004746 0.002095 0.002506 0.000000 0.031878 0.000000
# 6 0.000000 0.000000 0.000000 0.007005 0.000000 0.022303
#
#
# Mechanical properties :
#
#
# Convention : Reuss Voigt Hill
#
# Bulk Modulus (GPa) = 30.98522 46.11754 38.55138
# Shear Modulus (GPa) = 31.24177 42.41242 36.82709
#
# Velocity S-wave (km/s) = 3.52079 4.10222 3.82258
# Velocity P-wave (km/s) = 5.36862 6.38247 5.89737
#
# Compressibility (1/GPa) = 0.03227345
#
# Stress axis : x y z
#
# Youngs Moduli (GPa) = 31.93125 148.62619 69.73117
#
# Poissons Ratio (x) = 0.72854 0.38658
# Poissons Ratio (y) = 0.15652 -0.02714
# Poissons Ratio (z) = 0.17702 -0.05785
#
# Static dielectric constant tensor:
#      x y z
#    x 2.019740 0.000000 0.042270 
#    y 0.000000 1.997390 0.000000 
#    z 0.042270 0.000000 2.059660 
# 
# From -- ./inp_files/50303.got.cif
#   From: 2010.05.17/outbox.cif.g08.bks.cpg/sg5_26_cif.got.tgz:50303.got - 2010.06.03 18:56:24.
