data_PCOD9128681
_publ_section_title
;
Structure prediction by ZEFSAII (Michael W. Deem and Ramdas Pophale) SiO2 
 PCOD9128681
Probable space group: C 2
;
_chemical_formula_sum "Si O2"
_cell_formula_units_Z 16
_cell_length_a 5.045572
_cell_length_b 23.731166
_cell_length_c 5.329317
_cell_angle_alpha 90.000000
_cell_angle_beta 96.227097
_cell_angle_gamma 90.000000
_cell_volume 634.353025
_symmetry_space_group_name_H-M "C 2"
_symmetry_group_IT_number 5
_symmetry_cell_setting 'monoclinic'
loop_
_space_group_symop_operation_xyz
x,y,z
-x,y,-z
1/2+x,1/2+y,z
1/2-x,1/2+y,-z
loop_
_atom_site_type_symbol
_atom_site_label
_atom_site_fract_x
_atom_site_fract_y
_atom_site_fract_z
Si Si1 0.000000 0.232090 0.500000
Si Si2 0.500000 0.410416 0.500000
Si Si3 0.332269 0.015465 0.728985
Si Si4 0.179210 0.636569 0.263572
Si Si5 0.210987 0.811270 0.841542
O O1 0.876828 0.188767 0.289409
O O2 0.794023 0.272553 0.617839
O O3 0.701712 0.457036 0.634171
O O4 0.538501 0.364854 0.727491
O O5 0.500000 0.028631 0.500000
O O6 0.177453 0.074816 0.743770
O O7 0.500000 0.006769 0.000000
O O8 0.000000 0.642124 0.500000
O O9 0.000000 0.638563 0.000000
O O10 0.500000 0.825483 0.000000
O O11 0.000000 0.781039 0.000000
#
# Coordination Sequence:
#
# PCOD9128681 Si02
#       5
#     2   2   4   4   4
#     4  12  29  48  78 114 163 212 270 334 402 486
#     4  12  27  46  78 108 161 212 266 334 404 480
#     4  10  24  47  77 116 154 202 267 331 408 485
#     4  10  25  47  78 117 156 206 266 330 409 485
#     4  12  31  51  77 118 165 216 279 332 401 477
#
# _framework density 25.222549000000001
#
# number of rings (size 3 to 8) (size 9 to 14) (size 15 to 20)
#    0.000    1.000    0.000    3.000   17.500    0.000 
#    0.000    7.500    0.000    0.000    0.000    0.000 
#    0.000    0.000    0.000    0.000    0.000    0.000 
#
# Total GULP energy -44614.316656 kJ/mol
# GULP energy per Si atom -5576.789582 kJ/mol
# Density = 2.516514 g / cm^3
# Si number density = 25.222549 Si / 1000 Ang^3
#
#
#
# Elastic Constant Matrix: (Units=GPa)
#
#
# Indices 1 2 3 4 5 6 
#
# 1 87.3028 35.5304 58.3050 0.0000 -4.2740 0.0000
# 2 35.5304 141.5453 20.1257 0.0000 -10.2956 0.0000
# 3 58.3050 20.1257 176.1729 0.0000 17.2945 0.0000
# 4 0.0000 0.0000 0.0000 41.2425 0.0000 40.1792
# 5 -4.2740 -10.2956 17.2945 0.0000 57.8887 0.0000
# 6 0.0000 0.0000 0.0000 40.1792 0.0000 28.9956
#
#
#
# Elastic Compliance Matrix: (Units=1/GPa)
#
#
# Indices 1 2 3 4 5 6 
#
# 1 0.016390 -0.003203 -0.005276 0.000000 0.002217 0.000000
# 2 -0.003203 0.007948 0.000038 0.000000 0.001166 0.000000
# 3 -0.005276 0.000038 0.007681 0.000000 -0.002678 0.000000
# 4 0.000000 0.000000 0.000000 -0.069282 0.000000 0.096004
# 5 0.002217 0.001166 -0.002678 0.000000 0.018446 0.000000
# 6 0.000000 0.000000 0.000000 0.096004 0.000000 -0.098545
#
#
# Mechanical properties :
#
#
# Convention : Reuss Voigt Hill
#
# Bulk Modulus (GPa) = 66.06502 70.32701 68.19602
# Shear Modulus (GPa) = -52.39228 45.02935 -3.68147
#
# Velocity S-wave (km/s) = -4.56258 4.22984 -1.20945
# Velocity P-wave (km/s) = 1.22736 7.19712 5.01459
#
# Compressibility (1/GPa) = 0.01513660
#
# Stress axis : x y z
#
# Youngs Moduli (GPa) = 61.01293 125.81312 130.19242
#
# Poissons Ratio (x) = 0.40295 0.68690
# Poissons Ratio (y) = 0.19541 -0.00488
# Poissons Ratio (z) = 0.32191 -0.00472
#
# Static dielectric constant tensor:
#      x y z
#    x 2.068640 0.000000 0.063280 
#    y 0.000000 2.058750 0.000000 
#    z 0.063280 0.000000 2.093170 
# 
# From -- ./inp_files/690.got.cif
#   From: 2010.05.17/outbox.cif.g08.bks.cpg/sg5_1_cif.got.tgz:690.got - 2010.06.03 18:56:24.
