data_PCOD9128673
_publ_section_title
;
Structure prediction by ZEFSAII (Michael W. Deem and Ramdas Pophale) SiO2 
 PCOD9128673
Probable space group: C 2
;
_chemical_formula_sum "Si O2"
_cell_formula_units_Z 24
_cell_length_a 14.086561
_cell_length_b 5.528561
_cell_length_c 17.930051
_cell_angle_alpha 90.000000
_cell_angle_beta 134.230859
_cell_angle_gamma 90.000000
_cell_volume 1000.543627
_symmetry_space_group_name_H-M "C 2"
_symmetry_group_IT_number 5
_symmetry_cell_setting 'monoclinic'
loop_
_space_group_symop_operation_xyz
x,y,z
-x,y,-z
1/2+x,1/2+y,z
1/2-x,1/2+y,-z
loop_
_atom_site_type_symbol
_atom_site_label
_atom_site_fract_x
_atom_site_fract_y
_atom_site_fract_z
Si Si1 0.323686 0.362730 0.058642
Si Si2 0.961369 0.281216 0.601419
Si Si3 0.123016 0.847037 0.185647
Si Si4 0.342725 0.110506 0.224446
Si Si5 0.188973 0.970311 0.665681
Si Si6 0.738036 0.586692 0.400177
O O1 0.466531 0.367063 0.097321
O O2 0.342892 0.288542 0.155445
O O3 0.258161 0.628516 0.016454
O O4 0.864867 0.448914 0.500888
O O5 0.870230 0.091079 0.594451
O O6 0.037962 0.421037 0.710241
O O7 0.077779 0.172508 0.614617
O O8 0.177258 0.574200 0.223847
O O9 0.203881 0.971952 0.162639
O O10 0.173685 0.966336 0.291396
O O11 0.364448 0.256667 0.312217
O O12 0.220174 0.856428 0.603246
#
# Coordination Sequence:
#
# PCOD9128673 Si02
#       6
#     4   4   4   4   4   4
#     4  12  30  50  80 112 150 198 256 324 390 452
#     4  11  26  43  70 108 146 198 242 301 374 453
#     4  10  25  48  75 105 144 194 244 313 377 454
#     4  10  25  48  75 105 144 194 244 313 377 454
#     4  10  24  47  73  96 154 184 253 302 371 452
#     4  11  26  43  70 108 146 198 242 301 374 453
#
# _framework density 23.986962999999999
#
# number of rings (size 3 to 8) (size 9 to 14) (size 15 to 20)
#    0.000    1.333    0.000    2.000   18.667    8.000 
#    0.000    0.000    0.000    0.000    0.000    0.000 
#    0.000    0.000    0.000    0.000    0.000    0.000 
#
# Total GULP energy -67180.693393 kJ/mol
# GULP energy per Si atom -5598.391116 kJ/mol
# Density = 2.393237 g / cm^3
# Si number density = 23.986963 Si / 1000 Ang^3
#
#
#
# Elastic Constant Matrix: (Units=GPa)
#
#
# Indices 1 2 3 4 5 6 
#
# 1 74.5104 8.4018 24.3488 0.0000 27.4032 0.0000
# 2 8.4018 58.1799 15.7325 0.0000 20.7393 0.0000
# 3 24.3488 15.7325 81.8365 0.0000 30.6028 0.0000
# 4 0.0000 0.0000 0.0000 44.4347 0.0000 -7.3510
# 5 27.4032 20.7393 30.6028 0.0000 51.6847 0.0000
# 6 0.0000 0.0000 0.0000 -7.3510 0.0000 39.5212
#
#
#
# Elastic Compliance Matrix: (Units=1/GPa)
#
#
# Indices 1 2 3 4 5 6 
#
# 1 0.017018 0.001040 -0.002226 0.000000 -0.008122 0.000000
# 2 0.001040 0.020196 -0.001227 0.000000 -0.007929 0.000000
# 3 -0.002226 -0.001227 0.016045 0.000000 -0.007828 0.000000
# 4 0.000000 0.000000 0.000000 0.023219 0.000000 0.004319
# 5 -0.008122 -0.007929 -0.007828 0.000000 0.031471 0.000000
# 6 0.000000 0.000000 0.000000 0.004319 0.000000 0.026106
#
#
# Mechanical properties :
#
#
# Convention : Reuss Voigt Hill
#
# Bulk Modulus (GPa) = 20.64727 34.61035 27.62881
# Shear Modulus (GPa) = 32.25255 38.19768 35.22512
#
# Velocity S-wave (km/s) = 3.67084 3.99486 3.83627
# Velocity P-wave (km/s) = 5.15685 5.97819 5.58264
#
# Compressibility (1/GPa) = 0.04843256
#
# Stress axis : x y z
#
# Youngs Moduli (GPa) = 58.76016 49.51467 62.32542
#
# Poissons Ratio (x) = -0.05148 0.13874
# Poissons Ratio (y) = -0.06109 0.07647
# Poissons Ratio (z) = 0.13080 0.06075
#
# Static dielectric constant tensor:
#      x y z
#    x 1.840460 0.000000 -0.015210 
#    y 0.000000 2.002100 0.000000 
#    z -0.015210 0.000000 1.915630 
# 
# From -- ./inp_files/65626.got.cif
#   From: 2010.05.17/outbox.cif.g08.bks.cpg/sg5_33_cif.got.tgz:65626.got - 2010.06.03 18:56:24.
