data_PCOD9128366
_publ_section_title
;
Structure prediction by ZEFSAII (Michael W. Deem and Ramdas Pophale) SiO2 
 PCOD9128366
Probable space group: C 2
;
_chemical_formula_sum "Si O2"
_cell_formula_units_Z 20
_cell_length_a 27.820921
_cell_length_b 5.049900
_cell_length_c 17.972342
_cell_angle_alpha 90.000000
_cell_angle_beta 160.820301
_cell_angle_gamma 90.000000
_cell_volume 829.538703
_symmetry_space_group_name_H-M "C 2"
_symmetry_group_IT_number 5
_symmetry_cell_setting 'monoclinic'
loop_
_space_group_symop_operation_xyz
x,y,z
-x,y,-z
1/2+x,1/2+y,z
1/2-x,1/2+y,-z
loop_
_atom_site_type_symbol
_atom_site_label
_atom_site_fract_x
_atom_site_fract_y
_atom_site_fract_z
Si Si1 0.117361 0.473680 0.505866
Si Si2 0.822278 0.432296 0.141724
Si Si3 0.023179 0.433451 0.857442
Si Si4 0.348776 0.326166 0.313153
Si Si5 0.950307 0.909638 0.009541
O O1 0.126563 0.749342 0.564952
O O2 0.277097 0.357860 0.750139
O O3 0.982337 0.337490 0.350361
O O4 0.075410 0.477984 0.358660
O O5 0.823809 0.556743 0.226595
O O6 0.718153 0.190530 0.967586
O O7 0.193669 0.471804 0.082389
O O8 0.980472 0.642234 0.858120
O O9 0.018567 0.142002 0.886087
O O10 0.500000 0.436676 0.500000
O O11 0.000000 0.986205 0.000000
#
# Coordination Sequence:
#
# PCOD9128366 Si02
#       5
#     4   4   4   4   4
#     4  10  24  42  70  99 134 181 223 273 330 398
#     4  11  23  39  65  96 142 181 217 264 326 396
#     4  11  24  45  70 100 135 175 228 277 336 405
#     4   9  21  42  63 103 142 182 220 268 325 402
#     4  11  27  48  70  99 133 172 230 290 341 396
#
# _framework density 24.109784999999999
#
# number of rings (size 3 to 8) (size 9 to 14) (size 15 to 20)
#    0.000    1.600    2.000    0.600    5.600    9.600 
#    0.000    6.000    0.000    0.000    0.000    0.000 
#    0.000    0.000    0.000    0.000    0.000    0.000 
#
# Total GULP energy -55929.627115 kJ/mol
# GULP energy per Si atom -5592.962711 kJ/mol
# Density = 2.405491 g / cm^3
# Si number density = 24.109785 Si / 1000 Ang^3
#
#
#
# Elastic Constant Matrix: (Units=GPa)
#
#
# Indices 1 2 3 4 5 6 
#
# 1 109.0053 24.9777 31.0829 0.0002 -33.9393 -0.0001
# 2 24.9777 91.1285 31.9112 0.0017 -18.9364 -0.0005
# 3 31.0829 31.9112 66.1893 0.0002 -39.2268 -0.0001
# 4 0.0002 0.0017 0.0002 8.7923 -0.0001 -9.2874
# 5 -33.9393 -18.9364 -39.2268 -0.0001 45.3372 -0.0001
# 6 -0.0001 -0.0005 -0.0001 -9.2874 -0.0001 33.2784
#
#
#
# Elastic Compliance Matrix: (Units=1/GPa)
#
#
# Indices 1 2 3 4 5 6 
#
# 1 0.012166 -0.001602 0.000123 0.000000 0.008545 0.000000
# 2 -0.001602 0.013413 -0.006373 -0.000003 -0.001111 -0.000001
# 3 0.000123 -0.006373 0.034070 0.000001 0.026909 0.000000
# 4 0.000000 -0.000003 0.000001 0.161281 0.000000 0.045011
# 5 0.008545 -0.001111 0.026909 0.000000 0.051272 0.000000
# 6 0.000000 -0.000001 0.000000 0.045011 0.000000 0.042611
#
#
# Mechanical properties :
#
#
# Convention : Reuss Voigt Hill
#
# Bulk Modulus (GPa) = 22.75492 49.14075 35.94783
# Shear Modulus (GPa) = 14.48577 29.37165 21.92871
#
# Velocity S-wave (km/s) = 2.45383 3.49412 3.01912
# Velocity P-wave (km/s) = 4.18174 6.05845 5.20537
#
# Compressibility (1/GPa) = 0.04394655
#
# Stress axis : x y z
#
# Youngs Moduli (GPa) = 82.19338 74.55189 29.35131
#
# Poissons Ratio (x) = 0.11945 -0.00362
# Poissons Ratio (y) = 0.13169 0.18705
# Poissons Ratio (z) = -0.01014 0.47510
#
# Static dielectric constant tensor:
#      x y z
#    x 1.920410 0.000000 -0.021110 
#    y 0.000000 1.927140 0.000000 
#    z -0.021110 0.000000 1.937950 
# 
# From -- ./inp_files/63516.got.cif
#   From: 2010.05.17/outbox.cif.g08.bks.cpg/sg5_32_cif.got.tgz:63516.got - 2010.06.03 18:56:24.
