data_PCOD9128993
_publ_section_title
;
Structure prediction by ZEFSAII (Michael W. Deem and Ramdas Pophale) SiO2 
 PCOD9128993
Probable space group: C 2
;
_chemical_formula_sum "Si O2"
_cell_formula_units_Z 24
_cell_length_a 8.223895
_cell_length_b 6.518759
_cell_length_c 15.299748
_cell_angle_alpha 90.000000
_cell_angle_beta 94.158570
_cell_angle_gamma 90.000000
_cell_volume 818.053732
_symmetry_space_group_name_H-M "C 2"
_symmetry_group_IT_number 5
_symmetry_cell_setting 'monoclinic'
loop_
_space_group_symop_operation_xyz
x,y,z
-x,y,-z
1/2+x,1/2+y,z
1/2-x,1/2+y,-z
loop_
_atom_site_type_symbol
_atom_site_label
_atom_site_fract_x
_atom_site_fract_y
_atom_site_fract_z
Si Si1 0.500000 0.478500 0.500000
Si Si2 0.414258 0.019962 0.246912
Si Si3 0.101859 0.017594 0.346055
Si Si4 0.500000 0.446142 0.000000
Si Si5 0.619061 0.961782 0.421939
Si Si6 0.929128 0.566198 0.915326
Si Si7 0.885648 0.056446 0.179910
O O1 0.588411 0.348992 0.420264
O O2 0.312067 0.497664 0.442829
O O3 0.564509 0.010478 0.319770
O O4 0.371541 0.788876 0.213514
O O5 0.263417 0.075562 0.301770
O O6 0.443565 0.127594 0.154790
O O7 0.076401 0.205260 0.414706
O O8 0.979254 0.960851 0.264662
O O9 0.633215 0.272365 0.036357
O O10 0.472728 0.557443 0.089430
O O11 0.500000 0.006455 0.500000
O O12 0.789299 0.468739 0.852770
O O13 0.000000 0.446773 0.000000
#
# Coordination Sequence:
#
# PCOD9128993 Si02
#       7
#     2   4   4   2   4   4   4
#     4  12  24  44  76 100 144 196 240 296 368 428
#     4  11  25  46  72 103 148 187 242 301 362 431
#     4  11  25  44  71 103 143 188 244 303 361 431
#     4  10  26  42  72 100 138 182 248 294 368 430
#     4  11  24  45  70 109 146 191 245 299 359 432
#     4  10  26  42  68 103 142 183 244 294 370 426
#     4  11  25  44  70  99 143 187 243 299 363 435
#
# _framework density 29.337927000000001
#
# number of rings (size 3 to 8) (size 9 to 14) (size 15 to 20)
#    0.500    0.667    2.500    2.000    5.833    6.667 
#    0.000    0.000    0.000    0.000    0.000    0.000 
#    0.000    0.000    0.000    0.000    0.000    0.000 
#
# Total GULP energy -66923.643293 kJ/mol
# GULP energy per Si atom -5576.970274 kJ/mol
# Density = 2.927115 g / cm^3
# Si number density = 29.337927 Si / 1000 Ang^3
#
#
#
# Elastic Constant Matrix: (Units=GPa)
#
#
# Indices 1 2 3 4 5 6 
#
# 1 195.3940 20.8209 140.3515 0.0000 18.4738 0.0000
# 2 20.8209 33.4860 36.0434 0.0000 -0.2306 0.0000
# 3 140.3515 36.0434 338.7433 0.0000 10.6577 0.0000
# 4 0.0000 0.0000 0.0000 65.7860 0.0000 -7.9462
# 5 18.4738 -0.2306 10.6577 0.0000 61.9669 0.0000
# 6 0.0000 0.0000 0.0000 -7.9462 0.0000 38.1674
#
#
#
# Elastic Compliance Matrix: (Units=1/GPa)
#
#
# Indices 1 2 3 4 5 6 
#
# 1 0.007534 -0.001576 -0.002898 0.000000 -0.001753 0.000000
# 2 -0.001576 0.034090 -0.003009 0.000000 0.001114 0.000000
# 3 -0.002898 -0.003009 0.004471 0.000000 0.000084 0.000000
# 4 0.000000 0.000000 0.000000 0.015593 0.000000 0.003246
# 5 -0.001753 0.001114 0.000084 0.000000 0.016650 0.000000
# 6 0.000000 0.000000 0.000000 0.003246 0.000000 0.026876
#
#
# Mechanical properties :
#
#
# Convention : Reuss Voigt Hill
#
# Bulk Modulus (GPa) = 32.12749 106.89497 69.51123
# Shear Modulus (GPa) = 38.29745 57.87790 48.08767
#
# Velocity S-wave (km/s) = 3.61694 4.44644 4.05297
# Velocity P-wave (km/s) = 5.33082 7.92944 6.75624
#
# Compressibility (1/GPa) = 0.03112599
#
# Stress axis : x y z
#
# Youngs Moduli (GPa) = 132.73862 29.33405 223.68537
#
# Poissons Ratio (x) = 0.04624 0.64835
# Poissons Ratio (y) = 0.20926 0.67311
# Poissons Ratio (z) = 0.38474 0.08827
#
# Static dielectric constant tensor:
#      x y z
#    x 2.539750 0.000000 -0.195220 
#    y 0.000000 3.082700 0.000000 
#    z -0.195220 0.000000 2.392010 
# 
# From -- ./inp_files/49943.got.cif
#   From: 2010.05.17/outbox.cif.g08.bks.cpg/sg5_25_cif.got.tgz:49943.got - 2010.06.03 18:56:24.
