data_PCOD9128640
_publ_section_title
;
Structure prediction by ZEFSAII (Michael W. Deem and Ramdas Pophale) SiO2 
 PCOD9128640
Probable space group: C 2
;
_chemical_formula_sum "Si O2"
_cell_formula_units_Z 18
_cell_length_a 11.066583
_cell_length_b 7.465540
_cell_length_c 8.873541
_cell_angle_alpha 90.000000
_cell_angle_beta 83.537443
_cell_angle_gamma 90.000000
_cell_volume 728.455885
_symmetry_space_group_name_H-M "C 2"
_symmetry_group_IT_number 5
_symmetry_cell_setting 'monoclinic'
loop_
_space_group_symop_operation_xyz
x,y,z
-x,y,-z
1/2+x,1/2+y,z
1/2-x,1/2+y,-z
loop_
_atom_site_type_symbol
_atom_site_label
_atom_site_fract_x
_atom_site_fract_y
_atom_site_fract_z
Si Si1 0.000000 0.099360 0.500000
Si Si2 0.638990 0.954210 0.490445
Si Si3 0.369953 0.458169 0.246283
Si Si4 0.774334 0.592797 0.200444
Si Si5 0.128607 0.277523 0.991309
O O1 0.110593 0.241888 0.486013
O O2 0.026096 0.980355 0.641636
O O3 0.500000 0.032510 0.500000
O O4 0.738867 0.988757 0.348098
O O5 0.700020 0.005357 0.640751
O O6 0.370796 0.257140 0.181793
O O7 0.381165 0.612174 0.121785
O O8 0.658770 0.701792 0.151040
O O9 0.781966 0.427557 0.083721
O O10 0.000000 0.373821 0.000000
#
# Coordination Sequence:
#
# PCOD9128640 Si02
#       5
#     2   4   4   4   4
#     4  10  24  46  76 114 156 190 246 328 372 446
#     4  10  25  48  76 113 158 191 250 328 369 447
#     4  12  26  49  78 111 152 207 256 308 388 449
#     4  12  27  49  76 111 152 202 255 308 380 457
#     4  12  29  52  74 109 161 200 257 317 370 460
#
# _framework density 24.709800999999999
#
# number of rings (size 3 to 8) (size 9 to 14) (size 15 to 20)
#    0.667    0.000    4.444    1.333   10.889    0.889 
#    4.000    0.000    0.000    0.000    0.000    0.000 
#    0.000    0.000    0.000    0.000    0.000    0.000 
#
# Total GULP energy -50220.998090 kJ/mol
# GULP energy per Si atom -5580.110899 kJ/mol
# Density = 2.465356 g / cm^3
# Si number density = 24.709801 Si / 1000 Ang^3
#
#
#
# Elastic Constant Matrix: (Units=GPa)
#
#
# Indices 1 2 3 4 5 6 
#
# 1 96.8680 16.0572 50.1335 0.0000 33.5246 0.0000
# 2 16.0572 115.2750 32.3636 0.0000 20.5050 0.0000
# 3 50.1335 32.3636 99.7015 0.0000 32.0786 0.0000
# 4 0.0000 0.0000 0.0000 21.2151 0.0000 18.1472
# 5 33.5246 20.5050 32.0786 0.0000 51.9717 0.0000
# 6 0.0000 0.0000 0.0000 18.1472 0.0000 41.1948
#
#
#
# Elastic Compliance Matrix: (Units=1/GPa)
#
#
# Indices 1 2 3 4 5 6 
#
# 1 0.015576 0.000674 -0.005905 0.000000 -0.006668 0.000000
# 2 0.000674 0.009802 -0.002666 0.000000 -0.002657 0.000000
# 3 -0.005905 -0.002666 0.015349 0.000000 -0.004613 0.000000
# 4 0.000000 0.000000 0.000000 0.075638 0.000000 -0.033320
# 5 -0.006668 -0.002657 -0.004613 0.000000 0.027438 0.000000
# 6 0.000000 0.000000 0.000000 -0.033320 0.000000 0.038953
#
#
# Mechanical properties :
#
#
# Convention : Reuss Voigt Hill
#
# Bulk Modulus (GPa) = 40.10837 56.55032 48.32935
# Shear Modulus (GPa) = 24.17084 37.09565 30.63324
#
# Velocity S-wave (km/s) = 3.13099 3.87880 3.52479
# Velocity P-wave (km/s) = 5.41644 6.55710 6.01388
#
# Compressibility (1/GPa) = 0.02493245
#
# Stress axis : x y z
#
# Youngs Moduli (GPa) = 64.20283 102.01935 65.15105
#
# Poissons Ratio (x) = -0.06881 0.38475
# Poissons Ratio (y) = -0.04330 0.17370
# Poissons Ratio (z) = 0.37915 0.27200
#
# Static dielectric constant tensor:
#      x y z
#    x 2.060210 0.000000 -0.049310 
#    y 0.000000 1.897620 0.000000 
#    z -0.049310 0.000000 1.983680 
# 
# From -- ./inp_files/18026.got.cif
#   From: 2010.05.17/outbox.cif.g08.bks.cpg/sg5_10_cif.got.tgz:18026.got - 2010.06.03 18:56:24.
