data_PCOD9128028
_publ_section_title
;
Structure prediction by ZEFSAII (Michael W. Deem and Ramdas Pophale) SiO2 
 PCOD9128028
Probable space group: C 2
;
_chemical_formula_sum "Si O2"
_cell_formula_units_Z 28
_cell_length_a 22.189708
_cell_length_b 5.007825
_cell_length_c 9.939555
_cell_angle_alpha 90.000000
_cell_angle_beta 63.371531
_cell_angle_gamma 90.000000
_cell_volume 987.351940
_symmetry_space_group_name_H-M "C 2"
_symmetry_group_IT_number 5
_symmetry_cell_setting 'monoclinic'
loop_
_space_group_symop_operation_xyz
x,y,z
-x,y,-z
1/2+x,1/2+y,z
1/2-x,1/2+y,-z
loop_
_atom_site_type_symbol
_atom_site_label
_atom_site_fract_x
_atom_site_fract_y
_atom_site_fract_z
Si Si1 0.374018 0.673900 0.199503
Si Si2 0.899691 0.355007 0.473996
Si Si3 0.000000 0.825204 0.000000
Si Si4 0.194568 0.458832 0.931295
Si Si5 0.480598 0.209507 0.717340
Si Si6 0.000000 0.176109 0.500000
Si Si7 0.334796 0.442760 0.859114
Si Si8 0.736804 0.124556 0.423925
O O1 0.387857 0.721549 0.342431
O O2 0.434500 0.513540 0.074901
O O3 0.359725 0.947816 0.135155
O O4 0.299359 0.548229 0.265724
O O5 0.839243 0.563053 0.543238
O O6 0.979248 0.464902 0.394778
O O7 0.913715 0.219570 0.601872
O O8 0.003732 0.678060 0.140125
O O9 0.273907 0.426480 0.811199
O O10 0.196581 0.742312 0.997924
O O11 0.165675 0.227538 0.061471
O O12 0.513319 0.464507 0.613905
O O13 0.403285 0.273026 0.770705
O O14 0.748827 0.421937 0.465520
#
# Coordination Sequence:
#
# PCOD9128028 Si02
#       8
#     4   4   2   4   4   2   4   4
#     4  11  24  45  75 111 152 195 252 325 388 456
#     4  11  27  48  76 109 151 207 264 317 387 466
#     4  12  24  44  78 112 152 192 252 318 394 452
#     4  10  23  45  69 108 148 197 244 315 383 467
#     4  12  27  47  78 110 157 203 255 326 385 469
#     4  12  28  52  70 110 156 210 264 310 398 458
#     4  10  24  45  70 104 152 195 251 303 390 454
#     4  10  24  48  74 105 151 199 259 316 379 459
#
# _framework density 28.358682000000002
#
# number of rings (size 3 to 8) (size 9 to 14) (size 15 to 20)
#    0.000    1.143    2.857    1.286    8.000    4.571 
#   10.286    0.000    0.000    0.000    0.000    0.000 
#    0.000    0.000    0.000    0.000    0.000    0.000 
#
# Total GULP energy -78155.595189 kJ/mol
# GULP energy per Si atom -5582.542513 kJ/mol
# Density = 2.829414 g / cm^3
# Si number density = 28.358682 Si / 1000 Ang^3
#
#
#
# Elastic Constant Matrix: (Units=GPa)
#
#
# Indices 1 2 3 4 5 6 
#
# 1 181.3499 -4.5243 17.4187 0.0000 6.9685 0.0000
# 2 -4.5243 93.3619 -6.7285 0.0000 15.8972 0.0000
# 3 17.4187 -6.7285 72.6045 0.0000 -3.7840 0.0000
# 4 0.0000 0.0000 0.0000 22.6810 0.0000 -1.4712
# 5 6.9685 15.8972 -3.7840 0.0000 63.9874 0.0000
# 6 0.0000 0.0000 0.0000 -1.4712 0.0000 28.7368
#
#
#
# Elastic Compliance Matrix: (Units=1/GPa)
#
#
# Indices 1 2 3 4 5 6 
#
# 1 0.005684 0.000309 -0.001376 0.000000 -0.000777 0.000000
# 2 0.000309 0.011259 0.000824 0.000000 -0.002782 0.000000
# 3 -0.001376 0.000824 0.014221 0.000000 0.000786 0.000000
# 4 0.000000 0.000000 0.000000 0.044237 0.000000 0.002265
# 5 -0.000777 -0.002782 0.000786 0.000000 0.016450 0.000000
# 6 0.000000 0.000000 0.000000 0.002265 0.000000 0.034914
#
#
# Mechanical properties :
#
#
# Convention : Reuss Voigt Hill
#
# Bulk Modulus (GPa) = 32.59608 39.96089 36.27849
# Shear Modulus (GPa) = 36.36990 45.82441 41.09716
#
# Velocity S-wave (km/s) = 3.58508 4.02417 3.81095
# Velocity P-wave (km/s) = 5.35315 5.97610 5.67318
#
# Compressibility (1/GPa) = 0.03067853
#
# Stress axis : x y z
#
# Youngs Moduli (GPa) = 175.93617 88.81711 70.32041
#
# Poissons Ratio (x) = -0.02741 0.09673
# Poissons Ratio (y) = -0.05430 -0.05797
# Poissons Ratio (z) = 0.24201 -0.07322
#
# Static dielectric constant tensor:
#      x y z
#    x 2.329680 0.000000 0.014000 
#    y 0.000000 2.357860 0.000000 
#    z 0.014000 0.000000 2.317560 
# 
# From -- ./inp_files/45625.got.cif
#   From: 2010.05.17/outbox.cif.g08.bks.cpg/sg5_23_cif.got.tgz:45625.got - 2010.06.03 18:56:24.
