data_PCOD9128365
_publ_section_title
;
Structure prediction by ZEFSAII (Michael W. Deem and Ramdas Pophale) SiO2 
 PCOD9128365
Probable space group: C 2
;
_chemical_formula_sum "Si O2"
_cell_formula_units_Z 24
_cell_length_a 13.067941
_cell_length_b 12.093672
_cell_length_c 18.704766
_cell_angle_alpha 90.000000
_cell_angle_beta 23.599068
_cell_angle_gamma 90.000000
_cell_volume 1183.423648
_symmetry_space_group_name_H-M "C 2"
_symmetry_group_IT_number 5
_symmetry_cell_setting 'monoclinic'
loop_
_space_group_symop_operation_xyz
x,y,z
-x,y,-z
1/2+x,1/2+y,z
1/2-x,1/2+y,-z
loop_
_atom_site_type_symbol
_atom_site_label
_atom_site_fract_x
_atom_site_fract_y
_atom_site_fract_z
Si Si1 0.937719 0.745530 0.118733
Si Si2 0.851632 0.801895 0.670606
Si Si3 0.482691 0.109273 0.689925
Si Si4 0.241631 0.473409 0.294190
Si Si5 0.961065 0.051915 0.610336
Si Si6 0.361858 0.659896 0.951402
O O1 0.822273 0.846646 0.237548
O O2 0.736757 0.646042 0.240855
O O3 0.000000 0.787805 0.000000
O O4 0.188221 0.700705 0.997958
O O5 0.567896 0.753184 0.841453
O O6 0.000000 0.793896 0.500000
O O7 0.986444 0.721734 0.641297
O O8 0.857959 0.928733 0.690412
O O9 0.765213 0.069818 0.528448
O O10 0.340336 0.020313 0.730925
O O11 0.320342 0.131208 0.865213
O O12 0.472364 0.551236 0.172436
O O13 0.000000 0.488239 0.500000
O O14 0.000000 0.061605 0.500000
#
# Coordination Sequence:
#
# PCOD9128365 Si02
#       6
#     4   4   4   4   4   4
#     4  12  28  42  70  99 139 172 230 276 334 389
#     4  10  24  42  70  96 133 178 220 271 336 392
#     4  11  23  44  71  96 137 174 225 270 335 397
#     4  11  26  46  71  99 134 181 221 273 339 396
#     4  11  25  44  64 101 133 176 219 279 332 390
#     4  11  24  45  70  97 136 175 225 273 331 400
#
# _framework density 20.280142999999999
#
# number of rings (size 3 to 8) (size 9 to 14) (size 15 to 20)
#    0.000    1.000    1.667    5.500    9.333    2.667 
#    0.000    0.000    0.000    0.000    0.000    0.000 
#    0.000    0.000    0.000    0.000    0.000    0.000 
#
# Total GULP energy -67159.767010 kJ/mol
# GULP energy per Si atom -5596.647251 kJ/mol
# Density = 2.023398 g / cm^3
# Si number density = 20.280143 Si / 1000 Ang^3
#
#
#
# Elastic Constant Matrix: (Units=GPa)
#
#
# Indices 1 2 3 4 5 6 
#
# 1 85.9608 16.9583 28.7120 0.0156 -16.6657 -0.0005
# 2 16.9583 142.3363 59.4389 -0.0075 -15.9233 -0.0055
# 3 28.7120 59.4389 93.7311 0.0045 -15.4865 0.0121
# 4 0.0156 -0.0075 0.0045 34.1569 -0.0075 8.4139
# 5 -16.6657 -15.9233 -15.4865 -0.0075 40.4079 -0.0027
# 6 -0.0005 -0.0055 0.0121 8.4139 -0.0027 12.5572
#
#
#
# Elastic Compliance Matrix: (Units=1/GPa)
#
#
# Indices 1 2 3 4 5 6 
#
# 1 0.013640 0.000417 -0.003722 -0.000007 0.004364 0.000010
# 2 0.000417 0.009660 -0.005974 0.000001 0.001689 0.000010
# 3 -0.003722 -0.005974 0.015966 0.000004 0.002230 -0.000020
# 4 -0.000007 0.000001 0.000004 0.035064 0.000004 -0.023495
# 5 0.004364 0.001689 0.002230 0.000004 0.028067 0.000002
# 6 0.000010 0.000010 -0.000020 -0.023495 0.000002 0.095378
#
#
# Mechanical properties :
#
#
# Convention : Reuss Voigt Hill
#
# Bulk Modulus (GPa) = 48.29129 59.13850 53.71489
# Shear Modulus (GPa) = 22.39783 31.88567 27.14175
#
# Velocity S-wave (km/s) = 3.32689 3.96948 3.66230
# Velocity P-wave (km/s) = 6.21461 7.08753 6.66538
#
# Compressibility (1/GPa) = 0.02070767
#
# Stress axis : x y z
#
# Youngs Moduli (GPa) = 73.31345 103.52257 62.63333
#
# Poissons Ratio (x) = -0.04320 0.23312
# Poissons Ratio (y) = -0.03059 0.37420
# Poissons Ratio (z) = 0.27287 0.61849
#
# Static dielectric constant tensor:
#      x y z
#    x 1.697630 0.000000 0.011070 
#    y 0.000000 1.700610 0.000010 
#    z 0.011070 0.000010 1.692260 
# 
# From -- ./inp_files/66081.got.cif
#   From: 2010.05.17/outbox.cif.g08.bks.cpg/sg5_34_cif.got.tgz:66081.got - 2010.06.03 18:56:24.
