data_PCOD9128150
_publ_section_title
;
Structure prediction by ZEFSAII (Michael W. Deem and Ramdas Pophale) SiO2 
 PCOD9128150
Probable space group: C 2
;
_chemical_formula_sum "Si O2"
_cell_formula_units_Z 20
_cell_length_a 10.268687
_cell_length_b 10.136210
_cell_length_c 16.166889
_cell_angle_alpha 90.000000
_cell_angle_beta 29.207779
_cell_angle_gamma 90.000000
_cell_volume 821.140300
_symmetry_space_group_name_H-M "C 2"
_symmetry_group_IT_number 5
_symmetry_cell_setting 'monoclinic'
loop_
_space_group_symop_operation_xyz
x,y,z
-x,y,-z
1/2+x,1/2+y,z
1/2-x,1/2+y,-z
loop_
_atom_site_type_symbol
_atom_site_label
_atom_site_fract_x
_atom_site_fract_y
_atom_site_fract_z
Si Si1 0.994139 0.976300 0.150086
Si Si2 0.784424 0.988374 0.800668
Si Si3 0.292861 0.731605 0.689520
Si Si4 0.330698 0.224053 0.676973
Si Si5 0.300739 0.123007 0.862557
O O1 0.055152 0.934521 0.209592
O O2 0.760684 0.879707 0.249677
O O3 0.919171 0.129847 0.204196
O O4 0.216676 0.986521 0.954991
O O5 0.777486 0.872535 0.736721
O O6 0.881482 0.123692 0.706806
O O7 0.500000 0.014807 0.000000
O O8 0.500000 0.733994 0.500000
O O9 0.001030 0.683632 0.818778
O O10 0.500000 0.225858 0.500000
O O11 0.447052 0.145860 0.693401
O O12 0.000000 0.176112 0.000000
#
# Coordination Sequence:
#
# PCOD9128150 Si02
#       5
#     4   4   4   4   4
#     4  11  25  47  74 106 154 197 250 312 373 463
#     4  12  25  45  76 109 149 204 255 302 383 461
#     4  12  27  48  76 120 154 190 260 327 375 449
#     4  11  25  48  73 104 150 200 242 314 383 442
#     4  10  23  47  76 105 149 202 246 299 380 458
#
# _framework density 24.356373999999999
#
# number of rings (size 3 to 8) (size 9 to 14) (size 15 to 20)
#    0.000    0.800    4.000    3.000    2.800    2.400 
#    7.200    0.000    0.000    0.000    0.000    0.000 
#    0.000    0.000    0.000    0.000    0.000    0.000 
#
# Total GULP energy -55693.845313 kJ/mol
# GULP energy per Si atom -5569.384531 kJ/mol
# Density = 2.430094 g / cm^3
# Si number density = 24.356374 Si / 1000 Ang^3
#
#
#
# Elastic Constant Matrix: (Units=GPa)
#
#
# Indices 1 2 3 4 5 6 
#
# 1 72.2542 12.7191 24.5008 -0.0030 18.9543 0.0036
# 2 12.7191 123.0655 58.2428 -0.0070 26.1845 0.0036
# 3 24.5008 58.2428 135.6757 -0.0171 44.5338 0.0084
# 4 -0.0030 -0.0070 -0.0171 29.0862 0.0053 13.5224
# 5 18.9543 26.1845 44.5338 0.0053 52.6830 -0.0044
# 6 0.0036 0.0036 0.0084 13.5224 -0.0044 13.2602
#
#
#
# Elastic Compliance Matrix: (Units=1/GPa)
#
#
# Indices 1 2 3 4 5 6 
#
# 1 0.015456 -0.000028 -0.001326 0.000007 -0.004425 -0.000012
# 2 -0.000028 0.010336 -0.003805 0.000002 -0.001911 -0.000003
# 3 -0.001326 -0.003805 0.011717 0.000021 -0.007536 -0.000030
# 4 0.000007 0.000002 0.000021 0.065374 -0.000034 -0.066667
# 5 -0.004425 -0.001911 -0.007536 -0.000034 0.027894 0.000050
# 6 -0.000012 -0.000003 -0.000030 -0.066667 0.000050 0.143399
#
#
# Mechanical properties :
#
#
# Convention : Reuss Voigt Hill
#
# Bulk Modulus (GPa) = 36.77777 57.99121 47.38449
# Shear Modulus (GPa) = 17.03242 34.70804 25.87023
#
# Velocity S-wave (km/s) = 2.64730 3.77902 3.26261
# Velocity P-wave (km/s) = 4.94741 6.55000 5.80428
#
# Compressibility (1/GPa) = 0.02719034
#
# Stress axis : x y z
#
# Youngs Moduli (GPa) = 64.70118 96.75049 85.34565
#
# Poissons Ratio (x) = 0.00271 0.11320
# Poissons Ratio (y) = 0.00181 0.32471
# Poissons Ratio (z) = 0.08582 0.36811
#
# Static dielectric constant tensor:
#      x y z
#    x 2.233920 0.000010 0.050850 
#    y 0.000010 1.980700 0.000010 
#    z 0.050850 0.000010 2.035490 
# 
# From -- ./inp_files/60280.got.cif
#   From: 2010.05.17/outbox.cif.g08.bks.cpg/sg5_31_cif.got.tgz:60280.got - 2010.06.03 18:56:24.
