data_PCOD9128346
_publ_section_title
;
Structure prediction by ZEFSAII (Michael W. Deem and Ramdas Pophale) SiO2 
 PCOD9128346
Probable space group: C 2
;
_chemical_formula_sum "Si O2"
_cell_formula_units_Z 32
_cell_length_a 14.385660
_cell_length_b 16.891998
_cell_length_c 11.633365
_cell_angle_alpha 90.000000
_cell_angle_beta 148.265803
_cell_angle_gamma 90.000000
_cell_volume 1486.910654
_symmetry_space_group_name_H-M "C 2"
_symmetry_group_IT_number 5
_symmetry_cell_setting 'monoclinic'
loop_
_space_group_symop_operation_xyz
x,y,z
-x,y,-z
1/2+x,1/2+y,z
1/2-x,1/2+y,-z
loop_
_atom_site_type_symbol
_atom_site_label
_atom_site_fract_x
_atom_site_fract_y
_atom_site_fract_z
Si Si1 0.681456 0.409810 0.445194
Si Si2 0.954745 0.687494 0.077518
Si Si3 0.741203 0.398309 0.000657
Si Si4 0.711520 0.444677 0.222045
Si Si5 0.708391 0.130700 0.722857
Si Si6 0.149968 0.223199 0.909105
Si Si7 0.765902 0.239438 0.569955
Si Si8 0.514626 0.001122 0.144618
O O1 0.750223 0.404837 0.385297
O O2 0.750392 0.332014 0.583186
O O3 0.787356 0.484230 0.604565
O O4 0.469427 0.415552 0.231454
O O5 0.983515 0.594104 0.109679
O O6 0.088020 0.722633 0.311808
O O7 0.755484 0.702983 0.905208
O O8 0.000000 0.720688 0.000000
O O9 0.778468 0.402238 0.177143
O O10 0.785798 0.312483 0.995849
O O11 0.868594 0.460495 0.071933
O O12 0.764988 0.537189 0.270372
O O13 0.500000 0.444383 0.000000
O O14 0.500000 0.146064 0.500000
O O15 0.784307 0.183116 0.699078
O O16 0.788596 0.162191 0.926845
O O17 0.940267 0.224099 0.679020
O O18 0.500000 0.969528 0.000000
#
# Coordination Sequence:
#
# PCOD9128346 Si02
#       8
#     4   4   4   4   4   4   4   4
#     4  11  24  43  69 101 136 175 223 283 337 401
#     4  11  26  47  69  97 141 179 227 277 338 410
#     4  11  24  43  69 101 136 175 223 283 337 401
#     4  10  24  42  68 102 136 172 225 283 339 406
#     4  12  24  42  70 101 139 177 225 286 344 404
#     4  12  25  43  70 102 137 179 226 282 340 405
#     4  12  25  43  70 102 137 179 226 282 340 405
#     4  11  26  45  67  97 135 183 223 273 338 408
#
# _framework density 21.521131
#
# number of rings (size 3 to 8) (size 9 to 14) (size 15 to 20)
#    0.000    0.750    3.750    2.625    5.250    4.000 
#    0.000    2.500    0.000    0.000    0.000    0.000 
#    0.000    0.000    0.000    0.000    0.000    0.000 
#
# Total GULP energy -89475.850224 kJ/mol
# GULP energy per Si atom -5592.240639 kJ/mol
# Density = 2.147215 g / cm^3
# Si number density = 21.521131 Si / 1000 Ang^3
#
#
#
# Elastic Constant Matrix: (Units=GPa)
#
#
# Indices 1 2 3 4 5 6 
#
# 1 94.1179 -5.2737 6.0554 0.0000 11.4244 0.0000
# 2 -5.2737 66.3937 -10.6522 0.0000 5.8673 0.0000
# 3 6.0554 -10.6522 30.9696 0.0000 8.8751 0.0000
# 4 0.0000 0.0000 0.0000 21.9312 0.0000 5.8133
# 5 11.4244 5.8673 8.8751 0.0000 29.1623 0.0000
# 6 0.0000 0.0000 0.0000 5.8133 0.0000 32.0745
#
#
#
# Elastic Compliance Matrix: (Units=1/GPa)
#
#
# Indices 1 2 3 4 5 6 
#
# 1 0.011272 0.001215 -0.000494 0.000000 -0.004510 0.000000
# 2 0.001215 0.016870 0.007312 0.000000 -0.006095 0.000000
# 3 -0.000494 0.007312 0.038637 0.000000 -0.013036 0.000000
# 4 0.000000 0.000000 0.000000 0.047898 0.000000 -0.008681
# 5 -0.004510 -0.006095 -0.013036 0.000000 0.041251 0.000000
# 6 0.000000 0.000000 0.000000 -0.008681 0.000000 0.032751
#
#
# Mechanical properties :
#
#
# Convention : Reuss Voigt Hill
#
# Bulk Modulus (GPa) = 12.07081 19.08224 15.57653
# Shear Modulus (GPa) = 24.97141 30.05706 27.51423
#
# Velocity S-wave (km/s) = 3.41004 3.74121 3.57946
# Velocity P-wave (km/s) = 4.59625 5.24863 4.93324
#
# Compressibility (1/GPa) = 0.08284447
#
# Stress axis : x y z
#
# Youngs Moduli (GPa) = 88.71346 59.27721 25.88190
#
# Poissons Ratio (x) = -0.07200 0.01278
# Poissons Ratio (y) = -0.10776 -0.18924
# Poissons Ratio (z) = 0.04380 -0.43342
#
# Static dielectric constant tensor:
#      x y z
#    x 1.802960 0.000000 -0.051540 
#    y 0.000000 1.778840 0.000000 
#    z -0.051540 0.000000 1.844160 
# 
# From -- ./inp_files/43350.got.cif
#   From: 2010.05.17/outbox.cif.g08.bks.cpg/sg5_22_cif.got.tgz:43350.got - 2010.06.03 18:56:24.
