data_PCOD9128285
_publ_section_title
;
Structure prediction by ZEFSAII (Michael W. Deem and Ramdas Pophale) SiO2 
 PCOD9128285
Probable space group: C 2
;
_chemical_formula_sum "Si O2"
_cell_formula_units_Z 24
_cell_length_a 16.355811
_cell_length_b 9.291822
_cell_length_c 14.015983
_cell_angle_alpha 90.000000
_cell_angle_beta 34.020368
_cell_angle_gamma 90.000000
_cell_volume 1191.754988
_symmetry_space_group_name_H-M "C 2"
_symmetry_group_IT_number 5
_symmetry_cell_setting 'monoclinic'
loop_
_space_group_symop_operation_xyz
x,y,z
-x,y,-z
1/2+x,1/2+y,z
1/2-x,1/2+y,-z
loop_
_atom_site_type_symbol
_atom_site_label
_atom_site_fract_x
_atom_site_fract_y
_atom_site_fract_z
Si Si1 0.404923 0.285840 0.751644
Si Si2 0.189710 0.021512 0.310847
Si Si3 0.070247 0.494786 0.596678
Si Si4 0.384845 0.514863 0.391785
Si Si5 0.500000 0.903472 0.000000
Si Si6 0.500000 0.780931 0.500000
Si Si7 0.428265 0.777190 0.871211
O O1 0.372860 0.389528 0.691745
O O2 0.511532 0.375428 0.718620
O O3 0.494046 0.142992 0.639766
O O4 0.245634 0.253645 0.950717
O O5 0.155617 0.017423 0.456606
O O6 0.360384 0.004803 0.134423
O O7 0.121030 0.170948 0.341611
O O8 0.232887 0.512817 0.481357
O O9 0.071590 0.382335 0.509093
O O10 0.966621 0.422006 0.776579
O O11 0.482299 0.649584 0.265121
O O12 0.507477 0.803300 0.085496
#
# Coordination Sequence:
#
# PCOD9128285 Si02
#       7
#     4   4   4   4   2   2   4
#     4  11  25  41  72 100 139 182 231 288 347 407
#     4  11  22  45  69  99 136 186 227 279 352 409
#     4  12  26  41  69 103 137 178 239 282 341 410
#     4  12  23  44  71  98 139 185 229 281 346 419
#     4  10  24  40  76 104 138 178 236 290 342 410
#     4  12  26  42  66 100 138 180 230 288 336 416
#     4  11  23  45  68 105 140 181 232 290 346 411
#
# _framework density 20.138369000000001
#
# number of rings (size 3 to 8) (size 9 to 14) (size 15 to 20)
#    0.000    0.667    5.000    2.000    2.333    2.667 
#    0.000    1.667    0.000    1.000    0.000    0.000 
#    0.000    0.000    0.000    0.000    0.000    0.000 
#
# Total GULP energy -67048.300692 kJ/mol
# GULP energy per Si atom -5587.358391 kJ/mol
# Density = 2.009253 g / cm^3
# Si number density = 20.138369 Si / 1000 Ang^3
#
#
#
# Elastic Constant Matrix: (Units=GPa)
#
#
# Indices 1 2 3 4 5 6 
#
# 1 131.2075 68.1669 71.0196 0.0000 -22.0174 0.0000
# 2 68.1669 154.6017 68.1807 0.0000 -19.6397 0.0000
# 3 71.0196 68.1807 126.3048 0.0000 -30.4336 0.0000
# 4 0.0000 0.0000 0.0000 38.0226 0.0000 4.2149
# 5 -22.0174 -19.6397 -30.4336 0.0000 49.0981 0.0000
# 6 0.0000 0.0000 0.0000 4.2149 0.0000 26.7877
#
#
#
# Elastic Compliance Matrix: (Units=1/GPa)
#
#
# Indices 1 2 3 4 5 6 
#
# 1 0.012002 -0.003007 -0.004841 0.000000 0.001178 0.000000
# 2 -0.003007 0.009260 -0.003222 0.000000 0.000359 0.000000
# 3 -0.004841 -0.003222 0.013572 0.000000 0.004953 0.000000
# 4 0.000000 0.000000 0.000000 0.026767 0.000000 -0.004212
# 5 0.001178 0.000359 0.004953 0.000000 0.024109 0.000000
# 6 0.000000 0.000000 0.000000 -0.004212 0.000000 0.037993
#
#
# Mechanical properties :
#
#
# Convention : Reuss Voigt Hill
#
# Bulk Modulus (GPa) = 78.77468 91.87203 85.32336
# Shear Modulus (GPa) = 33.31642 36.43147 34.87394
#
# Velocity S-wave (km/s) = 4.07181 4.25792 4.16590
# Velocity P-wave (km/s) = 7.82993 8.36018 8.09940
#
# Compressibility (1/GPa) = 0.01269443
#
# Stress axis : x y z
#
# Youngs Moduli (GPa) = 83.31855 107.98587 73.68065
#
# Poissons Ratio (x) = 0.32473 0.35672
# Poissons Ratio (y) = 0.25055 0.23736
# Poissons Ratio (z) = 0.40338 0.34788
#
# Static dielectric constant tensor:
#      x y z
#    x 1.733150 0.000000 0.012290 
#    y 0.000000 1.720350 0.000000 
#    z 0.012290 0.000000 1.710840 
# 
# From -- ./inp_files/55708.got.cif
#   From: 2010.05.17/outbox.cif.g08.bks.cpg/sg5_28_cif.got.tgz:55708.got - 2010.06.03 18:56:24.
