data_PCOD9128061
_publ_section_title
;
Structure prediction by ZEFSAII (Michael W. Deem and Ramdas Pophale) SiO2 
 PCOD9128061
Probable space group: C 2
;
_chemical_formula_sum "Si O2"
_cell_formula_units_Z 26
_cell_length_a 13.530766
_cell_length_b 7.829162
_cell_length_c 20.972323
_cell_angle_alpha 90.000000
_cell_angle_beta 25.200765
_cell_angle_gamma 90.000000
_cell_volume 945.978047
_symmetry_space_group_name_H-M "C 2"
_symmetry_group_IT_number 5
_symmetry_cell_setting 'monoclinic'
loop_
_space_group_symop_operation_xyz
x,y,z
-x,y,-z
1/2+x,1/2+y,z
1/2-x,1/2+y,-z
loop_
_atom_site_type_symbol
_atom_site_label
_atom_site_fract_x
_atom_site_fract_y
_atom_site_fract_z
Si Si1 0.230628 0.483270 0.791242
Si Si2 0.996175 0.705345 0.316749
Si Si3 0.323810 0.366937 0.230849
Si Si4 0.658914 0.996107 0.482262
Si Si5 0.617739 0.660205 0.173037
Si Si6 0.716715 0.756827 0.972134
Si Si7 0.000000 0.930774 0.000000
O O1 0.414205 0.329634 0.677984
O O2 0.241447 0.670800 0.752706
O O3 0.655688 0.637116 0.651436
O O4 0.274290 0.521385 0.840741
O O5 0.787577 0.813082 0.407357
O O6 0.888000 0.544393 0.415514
O O7 0.202113 0.672101 0.143465
O O8 0.538763 0.341408 0.151186
O O9 0.403869 0.485792 0.124724
O O10 0.103973 0.462721 0.386836
O O11 0.992648 0.390018 0.913203
O O12 0.778895 0.816169 0.103479
O O13 0.657792 0.665431 0.073899
#
# Coordination Sequence:
#
# PCOD9128061 Si02
#       7
#     4   4   4   4   4   4   2
#     4  10  23  48  79 110 158 208 267 340 402 465
#     4  11  25  46  76 107 161 210 269 324 422 484
#     4  10  23  45  75 112 157 206 268 334 406 479
#     4  11  24  49  75 113 164 218 249 344 423 470
#     4   9  21  43  78 107 148 202 264 326 392 468
#     4  11  25  43  79 116 142 216 273 326 392 502
#     4   8  16  38  72 106 142 206 250 312 390 468
#
# _framework density 27.484784000000001
#
# number of rings (size 3 to 8) (size 9 to 14) (size 15 to 20)
#    0.000    1.846    0.000    3.231   19.385    1.846 
#   16.615    0.000    3.385    0.000    0.000    0.000 
#    0.000    0.000    0.000    0.000    0.000    0.000 
#
# Total GULP energy -72518.546115 kJ/mol
# GULP energy per Si atom -5578.349701 kJ/mol
# Density = 2.742223 g / cm^3
# Si number density = 27.484784 Si / 1000 Ang^3
#
#
#
# Elastic Constant Matrix: (Units=GPa)
#
#
# Indices 1 2 3 4 5 6 
#
# 1 159.0069 30.5691 64.7539 -0.0023 -10.9914 0.0008
# 2 30.5691 105.3758 39.3741 -0.0036 6.8875 0.0005
# 3 64.7539 39.3741 243.2484 -0.0219 7.9465 0.0042
# 4 -0.0023 -0.0036 -0.0219 37.0205 0.0039 4.7955
# 5 -10.9914 6.8875 7.9465 0.0039 73.1420 -0.0003
# 6 0.0008 0.0005 0.0042 4.7955 -0.0003 20.3136
#
#
#
# Elastic Compliance Matrix: (Units=1/GPa)
#
#
# Indices 1 2 3 4 5 6 
#
# 1 0.007413 -0.001586 -0.001764 -0.000001 0.001455 0.000000
# 2 -0.001586 0.010484 -0.001239 0.000000 -0.001091 0.000000
# 3 -0.001764 -0.001239 0.004803 0.000003 -0.000670 -0.000002
# 4 -0.000001 0.000000 0.000003 0.027864 -0.000002 -0.006578
# 5 0.001455 -0.001091 -0.000670 -0.000002 0.014066 0.000001
# 6 0.000000 0.000000 -0.000002 -0.006578 0.000001 0.050781
#
#
# Mechanical properties :
#
#
# Convention : Reuss Voigt Hill
#
# Bulk Modulus (GPa) = 73.95808 86.33611 80.14710
# Shear Modulus (GPa) = 38.73021 50.95751 44.84386
#
# Velocity S-wave (km/s) = 3.75794 4.31051 4.04367
# Velocity P-wave (km/s) = 6.76732 7.50030 7.14322
#
# Compressibility (1/GPa) = 0.01352117
#
# Stress axis : x y z
#
# Youngs Moduli (GPa) = 134.89771 95.37999 208.19823
#
# Poissons Ratio (x) = 0.15131 0.36729
# Poissons Ratio (y) = 0.21400 0.25798
# Poissons Ratio (z) = 0.23798 0.11819
#
# Static dielectric constant tensor:
#      x y z
#    x 2.193620 0.000000 0.019910 
#    y 0.000000 2.294220 0.000000 
#    z 0.019910 0.000000 2.193290 
# 
# From -- ./inp_files/68627.got.cif
#   From: 2010.05.17/outbox.cif.g08.bks.cpg/sg5_35_cif.got.tgz:68627.got - 2010.06.03 18:56:24.
