data_PCOD9128552
_publ_section_title
;
Structure prediction by ZEFSAII (Michael W. Deem and Ramdas Pophale) SiO2 
 PCOD9128552
Probable space group: C 2
;
_chemical_formula_sum "Si O2"
_cell_formula_units_Z 18
_cell_length_a 5.075192
_cell_length_b 26.337463
_cell_length_c 5.289246
_cell_angle_alpha 90.000000
_cell_angle_beta 88.034478
_cell_angle_gamma 90.000000
_cell_volume 706.585283
_symmetry_space_group_name_H-M "C 2"
_symmetry_group_IT_number 5
_symmetry_cell_setting 'monoclinic'
loop_
_space_group_symop_operation_xyz
x,y,z
-x,y,-z
1/2+x,1/2+y,z
1/2-x,1/2+y,-z
loop_
_atom_site_type_symbol
_atom_site_label
_atom_site_fract_x
_atom_site_fract_y
_atom_site_fract_z
Si Si1 0.253547 0.009130 0.815010
Si Si2 0.827980 0.839303 0.759747
Si Si3 0.620927 0.191736 0.252192
Si Si4 0.000000 0.421803 0.500000
Si Si5 0.000000 0.246008 0.000000
Si Si6 0.500000 0.092304 0.500000
O O1 0.276962 0.053924 0.605924
O O2 0.295348 0.957958 0.653210
O O3 0.500000 0.014624 0.000000
O O4 0.000000 0.010163 0.000000
O O5 0.637111 0.885494 0.697715
O O6 0.000000 0.832115 0.500000
O O7 0.667760 0.788936 0.840231
O O8 0.000000 0.851521 0.000000
O O9 0.500000 0.217760 0.500000
O O10 0.930195 0.201500 0.214143
O O11 0.508052 0.134682 0.278322
O O12 0.500000 0.214653 0.000000
#
# Coordination Sequence:
#
# PCOD9128552 Si02
#       6
#     4   4   4   2   2   2
#     4  11  27  50  82 121 163 212 272 341 410 497
#     4  12  29  49  78 113 167 214 275 339 408 488
#     4  10  24  45  73 110 153 210 260 322 400 476
#     4  11  30  48  78 120 156 222 272 337 418 492
#     4  12  26  48  74 120 156 212 272 328 406 482
#     4   9  24  48  74 116 156 212 264 329 412 482
#
# _framework density 25.474633000000001
#
# number of rings (size 3 to 8) (size 9 to 14) (size 15 to 20)
#    0.667    0.444    0.000    3.333    9.333    7.111 
#    4.000    0.000    0.000    0.000    0.000    0.000 
#    0.000    0.000    0.000    0.000    0.000    0.000 
#
# Total GULP energy -50113.552113 kJ/mol
# GULP energy per Si atom -5568.172457 kJ/mol
# Density = 2.541665 g / cm^3
# Si number density = 25.474633 Si / 1000 Ang^3
#
#
#
# Elastic Constant Matrix: (Units=GPa)
#
#
# Indices 1 2 3 4 5 6 
#
# 1 98.0790 36.8498 86.9124 0.0000 -49.1761 0.0000
# 2 36.8498 162.7740 79.7369 0.0000 -32.7584 0.0000
# 3 86.9124 79.7369 234.0386 0.0000 -47.8070 0.0000
# 4 0.0000 0.0000 0.0000 95.6443 0.0000 -9.3215
# 5 -49.1761 -32.7584 -47.8070 0.0000 62.4856 0.0000
# 6 0.0000 0.0000 0.0000 -9.3215 0.0000 -4.4043
#
#
#
# Elastic Compliance Matrix: (Units=1/GPa)
#
#
# Indices 1 2 3 4 5 6 
#
# 1 0.021266 0.000420 -0.005425 0.000000 0.012806 0.000000
# 2 0.000420 0.007673 -0.002230 0.000000 0.002648 0.000000
# 3 -0.005425 -0.002230 0.007036 0.000000 -0.000055 0.000000
# 4 0.000000 0.000000 0.000000 0.008668 0.000000 -0.018345
# 5 0.012806 0.002648 -0.000055 0.000000 0.027428 0.000000
# 6 0.000000 0.000000 0.000000 -0.018345 0.000000 -0.188225
#
#
# Mechanical properties :
#
#
# Convention : Reuss Voigt Hill
#
# Bulk Modulus (GPa) = 46.49594 100.20999 73.35296
# Shear Modulus (GPa) = -52.89985 50.17130 -1.36427
#
# Velocity S-wave (km/s) = -4.56188 4.44268 -0.73260
# Velocity P-wave (km/s) = 3.07510 8.10796 5.30485
#
# Compressibility (1/GPa) = 0.02150725
#
# Stress axis : x y z
#
# Youngs Moduli (GPa) = 47.02369 130.32080 142.13448
#
# Poissons Ratio (x) = -0.05477 0.77101
# Poissons Ratio (y) = -0.01976 0.31689
# Poissons Ratio (z) = 0.25508 0.29055
#
# Static dielectric constant tensor:
#      x y z
#    x -0.104460 0.000000 0.041790 
#    y 0.000000 2.028860 0.000000 
#    z 0.041790 0.000000 1.956330 
# 
# From -- ./inp_files/999.got.cif
#   From: 2010.05.17/outbox.cif.g08.bks.cpg/sg5_1_cif.got.tgz:999.got - 2010.06.03 18:56:24.
