data_PCOD9128578
_publ_section_title
;
Structure prediction by ZEFSAII (Michael W. Deem and Ramdas Pophale) SiO2 
 PCOD9128578
Probable space group: C 2
;
_chemical_formula_sum "Si O2"
_cell_formula_units_Z 30
_cell_length_a 25.112250
_cell_length_b 9.358075
_cell_length_c 12.553587
_cell_angle_alpha 90.000000
_cell_angle_beta 156.706601
_cell_angle_gamma 90.000000
_cell_volume 1166.595341
_symmetry_space_group_name_H-M "C 2"
_symmetry_group_IT_number 5
_symmetry_cell_setting 'monoclinic'
loop_
_space_group_symop_operation_xyz
x,y,z
-x,y,-z
1/2+x,1/2+y,z
1/2-x,1/2+y,-z
loop_
_atom_site_type_symbol
_atom_site_label
_atom_site_fract_x
_atom_site_fract_y
_atom_site_fract_z
Si Si1 0.216937 0.678070 0.050323
Si Si2 0.634326 0.359226 0.314124
Si Si3 0.366298 0.714247 0.687424
Si Si4 0.000000 0.270886 0.500000
Si Si5 0.278331 0.037030 0.447023
Si Si6 0.047856 0.530259 0.439335
Si Si7 0.169323 0.000691 0.023956
Si Si8 0.117199 0.036475 0.484122
O O1 0.354345 0.694964 0.235981
O O2 0.195896 0.832414 0.065069
O O3 0.256755 0.554819 0.208209
O O4 0.069146 0.636156 0.743103
O O5 0.706391 0.194632 0.463486
O O6 0.791687 0.377839 0.532591
O O7 0.621719 0.397528 0.417585
O O8 0.500000 0.315665 0.000000
O O9 0.360423 0.536586 0.710246
O O10 0.380823 0.674670 0.588888
O O11 0.500000 0.759210 0.000000
O O12 0.995548 0.376461 0.594688
O O13 0.413120 0.032608 0.614977
O O14 0.169846 0.039694 0.149923
O O15 0.191225 0.568025 0.758323
O O16 0.023445 0.035443 0.712401
#
# Coordination Sequence:
#
# PCOD9128578 Si02
#       8
#     4   4   4   2   4   4   4   4
#     4  11  24  42  70  97 122 167 212 263 342 377
#     4  11  21  36  58  90 136 176 217 257 306 372
#     4  11  21  35  57  93 132 178 218 250 312 370
#     4  10  24  46  68  94 126 164 202 280 340 378
#     4   9  18  38  59  82 127 166 210 254 303 370
#     4   9  21  42  69  92 123 160 220 258 316 399
#     4   9  19  41  64  87 131 168 204 260 318 362
#     4  11  22  39  61  96 132 175 213 265 310 385
#
# _framework density 25.715858999999998
#
# number of rings (size 3 to 8) (size 9 to 14) (size 15 to 20)
#    0.800    1.067    2.667    1.600    1.867    3.200 
#    0.000    4.000    0.000    0.000    0.000    0.000 
#    0.000    0.000    0.000    0.000    0.000    0.000 
#
# Total GULP energy -83604.056944 kJ/mol
# GULP energy per Si atom -5573.603796 kJ/mol
# Density = 2.565733 g / cm^3
# Si number density = 25.715859 Si / 1000 Ang^3
#
#
#
# Elastic Constant Matrix: (Units=GPa)
#
#
# Indices 1 2 3 4 5 6 
#
# 1 137.9347 54.7438 15.7450 0.0000 34.0866 0.0000
# 2 54.7438 135.4000 71.8861 0.0000 15.5453 0.0000
# 3 15.7450 71.8861 167.5328 0.0000 26.8399 0.0000
# 4 0.0000 0.0000 0.0000 58.8962 0.0000 12.3536
# 5 34.0866 15.5453 26.8399 0.0000 35.8196 0.0000
# 6 0.0000 0.0000 0.0000 12.3536 0.0000 43.1524
#
#
#
# Elastic Compliance Matrix: (Units=1/GPa)
#
#
# Indices 1 2 3 4 5 6 
#
# 1 0.011591 -0.004897 0.002771 0.000000 -0.010981 0.000000
# 2 -0.004897 0.011680 -0.005098 0.000000 0.003411 0.000000
# 3 0.002771 -0.005098 0.009051 0.000000 -0.007206 0.000000
# 4 0.000000 0.000000 0.000000 0.018064 0.000000 -0.005171
# 5 -0.010981 0.003411 -0.007206 0.000000 0.042287 0.000000
# 6 0.000000 0.000000 0.000000 -0.005171 0.000000 0.024654
#
#
# Mechanical properties :
#
#
# Convention : Reuss Voigt Hill
#
# Bulk Modulus (GPa) = 55.94708 80.62415 68.28562
# Shear Modulus (GPa) = 36.30247 47.47314 41.88781
#
# Velocity S-wave (km/s) = 3.76130 4.30125 4.04031
# Velocity P-wave (km/s) = 6.37701 7.48917 6.95535
#
# Compressibility (1/GPa) = 0.01787403
#
# Stress axis : x y z
#
# Youngs Moduli (GPa) = 86.27724 85.61365 110.49056
#
# Poissons Ratio (x) = 0.41922 -0.30617
# Poissons Ratio (y) = 0.42247 0.56329
# Poissons Ratio (z) = -0.23908 0.43647
#
# Static dielectric constant tensor:
#      x y z
#    x 2.111860 0.000000 0.072210 
#    y 0.000000 2.003090 0.000000 
#    z 0.072210 0.000000 1.938270 
# 
# From -- ./inp_files/58407.got.cif
#   From: 2010.05.17/outbox.cif.g08.bks.cpg/sg5_30_cif.got.tgz:58407.got - 2010.06.03 18:56:24.
