data_PCOD9128596
_publ_section_title
;
Structure prediction by ZEFSAII (Michael W. Deem and Ramdas Pophale) SiO2 
 PCOD9128596
Probable space group: C 2
;
_chemical_formula_sum "Si O2"
_cell_formula_units_Z 24
_cell_length_a 7.579762
_cell_length_b 14.310677
_cell_length_c 11.164451
_cell_angle_alpha 90.000000
_cell_angle_beta 71.752903
_cell_angle_gamma 90.000000
_cell_volume 1150.128630
_symmetry_space_group_name_H-M "C 2"
_symmetry_group_IT_number 5
_symmetry_cell_setting 'monoclinic'
loop_
_space_group_symop_operation_xyz
x,y,z
-x,y,-z
1/2+x,1/2+y,z
1/2-x,1/2+y,-z
loop_
_atom_site_type_symbol
_atom_site_label
_atom_site_fract_x
_atom_site_fract_y
_atom_site_fract_z
Si Si1 0.396899 0.231220 0.748546
Si Si2 0.917097 0.095448 0.267616
Si Si3 0.000000 0.994592 0.000000
Si Si4 0.000000 0.827739 0.500000
Si Si5 0.172245 0.582686 0.753482
Si Si6 0.801587 0.401272 0.080735
Si Si7 0.196768 0.473474 0.508698
O O1 0.225182 0.178830 0.722709
O O2 0.523733 0.266619 0.612987
O O3 0.512240 0.159358 0.806371
O O4 0.320140 0.322099 0.830776
O O5 0.119552 0.121805 0.274618
O O6 0.821143 0.020852 0.377800
O O7 0.953936 0.052492 0.128639
O O8 0.818541 0.935356 0.006205
O O9 0.179280 0.894211 0.455525
O O10 0.161970 0.491816 0.842024
O O11 0.151563 0.548140 0.621527
O O12 0.000000 0.362509 0.000000
O O13 0.000000 0.439400 0.500000
#
# Coordination Sequence:
#
# PCOD9128596 Si02
#       7
#     4   4   2   2   4   4   4
#     4  12  25  42  69 107 133 180 239 288 343 426
#     4  11  23  42  72  98 134 180 232 283 349 417
#     4  10  24  46  70  96 132 190 230 280 358 410
#     4  12  24  42  66 104 140 174 238 290 344 422
#     4  11  23  47  70  99 137 184 227 289 353 409
#     4  11  25  46  70  98 143 180 231 293 349 416
#     4  12  22  41  73  97 137 181 224 289 360 408
#
# _framework density 20.867232000000001
#
# number of rings (size 3 to 8) (size 9 to 14) (size 15 to 20)
#    0.000    0.667    5.000    3.000    1.167    2.667 
#    4.500    0.000    0.000    0.000    0.000    0.000 
#    0.000    0.000    0.000    0.000    0.000    0.000 
#
# Total GULP energy -67094.555526 kJ/mol
# GULP energy per Si atom -5591.212960 kJ/mol
# Density = 2.081974 g / cm^3
# Si number density = 20.867232 Si / 1000 Ang^3
#
#
#
# Elastic Constant Matrix: (Units=GPa)
#
#
# Indices 1 2 3 4 5 6 
#
# 1 122.8379 32.1192 0.0627 0.0000 2.2272 0.0000
# 2 32.1192 83.1026 3.7896 0.0000 5.0999 0.0000
# 3 0.0627 3.7896 64.5242 0.0000 7.0663 0.0000
# 4 0.0000 0.0000 0.0000 -6.9619 0.0000 -9.6293
# 5 2.2272 5.0999 7.0663 0.0000 24.9991 0.0000
# 6 0.0000 0.0000 0.0000 -9.6293 0.0000 28.0441
#
#
#
# Elastic Compliance Matrix: (Units=1/GPa)
#
#
# Indices 1 2 3 4 5 6 
#
# 1 0.009059 -0.003502 0.000214 0.000000 -0.000153 0.000000
# 2 -0.003502 0.013553 -0.000541 0.000000 -0.002300 0.000000
# 3 0.000214 -0.000541 0.016015 0.000000 -0.004436 0.000000
# 4 0.000000 0.000000 0.000000 -0.097387 0.000000 -0.033439
# 5 -0.000153 -0.002300 -0.004436 0.000000 0.041738 0.000000
# 6 0.000000 0.000000 0.000000 -0.033439 0.000000 0.024176
#
#
# Mechanical properties :
#
#
# Convention : Reuss Voigt Hill
#
# Bulk Modulus (GPa) = 32.28984 38.04530 35.16757
# Shear Modulus (GPa) = 198.92873 24.84913 111.88893
#
# Velocity S-wave (km/s) = 9.77434 3.45457 7.33047
# Velocity P-wave (km/s) = 11.95370 5.84669 9.40943
#
# Compressibility (1/GPa) = 0.03096950
#
# Stress axis : x y z
#
# Youngs Moduli (GPa) = 110.38646 73.78697 62.43998
#
# Poissons Ratio (x) = 0.25838 -0.01334
# Poissons Ratio (y) = 0.38654 0.03376
# Poissons Ratio (z) = -0.02358 0.03990
#
# Static dielectric constant tensor:
#      x y z
#    x 1.756310 0.000000 -0.020320 
#    y 0.000000 1.771580 0.000000 
#    z -0.020320 0.000000 1.764780 
# 
# From -- ./inp_files/35362.got.cif
#   From: 2010.05.17/outbox.cif.g08.bks.cpg/sg5_18_cif.got.tgz:35362.got - 2010.06.03 18:56:24.
