data_PCOD9128887
_publ_section_title
;
Structure prediction by ZEFSAII (Michael W. Deem and Ramdas Pophale) SiO2 
 PCOD9128887
Probable space group: C 2
;
_chemical_formula_sum "Si O2"
_cell_formula_units_Z 18
_cell_length_a 13.239807
_cell_length_b 5.023157
_cell_length_c 11.153222
_cell_angle_alpha 90.000000
_cell_angle_beta 103.249290
_cell_angle_gamma 90.000000
_cell_volume 722.008164
_symmetry_space_group_name_H-M "C 2"
_symmetry_group_IT_number 5
_symmetry_cell_setting 'monoclinic'
loop_
_space_group_symop_operation_xyz
x,y,z
-x,y,-z
1/2+x,1/2+y,z
1/2-x,1/2+y,-z
loop_
_atom_site_type_symbol
_atom_site_label
_atom_site_fract_x
_atom_site_fract_y
_atom_site_fract_z
Si Si1 0.000000 0.870880 0.000000
Si Si2 0.752482 0.029301 0.337298
Si Si3 0.928066 0.202077 0.212057
Si Si4 0.635112 0.534617 0.377861
Si Si5 0.320973 0.064905 0.024529
O O1 0.099493 0.684279 0.050211
O O2 0.031910 0.051855 0.896452
O O3 0.822698 0.098105 0.243485
O O4 0.660177 0.239140 0.338163
O O5 0.825962 0.050407 0.474945
O O6 0.707384 0.734392 0.321701
O O7 0.895546 0.495742 0.158008
O O8 0.020077 0.146638 0.329679
O O9 0.234164 0.287636 0.021787
#
# Coordination Sequence:
#
# PCOD9128887 Si02
#       5
#     2   4   4   4   4
#     4  12  30  48  70 112 146 200 248 298 356 436
#     4  10  25  46  75 107 146 184 232 307 360 433
#     4  12  28  46  79 104 144 198 241 295 361 436
#     4  10  25  48  73 110 142 181 244 297 368 424
#     4  12  29  49  69 103 151 195 247 300 356 427
#
# _framework density 24.930465000000002
#
# number of rings (size 3 to 8) (size 9 to 14) (size 15 to 20)
#    0.000    0.889    2.222    1.333    9.333    1.778 
#    0.000    6.667    0.000    0.000    0.000    0.000 
#    0.000    0.000    0.000    0.000    0.000    0.000 
#
# Total GULP energy -50413.010210 kJ/mol
# GULP energy per Si atom -5601.445579 kJ/mol
# Density = 2.487372 g / cm^3
# Si number density = 24.930465 Si / 1000 Ang^3
#
#
#
# Elastic Constant Matrix: (Units=GPa)
#
#
# Indices 1 2 3 4 5 6 
#
# 1 109.9572 11.6225 2.5986 0.0000 5.2925 0.0000
# 2 11.6225 102.8767 7.2342 0.0000 3.7114 0.0000
# 3 2.5986 7.2342 63.7727 0.0000 -10.8060 0.0000
# 4 0.0000 0.0000 0.0000 28.9825 0.0000 5.3190
# 5 5.2925 3.7114 -10.8060 0.0000 60.8889 0.0000
# 6 0.0000 0.0000 0.0000 5.3190 0.0000 50.6184
#
#
#
# Elastic Compliance Matrix: (Units=1/GPa)
#
#
# Indices 1 2 3 4 5 6 
#
# 1 0.009248 -0.000987 -0.000403 0.000000 -0.000815 0.000000
# 2 -0.000987 0.009944 -0.001212 0.000000 -0.000735 0.000000
# 3 -0.000403 -0.001212 0.016345 0.000000 0.003010 0.000000
# 4 0.000000 0.000000 0.000000 0.035182 0.000000 -0.003697
# 5 -0.000815 -0.000735 0.003010 0.000000 0.017073 0.000000
# 6 0.000000 0.000000 0.000000 -0.003697 0.000000 0.020144
#
#
# Mechanical properties :
#
#
# Convention : Reuss Voigt Hill
#
# Bulk Modulus (GPa) = 32.96948 35.50192 34.23570
# Shear Modulus (GPa) = 40.56788 45.10805 42.83796
#
# Velocity S-wave (km/s) = 4.03828 4.25827 4.14973
# Velocity P-wave (km/s) = 5.91582 6.20068 6.05992
#
# Compressibility (1/GPa) = 0.03033108
#
# Stress axis : x y z
#
# Youngs Moduli (GPa) = 108.13700 100.56653 61.18224
#
# Poissons Ratio (x) = 0.09926 0.02466
# Poissons Ratio (y) = 0.10673 0.07418
# Poissons Ratio (z) = 0.04358 0.12193
#
# Static dielectric constant tensor:
#      x y z
#    x 1.964030 0.000000 0.087130 
#    y 0.000000 1.943410 0.000000 
#    z 0.087130 0.000000 2.015620 
# 
# From -- ./inp_files/37781.got.cif
#   From: 2010.05.17/outbox.cif.g08.bks.cpg/sg5_19_cif.got.tgz:37781.got - 2010.06.03 18:56:24.
