data_PCOD9128190
_publ_section_title
;
Structure prediction by ZEFSAII (Michael W. Deem and Ramdas Pophale) SiO2 
 PCOD9128190
Probable space group: C 2
;
_chemical_formula_sum "Si O2"
_cell_formula_units_Z 28
_cell_length_a 14.025638
_cell_length_b 7.339227
_cell_length_c 12.979114
_cell_angle_alpha 90.000000
_cell_angle_beta 119.570032
_cell_angle_gamma 90.000000
_cell_volume 1162.021088
_symmetry_space_group_name_H-M "C 2"
_symmetry_group_IT_number 5
_symmetry_cell_setting 'monoclinic'
loop_
_space_group_symop_operation_xyz
x,y,z
-x,y,-z
1/2+x,1/2+y,z
1/2-x,1/2+y,-z
loop_
_atom_site_type_symbol
_atom_site_label
_atom_site_fract_x
_atom_site_fract_y
_atom_site_fract_z
Si Si1 0.747375 0.986550 0.349868
Si Si2 0.889885 0.187070 0.120241
Si Si3 0.210511 0.419263 0.104335
Si Si4 0.120113 0.782148 0.407890
Si Si5 0.834794 0.354712 0.298887
Si Si6 0.500000 0.098152 0.500000
Si Si7 0.500000 0.176576 0.000000
Si Si8 0.905750 0.977911 0.806347
O O1 0.713339 0.882451 0.228013
O O2 0.800615 0.848397 0.458659
O O3 0.658521 0.104018 0.365904
O O4 0.819051 0.155201 0.342381
O O5 0.892355 0.324656 0.219131
O O6 0.823826 0.013077 0.129304
O O7 0.817368 0.258235 0.987404
O O8 0.009962 0.143443 0.140114
O O9 0.108251 0.558818 0.037034
O O10 0.108150 0.945272 0.322526
O O11 0.010936 0.726387 0.407473
O O12 0.898755 0.470452 0.417899
O O13 0.716542 0.448238 0.215685
O O14 0.471945 0.308264 0.890260
#
# Coordination Sequence:
#
# PCOD9128190 Si02
#       8
#     4   4   4   4   4   2   2   4
#     4  10  23  49  74  98 148 191 241 312 358 450
#     4  11  25  46  79 103 152 197 247 313 377 451
#     4  11  25  47  71 112 143 201 250 308 376 453
#     4  11  24  46  71 105 139 192 242 304 376 437
#     4  10  25  50  70 111 151 187 258 307 371 460
#     4  12  28  42  74 108 144 192 244 316 370 456
#     4  12  22  50  70 104 160 180 258 312 366 458
#     4  11  25  48  73 106 149 201 239 316 378 447
#
# _framework density 24.095949000000001
#
# number of rings (size 3 to 8) (size 9 to 14) (size 15 to 20)
#    0.000    1.143    4.286    2.571    8.000    1.714 
#   10.286    0.000    0.000    0.000    0.000    0.000 
#    0.000    0.000    0.000    0.000    0.000    0.000 
#
# Total GULP energy -78287.771717 kJ/mol
# GULP energy per Si atom -5591.983694 kJ/mol
# Density = 2.404111 g / cm^3
# Si number density = 24.095949 Si / 1000 Ang^3
#
#
#
# Elastic Constant Matrix: (Units=GPa)
#
#
# Indices 1 2 3 4 5 6 
#
# 1 61.0431 17.7424 12.5653 0.0000 -0.3087 0.0000
# 2 17.7424 40.9441 15.8478 0.0000 -6.5119 0.0000
# 3 12.5653 15.8478 129.5142 0.0000 -13.3575 0.0000
# 4 0.0000 0.0000 0.0000 30.1819 0.0000 16.5220
# 5 -0.3087 -6.5119 -13.3575 0.0000 38.9475 0.0000
# 6 0.0000 0.0000 0.0000 16.5220 0.0000 25.0808
#
#
#
# Elastic Compliance Matrix: (Units=1/GPa)
#
#
# Indices 1 2 3 4 5 6 
#
# 1 0.018923 -0.008055 -0.001009 0.000000 -0.001543 0.000000
# 2 -0.008055 0.029489 -0.002410 0.000000 0.004040 0.000000
# 3 -0.001009 -0.002410 0.008368 0.000000 0.002459 0.000000
# 4 0.000000 0.000000 0.000000 0.051819 0.000000 -0.034136
# 5 -0.001543 0.004040 0.002459 0.000000 0.027182 0.000000
# 6 0.000000 0.000000 0.000000 -0.034136 0.000000 0.062358
#
#
# Mechanical properties :
#
#
# Convention : Reuss Voigt Hill
#
# Bulk Modulus (GPa) = 29.55844 35.97914 32.76879
# Shear Modulus (GPa) = 21.51788 31.19843 26.35816
#
# Velocity S-wave (km/s) = 2.99157 3.60218 3.31098
# Velocity P-wave (km/s) = 4.92201 5.68022 5.31466
#
# Compressibility (1/GPa) = 0.03383129
#
# Stress axis : x y z
#
# Youngs Moduli (GPa) = 52.84586 33.91054 119.50847
#
# Poissons Ratio (x) = 0.27314 0.12063
# Poissons Ratio (y) = 0.42565 0.28805
# Poissons Ratio (z) = 0.05334 0.08173
#
# Static dielectric constant tensor:
#      x y z
#    x 1.948360 0.000000 0.020080 
#    y 0.000000 1.960960 0.000000 
#    z 0.020080 0.000000 1.947620 
# 
# From -- ./inp_files/42036.got.cif
#   From: 2010.05.17/outbox.cif.g08.bks.cpg/sg5_22_cif.got.tgz:42036.got - 2010.06.03 18:56:24.
