data_PCOD9128745
_publ_section_title
;
Structure prediction by ZEFSAII (Michael W. Deem and Ramdas Pophale) SiO2 
 PCOD9128745
Probable space group: C 2
;
_chemical_formula_sum "Si O2"
_cell_formula_units_Z 30
_cell_length_a 7.757884
_cell_length_b 21.349054
_cell_length_c 11.062848
_cell_angle_alpha 90.000000
_cell_angle_beta 141.117054
_cell_angle_gamma 90.000000
_cell_volume 1150.171777
_symmetry_space_group_name_H-M "C 2"
_symmetry_group_IT_number 5
_symmetry_cell_setting 'monoclinic'
loop_
_space_group_symop_operation_xyz
x,y,z
-x,y,-z
1/2+x,1/2+y,z
1/2-x,1/2+y,-z
loop_
_atom_site_type_symbol
_atom_site_label
_atom_site_fract_x
_atom_site_fract_y
_atom_site_fract_z
Si Si1 0.587387 0.082790 0.274511
Si Si2 0.500000 0.011525 0.000000
Si Si3 0.976767 0.461184 0.605406
Si Si4 0.739377 0.191419 0.529260
Si Si5 0.720813 0.827089 0.424614
Si Si6 0.025822 0.939421 0.889775
Si Si7 0.278440 0.811732 0.980951
Si Si8 0.769188 0.675631 0.977780
O O1 0.666517 0.052851 0.189307
O O2 0.274891 0.141510 0.585583
O O3 0.598205 0.025756 0.372346
O O4 0.297295 0.114572 0.077523
O O5 0.730551 0.972114 0.055956
O O6 0.233940 0.466786 0.646542
O O7 0.837081 0.394968 0.556121
O O8 0.279482 0.446229 0.866113
O O9 0.500000 0.187681 0.500000
O O10 0.751619 0.262708 0.486603
O O11 0.995385 0.175936 0.752855
O O12 0.456508 0.813600 0.199068
O O13 0.000000 0.831325 0.500000
O O14 0.048618 0.864881 0.868066
O O15 0.202851 0.738852 0.928318
O O16 0.500000 0.828990 0.000000
O O17 0.000000 0.677190 0.000000
#
# Coordination Sequence:
#
# PCOD9128745 Si02
#       8
#     4   2   4   4   4   4   4   4
#     4  12  27  53  74 116 160 211 263 328 399 486
#     4  12  26  48  82 116 154 214 260 320 404 474
#     4  12  29  48  75 115 153 212 263 329 396 470
#     4  10  26  50  82 115 158 208 265 327 397 476
#     4  10  24  49  74 115 154 198 263 326 395 468
#     4  12  24  49  79 111 157 200 264 326 385 471
#     4  11  24  44  82 116 145 201 260 325 401 464
#     4  11  27  49  75 115 154 208 263 327 402 474
#
# _framework density 26.083062000000002
#
# number of rings (size 3 to 8) (size 9 to 14) (size 15 to 20)
#    0.000    0.800    4.000    0.800    9.333    3.733 
#    4.800    0.000    0.000    0.000    0.000    0.000 
#    0.000    0.000    0.000    0.000    0.000    0.000 
#
# Total GULP energy -83800.524448 kJ/mol
# GULP energy per Si atom -5586.701630 kJ/mol
# Density = 2.602370 g / cm^3
# Si number density = 26.083062 Si / 1000 Ang^3
#
#
#
# Elastic Constant Matrix: (Units=GPa)
#
#
# Indices 1 2 3 4 5 6 
#
# 1 146.7574 107.4544 52.9295 0.0000 -6.0896 0.0000
# 2 107.4544 241.3191 48.5552 0.0000 -15.6884 0.0000
# 3 52.9295 48.5552 159.5016 0.0000 3.0001 0.0000
# 4 0.0000 0.0000 0.0000 55.3950 0.0000 -24.8989
# 5 -6.0896 -15.6884 3.0001 0.0000 55.8403 0.0000
# 6 0.0000 0.0000 0.0000 -24.8989 0.0000 41.5202
#
#
#
# Elastic Compliance Matrix: (Units=1/GPa)
#
#
# Indices 1 2 3 4 5 6 
#
# 1 0.010827 -0.004360 -0.002267 0.000000 0.000078 0.000000
# 2 -0.004360 0.006268 -0.000486 0.000000 0.001312 0.000000
# 3 -0.002267 -0.000486 0.007184 0.000000 -0.000770 0.000000
# 4 0.000000 0.000000 0.000000 0.024714 0.000000 0.014820
# 5 0.000078 0.001312 -0.000770 0.000000 0.018327 0.000000
# 6 0.000000 0.000000 0.000000 0.014820 0.000000 0.032972
#
#
# Mechanical properties :
#
#
# Convention : Reuss Voigt Hill
#
# Bulk Modulus (GPa) = 99.46702 107.27295 103.36999
# Shear Modulus (GPa) = 42.41982 53.12702 47.77342
#
# Velocity S-wave (km/s) = 4.03716 4.51803 4.28435
# Velocity P-wave (km/s) = 7.74268 8.27246 8.01195
#
# Compressibility (1/GPa) = 0.01005358
#
# Stress axis : x y z
#
# Youngs Moduli (GPa) = 92.36067 159.53195 139.19219
#
# Poissons Ratio (x) = 0.69554 0.31557
# Poissons Ratio (y) = 0.40268 0.06766
# Poissons Ratio (z) = 0.20939 0.07754
#
# Static dielectric constant tensor:
#      x y z
#    x 2.043590 0.000000 -0.267760 
#    y 0.000000 1.978060 0.000000 
#    z -0.267760 0.000000 2.554770 
# 
# From -- ./inp_files/59908.got.cif
#   From: 2010.05.17/outbox.cif.g08.bks.cpg/sg5_30_cif.got.tgz:59908.got - 2010.06.03 18:56:24.
