data_PCOD9128859
_publ_section_title
;
Structure prediction by ZEFSAII (Michael W. Deem and Ramdas Pophale) SiO2 
 PCOD9128859
Probable space group: C 2
;
_chemical_formula_sum "Si O2"
_cell_formula_units_Z 16
_cell_length_a 4.725417
_cell_length_b 30.242073
_cell_length_c 5.552147
_cell_angle_alpha 90.000000
_cell_angle_beta 124.521175
_cell_angle_gamma 90.000000
_cell_volume 653.726384
_symmetry_space_group_name_H-M "C 2"
_symmetry_group_IT_number 5
_symmetry_cell_setting 'monoclinic'
loop_
_space_group_symop_operation_xyz
x,y,z
-x,y,-z
1/2+x,1/2+y,z
1/2-x,1/2+y,-z
loop_
_atom_site_type_symbol
_atom_site_label
_atom_site_fract_x
_atom_site_fract_y
_atom_site_fract_z
Si Si1 0.000000 0.084440 0.000000
Si Si2 0.500000 0.020092 0.500000
Si Si3 0.000000 0.385925 0.000000
Si Si4 0.000000 0.823973 0.000000
Si Si5 0.000000 0.951299 0.500000
Si Si6 0.500000 0.269898 0.500000
Si Si7 0.500000 0.146203 0.000000
Si Si8 0.000000 0.211446 0.000000
O O1 0.306149 0.053180 0.229368
O O2 0.167086 0.113398 0.861071
O O3 0.236166 0.985774 0.479448
O O4 0.706351 0.418452 0.768984
O O5 0.834150 0.354736 0.122389
O O6 0.028230 0.796973 0.263460
O O7 0.149740 0.241690 0.285876
O O8 0.336718 0.181356 0.109202
#
# Coordination Sequence:
#
# PCOD9128859 Si02
#       8
#     2   2   2   2   2   2   2   2
#     4  11  24  43  69 102 141 188 239 296 361 435
#     4  12  24  43  70 102 141 188 239 298 360 435
#     4  12  27  47  73 106 147 194 247 306 373 441
#     4  12  29  51  78 111 151 200 253 313 376 447
#     4  12  25  44  70 104 143 190 241 300 366 436
#     4  12  29  51  78 112 150 200 254 312 376 447
#     4  10  25  45  70 104 144 190 240 300 366 437
#     4  11  27  46  74 105 147 194 247 305 372 440
#
# _framework density 24.475069000000001
#
# number of rings (size 3 to 8) (size 9 to 14) (size 15 to 20)
#    0.000    0.500    0.000    6.750    0.000   19.000 
#    0.000    0.000    0.000    0.000    0.000    0.000 
#    0.000    0.000    0.000    0.000    0.000    0.000 
#
# Total GULP energy -44647.228725 kJ/mol
# GULP energy per Si atom -5580.903591 kJ/mol
# Density = 2.441936 g / cm^3
# Si number density = 24.475069 Si / 1000 Ang^3
#
#
#
# Elastic Constant Matrix: (Units=GPa)
#
#
# Indices 1 2 3 4 5 6 
#
# 1 121.8244 59.6138 28.6068 0.0000 -11.9077 0.0000
# 2 59.6138 150.1443 73.4342 0.0000 -12.1172 0.0000
# 3 28.6068 73.4342 142.9735 0.0000 1.7068 0.0000
# 4 0.0000 0.0000 0.0000 -457.8164 0.0000 -230.4523
# 5 -11.9077 -12.1172 1.7068 0.0000 31.9697 0.0000
# 6 0.0000 0.0000 0.0000 -230.4523 0.0000 -48.1293
#
#
#
# Elastic Compliance Matrix: (Units=1/GPa)
#
#
# Indices 1 2 3 4 5 6 
#
# 1 0.010361 -0.003862 -0.000118 0.000000 0.002402 0.000000
# 2 -0.003862 0.010773 -0.004795 0.000000 0.002901 0.000000
# 3 -0.000118 -0.004795 0.009509 0.000000 -0.002369 0.000000
# 4 0.000000 0.000000 0.000000 0.001549 0.000000 -0.007416
# 5 0.002402 0.002901 -0.002369 0.000000 0.033400 0.000000
# 6 0.000000 0.000000 0.000000 -0.007416 0.000000 0.014733
#
#
# Mechanical properties :
#
#
# Convention : Reuss Voigt Hill
#
# Bulk Modulus (GPa) = 76.38041 82.02798 79.20420
# Shear Modulus (GPa) = 48.90452 -77.90939 -14.50244
#
# Velocity S-wave (km/s) = 4.47490 -5.64812 -2.43685
# Velocity P-wave (km/s) = 7.61412 2.99121 4.95114
#
# Compressibility (1/GPa) = 0.01309236
#
# Stress axis : x y z
#
# Youngs Moduli (GPa) = 96.51644 92.82401 105.16268
#
# Poissons Ratio (x) = 0.35851 0.01241
# Poissons Ratio (y) = 0.37277 0.50427
# Poissons Ratio (z) = 0.01139 0.44510
#
# Static dielectric constant tensor:
#      x y z
#    x 1.962380 0.000000 0.003820 
#    y 0.000000 2.119660 0.000000 
#    z 0.003820 0.000000 1.920630 
# 
# From -- ./inp_files/1244.got.cif
#   From: 2010.05.17/outbox.cif.g08.bks.cpg/sg5_1_cif.got.tgz:1244.got - 2010.06.03 18:56:24.
