data_PCOD9128235
_publ_section_title
;
Structure prediction by ZEFSAII (Michael W. Deem and Ramdas Pophale) SiO2 
 PCOD9128235
Probable space group: C 2
;
_chemical_formula_sum "Si O2"
_cell_formula_units_Z 20
_cell_length_a 18.485267
_cell_length_b 9.217696
_cell_length_c 7.034013
_cell_angle_alpha 90.000000
_cell_angle_beta 139.479010
_cell_angle_gamma 90.000000
_cell_volume 778.721035
_symmetry_space_group_name_H-M "C 2"
_symmetry_group_IT_number 5
_symmetry_cell_setting 'monoclinic'
loop_
_space_group_symop_operation_xyz
x,y,z
-x,y,-z
1/2+x,1/2+y,z
1/2-x,1/2+y,-z
loop_
_atom_site_type_symbol
_atom_site_label
_atom_site_fract_x
_atom_site_fract_y
_atom_site_fract_z
Si Si1 0.471047 0.938070 0.718321
Si Si2 0.193009 0.578180 0.046353
Si Si3 0.469635 0.638496 0.153824
Si Si4 0.240111 0.580732 0.586784
Si Si5 0.648494 0.402584 0.917769
O O1 0.379346 0.065169 0.549802
O O2 0.579034 0.988582 0.823280
O O3 0.500000 0.916904 0.000000
O O4 0.453499 0.769834 0.619923
O O5 0.158481 0.735172 0.899100
O O6 0.229888 0.591205 0.341278
O O7 0.283797 0.495621 0.101798
O O8 0.336923 0.682790 0.869236
O O9 0.500000 0.602572 0.000000
O O10 0.464541 0.487548 0.255097
O O11 0.288786 0.424925 0.751695
#
# Coordination Sequence:
#
# PCOD9128235 Si02
#       5
#     4   4   4   4   4
#     4   9  19  38  66  93 127 168 217 267 324 396
#     4  11  22  40  65  94 134 165 220 278 320 399
#     4   9  20  39  67  94 127 165 221 270 316 404
#     4   9  23  40  70  91 124 179 212 267 344 376
#     4  10  24  39  64  95 129 171 218 275 323 397
#
# _framework density 25.683138
#
# number of rings (size 3 to 8) (size 9 to 14) (size 15 to 20)
#    1.200    1.200    0.000    1.200    8.400    3.200 
#    0.000    1.000    4.400    0.000    0.000    0.000 
#    0.000    0.000    0.000    0.000    0.000    0.000 
#
# Total GULP energy -55747.054183 kJ/mol
# GULP energy per Si atom -5574.705418 kJ/mol
# Density = 2.562468 g / cm^3
# Si number density = 25.683138 Si / 1000 Ang^3
#
#
#
# Elastic Constant Matrix: (Units=GPa)
#
#
# Indices 1 2 3 4 5 6 
#
# 1 167.1602 81.9351 13.5293 0.0000 10.1348 0.0000
# 2 81.9351 175.5518 8.8410 0.0000 -4.1095 0.0000
# 3 13.5293 8.8410 68.9567 0.0000 -11.7920 0.0000
# 4 0.0000 0.0000 0.0000 27.9518 0.0000 0.1328
# 5 10.1348 -4.1095 -11.7920 0.0000 43.7204 0.0000
# 6 0.0000 0.0000 0.0000 0.1328 0.0000 33.2099
#
#
#
# Elastic Compliance Matrix: (Units=1/GPa)
#
#
# Indices 1 2 3 4 5 6 
#
# 1 0.008119 -0.003773 -0.001564 0.000000 -0.002659 0.000000
# 2 -0.003773 0.007492 0.000052 0.000000 0.001593 0.000000
# 3 -0.001564 0.000052 0.015584 0.000000 0.004571 0.000000
# 4 0.000000 0.000000 0.000000 0.035776 0.000000 -0.000143
# 5 -0.002659 0.001593 0.004571 0.000000 0.024871 0.000000
# 6 0.000000 0.000000 0.000000 -0.000143 0.000000 0.030112
#
#
# Mechanical properties :
#
#
# Convention : Reuss Voigt Hill
#
# Bulk Modulus (GPa) = 48.48414 68.91993 58.70204
# Shear Modulus (GPa) = 35.86804 41.46730 38.66767
#
# Velocity S-wave (km/s) = 3.74111 4.02253 3.88437
# Velocity P-wave (km/s) = 6.13025 6.96185 6.55924
#
# Compressibility (1/GPa) = 0.02062530
#
# Stress axis : x y z
#
# Youngs Moduli (GPa) = 123.16092 133.47593 64.16999
#
# Poissons Ratio (x) = 0.50361 0.10036
# Poissons Ratio (y) = 0.46469 -0.00334
# Poissons Ratio (z) = 0.19262 -0.00696
#
# Static dielectric constant tensor:
#      x y z
#    x 2.014990 0.000000 0.050800 
#    y 0.000000 1.969710 0.000000 
#    z 0.050800 0.000000 2.247530 
# 
# From -- ./inp_files/29047.got.cif
#   From: 2010.05.17/outbox.cif.g08.bks.cpg/sg5_15_cif.got.tgz:29047.got - 2010.06.03 18:56:24.
