data_PCOD9128518
_publ_section_title
;
Structure prediction by ZEFSAII (Michael W. Deem and Ramdas Pophale) SiO2 
 PCOD9128518
Probable space group: C 2
;
_chemical_formula_sum "Si O2"
_cell_formula_units_Z 24
_cell_length_a 10.320536
_cell_length_b 9.104380
_cell_length_c 10.427839
_cell_angle_alpha 90.000000
_cell_angle_beta 85.392128
_cell_angle_gamma 90.000000
_cell_volume 976.654529
_symmetry_space_group_name_H-M "C 2"
_symmetry_group_IT_number 5
_symmetry_cell_setting 'monoclinic'
loop_
_space_group_symop_operation_xyz
x,y,z
-x,y,-z
1/2+x,1/2+y,z
1/2-x,1/2+y,-z
loop_
_atom_site_type_symbol
_atom_site_label
_atom_site_fract_x
_atom_site_fract_y
_atom_site_fract_z
Si Si1 0.575937 0.391110 0.610938
Si Si2 0.291560 0.874497 0.396782
Si Si3 0.000006 0.579728 0.286294
Si Si4 0.749481 0.057156 0.843602
Si Si5 0.205533 0.093708 0.767863
Si Si6 0.351578 0.806718 0.992904
O O1 0.500000 0.467294 0.500000
O O2 0.719730 0.376661 0.537345
O O3 0.508398 0.235005 0.640651
O O4 0.599677 0.472504 0.741917
O O5 0.214672 0.967039 0.289424
O O6 0.299759 0.707968 0.350379
O O7 0.430005 0.954660 0.376098
O O8 0.900590 0.597924 0.175514
O O9 0.145399 0.542020 0.235124
O O10 0.743710 0.940397 0.961065
O O11 0.824242 0.206469 0.870731
O O12 0.170680 0.190958 0.891093
O O13 0.500000 0.853983 0.000000
#
# Coordination Sequence:
#
# PCOD9128518 Si02
#       6
#     4   4   4   4   4   4
#     4  12  24  41  72  97 141 176 225 281 338 399
#     4   9  22  45  63 100 133 174 222 275 332 401
#     4  10  24  45  67  97 141 171 234 274 332 413
#     4   9  25  45  68  99 138 175 229 278 339 396
#     4  11  25  44  67 100 133 182 225 280 343 394
#     4  11  26  44  69  99 139 174 233 280 339 407
#
# _framework density 24.573682000000002
#
# number of rings (size 3 to 8) (size 9 to 14) (size 15 to 20)
#    1.000    0.667    1.667    1.000    7.000    0.000 
#    6.000    0.000    0.000    0.000    0.000    0.000 
#    0.000    0.000    0.000    0.000    0.000    0.000 
#
# Total GULP energy -67025.847052 kJ/mol
# GULP energy per Si atom -5585.487254 kJ/mol
# Density = 2.451775 g / cm^3
# Si number density = 24.573682 Si / 1000 Ang^3
#
#
#
# Elastic Constant Matrix: (Units=GPa)
#
#
# Indices 1 2 3 4 5 6 
#
# 1 68.2859 0.3026 -11.4125 0.0000 1.7173 0.0000
# 2 0.3026 76.0745 6.2116 0.0000 9.5344 0.0000
# 3 -11.4125 6.2116 39.9026 0.0000 -3.7802 0.0000
# 4 0.0000 0.0000 0.0000 38.0137 0.0000 -0.2893
# 5 1.7173 9.5344 -3.7802 0.0000 37.0323 0.0000
# 6 0.0000 0.0000 0.0000 -0.2893 0.0000 31.6632
#
#
#
# Elastic Compliance Matrix: (Units=1/GPa)
#
#
# Indices 1 2 3 4 5 6 
#
# 1 0.015394 -0.000405 0.004451 0.000000 -0.000155 0.000000
# 2 -0.000405 0.013839 -0.002631 0.000000 -0.003813 0.000000
# 3 0.004451 -0.002631 0.027050 0.000000 0.003232 0.000000
# 4 0.000000 0.000000 0.000000 0.026308 0.000000 0.000240
# 5 -0.000155 -0.003813 0.003232 0.000000 0.028322 0.000000
# 6 0.000000 0.000000 0.000000 0.000240 0.000000 0.031585
#
#
# Mechanical properties :
#
#
# Convention : Reuss Voigt Hill
#
# Bulk Modulus (GPa) = 16.91698 19.38516 18.15107
# Shear Modulus (GPa) = 31.37285 33.95259 32.66272
#
# Velocity S-wave (km/s) = 3.57695 3.72111 3.64974
# Velocity P-wave (km/s) = 4.89475 5.13497 5.01630
#
# Compressibility (1/GPa) = 0.05911222
#
# Stress axis : x y z
#
# Youngs Moduli (GPa) = 64.96066 72.25767 36.96858
#
# Poissons Ratio (x) = 0.02928 -0.16455
# Poissons Ratio (y) = 0.02632 0.09728
# Poissons Ratio (z) = -0.28915 0.19015
#
# Static dielectric constant tensor:
#      x y z
#    x 1.972290 0.000000 0.035020 
#    y 0.000000 1.945850 0.000000 
#    z 0.035020 0.000000 1.966910 
# 
# From -- ./inp_files/38335.got.cif
#   From: 2010.05.17/outbox.cif.g08.bks.cpg/sg5_20_cif.got.tgz:38335.got - 2010.06.03 18:56:24.
