data_PCOD9128144
_publ_section_title
;
Structure prediction by ZEFSAII (Michael W. Deem and Ramdas Pophale) SiO2 
 PCOD9128144
Probable space group: C 2
;
_chemical_formula_sum "Si O2"
_cell_formula_units_Z 30
_cell_length_a 19.951703
_cell_length_b 5.205589
_cell_length_c 23.916392
_cell_angle_alpha 90.000000
_cell_angle_beta 147.256596
_cell_angle_gamma 90.000000
_cell_volume 1343.521260
_symmetry_space_group_name_H-M "C 2"
_symmetry_group_IT_number 5
_symmetry_cell_setting 'monoclinic'
loop_
_space_group_symop_operation_xyz
x,y,z
-x,y,-z
1/2+x,1/2+y,z
1/2-x,1/2+y,-z
loop_
_atom_site_type_symbol
_atom_site_label
_atom_site_fract_x
_atom_site_fract_y
_atom_site_fract_z
Si Si1 0.832231 0.781460 0.185151
Si Si2 0.842168 0.281210 0.270094
Si Si3 0.314255 0.771099 0.022441
Si Si4 0.000000 0.611249 0.500000
Si Si5 0.194017 0.143465 0.450920
Si Si6 0.469489 0.508048 0.761434
Si Si7 0.745919 0.779513 0.672939
Si Si8 0.429133 0.513451 0.528773
O O1 0.842637 0.533176 0.231851
O O2 0.710318 0.754629 0.060756
O O3 0.827785 0.037224 0.219323
O O4 0.943716 0.831520 0.218174
O O5 0.745673 0.260833 0.254026
O O6 0.974863 0.245116 0.394206
O O7 0.221270 0.558169 0.983915
O O8 0.444540 0.682484 0.139031
O O9 0.867544 0.478100 0.414635
O O10 0.013663 0.794744 0.563098
O O11 0.206385 0.416486 0.491220
O O12 0.111037 0.176438 0.338388
O O13 0.126700 0.962098 0.450287
O O14 0.372296 0.355197 0.731363
O O15 0.683104 0.549274 0.593517
#
# Coordination Sequence:
#
# PCOD9128144 Si02
#       8
#     4   4   4   2   4   4   4   4
#     4  11  25  45  74 101 136 178 241 291 356 409
#     4  12  24  43  70 103 137 194 225 284 350 426
#     4  10  23  47  74 106 138 180 232 301 363 415
#     4  12  22  44  62  94 148 204 224 276 342 426
#     4  12  27  41  63 104 145 174 227 288 340 405
#     4  11  25  45  73 106 138 185 235 298 348 413
#     4  12  25  43  68 101 147 188 236 280 349 424
#     4  12  24  38  65  93 143 189 234 267 337 428
#
# _framework density 22.329384000000001
#
# number of rings (size 3 to 8) (size 9 to 14) (size 15 to 20)
#    0.000    0.533    5.333    3.200    1.867    1.067 
#    7.200    0.667    0.000    6.400    0.000    0.000 
#    0.000    0.000    0.000    0.000    0.000    0.000 
#
# Total GULP energy -83714.838005 kJ/mol
# GULP energy per Si atom -5580.989200 kJ/mol
# Density = 2.227856 g / cm^3
# Si number density = 22.329384 Si / 1000 Ang^3
#
#
#
# Elastic Constant Matrix: (Units=GPa)
#
#
# Indices 1 2 3 4 5 6 
#
# 1 68.0895 12.3961 -3.8659 -0.0018 -28.2555 0.0046
# 2 12.3961 106.0306 31.0892 0.0040 -20.5647 0.0186
# 3 -3.8659 31.0892 114.0245 -0.0021 -21.9993 -0.0003
# 4 -0.0018 0.0040 -0.0021 26.9472 0.0001 -14.4278
# 5 -28.2555 -20.5647 -21.9993 0.0001 22.9638 0.0011
# 6 0.0046 0.0186 -0.0003 -14.4278 0.0011 28.0534
#
#
#
# Elastic Compliance Matrix: (Units=1/GPa)
#
#
# Indices 1 2 3 4 5 6 
#
# 1 0.045324 0.004793 0.014497 -0.000006 0.073949 -0.000016
# 2 0.004793 0.012105 0.000112 -0.000009 0.016845 -0.000014
# 3 0.014497 0.000112 0.015570 0.000000 0.032854 -0.000004
# 4 -0.000006 -0.000009 0.000000 0.051211 -0.000017 0.026338
# 5 0.073949 0.016845 0.032854 -0.000017 0.181097 -0.000039
# 6 -0.000016 -0.000014 -0.000004 0.026338 -0.000039 0.049192
#
#
# Mechanical properties :
#
#
# Convention : Reuss Voigt Hill
#
# Bulk Modulus (GPa) = 8.94426 40.82039 24.88233
# Shear Modulus (GPa) = 14.16584 32.16123 23.16353
#
# Velocity S-wave (km/s) = 2.52147 3.79926 3.22430
# Velocity P-wave (km/s) = 3.53431 6.12915 5.00289
#
# Compressibility (1/GPa) = 0.11180352
#
# Stress axis : x y z
#
# Youngs Moduli (GPa) = 22.06323 82.60910 64.22722
#
# Poissons Ratio (x) = -0.39594 -0.93112
# Poissons Ratio (y) = -0.10575 -0.00719
# Poissons Ratio (z) = -0.31986 -0.00925
#
# Static dielectric constant tensor:
#      x y z
#    x 2.033990 0.000000 0.081130 
#    y 0.000000 2.592050 0.000020 
#    z 0.081130 0.000020 1.892550 
# 
# From -- ./inp_files/45673.got.cif
#   From: 2010.05.17/outbox.cif.g08.bks.cpg/sg5_23_cif.got.tgz:45673.got - 2010.06.03 18:56:24.
