data_PCOD9128283
_publ_section_title
;
Structure prediction by ZEFSAII (Michael W. Deem and Ramdas Pophale) SiO2 
 PCOD9128283
Probable space group: C 2
;
_chemical_formula_sum "Si O2"
_cell_formula_units_Z 24
_cell_length_a 20.060159
_cell_length_b 10.586805
_cell_length_c 4.846893
_cell_angle_alpha 90.000000
_cell_angle_beta 81.450080
_cell_angle_gamma 90.000000
_cell_volume 1017.909707
_symmetry_space_group_name_H-M "C 2"
_symmetry_group_IT_number 5
_symmetry_cell_setting 'monoclinic'
loop_
_space_group_symop_operation_xyz
x,y,z
-x,y,-z
1/2+x,1/2+y,z
1/2-x,1/2+y,-z
loop_
_atom_site_type_symbol
_atom_site_label
_atom_site_fract_x
_atom_site_fract_y
_atom_site_fract_z
Si Si1 0.500000 0.840570 0.000000
Si Si2 0.283932 0.988135 0.797719
Si Si3 0.684952 0.605921 0.504688
Si Si4 0.143680 0.254559 0.020534
Si Si5 0.375449 0.208639 0.714573
Si Si6 0.354302 0.374945 0.195421
Si Si7 0.000000 0.526910 0.500000
O O1 0.564229 0.756529 0.029493
O O2 0.482033 0.934181 0.260642
O O3 0.339435 0.885740 0.839416
O O4 0.216192 0.909943 0.916554
O O5 0.255677 0.032765 0.512085
O O6 0.316057 0.120237 0.876733
O O7 0.669204 0.646111 0.209342
O O8 0.630405 0.508338 0.666834
O O9 0.679829 0.727864 0.706869
O O10 0.350669 0.278020 0.452492
O O11 0.436800 0.115988 0.606791
O O12 0.397270 0.310624 0.930241
#
# Coordination Sequence:
#
# PCOD9128283 Si02
#       7
#     2   4   4   4   4   4   2
#     4  12  26  46  70 102 140 184 242 288 344 414
#     4  10  24  40  74 100 146 166 242 282 364 396
#     4  10  25  40  69 102 140 180 223 282 355 411
#     4  12  23  45  67 104 138 180 231 285 343 413
#     4  12  23  45  67 104 138 180 231 285 343 413
#     4  10  25  40  69 102 140 180 223 282 355 411
#     4  12  26  46  70 102 140 184 242 288 344 414
#
# _framework density 23.577728
#
# number of rings (size 3 to 8) (size 9 to 14) (size 15 to 20)
#    1.000    0.000    1.667    5.000    0.000    2.667 
#    0.000    3.333    0.000    0.000    0.000    0.000 
#    0.000    0.000    0.000    0.000    0.000    0.000 
#
# Total GULP energy -66930.688063 kJ/mol
# GULP energy per Si atom -5577.557339 kJ/mol
# Density = 2.352406 g / cm^3
# Si number density = 23.577728 Si / 1000 Ang^3
#
#
#
# Elastic Constant Matrix: (Units=GPa)
#
#
# Indices 1 2 3 4 5 6 
#
# 1 85.8368 22.7288 9.9485 0.0000 7.7568 0.0000
# 2 22.7288 97.4725 26.1623 0.0000 7.1010 0.0000
# 3 9.9485 26.1623 110.2380 0.0000 5.4007 0.0000
# 4 0.0000 0.0000 0.0000 40.5377 0.0000 12.1698
# 5 7.7568 7.1010 5.4007 0.0000 24.8038 0.0000
# 6 0.0000 0.0000 0.0000 12.1698 0.0000 -120.2287
#
#
#
# Elastic Compliance Matrix: (Units=1/GPa)
#
#
# Indices 1 2 3 4 5 6 
#
# 1 0.012671 -0.002628 -0.000366 0.000000 -0.003130 0.000000
# 2 -0.002628 0.011671 -0.002435 0.000000 -0.001989 0.000000
# 3 -0.000366 -0.002435 0.009746 0.000000 -0.001310 0.000000
# 4 0.000000 0.000000 0.000000 0.023941 0.000000 0.002423
# 5 -0.003130 -0.001989 -0.001310 0.000000 0.042150 0.000000
# 6 0.000000 0.000000 0.000000 0.002423 0.000000 -0.008072
#
#
# Mechanical properties :
#
#
# Convention : Reuss Voigt Hill
#
# Bulk Modulus (GPa) = 43.05003 45.69185 44.37094
# Shear Modulus (GPa) = 45.16307 4.66975 24.91641
#
# Velocity S-wave (km/s) = 4.38139 1.40886 3.25434
# Velocity P-wave (km/s) = 6.62524 4.69764 5.74289
#
# Compressibility (1/GPa) = 0.02322879
#
# Stress axis : x y z
#
# Youngs Moduli (GPa) = 78.91836 85.68482 102.60137
#
# Poissons Ratio (x) = 0.22521 0.03759
# Poissons Ratio (y) = 0.20742 0.24985
# Poissons Ratio (z) = 0.02892 0.20865
#
# Static dielectric constant tensor:
#      x y z
#    x 1.984820 0.000000 -0.039900 
#    y 0.000000 1.917870 0.000000 
#    z -0.039900 0.000000 1.903700 
# 
# From -- ./inp_files/9360.got.cif
#   From: 2010.05.17/outbox.cif.g08.bks.cpg/sg5_5_cif.got.tgz:9360.got - 2010.06.03 18:56:24.
