data_PCOD9128341
_publ_section_title
;
Structure prediction by ZEFSAII (Michael W. Deem and Ramdas Pophale) SiO2 
 PCOD9128341
Probable space group: C 2
;
_chemical_formula_sum "Si O2"
_cell_formula_units_Z 28
_cell_length_a 9.706698
_cell_length_b 9.744283
_cell_length_c 18.896705
_cell_angle_alpha 90.000000
_cell_angle_beta 46.661543
_cell_angle_gamma 90.000000
_cell_volume 1299.955258
_symmetry_space_group_name_H-M "C 2"
_symmetry_group_IT_number 5
_symmetry_cell_setting 'monoclinic'
loop_
_space_group_symop_operation_xyz
x,y,z
-x,y,-z
1/2+x,1/2+y,z
1/2-x,1/2+y,-z
loop_
_atom_site_type_symbol
_atom_site_label
_atom_site_fract_x
_atom_site_fract_y
_atom_site_fract_z
Si Si1 0.332303 0.423480 0.315185
Si Si2 0.404095 0.649706 0.830972
Si Si3 0.810919 0.226809 0.519946
Si Si4 0.448955 0.971989 0.390257
Si Si5 0.177897 0.118747 0.982211
Si Si6 0.585568 0.208733 0.836253
Si Si7 0.526676 0.950594 0.199425
O O1 0.490188 0.539492 0.254832
O O2 0.326804 0.323431 0.384183
O O3 0.626378 0.991882 0.379640
O O4 0.349421 0.325491 0.240247
O O5 0.379312 0.587123 0.917606
O O6 0.208571 0.697331 0.863295
O O7 0.517510 0.792544 0.798988
O O8 0.709160 0.085331 0.539813
O O9 0.871376 0.319362 0.432412
O O10 0.000000 0.203139 0.500000
O O11 0.518382 0.981617 0.285231
O O12 0.358587 0.220112 0.925128
O O13 0.270163 0.992144 0.906404
O O14 0.000000 0.171761 0.000000
O O15 0.609463 0.060298 0.790035
#
# Coordination Sequence:
#
# PCOD9128341 Si02
#       7
#     4   4   4   4   4   4   4
#     4  11  24  43  71  97 138 176 228 283 344 405
#     4  12  25  42  73 100 134 185 236 271 346 417
#     4  10  24  43  70  99 137 176 222 286 341 412
#     4  11  22  47  68 100 135 178 223 283 346 402
#     4  10  24  42  68  99 138 183 228 285 335 396
#     4  10  24  44  67  96 140 182 224 286 337 400
#     4  10  24  42  67  96 138 179 227 281 340 398
#
# _framework density 21.539204000000002
#
# number of rings (size 3 to 8) (size 9 to 14) (size 15 to 20)
#    0.857    0.571    2.857    1.286    4.000    2.286 
#    2.571    0.000    0.000    0.000    0.000    0.000 
#    0.000    0.000    0.000    0.000    0.000    0.000 
#
# Total GULP energy -78158.727802 kJ/mol
# GULP energy per Si atom -5582.766272 kJ/mol
# Density = 2.149018 g / cm^3
# Si number density = 21.539204 Si / 1000 Ang^3
#
#
#
# Elastic Constant Matrix: (Units=GPa)
#
#
# Indices 1 2 3 4 5 6 
#
# 1 71.1995 35.9347 16.5374 0.0000 -4.3901 0.0000
# 2 35.9347 96.5127 6.5131 0.0000 -15.3848 0.0000
# 3 16.5374 6.5131 42.2740 0.0000 -3.7310 0.0000
# 4 0.0000 0.0000 0.0000 34.2470 0.0000 -6.2495
# 5 -4.3901 -15.3848 -3.7310 0.0000 30.1286 0.0000
# 6 0.0000 0.0000 0.0000 -6.2495 0.0000 26.4163
#
#
#
# Elastic Compliance Matrix: (Units=1/GPa)
#
#
# Indices 1 2 3 4 5 6 
#
# 1 0.018912 -0.006851 -0.006479 0.000000 -0.001545 0.000000
# 2 -0.006851 0.013826 0.001097 0.000000 0.006198 0.000000
# 3 -0.006479 0.001097 0.026274 0.000000 0.002870 0.000000
# 4 0.000000 0.000000 0.000000 0.030517 0.000000 0.007220
# 5 -0.001545 0.006198 0.002870 0.000000 0.036486 0.000000
# 6 0.000000 0.000000 0.000000 0.007220 0.000000 0.039563
#
#
# Mechanical properties :
#
#
# Convention : Reuss Voigt Hill
#
# Bulk Modulus (GPa) = 28.94678 36.43962 32.69320
# Shear Modulus (GPa) = 24.80642 28.22511 26.51577
#
# Velocity S-wave (km/s) = 3.39733 3.62388 3.51243
# Velocity P-wave (km/s) = 5.37191 5.87065 5.62681
#
# Compressibility (1/GPa) = 0.03454615
#
# Stress axis : x y z
#
# Youngs Moduli (GPa) = 52.87569 72.32758 38.06021
#
# Poissons Ratio (x) = 0.49549 0.24660
# Poissons Ratio (y) = 0.36223 -0.04174
# Poissons Ratio (z) = 0.34260 -0.07933
#
# Static dielectric constant tensor:
#      x y z
#    x 1.756710 0.000000 -0.017770 
#    y 0.000000 1.771430 0.000000 
#    z -0.017770 0.000000 1.813470 
# 
# From -- ./inp_files/65053.got.cif
#   From: 2010.05.17/outbox.cif.g08.bks.cpg/sg5_33_cif.got.tgz:65053.got - 2010.06.03 18:56:24.
