data_PCOD9128752
_publ_section_title
;
Structure prediction by ZEFSAII (Michael W. Deem and Ramdas Pophale) SiO2 
 PCOD9128752
Probable space group: C 2
;
_chemical_formula_sum "Si O2"
_cell_formula_units_Z 22
_cell_length_a 10.065033
_cell_length_b 10.257970
_cell_length_c 11.149150
_cell_angle_alpha 90.000000
_cell_angle_beta 74.058102
_cell_angle_gamma 90.000000
_cell_volume 1106.843110
_symmetry_space_group_name_H-M "C 2"
_symmetry_group_IT_number 5
_symmetry_cell_setting 'monoclinic'
loop_
_space_group_symop_operation_xyz
x,y,z
-x,y,-z
1/2+x,1/2+y,z
1/2-x,1/2+y,-z
loop_
_atom_site_type_symbol
_atom_site_label
_atom_site_fract_x
_atom_site_fract_y
_atom_site_fract_z
Si Si1 0.684484 0.703780 0.116536
Si Si2 0.159275 0.461380 0.962327
Si Si3 0.442603 0.320313 0.149697
Si Si4 0.500000 0.470092 0.500000
Si Si5 0.183449 0.807586 0.273158
Si Si6 0.900925 0.094055 0.287065
O O1 0.739841 0.579835 0.027142
O O2 0.808278 0.729511 0.179109
O O3 0.539882 0.667625 0.210627
O O4 0.669277 0.835324 0.044582
O O5 0.215815 0.408769 0.821011
O O6 0.000000 0.504464 0.000000
O O7 0.564905 0.272244 0.205720
O O8 0.398822 0.460757 0.211519
O O9 0.500000 0.330588 0.000000
O O10 0.606990 0.380630 0.400142
O O11 0.420823 0.555321 0.420514
O O12 0.271050 0.684756 0.293502
#
# Coordination Sequence:
#
# PCOD9128752 Si02
#       6
#     4   4   4   2   4   4
#     4  12  24  41  67 104 144 182 220 282 354 413
#     4  12  25  39  68 108 143 172 228 288 346 417
#     4  11  23  39  66 104 145 176 219 282 359 413
#     4  10  24  50  64  96 140 186 238 284 336 404
#     4  11  24  45  69 100 135 184 228 287 338 410
#     4  11  25  45  72  94 136 189 237 283 341 407
#
# _framework density 19.876349999999999
#
# number of rings (size 3 to 8) (size 9 to 14) (size 15 to 20)
#    0.000    0.727    7.273    0.545    5.091    2.909 
#    0.000    0.000    0.000    0.000    0.000    0.000 
#    0.000    0.000    0.000    0.000    0.000    0.000 
#
# Total GULP energy -61533.552289 kJ/mol
# GULP energy per Si atom -5593.959299 kJ/mol
# Density = 1.983111 g / cm^3
# Si number density = 19.876350 Si / 1000 Ang^3
#
#
#
# Elastic Constant Matrix: (Units=GPa)
#
#
# Indices 1 2 3 4 5 6 
#
# 1 120.0545 62.7644 60.6098 0.0000 -2.9659 0.0000
# 2 62.7644 106.9787 43.2971 0.0000 20.0611 0.0000
# 3 60.6098 43.2971 112.2973 0.0000 6.3312 0.0000
# 4 0.0000 0.0000 0.0000 12.8930 0.0000 6.7007
# 5 -2.9659 20.0611 6.3312 0.0000 26.3497 0.0000
# 6 0.0000 0.0000 0.0000 6.7007 0.0000 53.4474
#
#
#
# Elastic Compliance Matrix: (Units=1/GPa)
#
#
# Indices 1 2 3 4 5 6 
#
# 1 0.016294 -0.009094 -0.005861 0.000000 0.010166 0.000000
# 2 -0.009094 0.017840 -0.001162 0.000000 -0.014327 0.000000
# 3 -0.005861 -0.001162 0.012676 0.000000 -0.002820 0.000000
# 4 0.000000 0.000000 0.000000 0.082967 0.000000 -0.010402
# 5 0.010166 -0.014327 -0.002820 0.000000 0.050680 0.000000
# 6 0.000000 0.000000 0.000000 -0.010402 0.000000 0.020014
#
#
# Mechanical properties :
#
#
# Convention : Reuss Voigt Hill
#
# Bulk Modulus (GPa) = 68.61258 74.74145 71.67701
# Shear Modulus (GPa) = 21.04689 30.04863 25.54776
#
# Velocity S-wave (km/s) = 3.25759 3.89238 3.58905
# Velocity P-wave (km/s) = 6.98168 7.60826 7.30169
#
# Compressibility (1/GPa) = 0.01457459
#
# Stress axis : x y z
#
# Youngs Moduli (GPa) = 61.37233 56.05364 78.89164
#
# Poissons Ratio (x) = 0.50974 0.46240
# Poissons Ratio (y) = 0.55811 0.09171
# Poissons Ratio (z) = 0.35972 0.06516
#
# Static dielectric constant tensor:
#      x y z
#    x 1.717430 0.000000 0.014990 
#    y 0.000000 1.718310 0.000000 
#    z 0.014990 0.000000 1.684170 
# 
# From -- ./inp_files/38255.got.cif
#   From: 2010.05.17/outbox.cif.g08.bks.cpg/sg5_20_cif.got.tgz:38255.got - 2010.06.03 18:56:24.
