data_PCOD9128382
_publ_section_title
;
Structure prediction by ZEFSAII (Michael W. Deem and Ramdas Pophale) SiO2 
 PCOD9128382
Probable space group: C 2
;
_chemical_formula_sum "Si O2"
_cell_formula_units_Z 22
_cell_length_a 14.599315
_cell_length_b 7.844550
_cell_length_c 25.799926
_cell_angle_alpha 90.000000
_cell_angle_beta 160.174762
_cell_angle_gamma 90.000000
_cell_volume 1002.106278
_symmetry_space_group_name_H-M "C 2"
_symmetry_group_IT_number 5
_symmetry_cell_setting 'monoclinic'
loop_
_space_group_symop_operation_xyz
x,y,z
-x,y,-z
1/2+x,1/2+y,z
1/2-x,1/2+y,-z
loop_
_atom_site_type_symbol
_atom_site_label
_atom_site_fract_x
_atom_site_fract_y
_atom_site_fract_z
Si Si1 0.163718 0.616660 0.754318
Si Si2 0.142732 0.487097 0.627966
Si Si3 0.000000 0.863629 0.000000
Si Si4 0.427907 0.601657 0.518098
Si Si5 0.372188 0.927674 0.818460
Si Si6 0.175236 0.167198 0.903410
O O1 0.089111 0.577620 0.654493
O O2 0.378732 0.480920 0.890031
O O3 0.303593 0.801423 0.829086
O O4 0.890018 0.608012 0.641149
O O5 0.459810 0.514625 0.786438
O O6 0.000000 0.557770 0.500000
O O7 0.047908 0.292996 0.583481
O O8 0.759333 0.748859 0.893990
O O9 0.500000 0.530988 0.500000
O O10 0.588528 0.490021 0.644809
O O11 0.539141 0.813293 0.866152
O O12 0.552898 0.089717 0.928132
#
# Coordination Sequence:
#
# PCOD9128382 Si02
#       6
#     4   4   2   4   4   4
#     4  11  25  43  66  95 131 172 217 268 320 382
#     4  10  24  43  65  95 131 172 218 265 319 382
#     4  12  26  42  66  96 130 170 216 270 324 384
#     4  11  23  40  66  97 132 171 214 266 322 385
#     4  11  23  42  66  91 130 173 214 265 318 383
#     4  11  24  41  65  94 128 170 215 264 321 384
#
# _framework density 21.953759000000002
#
# number of rings (size 3 to 8) (size 9 to 14) (size 15 to 20)
#    0.000    1.091    0.000    6.545    0.000   15.273 
#    0.000    0.000    0.000    0.000    0.000    0.000 
#    0.000    0.000    0.000    0.000    0.000    0.000 
#
# Total GULP energy -61515.533063 kJ/mol
# GULP energy per Si atom -5592.321188 kJ/mol
# Density = 2.190379 g / cm^3
# Si number density = 21.953759 Si / 1000 Ang^3
#
#
#
# Elastic Constant Matrix: (Units=GPa)
#
#
# Indices 1 2 3 4 5 6 
#
# 1 86.2978 1.6680 14.9552 0.0045 17.1813 -0.0010
# 2 1.6680 55.0557 -3.5695 0.0062 8.4162 -0.0011
# 3 14.9552 -3.5695 57.3777 0.0178 16.0525 -0.0002
# 4 0.0045 0.0062 0.0178 0.8250 -0.0003 16.0826
# 5 17.1813 8.4162 16.0525 -0.0003 41.6718 -0.0012
# 6 -0.0010 -0.0011 -0.0002 16.0826 -0.0012 29.1706
#
#
#
# Elastic Compliance Matrix: (Units=1/GPa)
#
#
# Indices 1 2 3 4 5 6 
#
# 1 0.012846 0.000170 -0.002069 0.000003 -0.004533 -0.000002
# 2 0.000170 0.019068 0.002509 0.000022 -0.004888 -0.000011
# 3 -0.002069 0.002509 0.020204 0.000045 -0.007437 -0.000025
# 4 0.000003 0.000022 0.000045 -0.124349 -0.000022 0.068557
# 5 -0.004533 -0.004888 -0.007437 -0.000022 0.029718 0.000013
# 6 -0.000002 -0.000011 -0.000025 0.068557 0.000013 -0.003517
#
#
# Mechanical properties :
#
#
# Convention : Reuss Voigt Hill
#
# Bulk Modulus (GPa) = 18.74843 24.98206 21.86525
# Shear Modulus (GPa) = -169.66533 26.71196 -71.47668
#
# Velocity S-wave (km/s) = -8.80061 3.49196 -5.71214
# Velocity P-wave (km/s) = 9.73187 5.25951 5.78994
#
# Compressibility (1/GPa) = 0.05333781
#
# Stress axis : x y z
#
# Youngs Moduli (GPa) = 77.84720 52.44347 49.49425
#
# Poissons Ratio (x) = -0.00890 0.10242
# Poissons Ratio (y) = -0.01321 -0.12420
# Poissons Ratio (z) = 0.16109 -0.13160
#
# Static dielectric constant tensor:
#      x y z
#    x 1.817210 0.000000 -0.034920 
#    y 0.000000 1.798790 0.000000 
#    z -0.034920 0.000000 1.788450 
# 
# From -- ./inp_files/56670.got.cif
#   From: 2010.05.17/outbox.cif.g08.bks.cpg/sg5_29_cif.got.tgz:56670.got - 2010.06.03 18:56:24.
