data_PCOD9128694
_publ_section_title
;
Structure prediction by ZEFSAII (Michael W. Deem and Ramdas Pophale) SiO2 
 PCOD9128694
Probable space group: C 2
;
_chemical_formula_sum "Si O2"
_cell_formula_units_Z 20
_cell_length_a 8.819394
_cell_length_b 18.825188
_cell_length_c 7.474345
_cell_angle_alpha 90.000000
_cell_angle_beta 126.931980
_cell_angle_gamma 90.000000
_cell_volume 991.945618
_symmetry_space_group_name_H-M "C 2"
_symmetry_group_IT_number 5
_symmetry_cell_setting 'monoclinic'
loop_
_space_group_symop_operation_xyz
x,y,z
-x,y,-z
1/2+x,1/2+y,z
1/2-x,1/2+y,-z
loop_
_atom_site_type_symbol
_atom_site_label
_atom_site_fract_x
_atom_site_fract_y
_atom_site_fract_z
Si Si1 0.500000 0.595490 0.500000
Si Si2 0.996526 0.320911 0.783167
Si Si3 0.838048 0.046087 0.734467
Si Si4 0.710585 0.201975 0.680641
Si Si5 0.500000 0.938372 0.500000
Si Si6 0.723117 0.209058 0.112216
O O1 0.436237 0.542856 0.612118
O O2 0.338869 0.649206 0.304440
O O3 0.849377 0.255220 0.677074
O O4 0.950003 0.389367 0.634561
O O5 0.181586 0.287257 0.814710
O O6 0.000000 0.337287 0.000000
O O7 0.734093 0.121808 0.637000
O O8 0.682004 0.987463 0.666947
O O9 0.000000 0.049435 0.000000
O O10 0.500000 0.228511 0.500000
O O11 0.750808 0.196252 0.919864
O O12 0.500000 0.208154 0.000000
#
# Coordination Sequence:
#
# PCOD9128694 Si02
#       6
#     2   4   4   4   2   4
#     4  12  23  42  70 103 142 172 232 292 347 404
#     4  10  24  48  69 100 144 181 233 287 339 421
#     4  12  25  46  68 103 140 182 232 290 343 411
#     4  11  21  44  75 104 136 180 239 292 338 406
#     4  12  29  46  68  97 152 184 222 284 359 412
#     4  11  23  38  74 109 133 174 237 291 345 396
#
# _framework density 20.162395
#
# number of rings (size 3 to 8) (size 9 to 14) (size 15 to 20)
#    0.000    0.800    5.000    2.400    2.800    2.400 
#    5.400    0.000    0.000    0.000    0.000    0.000 
#    0.000    0.000    0.000    0.000    0.000    0.000 
#
# Total GULP energy -55802.686774 kJ/mol
# GULP energy per Si atom -5580.268677 kJ/mol
# Density = 2.011650 g / cm^3
# Si number density = 20.162395 Si / 1000 Ang^3
#
#
#
# Elastic Constant Matrix: (Units=GPa)
#
#
# Indices 1 2 3 4 5 6 
#
# 1 118.1111 43.3421 43.1523 0.0000 6.7747 0.0000
# 2 43.3421 92.7307 26.2116 0.0000 3.2299 0.0000
# 3 43.1523 26.2116 83.2324 0.0000 9.0096 0.0000
# 4 0.0000 0.0000 0.0000 -152.8954 0.0000 202.8131
# 5 6.7747 3.2299 9.0096 0.0000 45.4808 0.0000
# 6 0.0000 0.0000 0.0000 202.8131 0.0000 -205.0456
#
#
#
# Elastic Compliance Matrix: (Units=1/GPa)
#
#
# Indices 1 2 3 4 5 6 
#
# 1 0.011741 -0.004133 -0.004730 0.000000 -0.000518 0.000000
# 2 -0.004133 0.013293 -0.002052 0.000000 0.000078 0.000000
# 3 -0.004730 -0.002052 0.015350 0.000000 -0.002191 0.000000
# 4 0.000000 0.000000 0.000000 0.020960 0.000000 0.020732
# 5 -0.000518 0.000078 -0.002191 0.000000 0.022493 0.000000
# 6 0.000000 0.000000 0.000000 0.020732 0.000000 0.015629
#
#
# Mechanical properties :
#
#
# Convention : Reuss Voigt Hill
#
# Bulk Modulus (GPa) = 53.89339 57.72069 55.80704
# Shear Modulus (GPa) = 39.22198 -50.40083 -5.58942
#
# Velocity S-wave (km/s) = 4.41534 -5.00517 -1.66680
# Velocity P-wave (km/s) = 7.26508 2.17077 4.90251
#
# Compressibility (1/GPa) = 0.01855515
#
# Stress axis : x y z
#
# Youngs Moduli (GPa) = 85.17286 75.22849 65.14685
#
# Poissons Ratio (x) = 0.31090 0.30811
# Poissons Ratio (y) = 0.35199 0.13368
# Poissons Ratio (z) = 0.40283 0.15437
#
# Static dielectric constant tensor:
#      x y z
#    x 2.291230 0.000000 -0.435300 
#    y 0.000000 1.718030 0.000000 
#    z -0.435300 0.000000 2.098600 
# 
# From -- ./inp_files/15580.got.cif
#   From: 2010.05.17/outbox.cif.g08.bks.cpg/sg5_8_cif.got.tgz:15580.got - 2010.06.03 18:56:24.
