data_PCOD9128286
_publ_section_title
;
Structure prediction by ZEFSAII (Michael W. Deem and Ramdas Pophale) SiO2 
 PCOD9128286
Probable space group: C 2
;
_chemical_formula_sum "Si O2"
_cell_formula_units_Z 20
_cell_length_a 6.829615
_cell_length_b 20.588230
_cell_length_c 7.262077
_cell_angle_alpha 90.000000
_cell_angle_beta 51.509345
_cell_angle_gamma 90.000000
_cell_volume 799.239220
_symmetry_space_group_name_H-M "C 2"
_symmetry_group_IT_number 5
_symmetry_cell_setting 'monoclinic'
loop_
_space_group_symop_operation_xyz
x,y,z
-x,y,-z
1/2+x,1/2+y,z
1/2-x,1/2+y,-z
loop_
_atom_site_type_symbol
_atom_site_label
_atom_site_fract_x
_atom_site_fract_y
_atom_site_fract_z
Si Si1 0.500000 0.552210 0.000000
Si Si2 0.958773 0.731365 0.302672
Si Si3 0.013823 0.480367 0.777562
Si Si4 0.245836 0.602723 0.486054
Si Si5 0.257160 0.851149 0.450905
Si Si6 0.000000 0.262568 0.000000
O O1 0.537142 0.594420 0.792048
O O2 0.743638 0.507461 0.877318
O O3 0.786417 0.668513 0.377300
O O4 0.826888 0.800645 0.338709
O O5 0.000000 0.734751 0.500000
O O6 0.248817 0.726115 0.074474
O O7 0.208337 0.539312 0.631549
O O8 0.101607 0.418366 0.612360
O O9 0.000000 0.462756 0.000000
O O10 0.000000 0.603341 0.500000
O O11 0.000000 0.870411 0.500000
O O12 0.417780 0.808123 0.215704
#
# Coordination Sequence:
#
# PCOD9128286 Si02
#       6
#     2   4   4   4   4   2
#     4  10  24  41  60  88 126 171 208 256 312 369
#     4   8  16  29  53  85 119 156 205 260 294 370
#     4  11  23  37  61  98 124 165 206 260 315 376
#     4   9  20  37  56  91 121 163 212 254 312 365
#     4   9  18  30  54  91 119 156 211 251 301 367
#     4   8  14  29  52  86 116 153 198 252 306 359
#
# _framework density 25.023796999999998
#
# number of rings (size 3 to 8) (size 9 to 14) (size 15 to 20)
#    0.000    3.200    1.000    0.000    2.800   12.800 
#    0.000    0.000    0.000    0.000   49.400    0.000 
#    0.000    0.000    0.000    0.000    0.000    0.000 
#
# Total GULP energy -55799.070606 kJ/mol
# GULP energy per Si atom -5579.907061 kJ/mol
# Density = 2.496684 g / cm^3
# Si number density = 25.023797 Si / 1000 Ang^3
#
#
#
# Elastic Constant Matrix: (Units=GPa)
#
#
# Indices 1 2 3 4 5 6 
#
# 1 82.1770 41.4954 51.7345 0.0000 -10.5322 0.0000
# 2 41.4954 220.0503 84.4982 0.0000 -29.2687 0.0000
# 3 51.7345 84.4982 131.1454 0.0000 -39.4937 0.0000
# 4 0.0000 0.0000 0.0000 28.6266 0.0000 -11.5103
# 5 -10.5322 -29.2687 -39.4937 0.0000 40.3681 0.0000
# 6 0.0000 0.0000 0.0000 -11.5103 0.0000 19.0634
#
#
#
# Elastic Compliance Matrix: (Units=1/GPa)
#
#
# Indices 1 2 3 4 5 6 
#
# 1 0.016556 -0.000886 -0.006880 0.000000 -0.003054 0.000000
# 2 -0.000886 0.006105 -0.003289 0.000000 0.000977 0.000000
# 3 -0.006880 -0.003289 0.015878 0.000000 0.011354 0.000000
# 4 0.000000 0.000000 0.000000 0.046132 0.000000 0.027854
# 5 -0.003054 0.000977 0.011354 0.000000 0.035791 0.000000
# 6 0.000000 0.000000 0.000000 0.027854 0.000000 0.069275
#
#
# Mechanical properties :
#
#
# Convention : Reuss Voigt Hill
#
# Bulk Modulus (GPa) = 60.87425 87.64768 74.26096
# Shear Modulus (GPa) = 23.00723 34.65458 28.83091
#
# Velocity S-wave (km/s) = 3.03547 3.72541 3.39800
# Velocity P-wave (km/s) = 6.05515 7.32166 6.71832
#
# Compressibility (1/GPa) = 0.01642731
#
# Stress axis : x y z
#
# Youngs Moduli (GPa) = 60.40066 163.81041 62.98221
#
# Poissons Ratio (x) = 0.14522 0.43329
# Poissons Ratio (y) = 0.05354 0.20718
# Poissons Ratio (z) = 0.41553 0.53885
#
# Static dielectric constant tensor:
#      x y z
#    x 2.125400 0.000000 -0.025860 
#    y 0.000000 2.076250 0.000000 
#    z -0.025860 0.000000 2.024190 
# 
# From -- ./inp_files/2620.got.cif
#   From: 2010.05.17/outbox.cif.g08.bks.cpg/sg5_2_cif.got.tgz:2620.got - 2010.06.03 18:56:24.
