data_PCOD9128812
_publ_section_title
;
Structure prediction by ZEFSAII (Michael W. Deem and Ramdas Pophale) SiO2 
 PCOD9128812
Probable space group: C 2
;
_chemical_formula_sum "Si O2"
_cell_formula_units_Z 14
_cell_length_a 6.689909
_cell_length_b 8.521455
_cell_length_c 10.373097
_cell_angle_alpha 90.000000
_cell_angle_beta 101.152800
_cell_angle_gamma 90.000000
_cell_volume 580.179321
_symmetry_space_group_name_H-M "C 2"
_symmetry_group_IT_number 5
_symmetry_cell_setting 'monoclinic'
loop_
_space_group_symop_operation_xyz
x,y,z
-x,y,-z
1/2+x,1/2+y,z
1/2-x,1/2+y,-z
loop_
_atom_site_type_symbol
_atom_site_label
_atom_site_fract_x
_atom_site_fract_y
_atom_site_fract_z
Si Si1 0.000000 0.250000 0.000000
Si Si2 0.230616 0.971725 0.349449
Si Si3 0.614985 0.439161 0.888242
Si Si4 0.120361 0.297748 0.397587
O O1 0.832859 0.359260 0.912166
O O2 0.113549 0.126314 0.918622
O O3 0.435800 0.897268 0.312823
O O4 0.246718 0.915729 0.499636
O O5 0.028777 0.915916 0.252347
O O6 0.234319 0.159720 0.340332
O O7 0.500000 0.372912 0.000000
O O8 0.000000 0.209605 0.500000
#
# Coordination Sequence:
#
# PCOD9128812 Si02
#       4
#     2   4   4   4
#     4  10  26  38  66  92 128 162 220 232 336 344
#     4   9  20  41  62  88 127 153 212 243 319 353
#     4  10  25  43  64  96 124 171 200 271 296 386
#     4   8  21  38  59  94 111 169 190 261 295 377
#
# _framework density 24.130471
#
# number of rings (size 3 to 8) (size 9 to 14) (size 15 to 20)
#    2.571    0.000    0.000    0.000    6.000    4.571 
#   10.286    0.000    0.000    0.000    0.000    0.000 
#    0.000    0.000    0.000    0.000    0.000    0.000 
#
# Total GULP energy -38985.791896 kJ/mol
# GULP energy per Si atom -5569.398842 kJ/mol
# Density = 2.407555 g / cm^3
# Si number density = 24.130471 Si / 1000 Ang^3
#
#
#
# Elastic Constant Matrix: (Units=GPa)
#
#
# Indices 1 2 3 4 5 6 
#
# 1 110.1378 106.7598 71.9699 0.0000 38.9175 0.0000
# 2 106.7598 178.5684 65.1403 0.0000 42.0151 0.0000
# 3 71.9699 65.1403 109.6769 0.0000 63.1204 0.0000
# 4 0.0000 0.0000 0.0000 27.2495 0.0000 13.3798
# 5 38.9175 42.0151 63.1204 0.0000 63.7242 0.0000
# 6 0.0000 0.0000 0.0000 13.3798 0.0000 47.4561
#
#
#
# Elastic Compliance Matrix: (Units=1/GPa)
#
#
# Indices 1 2 3 4 5 6 
#
# 1 0.030443 -0.014098 -0.014544 0.000000 0.005109 0.000000
# 2 -0.014098 0.013716 0.003150 0.000000 -0.003553 0.000000
# 3 -0.014544 0.003150 0.029944 0.000000 -0.022854 0.000000
# 4 0.000000 0.000000 0.000000 0.042595 0.000000 -0.012009
# 5 0.005109 -0.003553 -0.022854 0.000000 0.037553 0.000000
# 6 0.000000 0.000000 0.000000 -0.012009 0.000000 0.024458
#
#
# Mechanical properties :
#
#
# Convention : Reuss Voigt Hill
#
# Bulk Modulus (GPa) = 43.25537 98.45812 70.85675
# Shear Modulus (GPa) = 21.06155 37.98684 29.52420
#
# Velocity S-wave (km/s) = 2.95756 3.97196 3.50168
# Velocity P-wave (km/s) = 5.44311 7.86932 6.76586
#
# Compressibility (1/GPa) = 0.02311851
#
# Stress axis : x y z
#
# Youngs Moduli (GPa) = 32.84778 72.90977 33.39558
#
# Poissons Ratio (x) = 1.02785 0.48572
# Poissons Ratio (y) = 0.46307 -0.10518
# Poissons Ratio (z) = 0.47775 -0.22964
#
# Static dielectric constant tensor:
#      x y z
#    x 1.956130 0.000000 -0.078440 
#    y 0.000000 1.875120 0.000000 
#    z -0.078440 0.000000 1.984730 
# 
# From -- ./inp_files/13570.got.cif
#   From: 2010.05.17/outbox.cif.g08.bks.cpg/sg5_7_cif.got.tgz:13570.got - 2010.06.03 18:56:24.
