data_PCOD9128356
_publ_section_title
;
Structure prediction by ZEFSAII (Michael W. Deem and Ramdas Pophale) SiO2 
 PCOD9128356
Probable space group: C 2
;
_chemical_formula_sum "Si O2"
_cell_formula_units_Z 30
_cell_length_a 7.724860
_cell_length_b 14.789497
_cell_length_c 12.334669
_cell_angle_alpha 90.000000
_cell_angle_beta 112.891220
_cell_angle_gamma 90.000000
_cell_volume 1298.215158
_symmetry_space_group_name_H-M "C 2"
_symmetry_group_IT_number 5
_symmetry_cell_setting 'monoclinic'
loop_
_space_group_symop_operation_xyz
x,y,z
-x,y,-z
1/2+x,1/2+y,z
1/2-x,1/2+y,-z
loop_
_atom_site_type_symbol
_atom_site_label
_atom_site_fract_x
_atom_site_fract_y
_atom_site_fract_z
Si Si1 0.455524 0.734060 0.234425
Si Si2 0.350212 0.994273 0.605950
Si Si3 0.234952 0.422842 0.746073
Si Si4 0.219255 0.670346 0.524654
Si Si5 0.232332 0.536964 0.946965
Si Si6 0.500000 0.702334 0.000000
Si Si7 0.715654 0.049554 0.180353
Si Si8 0.646788 0.352153 0.434759
O O1 0.370090 0.827965 0.256242
O O2 0.642878 0.702642 0.345904
O O3 0.491387 0.750586 0.114240
O O4 0.314411 0.647917 0.211213
O O5 0.240791 0.074619 0.519027
O O6 0.262070 0.993207 0.704275
O O7 0.576889 0.996881 0.669898
O O8 0.315960 0.905819 0.529377
O O9 0.300491 0.465395 0.874886
O O10 0.383044 0.401242 0.687240
O O11 0.214058 0.749808 0.434397
O O12 0.000000 0.661969 0.500000
O O13 0.010144 0.553768 0.883104
O O14 0.326039 0.633532 0.950024
O O15 0.277800 0.508312 0.081014
O O16 0.500000 0.353062 0.500000
#
# Coordination Sequence:
#
# PCOD9128356 Si02
#       8
#     4   4   4   4   4   2   4   4
#     4  11  24  43  69 102 141 180 237 284 345 412
#     4  11  23  39  68  96 133 187 217 279 345 402
#     4  11  23  44  67  95 138 181 228 287 341 413
#     4  11  25  42  64 101 141 185 227 288 350 416
#     4   9  21  43  68  95 136 179 237 274 344 406
#     4  10  24  42  70 100 132 188 230 288 340 414
#     4   9  21  40  65  99 133 180 227 280 334 409
#     4  11  25  41  61  98 135 169 229 281 342 413
#
# _framework density 23.108650000000001
#
# number of rings (size 3 to 8) (size 9 to 14) (size 15 to 20)
#    0.000    1.600    1.333    2.000    7.467    4.267 
#    0.000    2.667    0.000    0.000    0.000    0.000 
#    0.000    0.000    0.000    0.000    0.000    0.000 
#
# Total GULP energy -83694.324605 kJ/mol
# GULP energy per Si atom -5579.621640 kJ/mol
# Density = 2.305605 g / cm^3
# Si number density = 23.108650 Si / 1000 Ang^3
#
#
#
# Elastic Constant Matrix: (Units=GPa)
#
#
# Indices 1 2 3 4 5 6 
#
# 1 94.9283 27.6797 55.3501 0.0000 -15.7618 0.0000
# 2 27.6797 60.5867 45.9403 0.0000 -6.4867 0.0000
# 3 55.3501 45.9403 133.1958 0.0000 -22.4702 0.0000
# 4 0.0000 0.0000 0.0000 34.0009 0.0000 -6.8887
# 5 -15.7618 -6.4867 -22.4702 0.0000 37.4560 0.0000
# 6 0.0000 0.0000 0.0000 -6.8887 0.0000 19.7777
#
#
#
# Elastic Compliance Matrix: (Units=1/GPa)
#
#
# Indices 1 2 3 4 5 6 
#
# 1 0.014502 -0.002865 -0.004553 0.000000 0.002875 0.000000
# 2 -0.002865 0.022940 -0.006959 0.000000 -0.001408 0.000000
# 3 -0.004553 -0.006959 0.012543 0.000000 0.004403 0.000000
# 4 0.000000 0.000000 0.000000 0.031644 0.000000 0.011022
# 5 0.002875 -0.001408 0.004403 0.000000 0.030306 0.000000
# 6 0.000000 0.000000 0.000000 0.011022 0.000000 0.054401
#
#
# Mechanical properties :
#
#
# Convention : Reuss Voigt Hill
#
# Bulk Modulus (GPa) = 47.10236 60.73898 53.92067
# Shear Modulus (GPa) = 24.73197 28.89629 26.81413
#
# Velocity S-wave (km/s) = 3.27501 3.54001 3.41009
# Velocity P-wave (km/s) = 5.89306 6.56125 6.23611
#
# Compressibility (1/GPa) = 0.02123036
#
# Stress axis : x y z
#
# Youngs Moduli (GPa) = 68.95687 43.59132 79.72602
#
# Poissons Ratio (x) = 0.12489 0.36300
# Poissons Ratio (y) = 0.19757 0.55483
# Poissons Ratio (z) = 0.31397 0.30336
#
# Static dielectric constant tensor:
#      x y z
#    x 1.963810 0.000000 -0.023300 
#    y 0.000000 1.845490 0.000000 
#    z -0.023300 0.000000 1.901740 
# 
# From -- ./inp_files/36437.got.cif
#   From: 2010.05.17/outbox.cif.g08.bks.cpg/sg5_19_cif.got.tgz:36437.got - 2010.06.03 18:56:24.
