data_PCOD9128233
_publ_section_title
;
Structure prediction by ZEFSAII (Michael W. Deem and Ramdas Pophale) SiO2 
 PCOD9128233
Probable space group: C 2
;
_chemical_formula_sum "Si O2"
_cell_formula_units_Z 32
_cell_length_a 16.278070
_cell_length_b 11.215370
_cell_length_c 17.927764
_cell_angle_alpha 90.000000
_cell_angle_beta 149.764066
_cell_angle_gamma 90.000000
_cell_volume 1648.145316
_symmetry_space_group_name_H-M "C 2"
_symmetry_group_IT_number 5
_symmetry_cell_setting 'monoclinic'
loop_
_space_group_symop_operation_xyz
x,y,z
-x,y,-z
1/2+x,1/2+y,z
1/2-x,1/2+y,-z
loop_
_atom_site_type_symbol
_atom_site_label
_atom_site_fract_x
_atom_site_fract_y
_atom_site_fract_z
Si Si1 0.409994 0.390270 0.007677
Si Si2 0.876892 0.694559 0.336763
Si Si3 0.822572 0.039820 0.708845
Si Si4 0.799151 0.356345 0.495108
Si Si5 0.929227 0.518318 0.243491
Si Si6 0.188133 0.716917 0.960156
Si Si7 0.486107 0.646300 0.701889
Si Si8 0.570502 0.379046 0.740905
O O1 0.503947 0.485811 0.132153
O O2 0.420101 0.263408 0.056250
O O3 0.500000 0.389012 0.000000
O O4 0.223042 0.432053 0.857251
O O5 0.736526 0.620141 0.268941
O O6 0.943814 0.606217 0.325652
O O7 0.857464 0.816988 0.276322
O O8 0.000000 0.716883 0.500000
O O9 0.717547 0.925797 0.597421
O O10 0.847161 0.116329 0.653758
O O11 0.616386 0.339829 0.384172
O O12 0.905847 0.443003 0.632237
O O13 0.903036 0.234857 0.577699
O O14 0.880266 0.600684 0.135186
O O15 0.179053 0.824913 0.893142
O O16 0.366799 0.700314 0.134102
O O17 0.555083 0.521286 0.724995
#
# Coordination Sequence:
#
# PCOD9128233 Si02
#       8
#     4   4   4   4   4   4   4   4
#     4  12  22  38  61  98 128 162 214 273 325 374
#     4  11  21  38  65  91 132 161 210 278 318 375
#     4  11  22  38  62  99 130 162 224 274 316 379
#     4  11  22  37  65  97 122 169 222 269 314 385
#     4  11  22  36  63  96 119 172 220 260 319 383
#     4  11  21  39  63  90 131 166 216 269 316 388
#     4  11  22  39  66  92 130 171 217 267 322 391
#     4  10  24  39  63  99 129 169 222 260 329 391
#
# _framework density 19.415762999999998
#
# number of rings (size 3 to 8) (size 9 to 14) (size 15 to 20)
#    0.000    1.000    7.500    0.750    5.250    0.000 
#    0.000    0.000   11.000    0.000    0.000    0.000 
#    0.000    0.000    0.000    0.000    0.000    0.000 
#
# Total GULP energy -89192.795155 kJ/mol
# GULP energy per Si atom -5574.549697 kJ/mol
# Density = 1.937157 g / cm^3
# Si number density = 19.415763 Si / 1000 Ang^3
#
#
#
# Elastic Constant Matrix: (Units=GPa)
#
#
# Indices 1 2 3 4 5 6 
#
# 1 66.8562 42.1353 20.3710 0.0000 -3.7299 0.0000
# 2 42.1353 110.1488 36.5694 0.0000 -1.4440 0.0000
# 3 20.3710 36.5694 92.1116 -0.0001 -3.6048 0.0000
# 4 0.0000 0.0000 -0.0001 33.6139 0.0000 -2.5430
# 5 -3.7299 -1.4440 -3.6048 0.0000 22.1220 0.0000
# 6 0.0000 0.0000 0.0000 -2.5430 0.0000 37.3739
#
#
#
# Elastic Compliance Matrix: (Units=1/GPa)
#
#
# Indices 1 2 3 4 5 6 
#
# 1 0.020065 -0.007143 -0.001497 0.000000 0.002673 0.000000
# 2 -0.007143 0.013000 -0.003618 0.000000 -0.000945 0.000000
# 3 -0.001497 -0.003618 0.012686 0.000000 0.001579 0.000000
# 4 0.000000 0.000000 0.000000 0.029904 0.000000 0.002035
# 5 0.002673 -0.000945 0.001579 0.000000 0.045850 0.000000
# 6 0.000000 0.000000 0.000000 0.002035 0.000000 0.026895
#
#
# Mechanical properties :
#
#
# Convention : Reuss Voigt Hill
#
# Bulk Modulus (GPa) = 47.09570 51.91868 49.50719
# Shear Modulus (GPa) = 27.77867 29.95802 28.86834
#
# Velocity S-wave (km/s) = 3.78660 3.93233 3.86015
# Velocity P-wave (km/s) = 6.58991 6.88594 6.73955
#
# Compressibility (1/GPa) = 0.02123336
#
# Stress axis : x y z
#
# Youngs Moduli (GPa) = 49.83883 76.92248 78.82861
#
# Poissons Ratio (x) = 0.54949 0.11799
# Poissons Ratio (y) = 0.35602 0.28523
# Poissons Ratio (z) = 0.07460 0.27834
#
# Static dielectric constant tensor:
#      x y z
#    x 1.690340 0.000000 -0.000240 
#    y 0.000000 1.759250 0.000000 
#    z -0.000240 0.000000 1.711880 
# 
# From -- ./inp_files/61713.got.cif
#   From: 2010.05.17/outbox.cif.g08.bks.cpg/sg5_31_cif.got.tgz:61713.got - 2010.06.03 18:56:24.
