data_PCOD9128148
_publ_section_title
;
Structure prediction by ZEFSAII (Michael W. Deem and Ramdas Pophale) SiO2 
 PCOD9128148
Probable space group: C 2
;
_chemical_formula_sum "Si O2"
_cell_formula_units_Z 16
_cell_length_a 5.329117
_cell_length_b 22.912886
_cell_length_c 5.220014
_cell_angle_alpha 90.000000
_cell_angle_beta 90.560043
_cell_angle_gamma 90.000000
_cell_volume 637.361711
_symmetry_space_group_name_H-M "C 2"
_symmetry_group_IT_number 5
_symmetry_cell_setting 'monoclinic'
loop_
_space_group_symop_operation_xyz
x,y,z
-x,y,-z
1/2+x,1/2+y,z
1/2-x,1/2+y,-z
loop_
_atom_site_type_symbol
_atom_site_label
_atom_site_fract_x
_atom_site_fract_y
_atom_site_fract_z
Si Si1 0.500000 0.243850 0.500000
Si Si2 0.175589 0.328767 0.755738
Si Si3 0.258803 0.125599 0.633062
Si Si4 0.329344 0.964273 0.248680
Si Si5 0.500000 0.554235 0.000000
O O1 0.424559 0.289930 0.720440
O O2 0.293773 0.194563 0.579978
O O3 0.253121 0.396619 0.761263
O O4 0.000000 0.319336 0.500000
O O5 0.000000 0.315709 0.000000
O O6 0.500000 0.098915 0.500000
O O7 0.000000 0.110671 0.500000
O O8 0.218039 0.098781 0.911686
O O9 0.500000 0.970841 0.500000
O O10 0.500000 0.973787 0.000000
O O11 0.103103 0.009225 0.212741
#
# Coordination Sequence:
#
# PCOD9128148 Si02
#       5
#     2   4   4   4   2
#     4  10  24  46  80 108 154 208 266 330 396 478
#     4  10  23  47  74 114 156 200 261 330 401 475
#     4  10  27  49  74 116 156 214 268 326 395 477
#     4  10  26  46  77 117 159 209 262 330 407 482
#     4  12  28  46  80 112 166 210 266 332 400 488
#
# _framework density 25.103480999999999
#
# number of rings (size 3 to 8) (size 9 to 14) (size 15 to 20)
#    0.750    1.000    0.000    0.750    8.750    7.000 
#    4.500    0.000    0.000    0.000    0.000    0.000 
#    0.000    0.000    0.000    0.000    0.000    0.000 
#
# Total GULP energy -44613.180913 kJ/mol
# GULP energy per Si atom -5576.647614 kJ/mol
# Density = 2.504634 g / cm^3
# Si number density = 25.103481 Si / 1000 Ang^3
#
#
#
# Elastic Constant Matrix: (Units=GPa)
#
#
# Indices 1 2 3 4 5 6 
#
# 1 109.8792 77.7152 62.0454 0.0000 -22.5764 0.0000
# 2 77.7152 186.3954 56.0191 0.0000 -30.5466 0.0000
# 3 62.0454 56.0191 170.3740 0.0000 -21.7137 0.0000
# 4 0.0000 0.0000 0.0000 37.9139 0.0000 -33.8125
# 5 -22.5764 -30.5466 -21.7137 0.0000 48.4070 0.0000
# 6 0.0000 0.0000 0.0000 -33.8125 0.0000 55.8315
#
#
#
# Elastic Compliance Matrix: (Units=1/GPa)
#
#
# Indices 1 2 3 4 5 6 
#
# 1 0.014998 -0.004788 -0.003586 0.000000 0.002365 0.000000
# 2 -0.004788 0.007940 -0.000544 0.000000 0.002533 0.000000
# 3 -0.003586 -0.000544 0.007528 0.000000 0.001361 0.000000
# 4 0.000000 0.000000 0.000000 0.057351 0.000000 0.034733
# 5 0.002365 0.002533 0.001361 0.000000 0.023970 0.000000
# 6 0.000000 0.000000 0.000000 0.034733 0.000000 0.038946
#
#
# Mechanical properties :
#
#
# Convention : Reuss Voigt Hill
#
# Bulk Modulus (GPa) = 79.18135 95.35645 87.26890
# Shear Modulus (GPa) = 28.93861 46.48841 37.71351
#
# Velocity S-wave (km/s) = 3.39893 4.30801 3.88018
# Velocity P-wave (km/s) = 6.85668 7.92547 7.41037
#
# Compressibility (1/GPa) = 0.01262924
#
# Stress axis : x y z
#
# Youngs Moduli (GPa) = 66.67427 125.94606 132.84098
#
# Poissons Ratio (x) = 0.60303 0.47640
# Poissons Ratio (y) = 0.31923 0.07229
# Poissons Ratio (z) = 0.23911 0.06853
#
# Static dielectric constant tensor:
#      x y z
#    x 1.965470 0.000000 -0.087390 
#    y 0.000000 1.973220 0.000000 
#    z -0.087390 0.000000 1.905060 
# 
# From -- ./inp_files/663.got.cif
#   From: 2010.05.17/outbox.cif.g08.bks.cpg/sg5_1_cif.got.tgz:663.got - 2010.06.03 18:56:24.
