data_PCOD9128626
_publ_section_title
;
Structure prediction by ZEFSAII (Michael W. Deem and Ramdas Pophale) SiO2 
 PCOD9128626
Probable space group: C 2
;
_chemical_formula_sum "Si O2"
_cell_formula_units_Z 26
_cell_length_a 31.294557
_cell_length_b 5.951997
_cell_length_c 22.154837
_cell_angle_alpha 90.000000
_cell_angle_beta 16.373786
_cell_angle_gamma 90.000000
_cell_volume 1163.319562
_symmetry_space_group_name_H-M "C 2"
_symmetry_group_IT_number 5
_symmetry_cell_setting 'monoclinic'
loop_
_space_group_symop_operation_xyz
x,y,z
-x,y,-z
1/2+x,1/2+y,z
1/2-x,1/2+y,-z
loop_
_atom_site_type_symbol
_atom_site_label
_atom_site_fract_x
_atom_site_fract_y
_atom_site_fract_z
Si Si1 0.862573 0.333760 0.138793
Si Si2 0.320729 0.337912 0.232460
Si Si3 0.078706 0.450728 0.273431
Si Si4 0.165072 0.402950 0.957507
Si Si5 0.051598 0.186509 0.650532
Si Si6 0.500000 0.199190 0.500000
Si Si7 0.595185 0.275120 0.136715
O O1 0.791735 0.587570 0.242216
O O2 0.905225 0.337728 0.010875
O O3 0.784601 0.086230 0.253862
O O4 0.000000 0.333442 0.000000
O O5 0.210302 0.314051 0.439700
O O6 0.500000 0.341536 0.000000
O O7 0.073863 0.618762 0.223701
O O8 0.007911 0.231045 0.337427
O O9 0.000924 0.545792 0.438723
O O10 0.252585 0.409522 0.053858
O O11 0.344196 0.343443 0.713820
O O12 0.133892 0.656056 0.021320
O O13 0.074213 0.274466 0.132775
O O14 0.054358 0.925452 0.661741
#
# Coordination Sequence:
#
# PCOD9128626 Si02
#       7
#     4   4   4   4   4   2   4
#     4  10  24  49  74 103 141 186 244 307 365 428
#     4  10  24  46  74 103 135 184 242 302 367 425
#     4  11  22  40  62  96 145 191 235 287 356 444
#     4  11  26  40  66 105 144 188 241 296 361 440
#     4  11  24  42  70  97 144 192 235 299 360 437
#     4  12  24  40  60 104 148 184 234 292 358 438
#     4  11  22  41  62  97 142 195 241 287 361 435
#
# _framework density 22.349836
#
# number of rings (size 3 to 8) (size 9 to 14) (size 15 to 20)
#    0.000    1.231    3.077    1.846    8.615    1.846 
#    0.000    6.154    0.000    0.000    0.000    0.000 
#    0.000    0.000    0.000    0.000    0.000    0.000 
#
# Total GULP energy -72399.468941 kJ/mol
# GULP energy per Si atom -5569.189919 kJ/mol
# Density = 2.229897 g / cm^3
# Si number density = 22.349836 Si / 1000 Ang^3
#
#
#
# Elastic Constant Matrix: (Units=GPa)
#
#
# Indices 1 2 3 4 5 6 
#
# 1 117.0376 38.4720 62.8502 -0.0198 17.2180 -0.0009
# 2 38.4720 138.1591 41.3248 -0.0498 21.4370 -0.0208
# 3 62.8502 41.3248 130.0740 -0.0739 15.0656 -0.0303
# 4 -0.0198 -0.0498 -0.0739 124.0966 -0.0056 43.7949
# 5 17.2180 21.4370 15.0656 -0.0056 33.2211 0.0002
# 6 -0.0009 -0.0208 -0.0303 43.7949 0.0002 24.9492
#
#
#
# Elastic Compliance Matrix: (Units=1/GPa)
#
#
# Indices 1 2 3 4 5 6 
#
# 1 0.012192 -0.001390 -0.005089 0.000002 -0.003114 -0.000010
# 2 -0.001390 0.008763 -0.001626 0.000001 -0.004197 0.000004
# 3 -0.005089 -0.001626 0.010804 0.000002 -0.001213 0.000008
# 4 0.000002 0.000001 0.000002 0.021177 0.000001 -0.037173
# 5 -0.003114 -0.004197 -0.001213 0.000001 0.034973 -0.000008
# 6 -0.000010 0.000004 0.000008 -0.037173 -0.000008 0.105334
#
#
# Mechanical properties :
#
#
# Convention : Reuss Voigt Hill
#
# Bulk Modulus (GPa) = 64.31330 74.50717 69.41024
# Shear Modulus (GPa) = 23.29526 52.62829 37.96178
#
# Velocity S-wave (km/s) = 3.23197 4.85784 4.12579
# Velocity P-wave (km/s) = 6.53955 8.05444 7.33620
#
# Compressibility (1/GPa) = 0.01554888
#
# Stress axis : x y z
#
# Youngs Moduli (GPa) = 82.02120 114.12120 92.55891
#
# Poissons Ratio (x) = 0.15859 0.47101
# Poissons Ratio (y) = 0.11398 0.15054
# Poissons Ratio (z) = 0.41739 0.18560
#
# Static dielectric constant tensor:
#      x y z
#    x 1.749770 -0.000010 0.015670 
#    y -0.000010 2.095460 0.000030 
#    z 0.015670 0.000030 1.849180 
# 
# From -- ./inp_files/53815.got.cif
#   From: 2010.05.17/outbox.cif.g08.bks.cpg/sg5_27_cif.got.tgz:53815.got - 2010.06.03 18:56:24.
