data_PCOD9128538
_publ_section_title
;
Structure prediction by ZEFSAII (Michael W. Deem and Ramdas Pophale) SiO2 
 PCOD9128538
Probable space group: C 2
;
_chemical_formula_sum "Si O2"
_cell_formula_units_Z 30
_cell_length_a 14.657307
_cell_length_b 5.269994
_cell_length_c 19.297783
_cell_angle_alpha 90.000000
_cell_angle_beta 128.600545
_cell_angle_gamma 90.000000
_cell_volume 1164.954022
_symmetry_space_group_name_H-M "C 2"
_symmetry_group_IT_number 5
_symmetry_cell_setting 'monoclinic'
loop_
_space_group_symop_operation_xyz
x,y,z
-x,y,-z
1/2+x,1/2+y,z
1/2-x,1/2+y,-z
loop_
_atom_site_type_symbol
_atom_site_label
_atom_site_fract_x
_atom_site_fract_y
_atom_site_fract_z
Si Si1 0.678634 0.209080 0.038149
Si Si2 0.956285 0.023919 0.733309
Si Si3 0.500000 0.589145 0.000000
Si Si4 0.232915 0.257002 0.607906
Si Si5 0.127894 0.440667 0.690011
Si Si6 0.935935 0.372909 0.108858
Si Si7 0.369080 0.878805 0.587008
Si Si8 0.805885 0.917569 0.201874
O O1 0.803620 0.289394 0.066918
O O2 0.704258 0.963120 0.098139
O O3 0.614940 0.412534 0.054950
O O4 0.588750 0.151087 0.933323
O O5 0.844912 0.866234 0.702825
O O6 0.915709 0.110577 0.637388
O O7 0.984957 0.276634 0.790684
O O8 0.075348 0.868196 0.785069
O O9 0.511430 0.735146 0.933240
O O10 0.133600 0.321657 0.615898
O O11 0.279468 0.986859 0.601923
O O12 0.191768 0.378101 0.515850
O O13 0.170682 0.199518 0.755869
O O14 0.993071 0.520124 0.639384
O O15 0.200538 0.693340 0.745298
#
# Coordination Sequence:
#
# PCOD9128538 Si02
#       8
#     4   4   2   4   4   4   4   4
#     4  11  25  46  73 104 145 196 241 305 364 437
#     4  10  24  45  71 102 140 193 239 301 365 437
#     4  12  26  44  72 108 140 194 242 302 364 442
#     4  12  24  42  74 103 139 195 239 301 369 434
#     4  11  26  45  73 109 145 191 245 301 365 440
#     4  11  25  46  72 103 146 189 247 300 370 434
#     4  11  24  47  68 103 147 186 245 305 367 437
#     4  10  25  47  72 107 150 189 242 307 362 433
#
# _framework density 25.752089999999999
#
# number of rings (size 3 to 8) (size 9 to 14) (size 15 to 20)
#    0.000    1.067    4.000    0.800    5.600    3.200 
#    0.000    1.333    0.000    0.000    0.000    0.000 
#    0.000    0.000    0.000    0.000    0.000    0.000 
#
# Total GULP energy -83777.140081 kJ/mol
# GULP energy per Si atom -5585.142672 kJ/mol
# Density = 2.569348 g / cm^3
# Si number density = 25.752090 Si / 1000 Ang^3
#
#
#
# Elastic Constant Matrix: (Units=GPa)
#
#
# Indices 1 2 3 4 5 6 
#
# 1 109.6697 24.7813 23.1279 0.0000 -21.8517 0.0000
# 2 24.7813 74.9026 22.5687 0.0000 -5.9809 0.0001
# 3 23.1279 22.5687 130.7310 0.0000 -9.8008 0.0000
# 4 0.0000 0.0000 0.0000 42.0978 0.0000 -1.6116
# 5 -21.8517 -5.9809 -9.8008 0.0000 31.1516 0.0000
# 6 0.0000 0.0001 0.0000 -1.6116 0.0000 31.1387
#
#
#
# Elastic Compliance Matrix: (Units=1/GPa)
#
#
# Indices 1 2 3 4 5 6 
#
# 1 0.011403 -0.002908 -0.000981 0.000000 0.007132 0.000000
# 2 -0.002908 0.014946 -0.002052 0.000000 0.000184 0.000000
# 3 -0.000981 -0.002052 0.008291 0.000000 0.001527 0.000000
# 4 0.000000 0.000000 0.000000 0.023801 0.000000 0.001232
# 5 0.007132 0.000184 0.001527 0.000000 0.037620 0.000000
# 6 0.000000 0.000000 0.000000 0.001232 0.000000 0.032178
#
#
# Mechanical properties :
#
#
# Convention : Reuss Voigt Hill
#
# Bulk Modulus (GPa) = 43.93736 50.69546 47.31641
# Shear Modulus (GPa) = 33.85082 37.19930 35.52506
#
# Velocity S-wave (km/s) = 3.62952 3.80480 3.71819
# Velocity P-wave (km/s) = 5.88755 6.24746 6.07017
#
# Compressibility (1/GPa) = 0.02275967
#
# Stress axis : x y z
#
# Youngs Moduli (GPa) = 87.69446 66.90901 120.60566
#
# Poissons Ratio (x) = 0.19455 0.11828
# Poissons Ratio (y) = 0.25499 0.24747
# Poissons Ratio (z) = 0.08600 0.13729
#
# Static dielectric constant tensor:
#      x y z
#    x 2.117800 0.000000 0.007350 
#    y 0.000000 2.117010 0.000000 
#    z 0.007350 0.000000 2.024640 
# 
# From -- ./inp_files/61262.got.cif
#   From: 2010.05.17/outbox.cif.g08.bks.cpg/sg5_31_cif.got.tgz:61262.got - 2010.06.03 18:56:24.
