data_PCOD9128712
_publ_section_title
;
Structure prediction by ZEFSAII (Michael W. Deem and Ramdas Pophale) SiO2 
 PCOD9128712
Probable space group: C 2
;
_chemical_formula_sum "Si O2"
_cell_formula_units_Z 14
_cell_length_a 10.466342
_cell_length_b 7.847003
_cell_length_c 7.510665
_cell_angle_alpha 90.000000
_cell_angle_beta 119.672211
_cell_angle_gamma 90.000000
_cell_volume 535.960509
_symmetry_space_group_name_H-M "C 2"
_symmetry_group_IT_number 5
_symmetry_cell_setting 'monoclinic'
loop_
_space_group_symop_operation_xyz
x,y,z
-x,y,-z
1/2+x,1/2+y,z
1/2-x,1/2+y,-z
loop_
_atom_site_type_symbol
_atom_site_label
_atom_site_fract_x
_atom_site_fract_y
_atom_site_fract_z
Si Si1 0.170751 0.139660 0.147066
Si Si2 0.500000 0.720271 0.500000
Si Si3 0.603873 0.058187 0.421955
Si Si4 0.280654 0.040396 0.851744
O O1 0.236282 0.066826 0.375353
O O2 0.193182 0.341315 0.152562
O O3 0.000000 0.094966 0.000000
O O4 0.274350 0.072175 0.057468
O O5 0.557123 0.859749 0.395942
O O6 0.623797 0.608287 0.676021
O O7 0.500000 0.145914 0.500000
O O8 0.611424 0.121658 0.225026
#
# Coordination Sequence:
#
# PCOD9128712 Si02
#       4
#     4   2   4   4
#     4  12  28  46  73 112 142 189 238 294 361 422
#     4  10  24  48  74 106 140 190 240 290 354 422
#     4  10  25  48  77 102 145 188 240 297 352 422
#     4  12  24  47  76 101 153 184 236 299 351 428
#
# _framework density 26.121328999999999
#
# number of rings (size 3 to 8) (size 9 to 14) (size 15 to 20)
#    0.857    0.000    0.000    6.857    6.000    0.000 
#   10.286    1.429    0.000    0.000    0.000    0.000 
#    0.000    0.000    0.000    0.000    0.000    0.000 
#
# Total GULP energy -39157.820770 kJ/mol
# GULP energy per Si atom -5593.974396 kJ/mol
# Density = 2.606188 g / cm^3
# Si number density = 26.121329 Si / 1000 Ang^3
#
#
#
# Elastic Constant Matrix: (Units=GPa)
#
#
# Indices 1 2 3 4 5 6 
#
# 1 126.7416 26.0984 55.6865 0.0000 -17.6208 0.0000
# 2 26.0984 44.7474 11.4540 0.0000 -7.8331 0.0000
# 3 55.6865 11.4540 173.4326 0.0000 -29.2770 0.0000
# 4 0.0000 0.0000 0.0000 35.1589 0.0000 8.3817
# 5 -17.6208 -7.8331 -29.2770 0.0000 69.5024 0.0000
# 6 0.0000 0.0000 0.0000 8.3817 0.0000 36.4980
#
#
#
# Elastic Compliance Matrix: (Units=1/GPa)
#
#
# Indices 1 2 3 4 5 6 
#
# 1 0.010308 -0.005141 -0.002828 0.000000 0.000843 0.000000
# 2 -0.005141 0.025578 0.000245 0.000000 0.001683 0.000000
# 3 -0.002828 0.000245 0.007042 0.000000 0.002277 0.000000
# 4 0.000000 0.000000 0.000000 0.030090 0.000000 -0.006910
# 5 0.000843 0.001683 0.002277 0.000000 0.015751 0.000000
# 6 0.000000 0.000000 0.000000 -0.006910 0.000000 0.028986
#
#
# Mechanical properties :
#
#
# Convention : Reuss Voigt Hill
#
# Bulk Modulus (GPa) = 36.38819 59.04436 47.71627
# Shear Modulus (GPa) = 35.12188 45.01071 40.06629
#
# Velocity S-wave (km/s) = 3.67081 4.15558 3.92069
# Velocity P-wave (km/s) = 5.65041 6.75855 6.22917
#
# Compressibility (1/GPa) = 0.02748145
#
# Stress axis : x y z
#
# Youngs Moduli (GPa) = 97.00821 39.09649 142.00182
#
# Poissons Ratio (x) = 0.20099 0.40159
# Poissons Ratio (y) = 0.49870 -0.03486
# Poissons Ratio (z) = 0.27435 -0.00960
#
# Static dielectric constant tensor:
#      x y z
#    x 2.196800 0.000000 -0.061580 
#    y 0.000000 1.940420 0.000000 
#    z -0.061580 0.000000 2.094880 
# 
# From -- ./inp_files/13674.got.cif
#   From: 2010.05.17/outbox.cif.g08.bks.cpg/sg5_7_cif.got.tgz:13674.got - 2010.06.03 18:56:24.
