data_PCOD9128526
_publ_section_title
;
Structure prediction by ZEFSAII (Michael W. Deem and Ramdas Pophale) SiO2 
 PCOD9128526
Probable space group: C 2
;
_chemical_formula_sum "Si O2"
_cell_formula_units_Z 18
_cell_length_a 7.131286
_cell_length_b 7.024145
_cell_length_c 20.423961
_cell_angle_alpha 90.000000
_cell_angle_beta 141.399368
_cell_angle_gamma 90.000000
_cell_volume 638.275359
_symmetry_space_group_name_H-M "C 2"
_symmetry_group_IT_number 5
_symmetry_cell_setting 'monoclinic'
loop_
_space_group_symop_operation_xyz
x,y,z
-x,y,-z
1/2+x,1/2+y,z
1/2-x,1/2+y,-z
loop_
_atom_site_type_symbol
_atom_site_label
_atom_site_fract_x
_atom_site_fract_y
_atom_site_fract_z
Si Si1 0.738183 0.561780 0.667697
Si Si2 0.000000 0.332716 0.500000
Si Si3 0.320353 0.032455 0.884258
Si Si4 0.242491 0.460489 0.887531
Si Si5 0.732876 0.616399 0.342942
O O1 0.690155 0.336408 0.644665
O O2 0.714436 0.683819 0.596010
O O3 0.500203 0.616096 0.658999
O O4 0.008160 0.485227 0.442029
O O5 0.488334 0.921872 0.872503
O O6 0.364624 0.263842 0.891256
O O7 0.500000 0.987147 0.000000
O O8 0.571145 0.082135 0.787835
O O9 0.962892 0.026344 0.770208
O O10 0.500000 0.557488 0.000000
#
# Coordination Sequence:
#
# PCOD9128526 Si02
#       5
#     4   2   4   4   4
#     4  10  24  45  69 100 142 184 241 291 355 420
#     4  12  26  40  68 102 136 196 234 300 344 422
#     4   9  19  43  68 101 139 183 229 290 355 423
#     4   9  19  43  68 101 139 183 229 290 355 423
#     4  10  24  45  69 100 142 184 241 291 355 420
#
# _framework density 28.200994999999999
#
# number of rings (size 3 to 8) (size 9 to 14) (size 15 to 20)
#    0.000    2.222    0.000    0.667    6.222    0.000 
#   40.000    0.000    0.000    0.000    0.000    0.000 
#    0.000    0.000    0.000    0.000    0.000    0.000 
#
# Total GULP energy -50309.471590 kJ/mol
# GULP energy per Si atom -5589.941288 kJ/mol
# Density = 2.813681 g / cm^3
# Si number density = 28.200995 Si / 1000 Ang^3
#
#
#
# Elastic Constant Matrix: (Units=GPa)
#
#
# Indices 1 2 3 4 5 6 
#
# 1 129.4419 47.3501 12.6470 0.0000 -5.4199 0.0000
# 2 47.3501 159.5181 38.4978 0.0000 -18.7253 0.0000
# 3 12.6470 38.4978 269.2277 0.0000 -43.9054 0.0000
# 4 0.0000 0.0000 0.0000 0.7000 0.0000 -0.3814
# 5 -5.4199 -18.7253 -43.9054 0.0000 31.0012 0.0000
# 6 0.0000 0.0000 0.0000 -0.3814 0.0000 29.0930
#
#
#
# Elastic Compliance Matrix: (Units=1/GPa)
#
#
# Indices 1 2 3 4 5 6 
#
# 1 0.008667 -0.002573 -0.000059 0.000000 -0.000123 0.000000
# 2 -0.002573 0.007543 -0.000375 0.000000 0.003576 0.000000
# 3 -0.000059 -0.000375 0.004853 0.000000 0.006636 0.000000
# 4 0.000000 0.000000 0.000000 1.438945 0.000000 0.018864
# 5 -0.000123 0.003576 0.006636 0.000000 0.043794 0.000000
# 6 0.000000 0.000000 0.000000 0.018864 0.000000 0.034620
#
#
# Mechanical properties :
#
#
# Convention : Reuss Voigt Hill
#
# Bulk Modulus (GPa) = 66.44706 83.90860 75.17783
# Shear Modulus (GPa) = 3.22695 42.80503 23.01599
#
# Velocity S-wave (km/s) = 1.07086 3.90019 2.85992
# Velocity P-wave (km/s) = 5.01419 7.07816 6.13362
#
# Compressibility (1/GPa) = 0.01504957
#
# Stress axis : x y z
#
# Youngs Moduli (GPa) = 115.37657 132.57838 206.06153
#
# Poissons Ratio (x) = 0.34110 0.01221
# Poissons Ratio (y) = 0.29684 0.07719
# Poissons Ratio (z) = 0.00684 0.04966
#
# Static dielectric constant tensor:
#      x y z
#    x 2.188350 0.000000 0.083910 
#    y 0.000000 2.108970 0.000000 
#    z 0.083910 0.000000 2.337540 
# 
# From -- ./inp_files/67884.got.cif
#   From: 2010.05.17/outbox.cif.g08.bks.cpg/sg5_34_cif.got.tgz:67884.got - 2010.06.03 18:56:24.
