data_PCOD9128998
_publ_section_title
;
Structure prediction by ZEFSAII (Michael W. Deem and Ramdas Pophale) SiO2 
 PCOD9128998
Probable space group: C 2
;
_chemical_formula_sum "Si O2"
_cell_formula_units_Z 24
_cell_length_a 17.612944
_cell_length_b 5.031971
_cell_length_c 10.787628
_cell_angle_alpha 90.000000
_cell_angle_beta 110.581239
_cell_angle_gamma 90.000000
_cell_volume 895.061635
_symmetry_space_group_name_H-M "C 2"
_symmetry_group_IT_number 5
_symmetry_cell_setting 'monoclinic'
loop_
_space_group_symop_operation_xyz
x,y,z
-x,y,-z
1/2+x,1/2+y,z
1/2-x,1/2+y,-z
loop_
_atom_site_type_symbol
_atom_site_label
_atom_site_fract_x
_atom_site_fract_y
_atom_site_fract_z
Si Si1 0.316123 0.866910 0.219579
Si Si2 0.768521 0.956197 0.583197
Si Si3 0.562878 0.245476 0.382707
Si Si4 0.000000 0.414355 0.000000
Si Si5 0.442856 0.567299 0.174511
Si Si6 0.000000 0.232866 0.500000
Si Si7 0.839648 0.699170 0.984233
O O1 0.286639 0.999347 0.327276
O O2 0.403095 0.717072 0.270061
O O3 0.323658 0.058806 0.106386
O O4 0.240218 0.679278 0.142803
O O5 0.722096 0.744519 0.470465
O O6 0.854610 0.804640 0.645829
O O7 0.487630 0.308645 0.247721
O O8 0.559284 0.490448 0.477219
O O9 0.544684 0.968088 0.438402
O O10 0.002383 0.237383 0.125273
O O11 0.918082 0.579299 0.964159
O O12 0.368687 0.494418 0.040257
#
# Coordination Sequence:
#
# PCOD9128998 Si02
#       7
#     4   4   4   2   4   2   4
#     4  11  27  46  76 108 154 194 252 306 389 444
#     4  12  31  50  77 112 156 207 255 318 376 454
#     4  11  27  47  80 109 146 198 252 317 370 448
#     4  10  26  42  74 106 150 182 248 288 392 446
#     4  11  26  45  75 108 146 196 241 312 378 460
#     4  10  26  48  76 102 150 188 266 302 372 426
#     4  11  24  47  74 114 148 192 241 319 378 461
#
# _framework density 26.813796
#
# number of rings (size 3 to 8) (size 9 to 14) (size 15 to 20)
#    0.000    1.000    1.667    1.500   18.667    1.333 
#    0.000    0.000    0.000    0.000    0.000    0.000 
#    0.000    0.000    0.000    0.000    0.000    0.000 
#
# Total GULP energy -67053.108240 kJ/mol
# GULP energy per Si atom -5587.759020 kJ/mol
# Density = 2.675277 g / cm^3
# Si number density = 26.813796 Si / 1000 Ang^3
#
#
#
# Elastic Constant Matrix: (Units=GPa)
#
#
# Indices 1 2 3 4 5 6 
#
# 1 167.2129 29.6105 34.2205 0.0000 -30.1995 0.0000
# 2 29.6105 136.4048 38.2736 0.0000 -17.0397 0.0000
# 3 34.2205 38.2736 73.2215 0.0000 -37.3256 0.0000
# 4 0.0000 0.0000 0.0000 56.4667 0.0000 -11.8396
# 5 -30.1995 -17.0397 -37.3256 0.0000 51.7279 0.0000
# 6 0.0000 0.0000 0.0000 -11.8396 0.0000 43.9905
#
#
#
# Elastic Compliance Matrix: (Units=1/GPa)
#
#
# Indices 1 2 3 4 5 6 
#
# 1 0.006903 -0.000754 -0.001431 0.000000 0.002750 0.000000
# 2 -0.000754 0.008687 -0.004673 0.000000 -0.000950 0.000000
# 3 -0.001431 -0.004673 0.024611 0.000000 0.015384 0.000000
# 4 0.000000 0.000000 0.000000 0.018769 0.000000 0.005051
# 5 0.002750 -0.000950 0.015384 0.000000 0.031725 0.000000
# 6 0.000000 0.000000 0.000000 0.005051 0.000000 0.024092
#
#
# Mechanical properties :
#
#
# Convention : Reuss Voigt Hill
#
# Bulk Modulus (GPa) = 37.75559 64.56095 51.15827
# Shear Modulus (GPa) = 36.40869 48.75267 42.58068
#
# Velocity S-wave (km/s) = 3.68888 4.26865 3.98931
# Velocity P-wave (km/s) = 5.67935 6.95881 6.35138
#
# Compressibility (1/GPa) = 0.02648615
#
# Stress axis : x y z
#
# Youngs Moduli (GPa) = 144.85949 115.11147 40.63287
#
# Poissons Ratio (x) = 0.08675 0.05813
# Poissons Ratio (y) = 0.10917 0.18988
# Poissons Ratio (z) = 0.20725 0.53793
#
# Static dielectric constant tensor:
#      x y z
#    x 2.063510 0.000000 -0.054160 
#    y 0.000000 2.057810 0.000000 
#    z -0.054160 0.000000 1.662840 
# 
# From -- ./inp_files/43765.got.cif
#   From: 2010.05.17/outbox.cif.g08.bks.cpg/sg5_22_cif.got.tgz:43765.got - 2010.06.03 18:56:24.
