data_PCOD9128709
_publ_section_title
;
Structure prediction by ZEFSAII (Michael W. Deem and Ramdas Pophale) SiO2 
 PCOD9128709
Probable space group: C 2
;
_chemical_formula_sum "Si O2"
_cell_formula_units_Z 24
_cell_length_a 22.978445
_cell_length_b 5.376906
_cell_length_c 20.139764
_cell_angle_alpha 90.000000
_cell_angle_beta 158.818586
_cell_angle_gamma 90.000000
_cell_volume 899.087591
_symmetry_space_group_name_H-M "C 2"
_symmetry_group_IT_number 5
_symmetry_cell_setting 'monoclinic'
loop_
_space_group_symop_operation_xyz
x,y,z
-x,y,-z
1/2+x,1/2+y,z
1/2-x,1/2+y,-z
loop_
_atom_site_type_symbol
_atom_site_label
_atom_site_fract_x
_atom_site_fract_y
_atom_site_fract_z
Si Si1 0.731546 0.372500 0.514964
Si Si2 0.705720 0.026570 0.063999
Si Si3 0.485628 0.873935 0.389884
Si Si4 0.245639 0.030862 0.235689
Si Si5 0.588875 0.210127 0.803914
Si Si6 0.457138 0.722784 0.869725
O O1 0.792804 0.648510 0.564144
O O2 0.554236 0.407791 0.356231
O O3 0.852425 0.228105 0.692318
O O4 0.755524 0.790596 0.071619
O O5 0.864983 0.143414 0.265070
O O6 0.637245 0.196670 0.931972
O O7 0.580426 0.944804 0.985903
O O8 0.382358 0.071425 0.325530
O O9 0.658480 0.854031 0.609639
O O10 0.485072 0.974421 0.314135
O O11 0.172258 0.234682 0.208661
O O12 0.079420 0.994124 0.016688
#
# Coordination Sequence:
#
# PCOD9128709 Si02
#       6
#     4   4   4   4   4   4
#     4  12  29  47  78 119 165 211 273 352 434 499
#     4  12  26  45  79 115 155 208 267 339 426 487
#     4  11  24  48  73 111 147 212 268 332 404 495
#     4  10  24  48  73 100 160 203 271 324 397 498
#     4  12  25  44  77 112 156 200 264 340 413 498
#     4  11  24  48  75 112 158 208 269 337 408 495
#
# _framework density 26.693726000000002
#
# number of rings (size 3 to 8) (size 9 to 14) (size 15 to 20)
#    0.000    0.667    6.667    0.000    7.000    0.000 
#    6.000    8.333    0.000    0.000    0.000    0.000 
#    0.000    0.000    0.000    0.000    0.000    0.000 
#
# Total GULP energy -66878.015173 kJ/mol
# GULP energy per Si atom -5573.167931 kJ/mol
# Density = 2.663297 g / cm^3
# Si number density = 26.693726 Si / 1000 Ang^3
#
#
#
# Elastic Constant Matrix: (Units=GPa)
#
#
# Indices 1 2 3 4 5 6 
#
# 1 94.8309 34.3426 31.3439 0.0003 2.1439 0.0000
# 2 34.3426 94.9597 33.7923 0.0014 7.7976 0.0006
# 3 31.3439 33.7923 145.5717 0.0004 -32.0710 0.0002
# 4 0.0003 0.0014 0.0004 39.6117 0.0001 11.0560
# 5 2.1439 7.7976 -32.0710 0.0001 42.2559 -0.0001
# 6 0.0000 0.0006 0.0002 11.0560 -0.0001 2.0927
#
#
#
# Elastic Compliance Matrix: (Units=1/GPa)
#
#
# Indices 1 2 3 4 5 6 
#
# 1 0.012642 -0.003635 -0.002248 0.000001 -0.001677 -0.000002
# 2 -0.003635 0.013465 -0.003422 -0.000001 -0.004898 0.000003
# 3 -0.002248 -0.003422 0.009981 0.000000 0.008321 0.000000
# 4 0.000001 -0.000001 0.000000 -0.053193 0.000001 0.281030
# 5 -0.001677 -0.004898 0.008321 0.000001 0.030969 -0.000003
# 6 -0.000002 0.000003 0.000000 0.281030 -0.000003 -1.006881
#
#
# Mechanical properties :
#
#
# Convention : Reuss Voigt Hill
#
# Bulk Modulus (GPa) = 57.21002 59.36888 58.28945
# Shear Modulus (GPa) = -5.16219 32.51762 13.67771
#
# Velocity S-wave (km/s) = -1.39214 3.49402 2.26607
# Velocity P-wave (km/s) = 4.34678 6.21020 5.36009
#
# Compressibility (1/GPa) = 0.01747945
#
# Stress axis : x y z
#
# Youngs Moduli (GPa) = 79.10043 74.26543 100.19008
#
# Poissons Ratio (x) = 0.26992 0.22520
# Poissons Ratio (y) = 0.28749 0.34287
# Poissons Ratio (z) = 0.17780 0.25415
#
# Static dielectric constant tensor:
#      x y z
#    x 2.195980 0.000000 -0.012140 
#    y 0.000000 2.145500 0.000000 
#    z -0.012140 0.000000 2.141700 
# 
# From -- ./inp_files/69880.got.cif
#   From: 2010.05.17/outbox.cif.g08.bks.cpg/sg5_35_cif.got.tgz:69880.got - 2010.06.03 18:56:24.
