data_PCOD9128942
_publ_section_title
;
Structure prediction by ZEFSAII (Michael W. Deem and Ramdas Pophale) SiO2 
 PCOD9128942
Probable space group: C 2
;
_chemical_formula_sum "Si O2"
_cell_formula_units_Z 16
_cell_length_a 22.975496
_cell_length_b 5.056908
_cell_length_c 9.615007
_cell_angle_alpha 90.000000
_cell_angle_beta 34.785768
_cell_angle_gamma 90.000000
_cell_volume 637.327261
_symmetry_space_group_name_H-M "C 2"
_symmetry_group_IT_number 5
_symmetry_cell_setting 'monoclinic'
loop_
_space_group_symop_operation_xyz
x,y,z
-x,y,-z
1/2+x,1/2+y,z
1/2-x,1/2+y,-z
loop_
_atom_site_type_symbol
_atom_site_label
_atom_site_fract_x
_atom_site_fract_y
_atom_site_fract_z
Si Si1 0.315310 0.767640 0.847658
Si Si2 0.000000 0.575587 0.500000
Si Si3 0.500000 0.623727 0.000000
Si Si4 0.110603 0.918061 0.517242
Si Si5 0.787706 0.357590 0.349116
O O1 0.362942 0.700315 0.603542
O O2 0.410668 0.894695 0.739622
O O3 0.272271 0.487429 0.982482
O O4 0.050040 0.754140 0.521195
O O5 0.453205 0.453335 0.217419
O O6 0.406727 0.794351 0.120738
O O7 0.221887 0.804045 0.339949
O O8 0.763402 0.657820 0.438921
#
# Coordination Sequence:
#
# PCOD9128942 Si02
#       5
#     4   2   2   4   4
#     4  12  28  52  77 120 166 219 271 339 400 488
#     4  12  28  52  84 128 162 226 272 336 418 494
#     4  10  26  54  86 116 164 210 266 348 406 486
#     4  11  27  54  85 123 163 213 277 335 417 487
#     4  10  25  49  76 116 159 209 266 323 401 487
#
# _framework density 25.104841
#
# number of rings (size 3 to 8) (size 9 to 14) (size 15 to 20)
#    0.000    1.000    2.500    0.750    7.000   10.000 
#    9.000    0.000    0.000    0.000    0.000    0.000 
#    0.000    0.000    0.000    0.000    0.000    0.000 
#
# Total GULP energy -44802.051513 kJ/mol
# GULP energy per Si atom -5600.256439 kJ/mol
# Density = 2.504770 g / cm^3
# Si number density = 25.104841 Si / 1000 Ang^3
#
#
#
# Elastic Constant Matrix: (Units=GPa)
#
#
# Indices 1 2 3 4 5 6 
#
# 1 201.3296 48.2944 57.1463 -0.0027 -35.7936 0.0024
# 2 48.2944 115.5866 51.9583 -0.0069 -4.4733 0.0040
# 3 57.1463 51.9583 149.7057 -0.0024 -21.0253 0.0000
# 4 -0.0027 -0.0069 -0.0024 40.6572 -0.0008 -9.0026
# 5 -35.7936 -4.4733 -21.0253 -0.0008 55.9212 0.0001
# 6 0.0024 0.0040 0.0000 -9.0026 0.0001 41.4746
#
#
#
# Elastic Compliance Matrix: (Units=1/GPa)
#
#
# Indices 1 2 3 4 5 6 
#
# 1 0.006420 -0.001974 -0.001278 0.000000 0.003471 0.000000
# 2 -0.001974 0.010873 -0.003247 0.000001 -0.001614 -0.000001
# 3 -0.001278 -0.003247 0.008597 0.000000 0.002154 0.000000
# 4 0.000000 0.000001 0.000000 0.025838 0.000000 0.005608
# 5 0.003471 -0.001614 0.002154 0.000000 0.020785 0.000000
# 6 0.000000 -0.000001 0.000000 0.005608 0.000000 0.025329
#
#
# Mechanical properties :
#
#
# Convention : Reuss Voigt Hill
#
# Bulk Modulus (GPa) = 77.56267 86.82443 82.19355
# Shear Modulus (GPa) = 43.42620 48.22545 45.82583
#
# Velocity S-wave (km/s) = 4.16359 4.38763 4.27708
# Velocity P-wave (km/s) = 7.35368 7.76713 7.56323
#
# Compressibility (1/GPa) = 0.01289280
#
# Stress axis : x y z
#
# Youngs Moduli (GPa) = 155.75504 91.96840 116.31540
#
# Poissons Ratio (x) = 0.18151 0.14869
# Poissons Ratio (y) = 0.30739 0.37769
# Poissons Ratio (z) = 0.19911 0.29864
#
# Static dielectric constant tensor:
#      x y z
#    x 2.020340 0.000000 0.012940 
#    y 0.000000 1.978440 0.000000 
#    z 0.012940 0.000000 2.026190 
# 
# From -- ./inp_files/17757.got.cif
#   From: 2010.05.17/outbox.cif.g08.bks.cpg/sg5_9_cif.got.tgz:17757.got - 2010.06.03 18:56:24.
