data_PCOD9128647
_publ_section_title
;
Structure prediction by ZEFSAII (Michael W. Deem and Ramdas Pophale) SiO2 
 PCOD9128647
Probable space group: C 2
;
_chemical_formula_sum "Si O2"
_cell_formula_units_Z 32
_cell_length_a 21.402416
_cell_length_b 10.391409
_cell_length_c 12.922819
_cell_angle_alpha 90.000000
_cell_angle_beta 22.696934
_cell_angle_gamma 90.000000
_cell_volume 1108.971842
_symmetry_space_group_name_H-M "C 2"
_symmetry_group_IT_number 5
_symmetry_cell_setting 'monoclinic'
loop_
_space_group_symop_operation_xyz
x,y,z
-x,y,-z
1/2+x,1/2+y,z
1/2-x,1/2+y,-z
loop_
_atom_site_type_symbol
_atom_site_label
_atom_site_fract_x
_atom_site_fract_y
_atom_site_fract_z
Si Si1 0.328212 0.686370 0.353446
Si Si2 0.995300 0.596960 0.788822
Si Si3 0.261520 0.418903 0.879802
Si Si4 0.150802 0.175069 0.135337
Si Si5 0.192116 0.887482 0.415300
Si Si6 0.547483 0.440961 0.039612
Si Si7 0.780685 0.186241 0.648939
Si Si8 0.359326 0.044039 0.640073
O O1 0.317694 0.787834 0.274799
O O2 0.477048 0.588103 0.138202
O O3 0.298021 0.751609 0.510395
O O4 0.166984 0.600700 0.581367
O O5 0.913493 0.456718 0.901607
O O6 0.868064 0.689246 0.043089
O O7 0.044858 0.624880 0.593588
O O8 0.318517 0.556719 0.834518
O O9 0.353927 0.373140 0.635710
O O10 0.236658 0.314455 0.007269
O O11 0.959034 0.196118 0.425256
O O12 0.232369 0.121612 0.904815
O O13 0.245211 0.035075 0.340989
O O14 0.043805 0.886137 0.721472
O O15 0.740487 0.445522 0.763082
O O16 0.500000 0.384538 0.000000
O O17 0.500000 0.992029 0.500000
#
# Coordination Sequence:
#
# PCOD9128647 Si02
#       8
#     4   4   4   4   4   4   4   4
#     4  11  22  45  78 117 162 221 283 358 437 534
#     4  11  24  46  74 116 168 212 281 356 432 521
#     4  11  28  51  83 122 166 234 295 367 438 538
#     4  12  26  55  84 115 167 229 299 360 442 533
#     4  10  24  46  79 122 163 226 290 359 439 532
#     4  11  24  47  79 118 172 226 293 357 457 525
#     4  10  25  48  77 118 165 216 283 362 443 520
#     4  12  24  49  80 117 169 228 293 359 437 532
#
# _framework density 28.855556
#
# number of rings (size 3 to 8) (size 9 to 14) (size 15 to 20)
#    0.000    1.000    5.000    1.125    0.000    7.000 
#    6.750    6.250    0.000    0.000    0.000    0.000 
#    0.000    0.000    0.000    0.000    0.000    0.000 
#
# Total GULP energy -89559.555453 kJ/mol
# GULP energy per Si atom -5597.472216 kJ/mol
# Density = 2.878988 g / cm^3
# Si number density = 28.855556 Si / 1000 Ang^3
#
#
#
# Elastic Constant Matrix: (Units=GPa)
#
#
# Indices 1 2 3 4 5 6 
#
# 1 203.9919 41.4940 82.0105 0.0000 12.8763 0.0000
# 2 41.4940 99.0974 48.0265 0.0000 9.2561 0.0000
# 3 82.0105 48.0265 177.7488 0.0000 14.4083 0.0000
# 4 0.0000 0.0000 0.0000 66.2662 0.0000 2.0917
# 5 12.8763 9.2561 14.4083 0.0000 77.8557 0.0000
# 6 0.0000 0.0000 0.0000 2.0917 0.0000 48.6857
#
#
#
# Elastic Compliance Matrix: (Units=1/GPa)
#
#
# Indices 1 2 3 4 5 6 
#
# 1 0.006193 -0.001365 -0.002455 0.000000 -0.000408 0.000000
# 2 -0.001365 0.011963 -0.002544 0.000000 -0.000726 0.000000
# 3 -0.002455 -0.002544 0.007501 0.000000 -0.000680 0.000000
# 4 0.000000 0.000000 0.000000 0.015111 0.000000 -0.000649
# 5 -0.000408 -0.000726 -0.000680 0.000000 0.013124 0.000000
# 6 0.000000 0.000000 0.000000 -0.000649 0.000000 0.020568
#
#
# Mechanical properties :
#
#
# Convention : Reuss Voigt Hill
#
# Bulk Modulus (GPa) = 77.34625 91.54445 84.44535
# Shear Modulus (GPa) = 54.64628 59.18200 56.91414
#
# Velocity S-wave (km/s) = 4.35649 4.53368 4.44597
# Velocity P-wave (km/s) = 7.22275 7.69413 7.46216
#
# Compressibility (1/GPa) = 0.01292888
#
# Stress axis : x y z
#
# Youngs Moduli (GPa) = 161.48192 83.58949 133.31232
#
# Poissons Ratio (x) = 0.11410 0.32733
# Poissons Ratio (y) = 0.22042 0.33912
# Poissons Ratio (z) = 0.39649 0.21263
#
# Static dielectric constant tensor:
#      x y z
#    x 2.275710 0.000000 0.038840 
#    y 0.000000 2.494070 0.000000 
#    z 0.038840 0.000000 2.336250 
# 
# From -- ./inp_files/57803.got.cif
#   From: 2010.05.17/outbox.cif.g08.bks.cpg/sg5_29_cif.got.tgz:57803.got - 2010.06.03 18:56:24.
