data_PCOD9128364
_publ_section_title
;
Structure prediction by ZEFSAII (Michael W. Deem and Ramdas Pophale) SiO2 
 PCOD9128364
Probable space group: C 2
;
_chemical_formula_sum "Si O2"
_cell_formula_units_Z 18
_cell_length_a 8.628021
_cell_length_b 19.970679
_cell_length_c 5.294540
_cell_angle_alpha 90.000000
_cell_angle_beta 119.606944
_cell_angle_gamma 90.000000
_cell_volume 793.175712
_symmetry_space_group_name_H-M "C 2"
_symmetry_group_IT_number 5
_symmetry_cell_setting 'monoclinic'
loop_
_space_group_symop_operation_xyz
x,y,z
-x,y,-z
1/2+x,1/2+y,z
1/2-x,1/2+y,-z
loop_
_atom_site_type_symbol
_atom_site_label
_atom_site_fract_x
_atom_site_fract_y
_atom_site_fract_z
Si Si1 0.114777 0.902160 0.848012
Si Si2 0.214449 0.167168 0.654560
Si Si3 0.883614 0.285620 0.148788
Si Si4 0.000000 0.639790 0.500000
Si Si5 0.322286 0.035323 0.976860
O O1 0.000000 0.898660 0.500000
O O2 0.189091 0.977443 0.942856
O O3 0.278304 0.850909 0.976836
O O4 0.000000 0.884568 0.000000
O O5 0.252568 0.225462 0.888999
O O6 0.352619 0.180789 0.539378
O O7 0.243665 0.088197 0.716136
O O8 0.000000 0.172092 0.500000
O O9 0.000000 0.301314 0.500000
O O10 0.000000 0.263598 0.000000
O O11 0.114330 0.588184 0.762580
O O12 0.500000 0.003592 0.000000
#
# Coordination Sequence:
#
# PCOD9128364 Si02
#       5
#     4   4   4   2   4
#     4  12  28  46  74 109 144 194 246 308 367 444
#     4  10  24  44  73 107 141 198 241 308 368 444
#     4  11  26  49  75 103 149 198 244 301 372 446
#     4  10  24  42  70 110 150 186 248 308 370 440
#     4  10  24  42  71 103 145 190 244 304 368 442
#
# _framework density 22.693584999999999
#
# number of rings (size 3 to 8) (size 9 to 14) (size 15 to 20)
#    0.000    1.333    0.000    2.667   17.111    2.667 
#    4.000    0.000    0.000    0.000    0.000    0.000 
#    0.000    0.000    0.000    0.000    0.000    0.000 
#
# Total GULP energy -50177.608981 kJ/mol
# GULP energy per Si atom -5575.289887 kJ/mol
# Density = 2.264193 g / cm^3
# Si number density = 22.693585 Si / 1000 Ang^3
#
#
#
# Elastic Constant Matrix: (Units=GPa)
#
#
# Indices 1 2 3 4 5 6 
#
# 1 185.8962 40.1301 59.4635 0.0000 -24.1681 0.0000
# 2 40.1301 92.9577 9.3757 0.0000 5.4575 0.0000
# 3 59.4635 9.3757 89.7371 0.0000 -1.1941 0.0000
# 4 0.0000 0.0000 0.0000 27.7007 0.0000 2.9338
# 5 -24.1681 5.4575 -1.1941 0.0000 35.8627 0.0000
# 6 0.0000 0.0000 0.0000 2.9338 0.0000 -55.8570
#
#
#
# Elastic Compliance Matrix: (Units=1/GPa)
#
#
# Indices 1 2 3 4 5 6 
#
# 1 0.008638 -0.003561 -0.005270 0.000000 0.006188 0.000000
# 2 -0.003561 0.012444 0.001003 0.000000 -0.004260 0.000000
# 3 -0.005270 0.001003 0.014488 0.000000 -0.003221 0.000000
# 4 0.000000 0.000000 0.000000 0.035900 0.000000 0.001886
# 5 0.006188 -0.004260 -0.003221 0.000000 0.032595 0.000000
# 6 0.000000 0.000000 0.000000 0.001886 0.000000 -0.017804
#
#
# Mechanical properties :
#
#
# Convention : Reuss Voigt Hill
#
# Bulk Modulus (GPa) = 50.21497 65.16995 57.69246
# Shear Modulus (GPa) = 46.05963 18.84941 32.45452
#
# Velocity S-wave (km/s) = 4.51003 2.88515 3.78579
# Velocity P-wave (km/s) = 7.02111 6.31494 6.67736
#
# Compressibility (1/GPa) = 0.01991438
#
# Stress axis : x y z
#
# Youngs Moduli (GPa) = 115.76608 80.36135 69.02327
#
# Poissons Ratio (x) = 0.28616 0.36372
# Poissons Ratio (y) = 0.41223 -0.06921
# Poissons Ratio (z) = 0.61004 -0.08058
#
# Static dielectric constant tensor:
#      x y z
#    x 1.831040 0.000000 -0.073480 
#    y 0.000000 1.797570 0.000000 
#    z -0.073480 0.000000 2.707330 
# 
# From -- ./inp_files/2298.got.cif
#   From: 2010.05.17/outbox.cif.g08.bks.cpg/sg5_2_cif.got.tgz:2298.got - 2010.06.03 18:56:24.
