data_PCOD9128964
_publ_section_title
;
Structure prediction by ZEFSAII (Michael W. Deem and Ramdas Pophale) SiO2 
 PCOD9128964
Probable space group: C 2
;
_chemical_formula_sum "Si O2"
_cell_formula_units_Z 20
_cell_length_a 22.245977
_cell_length_b 4.885616
_cell_length_c 13.908253
_cell_angle_alpha 90.000000
_cell_angle_beta 29.213724
_cell_angle_gamma 90.000000
_cell_volume 737.775763
_symmetry_space_group_name_H-M "C 2"
_symmetry_group_IT_number 5
_symmetry_cell_setting 'monoclinic'
loop_
_space_group_symop_operation_xyz
x,y,z
-x,y,-z
1/2+x,1/2+y,z
1/2-x,1/2+y,-z
loop_
_atom_site_type_symbol
_atom_site_label
_atom_site_fract_x
_atom_site_fract_y
_atom_site_fract_z
Si Si1 0.254051 0.352230 0.932091
Si Si2 0.381222 0.396016 0.104176
Si Si3 0.610155 0.665624 0.412213
Si Si4 0.692717 0.758803 0.617860
Si Si5 0.491437 0.730834 0.778416
O O1 0.350133 0.419932 0.714919
O O2 0.265062 0.539462 0.010918
O O3 0.120164 0.435985 0.083535
O O4 0.245953 0.276228 0.260392
O O5 0.341153 0.646875 0.231395
O O6 0.500000 0.266093 0.000000
O O7 0.442575 0.517478 0.924341
O O8 0.500000 0.810068 0.500000
O O9 0.539247 0.617559 0.610646
O O10 0.707376 0.492734 0.529291
O O11 0.589168 0.910049 0.700225
#
# Coordination Sequence:
#
# PCOD9128964 Si02
#       5
#     4   4   4   4   4
#     4  12  28  55  77 117 166 215 273 338 404 491
#     4  10  25  52  82 119 167 212 274 341 405 490
#     4  12  26  51  81 125 159 223 268 341 409 491
#     4  11  25  49  80 117 158 212 271 332 406 484
#     4  11  26  50  78 120 162 218 268 337 408 490
#
# _framework density 27.108508
#
# number of rings (size 3 to 8) (size 9 to 14) (size 15 to 20)
#    0.000    0.800    4.000    1.200    2.800    4.800 
#    7.200    5.000    0.000    0.000    0.000    0.000 
#    0.000    0.000    0.000    0.000    0.000    0.000 
#
# Total GULP energy -55735.239684 kJ/mol
# GULP energy per Si atom -5573.523968 kJ/mol
# Density = 2.704681 g / cm^3
# Si number density = 27.108508 Si / 1000 Ang^3
#
#
#
# Elastic Constant Matrix: (Units=GPa)
#
#
# Indices 1 2 3 4 5 6 
#
# 1 212.6737 32.5454 79.6568 -0.0031 4.8369 0.0015
# 2 32.5454 60.5284 17.6010 -0.0150 7.1345 0.0150
# 3 79.6568 17.6010 181.7625 -0.0053 24.5835 -0.0008
# 4 -0.0031 -0.0150 -0.0053 18.1815 0.0033 7.2897
# 5 4.8369 7.1345 24.5835 0.0033 66.2658 -0.0021
# 6 0.0015 0.0150 -0.0008 7.2897 -0.0021 23.5089
#
#
#
# Elastic Compliance Matrix: (Units=1/GPa)
#
#
# Indices 1 2 3 4 5 6 
#
# 1 0.006014 -0.002601 -0.002487 -0.000003 0.000764 0.000002
# 2 -0.002601 0.018229 -0.000406 0.000022 -0.001622 -0.000019
# 3 -0.002487 -0.000406 0.006949 0.000002 -0.002353 0.000000
# 4 -0.000003 0.000022 0.000002 0.062810 -0.000007 -0.019476
# 5 0.000764 -0.001622 -0.002353 -0.000007 0.016082 0.000004
# 6 0.000002 -0.000019 0.000000 -0.019476 0.000004 0.048576
#
#
# Mechanical properties :
#
#
# Convention : Reuss Voigt Hill
#
# Bulk Modulus (GPa) = 49.49385 79.39677 64.44531
# Shear Modulus (GPa) = 28.34738 43.26866 35.80802
#
# Velocity S-wave (km/s) = 3.23724 3.99949 3.63838
# Velocity P-wave (km/s) = 5.68069 7.11899 6.44012
#
# Compressibility (1/GPa) = 0.02020453
#
# Stress axis : x y z
#
# Youngs Moduli (GPa) = 166.27321 54.85835 143.90113
#
# Poissons Ratio (x) = 0.14266 0.35791
# Poissons Ratio (y) = 0.43240 0.05844
# Poissons Ratio (z) = 0.41355 0.02228
#
# Static dielectric constant tensor:
#      x y z
#    x 2.231280 -0.000010 -0.193910 
#    y -0.000010 2.062320 0.000010 
#    z -0.193910 0.000010 2.223030 
# 
# From -- ./inp_files/57363.got.cif
#   From: 2010.05.17/outbox.cif.g08.bks.cpg/sg5_29_cif.got.tgz:57363.got - 2010.06.03 18:56:24.
