data_PCOD9128071
_publ_section_title
;
Structure prediction by ZEFSAII (Michael W. Deem and Ramdas Pophale) SiO2 
 PCOD9128071
Probable space group: C 2
;
_chemical_formula_sum "Si O2"
_cell_formula_units_Z 26
_cell_length_a 21.806300
_cell_length_b 5.323164
_cell_length_c 11.986705
_cell_angle_alpha 90.000000
_cell_angle_beta 128.918991
_cell_angle_gamma 90.000000
_cell_volume 1082.556970
_symmetry_space_group_name_H-M "C 2"
_symmetry_group_IT_number 5
_symmetry_cell_setting 'monoclinic'
loop_
_space_group_symop_operation_xyz
x,y,z
-x,y,-z
1/2+x,1/2+y,z
1/2-x,1/2+y,-z
loop_
_atom_site_type_symbol
_atom_site_label
_atom_site_fract_x
_atom_site_fract_y
_atom_site_fract_z
Si Si1 0.770279 0.176220 0.970982
Si Si2 0.500000 0.600772 0.500000
Si Si3 0.037496 0.720107 0.718296
Si Si4 0.147502 0.469734 0.667873
Si Si5 0.918068 0.035441 0.042003
Si Si6 0.123226 0.537570 0.393283
Si Si7 0.394393 0.551346 0.758604
O O1 0.727842 0.005417 0.827653
O O2 0.734977 0.457596 0.939835
O O3 0.861799 0.218426 0.046907
O O4 0.494229 0.456063 0.611579
O O5 0.585800 0.738177 0.601790
O O6 0.092647 0.653169 0.678501
O O7 0.968742 0.529211 0.671702
O O8 0.083309 0.786857 0.882880
O O9 0.165871 0.531880 0.560931
O O10 0.010631 0.090513 0.142237
O O11 0.884556 0.017493 0.879573
O O12 0.142683 0.299123 0.338808
O O13 0.129923 0.797828 0.333503
#
# Coordination Sequence:
#
# PCOD9128071 Si02
#       7
#     4   2   4   4   4   4   4
#     4  12  28  43  65  99 140 179 212 271 346 409
#     4  12  20  38  62 102 136 172 216 274 354 390
#     4  11  21  37  66  95 135 168 215 289 333 397
#     4  12  23  37  65 101 132 175 216 281 343 396
#     4  10  23  46  63  95 135 173 233 261 337 398
#     4  11  22  40  64 100 124 165 229 275 337 376
#     4  10  25  41  71  92 126 182 222 287 309 389
#
# _framework density 24.017213000000002
#
# number of rings (size 3 to 8) (size 9 to 14) (size 15 to 20)
#    0.000    0.923    4.615    2.769    2.154    6.154 
#    0.000    1.538    0.000    0.000    0.000    0.000 
#    0.000    0.000    0.000    0.000    0.000    0.000 
#
# Total GULP energy -72480.063217 kJ/mol
# GULP energy per Si atom -5575.389478 kJ/mol
# Density = 2.396255 g / cm^3
# Si number density = 24.017213 Si / 1000 Ang^3
#
#
#
# Elastic Constant Matrix: (Units=GPa)
#
#
# Indices 1 2 3 4 5 6 
#
# 1 24.2655 28.7404 5.8607 0.0000 -15.4167 0.0000
# 2 28.7404 133.5537 44.9207 0.0000 -22.5859 0.0000
# 3 5.8607 44.9207 106.5135 0.0000 -36.8578 0.0000
# 4 0.0000 0.0000 0.0000 20.4986 0.0000 -10.0134
# 5 -15.4167 -22.5859 -36.8578 0.0000 43.1004 0.0000
# 6 0.0000 0.0000 0.0000 -10.0134 0.0000 4.7564
#
#
#
# Elastic Compliance Matrix: (Units=1/GPa)
#
#
# Indices 1 2 3 4 5 6 
#
# 1 0.075259 -0.015430 0.012617 0.000000 0.029624 0.000001
# 2 -0.015430 0.012015 -0.005609 0.000000 -0.004019 0.000001
# 3 0.012617 -0.005609 0.016482 0.000000 0.015668 0.000000
# 4 0.000000 0.000000 0.000000 -1.716975 0.000000 -3.614703
# 5 0.029624 -0.004019 0.015668 0.000000 0.045090 0.000001
# 6 0.000001 0.000001 0.000000 -3.614703 0.000001 -7.399699
#
#
# Mechanical properties :
#
#
# Convention : Reuss Voigt Hill
#
# Bulk Modulus (GPa) = 11.50575 47.04182 29.27379
# Shear Modulus (GPa) = -0.56041 25.99181 12.71570
#
# Velocity S-wave (km/s) = -0.48357 3.29327 2.30345
# Velocity P-wave (km/s) = 2.11878 5.83867 4.39200
#
# Compressibility (1/GPa) = 0.08691304
#
# Stress axis : x y z
#
# Youngs Moduli (GPa) = 13.28739 83.23030 60.67386
#
# Poissons Ratio (x) = 1.28421 -0.76554
# Poissons Ratio (y) = 0.20502 0.34032
# Poissons Ratio (z) = -0.16765 0.46684
#
# Static dielectric constant tensor:
#      x y z
#    x 2.030760 0.000000 0.008420 
#    y 0.000000 2.050930 0.000000 
#    z 0.008420 0.000000 1.987350 
# 
# From -- ./inp_files/45402.got.cif
#   From: 2010.05.17/outbox.cif.g08.bks.cpg/sg5_23_cif.got.tgz:45402.got - 2010.06.03 18:56:24.
