data_PCOD9128023
_publ_section_title
;
Structure prediction by ZEFSAII (Michael W. Deem and Ramdas Pophale) SiO2 
 PCOD9128023
Probable space group: C 2
;
_chemical_formula_sum "Si O2"
_cell_formula_units_Z 20
_cell_length_a 6.946350
_cell_length_b 12.807261
_cell_length_c 8.886971
_cell_angle_alpha 90.000000
_cell_angle_beta 58.425495
_cell_angle_gamma 90.000000
_cell_volume 673.574899
_symmetry_space_group_name_H-M "C 2"
_symmetry_group_IT_number 5
_symmetry_cell_setting 'monoclinic'
loop_
_space_group_symop_operation_xyz
x,y,z
-x,y,-z
1/2+x,1/2+y,z
1/2-x,1/2+y,-z
loop_
_atom_site_type_symbol
_atom_site_label
_atom_site_fract_x
_atom_site_fract_y
_atom_site_fract_z
Si Si1 0.190835 0.103790 0.046038
Si Si2 0.073814 0.888070 0.217489
Si Si3 0.664214 0.997385 0.553748
Si Si4 0.168791 0.692413 0.729625
Si Si5 0.901245 0.280117 0.322432
O O1 0.111022 0.193302 0.210703
O O2 0.421779 0.142478 0.885873
O O3 0.199818 0.981674 0.080581
O O4 0.000000 0.117242 0.000000
O O5 0.887738 0.951375 0.388658
O O6 0.759488 0.812357 0.751601
O O7 0.920411 0.810247 0.186781
O O8 0.500000 0.052860 0.500000
O O9 0.523469 0.895940 0.663305
O O10 0.739649 0.070981 0.655076
O O11 0.266784 0.734539 0.520114
#
# Coordination Sequence:
#
# PCOD9128023 Si02
#       5
#     4   4   4   4   4
#     4  10  25  48  71 101 141 182 241 289 338 421
#     4  12  25  43  75 101 142 189 229 290 355 417
#     4  12  24  43  72 109 148 184 227 294 360 423
#     4  10  26  45  67 103 140 182 231 287 349 411
#     4  10  23  45  69 101 137 185 229 288 347 409
#
# _framework density 29.692321
#
# number of rings (size 3 to 8) (size 9 to 14) (size 15 to 20)
#    1.200    0.000    4.000    0.600    5.600    3.200 
#    0.000    0.000    0.000    0.000    0.000    0.000 
#    0.000    0.000    0.000    0.000    0.000    0.000 
#
# Total GULP energy -55788.425191 kJ/mol
# GULP energy per Si atom -5578.842519 kJ/mol
# Density = 2.962474 g / cm^3
# Si number density = 29.692321 Si / 1000 Ang^3
#
#
#
# Elastic Constant Matrix: (Units=GPa)
#
#
# Indices 1 2 3 4 5 6 
#
# 1 251.0029 110.0461 71.9463 0.0000 16.1521 0.0000
# 2 110.0461 266.8662 104.7771 0.0000 -11.3262 0.0000
# 3 71.9463 104.7771 183.0755 0.0000 -38.1144 0.0000
# 4 0.0000 0.0000 0.0000 96.5283 0.0000 -22.6015
# 5 16.1521 -11.3262 -38.1144 0.0000 56.3585 0.0000
# 6 0.0000 0.0000 0.0000 -22.6015 0.0000 90.5571
#
#
#
# Elastic Compliance Matrix: (Units=1/GPa)
#
#
# Indices 1 2 3 4 5 6 
#
# 1 0.005439 -0.001651 -0.001846 0.000000 -0.003139 0.000000
# 2 -0.001651 0.005388 -0.002457 0.000000 -0.000105 0.000000
# 3 -0.001846 -0.002457 0.008847 0.000000 0.006018 0.000000
# 4 0.000000 0.000000 0.000000 0.011003 0.000000 0.002746
# 5 -0.003139 -0.000105 0.006018 0.000000 0.022692 0.000000
# 6 0.000000 0.000000 0.000000 0.002746 0.000000 0.011728
#
#
# Mechanical properties :
#
#
# Convention : Reuss Voigt Hill
#
# Bulk Modulus (GPa) = 128.76804 141.60926 135.18865
# Shear Modulus (GPa) = 62.81921 76.30046 69.55983
#
# Velocity S-wave (km/s) = 4.60463 5.07472 4.84538
# Velocity P-wave (km/s) = 8.46946 9.06272 8.77111
#
# Compressibility (1/GPa) = 0.00776590
#
# Stress axis : x y z
#
# Youngs Moduli (GPa) = 183.85284 185.58838 113.03782
#
# Poissons Ratio (x) = 0.30648 0.20866
# Poissons Ratio (y) = 0.30361 0.27771
# Poissons Ratio (z) = 0.33938 0.45594
#
# Static dielectric constant tensor:
#      x y z
#    x 2.256490 0.000000 0.153090 
#    y 0.000000 2.307420 0.000000 
#    z 0.153090 0.000000 2.376780 
# 
# From -- ./inp_files/18765.got.cif
#   From: 2010.05.17/outbox.cif.g08.bks.cpg/sg5_10_cif.got.tgz:18765.got - 2010.06.03 18:56:24.
