data_PCOD9128319
_publ_section_title
;
Structure prediction by ZEFSAII (Michael W. Deem and Ramdas Pophale) SiO2 
 PCOD9128319
Probable space group: C 2
;
_chemical_formula_sum "Si O2"
_cell_formula_units_Z 20
_cell_length_a 7.755531
_cell_length_b 7.077351
_cell_length_c 14.276648
_cell_angle_alpha 90.000000
_cell_angle_beta 110.266271
_cell_angle_gamma 90.000000
_cell_volume 735.113542
_symmetry_space_group_name_H-M "C 2"
_symmetry_group_IT_number 5
_symmetry_cell_setting 'monoclinic'
loop_
_space_group_symop_operation_xyz
x,y,z
-x,y,-z
1/2+x,1/2+y,z
1/2-x,1/2+y,-z
loop_
_atom_site_type_symbol
_atom_site_label
_atom_site_fract_x
_atom_site_fract_y
_atom_site_fract_z
Si Si1 0.000000 0.179260 0.500000
Si Si2 0.196371 0.694934 0.217245
Si Si3 0.809108 0.547804 0.423161
Si Si4 0.802093 0.005433 0.913108
Si Si5 0.328479 0.285471 0.248600
Si Si6 0.500000 0.019628 0.000000
O O1 0.875926 0.331142 0.416972
O O2 0.854893 0.061547 0.532974
O O3 0.271828 0.891678 0.193180
O O4 0.313170 0.510024 0.259898
O O5 0.036542 0.731711 0.261839
O O6 0.098119 0.642709 0.099196
O O7 0.758895 0.680292 0.327492
O O8 0.000000 0.630537 0.500000
O O9 0.662837 0.940110 0.967059
O O10 0.786802 0.214816 0.863409
O O11 0.000000 0.997417 0.000000
#
# Coordination Sequence:
#
# PCOD9128319 Si02
#       6
#     2   4   4   4   4   2
#     4  10  24  46  84 110 154 196 248 306 392 462
#     4  11  24  44  71 106 146 194 251 308 373 444
#     4  10  25  49  76 112 151 199 244 319 383 458
#     4  11  25  46  69 105 146 207 245 315 372 442
#     4  11  26  47  72 112 147 193 258 310 374 462
#     4  10  24  42  64  96 146 186 256 292 364 440
#
# _framework density 27.206683000000002
#
# number of rings (size 3 to 8) (size 9 to 14) (size 15 to 20)
#    0.600    0.800    1.000    2.400    5.600    6.400 
#    0.000    4.000    0.000    0.000    0.000    0.000 
#    0.000    0.000    0.000    0.000    0.000    0.000 
#
# Total GULP energy -55918.600627 kJ/mol
# GULP energy per Si atom -5591.860063 kJ/mol
# Density = 2.714476 g / cm^3
# Si number density = 27.206683 Si / 1000 Ang^3
#
#
#
# Elastic Constant Matrix: (Units=GPa)
#
#
# Indices 1 2 3 4 5 6 
#
# 1 208.9378 46.9267 48.1781 0.0000 -26.9247 0.0000
# 2 46.9267 140.7808 25.6111 0.0000 -9.9990 0.0000
# 3 48.1781 25.6111 71.3662 0.0000 -1.1117 0.0000
# 4 0.0000 0.0000 0.0000 27.7318 0.0000 -9.5294
# 5 -26.9247 -9.9990 -1.1117 0.0000 55.0129 0.0000
# 6 0.0000 0.0000 0.0000 -9.5294 0.0000 45.3409
#
#
#
# Elastic Compliance Matrix: (Units=1/GPa)
#
#
# Indices 1 2 3 4 5 6 
#
# 1 0.006285 -0.001213 -0.003764 0.000000 0.002779 0.000000
# 2 -0.001213 0.007931 -0.002015 0.000000 0.000807 0.000000
# 3 -0.003764 -0.002015 0.017248 0.000000 -0.001860 0.000000
# 4 0.000000 0.000000 0.000000 0.038867 0.000000 0.008169
# 5 0.002779 0.000807 -0.001860 0.000000 0.019647 0.000000
# 6 0.000000 0.000000 0.000000 0.008169 0.000000 0.023772
#
#
# Mechanical properties :
#
#
# Convention : Reuss Voigt Hill
#
# Bulk Modulus (GPa) = 57.20922 73.61295 65.41109
# Shear Modulus (GPa) = 37.43648 45.64172 41.53910
#
# Velocity S-wave (km/s) = 3.71348 4.10029 3.91166
# Velocity P-wave (km/s) = 6.28171 7.03791 6.67053
#
# Compressibility (1/GPa) = 0.01747970
#
# Stress axis : x y z
#
# Youngs Moduli (GPa) = 159.11930 126.08128 57.97933
#
# Poissons Ratio (x) = 0.15289 0.21824
# Poissons Ratio (y) = 0.19296 0.11683
# Poissons Ratio (z) = 0.59895 0.25407
#
# Static dielectric constant tensor:
#      x y z
#    x 2.089000 0.000000 0.095700 
#    y 0.000000 2.455840 0.000000 
#    z 0.095700 0.000000 2.193470 
# 
# From -- ./inp_files/48585.got.cif
#   From: 2010.05.17/outbox.cif.g08.bks.cpg/sg5_25_cif.got.tgz:48585.got - 2010.06.03 18:56:24.
