data_PCOD9128445
_publ_section_title
;
Structure prediction by ZEFSAII (Michael W. Deem and Ramdas Pophale) SiO2 
 PCOD9128445
Probable space group: C 2
;
_chemical_formula_sum "Si O2"
_cell_formula_units_Z 20
_cell_length_a 15.040647
_cell_length_b 4.698828
_cell_length_c 21.850101
_cell_angle_alpha 90.000000
_cell_angle_beta 152.479593
_cell_angle_gamma 90.000000
_cell_volume 713.529820
_symmetry_space_group_name_H-M "C 2"
_symmetry_group_IT_number 5
_symmetry_cell_setting 'monoclinic'
loop_
_space_group_symop_operation_xyz
x,y,z
-x,y,-z
1/2+x,1/2+y,z
1/2-x,1/2+y,-z
loop_
_atom_site_type_symbol
_atom_site_label
_atom_site_fract_x
_atom_site_fract_y
_atom_site_fract_z
Si Si1 0.157801 0.131430 0.908936
Si Si2 0.282038 0.504871 0.240815
Si Si3 0.767010 0.733006 0.360534
Si Si4 0.302218 0.660442 0.493426
Si Si5 0.199356 0.001470 0.118399
O O1 0.218760 0.320493 0.887348
O O2 0.932869 0.048890 0.759974
O O3 0.215644 0.349306 0.000017
O O4 0.228319 0.364588 0.270692
O O5 0.470804 0.682730 0.370949
O O6 0.147689 0.754592 0.135735
O O7 0.336159 0.251459 0.226620
O O8 0.747997 0.979130 0.400668
O O9 0.000000 0.642052 0.500000
O O10 0.238907 0.975972 0.470688
O O11 0.000000 0.173225 0.000000
#
# Coordination Sequence:
#
# PCOD9128445 Si02
#       5
#     4   4   4   4   4
#     4  12  25  44  68  98 132 173 219 270 326 388
#     4  11  23  41  63  93 127 167 214 266 320 380
#     4  10  24  44  68  98 134 173 218 270 326 388
#     4  11  23  41  65  93 127 167 214 266 321 380
#     4  12  24  42  66  94 130 172 216 266 324 388
#
# _framework density 28.029664
#
# number of rings (size 3 to 8) (size 9 to 14) (size 15 to 20)
#    0.000    0.800    0.000    7.800    0.000    3.200 
#    0.000   11.000    0.000    0.000    0.000    0.000 
#    0.000    0.000    0.000    0.000    0.000    0.000 
#
# Total GULP energy -55844.883129 kJ/mol
# GULP energy per Si atom -5584.488313 kJ/mol
# Density = 2.796587 g / cm^3
# Si number density = 28.029664 Si / 1000 Ang^3
#
#
#
# Elastic Constant Matrix: (Units=GPa)
#
#
# Indices 1 2 3 4 5 6 
#
# 1 81.8518 13.9570 14.8351 -0.0001 -2.4228 0.0038
# 2 13.9570 141.5107 25.6390 0.0016 -8.7817 0.0186
# 3 14.8351 25.6390 132.9638 0.0000 24.6056 0.0013
# 4 -0.0001 0.0016 0.0000 30.6928 -0.0005 -14.2337
# 5 -2.4228 -8.7817 24.6056 -0.0005 43.6328 0.0002
# 6 0.0038 0.0186 0.0013 -14.2337 0.0002 21.4661
#
#
#
# Elastic Compliance Matrix: (Units=1/GPa)
#
#
# Indices 1 2 3 4 5 6 
#
# 1 0.012681 -0.000895 -0.001495 -0.000001 0.001367 -0.000002
# 2 -0.000895 0.007646 -0.001842 -0.000005 0.002528 -0.000010
# 3 -0.001495 -0.001842 0.009074 0.000001 -0.005571 0.000002
# 4 -0.000001 -0.000005 0.000001 0.047048 -0.000001 0.031197
# 5 0.001367 0.002528 -0.005571 -0.000001 0.026645 -0.000003
# 6 -0.000002 -0.000010 0.000002 0.031197 -0.000003 0.067271
#
#
# Mechanical properties :
#
#
# Convention : Reuss Voigt Hill
#
# Bulk Modulus (GPa) = 47.76555 51.68763 49.72659
# Shear Modulus (GPa) = 26.90951 39.28469 33.09710
#
# Velocity S-wave (km/s) = 3.10181 3.74778 3.43999
# Velocity P-wave (km/s) = 5.46867 6.09985 5.79286
#
# Compressibility (1/GPa) = 0.02093559
#
# Stress axis : x y z
#
# Youngs Moduli (GPa) = 78.85628 130.79546 110.20739
#
# Poissons Ratio (x) = 0.11706 0.16480
# Poissons Ratio (y) = 0.07057 0.20303
# Poissons Ratio (z) = 0.11792 0.24095
#
# Static dielectric constant tensor:
#      x y z
#    x 2.277670 0.000000 -0.088170 
#    y 0.000000 2.256810 0.000000 
#    z -0.088170 0.000000 2.275260 
# 
# From -- ./inp_files/43541.got.cif
#   From: 2010.05.17/outbox.cif.g08.bks.cpg/sg5_22_cif.got.tgz:43541.got - 2010.06.03 18:56:24.
