data_PCOD9128085
_publ_section_title
;
Structure prediction by ZEFSAII (Michael W. Deem and Ramdas Pophale) SiO2 
 PCOD9128085
Probable space group: C 2
;
_chemical_formula_sum "Si O2"
_cell_formula_units_Z 32
_cell_length_a 26.925199
_cell_length_b 11.800488
_cell_length_c 8.119447
_cell_angle_alpha 90.000000
_cell_angle_beta 35.269700
_cell_angle_gamma 90.000000
_cell_volume 1489.641051
_symmetry_space_group_name_H-M "C 2"
_symmetry_group_IT_number 5
_symmetry_cell_setting 'monoclinic'
loop_
_space_group_symop_operation_xyz
x,y,z
-x,y,-z
1/2+x,1/2+y,z
1/2-x,1/2+y,-z
loop_
_atom_site_type_symbol
_atom_site_label
_atom_site_fract_x
_atom_site_fract_y
_atom_site_fract_z
Si Si1 0.492860 0.588500 0.208070
Si Si2 0.594234 0.726487 0.319792
Si Si3 0.806510 0.621044 0.191479
Si Si4 0.214892 0.863050 0.905507
Si Si5 0.146645 0.474647 0.239160
Si Si6 0.049268 0.845743 0.536249
Si Si7 0.176164 0.086257 0.838797
Si Si8 0.501062 0.121204 0.186669
O O1 0.420802 0.680078 0.454718
O O2 0.470964 0.474406 0.365099
O O3 0.500000 0.559730 0.000000
O O4 0.589180 0.627364 0.988128
O O5 0.500000 0.696131 0.500000
O O6 0.607575 0.859364 0.270672
O O7 0.671726 0.661429 0.017719
O O8 0.777249 0.746419 0.214032
O O9 0.751704 0.593283 0.502684
O O10 0.800659 0.539701 0.046791
O O11 0.905959 0.611911 0.979403
O O12 0.295752 0.927463 0.765590
O O13 0.169328 0.956294 0.913658
O O14 0.150160 0.835739 0.229198
O O15 0.071285 0.554609 0.513271
O O16 0.021823 0.754241 0.743682
O O17 0.000000 0.815556 0.500000
O O18 0.500000 0.081751 0.000000
#
# Coordination Sequence:
#
# PCOD9128085 Si02
#       8
#     4   4   4   4   4   4   4   4
#     4  11  23  40  71 101 135 183 234 293 358 426
#     4  10  23  46  68  95 140 186 229 287 360 430
#     4  12  27  47  74 106 148 190 246 301 366 432
#     4  12  26  44  73 104 143 187 239 305 358 422
#     4  12  28  45  73 100 146 187 242 291 365 429
#     4  12  20  45  72  99 139 180 238 297 359 424
#     4  11  25  43  69 103 144 178 237 297 361 421
#     4  12  25  48  74 103 142 194 245 297 365 438
#
# _framework density 21.481684999999999
#
# number of rings (size 3 to 8) (size 9 to 14) (size 15 to 20)
#    0.000    0.500    5.000    2.625    7.000    1.500 
#    2.250    0.000    0.000    0.000    0.000    0.000 
#    0.000    0.000    0.000    0.000    0.000    0.000 
#
# Total GULP energy -89362.113215 kJ/mol
# GULP energy per Si atom -5585.132076 kJ/mol
# Density = 2.143279 g / cm^3
# Si number density = 21.481685 Si / 1000 Ang^3
#
#
#
# Elastic Constant Matrix: (Units=GPa)
#
#
# Indices 1 2 3 4 5 6 
#
# 1 58.6197 3.9211 17.9171 0.0000 3.1459 0.0000
# 2 3.9211 110.2488 25.0371 0.0000 12.5925 0.0000
# 3 17.9171 25.0371 107.6676 0.0000 15.7548 0.0000
# 4 0.0000 0.0000 0.0000 21.4727 0.0000 -0.2212
# 5 3.1459 12.5925 15.7548 0.0000 33.2671 0.0000
# 6 0.0000 0.0000 0.0000 -0.2212 0.0000 25.4392
#
#
#
# Elastic Compliance Matrix: (Units=1/GPa)
#
#
# Indices 1 2 3 4 5 6 
#
# 1 0.017977 0.000070 -0.002960 0.000000 -0.000325 0.000000
# 2 0.000070 0.009818 -0.001880 0.000000 -0.002833 0.000000
# 3 -0.002960 -0.001880 0.010823 0.000000 -0.004134 0.000000
# 4 0.000000 0.000000 0.000000 0.046575 0.000000 0.000405
# 5 -0.000325 -0.002833 -0.004134 0.000000 0.033120 0.000000
# 6 0.000000 0.000000 0.000000 0.000405 0.000000 0.039313
#
#
# Mechanical properties :
#
#
# Convention : Reuss Voigt Hill
#
# Bulk Modulus (GPa) = 34.39215 41.14299 37.76757
# Shear Modulus (GPa) = 28.27106 31.34653 29.80879
#
# Velocity S-wave (km/s) = 3.63168 3.82412 3.72914
# Velocity P-wave (km/s) = 5.79916 6.22034 6.01344
#
# Compressibility (1/GPa) = 0.02907640
#
# Stress axis : x y z
#
# Youngs Moduli (GPa) = 55.62768 101.84887 92.39910
#
# Poissons Ratio (x) = -0.00713 0.27353
# Poissons Ratio (y) = -0.00389 0.17374
# Poissons Ratio (z) = 0.16468 0.19151
#
# Static dielectric constant tensor:
#      x y z
#    x 1.876450 0.000000 -0.004910 
#    y 0.000000 1.733220 0.000000 
#    z -0.004910 0.000000 1.780150 
# 
# From -- ./inp_files/32624.got.cif
#   From: 2010.05.17/outbox.cif.g08.bks.cpg/sg5_17_cif.got.tgz:32624.got - 2010.06.03 18:56:24.
