data_PCOD9128791
_publ_section_title
;
Structure prediction by ZEFSAII (Michael W. Deem and Ramdas Pophale) SiO2 
 PCOD9128791
Probable space group: C 2
;
_chemical_formula_sum "Si O2"
_cell_formula_units_Z 20
_cell_length_a 12.251765
_cell_length_b 8.440129
_cell_length_c 9.553615
_cell_angle_alpha 90.000000
_cell_angle_beta 119.603988
_cell_angle_gamma 90.000000
_cell_volume 858.945005
_symmetry_space_group_name_H-M "C 2"
_symmetry_group_IT_number 5
_symmetry_cell_setting 'monoclinic'
loop_
_space_group_symop_operation_xyz
x,y,z
-x,y,-z
1/2+x,1/2+y,z
1/2-x,1/2+y,-z
loop_
_atom_site_type_symbol
_atom_site_label
_atom_site_fract_x
_atom_site_fract_y
_atom_site_fract_z
Si Si1 0.000000 0.099481 0.500000
Si Si2 0.504576 0.098877 0.757726
Si Si3 0.658148 0.312624 0.659328
Si Si4 0.742734 0.529637 0.161411
Si Si5 0.500000 0.336446 0.000000
Si Si6 0.682310 0.858794 0.497752
O O1 0.909853 0.211973 0.532590
O O2 0.902196 0.985461 0.355906
O O3 0.551129 0.200095 0.655022
O O4 0.465895 0.218547 0.853108
O O5 0.639679 0.013056 0.870688
O O6 0.396988 0.981000 0.645630
O O7 0.700992 0.312555 0.525262
O O8 0.770843 0.217843 0.810837
O O9 0.780869 0.441386 0.332148
O O10 0.617036 0.445602 0.032547
#
# Coordination Sequence:
#
# PCOD9128791 Si02
#       6
#     2   4   4   4   2   4
#     4  12  22  38  76 114 140 182 228 310 376 408
#     4  10  26  49  68 105 147 189 252 302 351 439
#     4  10  25  39  72 107 141 184 244 291 368 419
#     4  10  25  49  68 109 148 184 253 302 348 451
#     4  12  28  48  76  96 160 204 232 302 380 414
#     4  12  23  43  78 110 142 184 249 307 361 428
#
# _framework density 23.284375000000001
#
# number of rings (size 3 to 8) (size 9 to 14) (size 15 to 20)
#    1.200    0.000    2.000    2.400   11.200    1.600 
#    3.600    0.000    0.000    0.000    0.000    0.000 
#    0.000    0.000    0.000    0.000    0.000    0.000 
#
# Total GULP energy -55751.996291 kJ/mol
# GULP energy per Si atom -5575.199629 kJ/mol
# Density = 2.323138 g / cm^3
# Si number density = 23.284375 Si / 1000 Ang^3
#
#
#
# Elastic Constant Matrix: (Units=GPa)
#
#
# Indices 1 2 3 4 5 6 
#
# 1 108.8752 32.1152 -1.7378 0.0000 17.3921 0.0000
# 2 32.1152 137.9705 44.4312 0.0000 14.8755 0.0000
# 3 -1.7378 44.4312 40.1708 0.0000 11.7265 0.0000
# 4 0.0000 0.0000 0.0000 58.8557 0.0000 16.4589
# 5 17.3921 14.8755 11.7265 0.0000 35.5162 0.0000
# 6 0.0000 0.0000 0.0000 16.4589 0.0000 52.0420
#
#
#
# Elastic Compliance Matrix: (Units=1/GPa)
#
#
# Indices 1 2 3 4 5 6 
#
# 1 0.011553 -0.004294 0.007056 0.000000 -0.006188 0.000000
# 2 -0.004294 0.012868 -0.014895 0.000000 0.001631 0.000000
# 3 0.007056 -0.014895 0.045219 0.000000 -0.012147 0.000000
# 4 0.000000 0.000000 0.000000 0.018639 0.000000 -0.005895
# 5 -0.006188 0.001631 -0.012147 0.000000 0.034514 0.000000
# 6 0.000000 0.000000 0.000000 -0.005895 0.000000 0.021080
#
#
# Mechanical properties :
#
#
# Convention : Reuss Voigt Hill
#
# Bulk Modulus (GPa) = 22.03912 48.51486 35.27699
# Shear Modulus (GPa) = 27.28299 43.42998 35.35648
#
# Velocity S-wave (km/s) = 3.42677 4.32348 3.90097
# Velocity P-wave (km/s) = 5.01425 6.76789 5.95597
#
# Compressibility (1/GPa) = 0.04537386
#
# Stress axis : x y z
#
# Youngs Moduli (GPa) = 86.56034 77.71043 22.11437
#
# Poissons Ratio (x) = 0.33369 -0.15603
# Poissons Ratio (y) = 0.37170 0.32939
# Poissons Ratio (z) = -0.61075 1.15749
#
# Static dielectric constant tensor:
#      x y z
#    x 1.854530 0.000000 0.071370 
#    y 0.000000 1.927830 0.000000 
#    z 0.071370 0.000000 1.971580 
# 
# From -- ./inp_files/38502.got.cif
#   From: 2010.05.17/outbox.cif.g08.bks.cpg/sg5_20_cif.got.tgz:38502.got - 2010.06.03 18:56:24.
