data_PCOD9128923
_publ_section_title
;
Structure prediction by ZEFSAII (Michael W. Deem and Ramdas Pophale) SiO2 
 PCOD9128923
Probable space group: C 2
;
_chemical_formula_sum "Si O2"
_cell_formula_units_Z 24
_cell_length_a 23.411556
_cell_length_b 5.382713
_cell_length_c 19.215874
_cell_angle_alpha 90.000000
_cell_angle_beta 22.483977
_cell_angle_gamma 90.000000
_cell_volume 926.057554
_symmetry_space_group_name_H-M "C 2"
_symmetry_group_IT_number 5
_symmetry_cell_setting 'monoclinic'
loop_
_space_group_symop_operation_xyz
x,y,z
-x,y,-z
1/2+x,1/2+y,z
1/2-x,1/2+y,-z
loop_
_atom_site_type_symbol
_atom_site_label
_atom_site_fract_x
_atom_site_fract_y
_atom_site_fract_z
Si Si1 0.822726 0.368300 0.802575
Si Si2 0.404250 0.226956 0.820691
Si Si3 0.538345 0.345947 0.038380
Si Si4 0.590810 0.846167 0.825715
Si Si5 0.687000 0.955386 0.536310
Si Si6 0.895084 0.101003 0.479183
O O1 0.859335 0.639043 0.793414
O O2 0.712077 0.365656 0.862010
O O3 0.974670 0.214757 0.619607
O O4 0.727044 0.264245 0.976513
O O5 0.510914 0.015359 0.731526
O O6 0.508896 0.464765 0.689436
O O7 0.500000 0.335363 0.000000
O O8 0.475318 0.087436 0.138075
O O9 0.460226 0.593920 0.154232
O O10 0.500000 0.832443 0.000000
O O11 0.757743 0.221401 0.479473
O O12 0.764511 0.906969 0.646722
O O13 0.695720 0.836642 0.448783
#
# Coordination Sequence:
#
# PCOD9128923 Si02
#       6
#     4   4   4   4   4   4
#     4  11  25  43  72 109 159 192 248 301 375 465
#     4  11  24  42  67 109 154 201 234 293 388 455
#     4  10  25  49  78 104 140 198 257 314 369 431
#     4  10  25  48  74 102 140 188 261 310 367 434
#     4  11  24  40  63 105 146 193 240 294 362 462
#     4  11  25  44  70 106 153 197 244 303 384 448
#
# _framework density 25.916316999999999
#
# number of rings (size 3 to 8) (size 9 to 14) (size 15 to 20)
#    0.000    1.333    3.333    0.000    9.333    1.333 
#    0.000    3.333    0.000    0.000    0.000    0.000 
#    0.000    0.000    0.000    0.000    0.000    0.000 
#
# Total GULP energy -66975.490509 kJ/mol
# GULP energy per Si atom -5581.290876 kJ/mol
# Density = 2.585733 g / cm^3
# Si number density = 25.916317 Si / 1000 Ang^3
#
#
#
# Elastic Constant Matrix: (Units=GPa)
#
#
# Indices 1 2 3 4 5 6 
#
# 1 136.5146 25.6796 17.6265 -0.0020 -44.2100 0.0000
# 2 25.6796 200.8435 35.1047 -0.1126 -38.3700 0.0374
# 3 17.6265 35.1047 108.9111 -0.0586 -36.6981 0.0087
# 4 -0.0020 -0.1126 -0.0586 37.7077 0.0053 -15.2027
# 5 -44.2100 -38.3700 -36.6981 0.0053 55.2251 0.0008
# 6 0.0000 0.0374 0.0087 -15.2027 0.0008 24.8198
#
#
#
# Elastic Compliance Matrix: (Units=1/GPa)
#
#
# Indices 1 2 3 4 5 6 
#
# 1 0.010059 0.000215 0.001374 0.000002 0.009116 0.000000
# 2 0.000215 0.005782 -0.000627 0.000016 0.003773 0.000001
# 3 0.001374 -0.000627 0.012093 0.000019 0.008700 0.000008
# 4 0.000002 0.000016 0.000019 0.035217 0.000022 0.021571
# 5 0.009116 0.003773 0.008700 0.000022 0.033808 0.000004
# 6 0.000000 0.000001 0.000008 0.021571 0.000004 0.053503
#
#
# Mechanical properties :
#
#
# Convention : Reuss Voigt Hill
#
# Bulk Modulus (GPa) = 33.49124 67.01008 50.25066
# Shear Modulus (GPa) = 31.54753 48.07441 39.81097
#
# Velocity S-wave (km/s) = 3.49275 4.31163 3.92361
# Velocity P-wave (km/s) = 5.40524 7.12034 6.32123
#
# Compressibility (1/GPa) = 0.02985855
#
# Stress axis : x y z
#
# Youngs Moduli (GPa) = 99.40965 172.95440 82.69073
#
# Poissons Ratio (x) = -0.03720 -0.11363
# Poissons Ratio (y) = -0.02138 0.05187
# Poissons Ratio (z) = -0.13660 0.10849
#
# Static dielectric constant tensor:
#      x y z
#    x 2.216700 0.000060 0.212370 
#    y 0.000060 2.170410 0.000090 
#    z 0.212370 0.000090 2.270590 
# 
# From -- ./inp_files/67199.got.cif
#   From: 2010.05.17/outbox.cif.g08.bks.cpg/sg5_34_cif.got.tgz:67199.got - 2010.06.03 18:56:24.
