data_PCOD9128971
_publ_section_title
;
Structure prediction by ZEFSAII (Michael W. Deem and Ramdas Pophale) SiO2 
 PCOD9128971
Probable space group: C 2
;
_chemical_formula_sum "Si O2"
_cell_formula_units_Z 16
_cell_length_a 9.339354
_cell_length_b 9.476657
_cell_length_c 11.383054
_cell_angle_alpha 90.000000
_cell_angle_beta 37.755541
_cell_angle_gamma 90.000000
_cell_volume 616.865693
_symmetry_space_group_name_H-M "C 2"
_symmetry_group_IT_number 5
_symmetry_cell_setting 'monoclinic'
loop_
_space_group_symop_operation_xyz
x,y,z
-x,y,-z
1/2+x,1/2+y,z
1/2-x,1/2+y,-z
loop_
_atom_site_type_symbol
_atom_site_label
_atom_site_fract_x
_atom_site_fract_y
_atom_site_fract_z
Si Si1 0.951232 0.564340 0.708066
Si Si2 0.732270 0.059935 0.922880
Si Si3 0.090902 0.874010 0.816459
Si Si4 0.854000 0.259065 0.434965
O O1 0.261022 0.509873 0.234102
O O2 0.092722 0.417701 0.643464
O O3 0.126770 0.675345 0.537334
O O4 0.853429 0.619222 0.895527
O O5 0.924256 0.160817 0.737285
O O6 0.500000 0.022326 0.000000
O O7 0.883735 0.925797 0.867402
O O8 0.270238 0.784383 0.623567
O O9 0.000000 0.813012 0.000000
#
# Coordination Sequence:
#
# PCOD9128971 Si02
#       4
#     4   4   4   4
#     4  11  28  48  86 116 163 221 274 329 412 486
#     4  11  28  49  77 126 162 207 275 336 401 483
#     4  10  25  55  83 114 167 223 263 334 409 489
#     4  12  26  51  84 119 162 216 270 334 407 480
#
# _framework density 25.937574000000001
#
# number of rings (size 3 to 8) (size 9 to 14) (size 15 to 20)
#    0.000    1.000    2.500    0.750   14.000    0.000 
#    9.000    0.000    0.000    0.000    0.000    0.000 
#    0.000    0.000    0.000    0.000    0.000    0.000 
#
# Total GULP energy -44759.048491 kJ/mol
# GULP energy per Si atom -5594.881061 kJ/mol
# Density = 2.587854 g / cm^3
# Si number density = 25.937574 Si / 1000 Ang^3
#
#
#
# Elastic Constant Matrix: (Units=GPa)
#
#
# Indices 1 2 3 4 5 6 
#
# 1 180.3052 49.9169 74.8270 -0.0016 -19.7303 0.0004
# 2 49.9169 124.1365 69.7476 -0.0012 -4.8468 0.0007
# 3 74.8270 69.7476 238.6696 -0.0026 4.4559 0.0016
# 4 -0.0016 -0.0012 -0.0026 70.5206 0.0019 -11.9739
# 5 -19.7303 -4.8468 4.4559 0.0019 65.8536 -0.0008
# 6 0.0004 0.0007 0.0016 -11.9739 -0.0008 27.1395
#
#
#
# Elastic Compliance Matrix: (Units=1/GPa)
#
#
# Indices 1 2 3 4 5 6 
#
# 1 0.006970 -0.001761 -0.001709 0.000000 0.002074 0.000000
# 2 -0.001761 0.010137 -0.002417 0.000000 0.000382 0.000000
# 3 -0.001709 -0.002417 0.005452 0.000000 -0.001059 0.000000
# 4 0.000000 0.000000 0.000000 0.015329 0.000000 0.006763
# 5 0.002074 0.000382 -0.001059 0.000000 0.015906 0.000000
# 6 0.000000 0.000000 0.000000 0.006763 0.000000 0.039831
#
#
# Mechanical properties :
#
#
# Convention : Reuss Voigt Hill
#
# Bulk Modulus (GPa) = 92.73681 103.56605 98.15143
# Shear Modulus (GPa) = 45.87371 55.94407 50.90889
#
# Velocity S-wave (km/s) = 4.21006 4.64925 4.43510
# Velocity P-wave (km/s) = 7.71131 8.29677 8.00939
#
# Compressibility (1/GPa) = 0.01078321
#
# Stress axis : x y z
#
# Youngs Moduli (GPa) = 143.46961 98.64819 183.42073
#
# Poissons Ratio (x) = 0.17376 0.31351
# Poissons Ratio (y) = 0.25271 0.44338
# Poissons Ratio (z) = 0.24522 0.23846
#
# Static dielectric constant tensor:
#      x y z
#    x 2.132650 0.000000 -0.049460 
#    y 0.000000 2.107250 0.000000 
#    z -0.049460 0.000000 2.057860 
# 
# From -- ./inp_files/38648.got.cif
#   From: 2010.05.17/outbox.cif.g08.bks.cpg/sg5_20_cif.got.tgz:38648.got - 2010.06.03 18:56:24.
