data_PCOD9128415
_publ_section_title
;
Structure prediction by ZEFSAII (Michael W. Deem and Ramdas Pophale) SiO2 
 PCOD9128415
Probable space group: C 2
;
_chemical_formula_sum "Si O2"
_cell_formula_units_Z 24
_cell_length_a 10.217368
_cell_length_b 11.356607
_cell_length_c 11.861508
_cell_angle_alpha 90.000000
_cell_angle_beta 129.262983
_cell_angle_gamma 90.000000
_cell_volume 1065.634655
_symmetry_space_group_name_H-M "C 2"
_symmetry_group_IT_number 5
_symmetry_cell_setting 'monoclinic'
loop_
_space_group_symop_operation_xyz
x,y,z
-x,y,-z
1/2+x,1/2+y,z
1/2-x,1/2+y,-z
loop_
_atom_site_type_symbol
_atom_site_label
_atom_site_fract_x
_atom_site_fract_y
_atom_site_fract_z
Si Si1 0.000000 0.320900 0.500000
Si Si2 0.498483 0.082605 0.231079
Si Si3 0.734138 0.208416 0.707781
Si Si4 0.775566 0.406385 0.190802
Si Si5 0.500000 0.412936 0.500000
Si Si6 0.161896 0.110972 0.463403
Si Si7 0.000000 0.110635 0.000000
Si Si8 0.500000 0.209737 0.000000
O O1 0.849849 0.392879 0.358260
O O2 0.933207 0.232111 0.559833
O O3 0.400795 0.160752 0.273110
O O4 0.694162 0.096109 0.364775
O O5 0.464476 0.132904 0.090161
O O6 0.440652 0.947618 0.212773
O O7 0.655750 0.329483 0.619563
O O8 0.750766 0.124349 0.608670
O O9 0.921733 0.198742 0.863978
O O10 0.651958 0.514250 0.085519
O O11 0.664554 0.291908 0.107558
O O12 0.543362 0.498723 0.418839
#
# Coordination Sequence:
#
# PCOD9128415 Si02
#       8
#     2   4   4   4   2   4   2   2
#     4  11  24  43  76 102 146 193 236 293 362 414
#     4  11  24  45  72 106 142 186 237 294 351 430
#     4  11  24  47  72 104 143 189 234 300 355 423
#     4  10  24  43  73 102 135 198 228 288 365 408
#     4  11  26  45  78 104 142 191 234 301 360 410
#     4  11  25  46  70 113 141 180 251 294 342 442
#     4   9  24  42  65 104 144 177 240 287 348 430
#     4  11  24  52  67 102 156 179 238 297 354 428
#
# _framework density 22.521789999999999
#
# number of rings (size 3 to 8) (size 9 to 14) (size 15 to 20)
#    0.000    1.333    3.333    0.000    7.000    6.667 
#    3.000    0.000    0.000    0.000    0.000    0.000 
#    0.000    0.000    0.000    0.000    0.000    0.000 
#
# Total GULP energy -66879.096128 kJ/mol
# GULP energy per Si atom -5573.258011 kJ/mol
# Density = 2.247053 g / cm^3
# Si number density = 22.521790 Si / 1000 Ang^3
#
#
#
# Elastic Constant Matrix: (Units=GPa)
#
#
# Indices 1 2 3 4 5 6 
#
# 1 79.5714 57.2916 22.9816 0.0000 -24.3050 0.0000
# 2 57.2916 131.6615 53.5976 0.0000 -15.0823 0.0000
# 3 22.9816 53.5976 138.9848 0.0000 2.6747 0.0000
# 4 0.0000 0.0000 0.0000 4.8021 0.0000 -68.8572
# 5 -24.3050 -15.0823 2.6747 0.0000 42.1243 0.0000
# 6 0.0000 0.0000 0.0000 -68.8572 0.0000 -603.0188
#
#
#
# Elastic Compliance Matrix: (Units=1/GPa)
#
#
# Indices 1 2 3 4 5 6 
#
# 1 0.021395 -0.007950 -0.000655 0.000000 0.009539 0.000000
# 2 -0.007950 0.012494 -0.003506 0.000000 0.000109 0.000000
# 3 -0.000655 -0.003506 0.008697 0.000000 -0.002186 0.000000
# 4 0.000000 0.000000 0.000000 0.078960 0.000000 -0.009016
# 5 0.009539 0.000109 -0.002186 0.000000 0.029421 0.000000
# 6 0.000000 0.000000 0.000000 -0.009016 0.000000 -0.000629
#
#
# Mechanical properties :
#
#
# Convention : Reuss Voigt Hill
#
# Bulk Modulus (GPa) = 54.45528 68.66215 61.55872
# Shear Modulus (GPa) = 27.67294 -96.79536 -34.56121
#
# Velocity S-wave (km/s) = 3.50911 -6.56291 -3.92161
# Velocity P-wave (km/s) = 6.37573 5.18420 2.62430
#
# Compressibility (1/GPa) = 0.01836369
#
# Stress axis : x y z
#
# Youngs Moduli (GPa) = 46.74095 80.03636 114.97665
#
# Poissons Ratio (x) = 0.63630 0.07535
# Poissons Ratio (y) = 0.37160 0.40308
# Poissons Ratio (z) = 0.03063 0.28059
#
# Static dielectric constant tensor:
#      x y z
#    x 8.069370 0.000000 2.083900 
#    y 0.000000 1.896830 0.000000 
#    z 2.083900 0.000000 2.532170 
# 
# From -- ./inp_files/38970.got.cif
#   From: 2010.05.17/outbox.cif.g08.bks.cpg/sg5_20_cif.got.tgz:38970.got - 2010.06.03 18:56:24.
