data_PCOD9128802
_publ_section_title
;
Structure prediction by ZEFSAII (Michael W. Deem and Ramdas Pophale) SiO2 
 PCOD9128802
Probable space group: C 2
;
_chemical_formula_sum "Si O2"
_cell_formula_units_Z 32
_cell_length_a 17.569725
_cell_length_b 13.255874
_cell_length_c 11.717872
_cell_angle_alpha 90.000000
_cell_angle_beta 145.996223
_cell_angle_gamma 90.000000
_cell_volume 1526.251746
_symmetry_space_group_name_H-M "C 2"
_symmetry_group_IT_number 5
_symmetry_cell_setting 'monoclinic'
loop_
_space_group_symop_operation_xyz
x,y,z
-x,y,-z
1/2+x,1/2+y,z
1/2-x,1/2+y,-z
loop_
_atom_site_type_symbol
_atom_site_label
_atom_site_fract_x
_atom_site_fract_y
_atom_site_fract_z
Si Si1 0.858056 0.555890 0.093671
Si Si2 0.139978 0.791786 0.877225
Si Si3 0.334570 0.037859 0.555546
Si Si4 0.646149 0.205008 0.242324
Si Si5 0.361865 0.377606 0.592104
Si Si6 0.152523 0.303297 0.680747
Si Si7 0.154984 0.927855 0.688167
Si Si8 0.844728 0.538533 0.328930
O O1 0.893110 0.675651 0.133607
O O2 0.785502 0.547554 0.128047
O O3 0.007224 0.503548 0.269231
O O4 0.759721 0.506261 0.877112
O O5 0.149932 0.826028 0.759175
O O6 0.025820 0.865751 0.788774
O O7 0.283418 0.808245 0.114673
O O8 0.345957 0.097414 0.688668
O O9 0.210800 0.962316 0.423889
O O10 0.298716 0.090780 0.388815
O O11 0.674790 0.276607 0.386080
O O12 0.757474 0.232359 0.286633
O O13 0.500000 0.221645 0.000000
O O14 0.315050 0.395590 0.404022
O O15 0.157107 0.419075 0.644539
O O16 0.000000 0.267401 0.500000
O O17 0.000000 0.969780 0.500000
O O18 0.000000 0.571762 0.500000
#
# Coordination Sequence:
#
# PCOD9128802 Si02
#       8
#     4   4   4   4   4   4   4   4
#     4  11  22  42  72  98 131 186 235 276 343 425
#     4  11  23  44  68  96 138 181 231 282 346 413
#     4  11  24  40  68 101 132 178 232 286 335 417
#     4  12  24  43  69 102 138 185 229 277 351 415
#     4  11  24  40  63 100 140 175 221 291 338 407
#     4  11  22  42  67  97 133 178 229 281 337 412
#     4  10  25  42  65 104 140 179 224 290 346 396
#     4   9  20  37  64  96 126 166 228 284 329 393
#
# _framework density 20.966398000000002
#
# number of rings (size 3 to 8) (size 9 to 14) (size 15 to 20)
#    0.000    1.250    5.000    0.000    5.250    2.000 
#    2.250    0.000    0.000    0.000    3.250    0.000 
#    0.000    0.000    0.000    0.000    0.000    0.000 
#
# Total GULP energy -89129.079925 kJ/mol
# GULP energy per Si atom -5570.567495 kJ/mol
# Density = 2.091868 g / cm^3
# Si number density = 20.966398 Si / 1000 Ang^3
#
#
#
# Elastic Constant Matrix: (Units=GPa)
#
#
# Indices 1 2 3 4 5 6 
#
# 1 125.9105 29.5063 56.2734 0.0000 -6.4025 0.0000
# 2 29.5063 57.5143 35.8611 0.0000 -1.7882 0.0000
# 3 56.2734 35.8611 122.7667 0.0000 -5.8147 0.0000
# 4 0.0000 0.0000 0.0000 28.8662 0.0000 -8.1873
# 5 -6.4025 -1.7882 -5.8147 0.0000 28.6143 0.0000
# 6 0.0000 0.0000 0.0000 -8.1873 0.0000 30.1131
#
#
#
# Elastic Compliance Matrix: (Units=1/GPa)
#
#
# Indices 1 2 3 4 5 6 
#
# 1 0.010417 -0.002891 -0.003866 0.000000 0.001365 0.000000
# 2 -0.002891 0.022062 -0.005134 0.000000 -0.000311 0.000000
# 3 -0.003866 -0.005134 0.011471 0.000000 0.001145 0.000000
# 4 0.000000 0.000000 0.000000 0.037537 0.000000 0.010206
# 5 0.001365 -0.000311 0.001145 0.000000 0.035466 0.000000
# 6 0.000000 0.000000 0.000000 0.010206 0.000000 0.035983
#
#
# Mechanical properties :
#
#
# Convention : Reuss Voigt Hill
#
# Bulk Modulus (GPa) = 49.58298 61.05255 55.31776
# Shear Modulus (GPa) = 27.25684 29.82210 28.53947
#
# Velocity S-wave (km/s) = 3.60950 3.77553 3.69345
# Velocity P-wave (km/s) = 6.40870 6.94180 6.68057
#
# Compressibility (1/GPa) = 0.02016821
#
# Stress axis : x y z
#
# Youngs Moduli (GPa) = 95.99919 45.32750 87.17418
#
# Poissons Ratio (x) = 0.13106 0.33698
# Poissons Ratio (y) = 0.27757 0.44753
# Poissons Ratio (z) = 0.37109 0.23270
#
# Static dielectric constant tensor:
#      x y z
#    x 1.802290 0.000000 -0.034620 
#    y 0.000000 1.827970 0.000000 
#    z -0.034620 0.000000 1.768180 
# 
# From -- ./inp_files/45004.got.cif
#   From: 2010.05.17/outbox.cif.g08.bks.cpg/sg5_23_cif.got.tgz:45004.got - 2010.06.03 18:56:24.
