data_PCOD9128407
_publ_section_title
;
Structure prediction by ZEFSAII (Michael W. Deem and Ramdas Pophale) SiO2 
 PCOD9128407
Probable space group: C 2
;
_chemical_formula_sum "Si O2"
_cell_formula_units_Z 24
_cell_length_a 22.373304
_cell_length_b 5.025233
_cell_length_c 10.113144
_cell_angle_alpha 90.000000
_cell_angle_beta 56.533414
_cell_angle_gamma 90.000000
_cell_volume 948.520322
_symmetry_space_group_name_H-M "C 2"
_symmetry_group_IT_number 5
_symmetry_cell_setting 'monoclinic'
loop_
_space_group_symop_operation_xyz
x,y,z
-x,y,-z
1/2+x,1/2+y,z
1/2-x,1/2+y,-z
loop_
_atom_site_type_symbol
_atom_site_label
_atom_site_fract_x
_atom_site_fract_y
_atom_site_fract_z
Si Si1 0.167441 0.888450 0.774929
Si Si2 0.943232 0.849284 0.292877
Si Si3 0.941310 0.365991 0.462992
Si Si4 0.444160 0.740340 0.975280
Si Si5 0.295586 0.097274 0.739043
Si Si6 0.685081 0.987986 0.981840
O O1 0.161234 0.741865 0.924231
O O2 0.126896 0.755094 0.703753
O O3 0.250094 0.960990 0.676538
O O4 0.118233 0.149640 0.847220
O O5 0.919834 0.087359 0.421365
O O6 0.007123 0.996418 0.135393
O O7 0.972949 0.580335 0.321297
O O8 0.876624 0.538103 0.603500
O O9 0.000000 0.299725 0.500000
O O10 0.500000 0.904944 0.000000
O O11 0.390395 0.830707 0.926028
O O12 0.252381 0.372662 0.814599
O O13 0.289575 0.994320 0.898185
#
# Coordination Sequence:
#
# PCOD9128407 Si02
#       6
#     4   4   4   4   4   4
#     4  10  24  43  71 103 136 185 239 302 352 407
#     4  11  27  47  72 105 146 192 236 291 358 429
#     4  12  29  48  73 104 147 194 235 286 361 444
#     4   9  22  40  68 104 134 180 238 296 353 410
#     4  11  25  42  70 104 140 187 241 295 358 422
#     4  11  22  42  74 102 143 180 242 305 354 414
#
# _framework density 25.302571
#
# number of rings (size 3 to 8) (size 9 to 14) (size 15 to 20)
#    0.000    1.333    1.667    1.500   14.000    2.000 
#    0.000    0.000    0.000    0.000    0.000    0.000 
#    0.000    0.000    0.000    0.000    0.000    0.000 
#
# Total GULP energy -66855.848435 kJ/mol
# GULP energy per Si atom -5571.320703 kJ/mol
# Density = 2.524498 g / cm^3
# Si number density = 25.302571 Si / 1000 Ang^3
#
#
#
# Elastic Constant Matrix: (Units=GPa)
#
#
# Indices 1 2 3 4 5 6 
#
# 1 177.7785 37.4694 19.1385 0.0000 3.2491 0.0000
# 2 37.4694 83.2305 7.0044 0.0000 7.4982 0.0000
# 3 19.1385 7.0044 58.4354 0.0000 -12.7185 0.0000
# 4 0.0000 0.0000 0.0000 30.9469 0.0000 0.3695
# 5 3.2491 7.4982 -12.7185 0.0000 42.0047 0.0000
# 6 0.0000 0.0000 0.0000 0.3695 0.0000 32.9994
#
#
#
# Elastic Compliance Matrix: (Units=1/GPa)
#
#
# Indices 1 2 3 4 5 6 
#
# 1 0.006404 -0.002669 -0.001907 0.000000 -0.000596 0.000000
# 2 -0.002669 0.013563 -0.001321 0.000000 -0.002615 0.000000
# 3 -0.001907 -0.001321 0.019248 0.000000 0.006211 0.000000
# 4 0.000000 0.000000 0.000000 0.032318 0.000000 -0.000362
# 5 -0.000596 -0.002615 0.006211 0.000000 0.026200 0.000000
# 6 0.000000 0.000000 0.000000 -0.000362 0.000000 0.030308
#
#
# Mechanical properties :
#
#
# Convention : Reuss Voigt Hill
#
# Bulk Modulus (GPa) = 36.46833 49.62990 43.04912
# Shear Modulus (GPa) = 33.56297 38.24566 35.90432
#
# Velocity S-wave (km/s) = 3.64602 3.89206 3.77105
# Velocity P-wave (km/s) = 5.67175 6.31306 6.00098
#
# Compressibility (1/GPa) = 0.02742105
#
# Stress axis : x y z
#
# Youngs Moduli (GPa) = 156.16095 73.73054 51.95407
#
# Poissons Ratio (x) = 0.19676 0.09909
# Poissons Ratio (y) = 0.41673 0.06862
# Poissons Ratio (z) = 0.29784 0.09738
#
# Static dielectric constant tensor:
#      x y z
#    x 2.068660 0.000000 0.069100 
#    y 0.000000 2.116370 0.000000 
#    z 0.069100 0.000000 2.107190 
# 
# From -- ./inp_files/45382.got.cif
#   From: 2010.05.17/outbox.cif.g08.bks.cpg/sg5_23_cif.got.tgz:45382.got - 2010.06.03 18:56:24.
