data_PCOD9128351
_publ_section_title
;
Structure prediction by ZEFSAII (Michael W. Deem and Ramdas Pophale) SiO2 
 PCOD9128351
Probable space group: C 2
;
_chemical_formula_sum "Si O2"
_cell_formula_units_Z 22
_cell_length_a 13.893302
_cell_length_b 4.717042
_cell_length_c 26.166292
_cell_angle_alpha 90.000000
_cell_angle_beta 151.131832
_cell_angle_gamma 90.000000
_cell_volume 827.905939
_symmetry_space_group_name_H-M "C 2"
_symmetry_group_IT_number 5
_symmetry_cell_setting 'monoclinic'
loop_
_space_group_symop_operation_xyz
x,y,z
-x,y,-z
1/2+x,1/2+y,z
1/2-x,1/2+y,-z
loop_
_atom_site_type_symbol
_atom_site_label
_atom_site_fract_x
_atom_site_fract_y
_atom_site_fract_z
Si Si1 0.152395 0.478860 0.786919
Si Si2 0.661741 0.224457 0.488341
Si Si3 0.883792 0.581074 0.052060
Si Si4 0.000000 0.303663 0.000000
Si Si5 0.276623 0.741417 0.738380
Si Si6 0.604315 0.478100 0.310995
O O1 0.314668 0.599197 0.901295
O O2 0.233282 0.560277 0.769039
O O3 0.950662 0.653317 0.705961
O O4 0.094315 0.152542 0.764911
O O5 0.811877 0.465570 0.539031
O O6 0.440696 0.350243 0.380749
O O7 0.724436 0.090600 0.571468
O O8 0.059995 0.474837 0.170819
O O9 0.815417 0.902550 0.026457
O O10 0.946057 0.494465 0.023913
O O11 0.351882 0.554544 0.726426
#
# Coordination Sequence:
#
# PCOD9128351 Si02
#       6
#     4   4   4   2   4   4
#     4  11  25  43  66  99 133 173 220 275 317 404
#     4  12  24  45  67  97 134 172 223 275 327 395
#     4  11  25  44  66 100 134 170 226 270 325 399
#     4  10  24  42  68  96 134 176 218 268 338 372
#     4  11  25  43  71  97 132 181 214 275 335 386
#     4  12  24  44  68  95 135 171 222 268 337 384
#
# _framework density 26.573067999999999
#
# number of rings (size 3 to 8) (size 9 to 14) (size 15 to 20)
#    0.000    0.727    3.636    2.727    0.000   11.636 
#    0.000    3.636    0.000    0.000    0.000    0.000 
#    0.000    0.000    0.000    0.000    0.000    0.000 
#
# Total GULP energy -61826.628906 kJ/mol
# GULP energy per Si atom -5620.602628 kJ/mol
# Density = 2.651259 g / cm^3
# Si number density = 26.573068 Si / 1000 Ang^3
#
#
#
# Elastic Constant Matrix: (Units=GPa)
#
#
# Indices 1 2 3 4 5 6 
#
# 1 129.4311 0.9780 45.3485 -0.0027 -22.0757 0.0039
# 2 0.9780 75.7252 19.4795 -0.0057 -0.4686 0.0141
# 3 45.3485 19.4795 168.3047 -0.0005 -4.0603 0.0029
# 4 -0.0027 -0.0057 -0.0005 32.6513 -0.0002 2.9794
# 5 -22.0757 -0.4686 -4.0603 -0.0002 51.3269 0.0002
# 6 0.0039 0.0141 0.0029 2.9794 0.0002 29.6963
#
#
#
# Elastic Compliance Matrix: (Units=1/GPa)
#
#
# Indices 1 2 3 4 5 6 
#
# 1 0.009228 0.000536 -0.002457 0.000001 0.003779 -0.000001
# 2 0.000536 0.013642 -0.001718 0.000003 0.000219 -0.000007
# 3 -0.002457 -0.001718 0.006790 0.000000 -0.000535 0.000001
# 4 0.000001 0.000003 0.000000 0.030910 0.000001 -0.003101
# 5 0.003779 0.000219 -0.000535 0.000001 0.021068 -0.000001
# 6 -0.000001 -0.000007 0.000001 -0.003101 -0.000001 0.033985
#
#
# Mechanical properties :
#
#
# Convention : Reuss Voigt Hill
#
# Bulk Modulus (GPa) = 44.68038 56.11920 50.39979
# Shear Modulus (GPa) = 38.35509 43.24523 40.80016
#
# Velocity S-wave (km/s) = 3.80331 4.03849 3.92266
# Velocity P-wave (km/s) = 6.01145 6.55061 6.28682
#
# Compressibility (1/GPa) = 0.02238119
#
# Stress axis : x y z
#
# Youngs Moduli (GPa) = 108.37068 73.30280 147.28364
#
# Poissons Ratio (x) = -0.03931 0.36191
# Poissons Ratio (y) = -0.05812 0.25305
# Poissons Ratio (z) = 0.26629 0.12594
#
# Static dielectric constant tensor:
#      x y z
#    x 2.023140 0.000000 0.017160 
#    y 0.000000 1.969650 0.000000 
#    z 0.017160 0.000000 2.103170 
# 
# From -- ./inp_files/53897.got.cif
#   From: 2010.05.17/outbox.cif.g08.bks.cpg/sg5_27_cif.got.tgz:53897.got - 2010.06.03 18:56:24.
