data_PCOD9128583
_publ_section_title
;
Structure prediction by ZEFSAII (Michael W. Deem and Ramdas Pophale) SiO2 
 PCOD9128583
Probable space group: C 2
;
_chemical_formula_sum "Si O2"
_cell_formula_units_Z 20
_cell_length_a 23.437883
_cell_length_b 7.631359
_cell_length_c 6.539692
_cell_angle_alpha 90.000000
_cell_angle_beta 49.168634
_cell_angle_gamma 90.000000
_cell_volume 885.044831
_symmetry_space_group_name_H-M "C 2"
_symmetry_group_IT_number 5
_symmetry_cell_setting 'monoclinic'
loop_
_space_group_symop_operation_xyz
x,y,z
-x,y,-z
1/2+x,1/2+y,z
1/2-x,1/2+y,-z
loop_
_atom_site_type_symbol
_atom_site_label
_atom_site_fract_x
_atom_site_fract_y
_atom_site_fract_z
Si Si1 0.087288 0.465280 0.830464
Si Si2 0.305852 0.821447 0.126511
Si Si3 0.417283 0.587035 0.290935
Si Si4 0.676130 0.456343 0.140006
Si Si5 0.824992 0.805669 0.273488
O O1 0.112946 0.395454 0.995886
O O2 0.099919 0.295021 0.656259
O O3 0.136247 0.641669 0.702631
O O4 0.000000 0.511603 0.000000
O O5 0.259873 0.812812 0.447774
O O6 0.248790 0.927368 0.113868
O O7 0.311669 0.634970 0.009472
O O8 0.397643 0.489144 0.547885
O O9 0.365288 0.481490 0.255355
O O10 0.500000 0.574321 0.000000
O O11 0.669444 0.305720 0.984355
#
# Coordination Sequence:
#
# PCOD9128583 Si02
#       5
#     4   4   4   4   4
#     4  11  24  45  71 101 146 187 231 298 361 421
#     4  11  24  41  72 108 142 185 245 296 358 428
#     4  10  24  46  69 101 144 190 235 294 357 428
#     4  11  24  42  75 108 141 191 242 298 361 427
#     4  11  23  44  72 103 142 185 239 302 351 425
#
# _framework density 22.597725000000001
#
# number of rings (size 3 to 8) (size 9 to 14) (size 15 to 20)
#    0.000    1.200    2.000    3.000    8.400    0.800 
#    0.000    0.000    4.400    0.000    0.000    0.000 
#    0.000    0.000    0.000    0.000    0.000    0.000 
#
# Total GULP energy -55811.815899 kJ/mol
# GULP energy per Si atom -5581.181590 kJ/mol
# Density = 2.254629 g / cm^3
# Si number density = 22.597725 Si / 1000 Ang^3
#
#
#
# Elastic Constant Matrix: (Units=GPa)
#
#
# Indices 1 2 3 4 5 6 
#
# 1 107.4828 24.9400 53.3153 0.0000 -19.4896 0.0000
# 2 24.9400 88.7824 23.4280 0.0000 -4.2821 0.0000
# 3 53.3153 23.4280 125.2432 0.0000 9.6278 0.0000
# 4 0.0000 0.0000 0.0000 16.0990 0.0000 -9.1005
# 5 -19.4896 -4.2821 9.6278 0.0000 29.4630 0.0000
# 6 0.0000 0.0000 0.0000 -9.1005 0.0000 2.3559
#
#
#
# Elastic Compliance Matrix: (Units=1/GPa)
#
#
# Indices 1 2 3 4 5 6 
#
# 1 0.015572 -0.001868 -0.007232 0.000000 0.012392 0.000000
# 2 -0.001868 0.012256 -0.001579 0.000000 0.001061 0.000000
# 3 -0.007232 -0.001579 0.012046 0.000000 -0.008950 0.000000
# 4 0.000000 0.000000 0.000000 -0.052482 0.000000 -0.202725
# 5 0.012392 0.001061 -0.008950 0.000000 0.045217 0.000000
# 6 0.000000 0.000000 0.000000 -0.202725 0.000000 -0.358625
#
#
# Mechanical properties :
#
#
# Convention : Reuss Voigt Hill
#
# Bulk Modulus (GPa) = 54.00716 58.31945 56.16331
# Shear Modulus (GPa) = -16.75128 24.23858 3.74365
#
# Velocity S-wave (km/s) = -2.72560 3.27863 1.28851
# Velocity P-wave (km/s) = 3.74781 6.34005 5.20780
#
# Compressibility (1/GPa) = 0.01851606
#
# Stress axis : x y z
#
# Youngs Moduli (GPa) = 64.21925 81.59169 83.01221
#
# Poissons Ratio (x) = 0.15243 0.60034
# Poissons Ratio (y) = 0.11997 0.13107
# Poissons Ratio (z) = 0.46443 0.12883
#
# Static dielectric constant tensor:
#      x y z
#    x 1.853220 0.000000 0.037110 
#    y 0.000000 1.871560 0.000000 
#    z 0.037110 0.000000 1.864570 
# 
# From -- ./inp_files/8028.got.cif
#   From: 2010.05.17/outbox.cif.g08.bks.cpg/sg5_5_cif.got.tgz:8028.got - 2010.06.03 18:56:24.
