data_PCOD9128406
_publ_section_title
;
Structure prediction by ZEFSAII (Michael W. Deem and Ramdas Pophale) SiO2 
 PCOD9128406
Probable space group: C 2
;
_chemical_formula_sum "Si O2"
_cell_formula_units_Z 14
_cell_length_a 8.203408
_cell_length_b 16.947035
_cell_length_c 7.164856
_cell_angle_alpha 90.000000
_cell_angle_beta 37.382061
_cell_angle_gamma 90.000000
_cell_volume 604.748934
_symmetry_space_group_name_H-M "C 2"
_symmetry_group_IT_number 5
_symmetry_cell_setting 'monoclinic'
loop_
_space_group_symop_operation_xyz
x,y,z
-x,y,-z
1/2+x,1/2+y,z
1/2-x,1/2+y,-z
loop_
_atom_site_type_symbol
_atom_site_label
_atom_site_fract_x
_atom_site_fract_y
_atom_site_fract_z
Si Si1 0.000000 0.916121 0.000000
Si Si2 0.731578 0.324354 0.135985
Si Si3 0.141334 0.653472 0.060142
Si Si4 0.868325 0.067621 0.310539
O O1 0.174083 0.867595 0.990932
O O2 0.836025 0.976212 0.285191
O O3 0.500000 0.337235 0.500000
O O4 0.737225 0.231854 0.077613
O O5 0.000000 0.348458 0.000000
O O6 0.906702 0.607194 0.382157
O O7 0.378896 0.592273 0.792419
O O8 0.000000 0.682094 0.000000
O O9 0.000000 0.100755 0.000000
#
# Coordination Sequence:
#
# PCOD9128406 Si02
#       4
#     2   4   4   4
#     4  10  28  52  72 114 156 190 244 326 368 446
#     4  12  27  47  79 108 150 199 250 305 378 444
#     4  12  23  44  73 111 144 196 249 303 368 444
#     4  10  24  43  70  99 153 187 236 306 372 423
#
# _framework density 23.150105
#
# number of rings (size 3 to 8) (size 9 to 14) (size 15 to 20)
#    0.857    0.000    1.429    6.000    0.000    9.143 
#    0.000    0.000    0.000    0.000    0.000    0.000 
#    0.000    0.000    0.000    0.000    0.000    0.000 
#
# Total GULP energy -39058.488783 kJ/mol
# GULP energy per Si atom -5579.784112 kJ/mol
# Density = 2.309741 g / cm^3
# Si number density = 23.150105 Si / 1000 Ang^3
#
#
#
# Elastic Constant Matrix: (Units=GPa)
#
#
# Indices 1 2 3 4 5 6 
#
# 1 167.3547 58.9791 50.5271 0.0000 -21.9495 0.0000
# 2 58.9791 136.2783 43.3390 0.0000 -12.2959 0.0000
# 3 50.5271 43.3390 134.4968 0.0000 -6.3168 0.0002
# 4 0.0000 0.0000 0.0000 8.7826 0.0000 12.3139
# 5 -21.9495 -12.2959 -6.3168 0.0000 30.7043 -0.0001
# 6 0.0000 0.0000 0.0002 12.3139 -0.0001 11.3252
#
#
#
# Elastic Compliance Matrix: (Units=1/GPa)
#
#
# Indices 1 2 3 4 5 6 
#
# 1 0.008012 -0.002433 -0.002022 0.000000 0.004337 0.000000
# 2 -0.002433 0.009153 -0.001964 0.000000 0.001522 0.000000
# 3 -0.002022 -0.001964 0.008808 0.000000 -0.000420 0.000000
# 4 0.000000 0.000000 0.000000 -0.217088 0.000001 0.236041
# 5 0.004337 0.001522 -0.000420 0.000001 0.036192 -0.000001
# 6 0.000000 0.000000 0.000000 0.236041 -0.000001 -0.168350
#
#
# Mechanical properties :
#
#
# Convention : Reuss Voigt Hill
#
# Bulk Modulus (GPa) = 76.13471 82.64668 79.39070
# Shear Modulus (GPa) = -16.33685 29.18138 6.42226
#
# Velocity S-wave (km/s) = -2.65937 3.55424 1.66739
# Velocity P-wave (km/s) = 4.85069 7.25406 6.17052
#
# Compressibility (1/GPa) = 0.01313461
#
# Stress axis : x y z
#
# Youngs Moduli (GPa) = 124.80940 109.25649 113.53448
#
# Poissons Ratio (x) = 0.26583 0.22960
# Poissons Ratio (y) = 0.30367 0.22296
# Poissons Ratio (z) = 0.25240 0.21455
#
# Static dielectric constant tensor:
#      x y z
#    x 2.205360 0.000000 -0.068800 
#    y 0.000000 1.858050 0.000000 
#    z -0.068800 0.000000 1.867360 
# 
# From -- ./inp_files/15552.got.cif
#   From: 2010.05.17/outbox.cif.g08.bks.cpg/sg5_8_cif.got.tgz:15552.got - 2010.06.03 18:56:24.
