data_PCOD9128385
_publ_section_title
;
Structure prediction by ZEFSAII (Michael W. Deem and Ramdas Pophale) SiO2 
 PCOD9128385
Probable space group: C 2
;
_chemical_formula_sum "Si O2"
_cell_formula_units_Z 30
_cell_length_a 12.043495
_cell_length_b 9.089610
_cell_length_c 13.117628
_cell_angle_alpha 90.000000
_cell_angle_beta 107.036711
_cell_angle_gamma 90.000000
_cell_volume 1372.980096
_symmetry_space_group_name_H-M "C 2"
_symmetry_group_IT_number 5
_symmetry_cell_setting 'monoclinic'
loop_
_space_group_symop_operation_xyz
x,y,z
-x,y,-z
1/2+x,1/2+y,z
1/2-x,1/2+y,-z
loop_
_atom_site_type_symbol
_atom_site_label
_atom_site_fract_x
_atom_site_fract_y
_atom_site_fract_z
Si Si1 0.030991 0.692210 0.232984
Si Si2 0.000000 0.817916 0.000000
Si Si3 0.711614 0.140814 0.715562
Si Si4 0.208287 0.890349 0.401960
Si Si5 0.636092 0.879215 0.016040
Si Si6 0.196790 0.056108 0.053226
Si Si7 0.222461 0.456075 0.261049
Si Si8 0.131952 0.114075 0.551423
O O1 0.105406 0.824401 0.303785
O O2 0.108478 0.544768 0.264927
O O3 0.910489 0.674825 0.261424
O O4 0.020157 0.727076 0.109179
O O5 0.892884 0.927076 0.993493
O O6 0.801536 0.090583 0.827193
O O7 0.759962 0.294959 0.687200
O O8 0.712173 0.008697 0.636400
O O9 0.285403 0.750381 0.450821
O O10 0.156545 0.978580 0.482615
O O11 0.667878 0.711977 0.994437
O O12 0.707229 0.925945 0.136606
O O13 0.500000 0.884790 0.000000
O O14 0.678295 0.993442 0.943585
O O15 0.330247 0.556515 0.325993
O O16 0.000000 0.157526 0.500000
#
# Coordination Sequence:
#
# PCOD9128385 Si02
#       8
#     4   2   4   4   4   4   4   4
#     4  11  25  43  70  97 142 187 227 288 344 407
#     4  12  22  44  68 100 146 188 236 284 344 420
#     4  11  23  45  65 100 139 180 230 286 345 406
#     4  11  25  45  71 103 138 176 236 285 344 420
#     4  11  24  42  64  97 138 183 234 289 345 413
#     4  11  24  40  64  95 135 187 231 281 346 414
#     4  10  24  43  66 101 132 178 236 277 342 412
#     4  11  25  46  72 102 135 184 227 292 349 401
#
# _framework density 21.850280000000001
#
# number of rings (size 3 to 8) (size 9 to 14) (size 15 to 20)
#    0.000    1.067    2.000    4.000    4.667    3.200 
#    0.000    2.000    0.000    0.000    0.000    0.000 
#    0.000    0.000    0.000    0.000    0.000    0.000 
#
# Total GULP energy -83867.771921 kJ/mol
# GULP energy per Si atom -5591.184795 kJ/mol
# Density = 2.180055 g / cm^3
# Si number density = 21.850280 Si / 1000 Ang^3
#
#
#
# Elastic Constant Matrix: (Units=GPa)
#
#
# Indices 1 2 3 4 5 6 
#
# 1 90.3567 46.6559 21.5053 0.0000 14.4200 0.0000
# 2 46.6559 118.0942 22.3700 0.0000 -0.6356 0.0000
# 3 21.5053 22.3700 73.7954 0.0000 7.0987 0.0000
# 4 0.0000 0.0000 0.0000 35.8475 0.0000 -5.3312
# 5 14.4200 -0.6356 7.0987 0.0000 28.1947 0.0000
# 6 0.0000 0.0000 0.0000 -5.3312 0.0000 35.2681
#
#
#
# Elastic Compliance Matrix: (Units=1/GPa)
#
#
# Indices 1 2 3 4 5 6 
#
# 1 0.015844 -0.005906 -0.002085 0.000000 -0.007711 0.000000
# 2 -0.005906 0.011208 -0.002041 0.000000 0.003787 0.000000
# 3 -0.002085 -0.002041 0.015043 0.000000 -0.002767 0.000000
# 4 0.000000 0.000000 0.000000 0.028537 0.000000 0.004314
# 5 -0.007711 0.003787 -0.002767 0.000000 0.040194 0.000000
# 6 0.000000 0.000000 0.000000 0.004314 0.000000 0.029006
#
#
# Mechanical properties :
#
#
# Convention : Reuss Voigt Hill
#
# Bulk Modulus (GPa) = 45.38926 51.47876 48.43401
# Shear Modulus (GPa) = 29.89713 32.64305 31.27009
#
# Velocity S-wave (km/s) = 3.70303 3.86935 3.78710
# Velocity P-wave (km/s) = 6.25309 6.60101 6.42941
#
# Compressibility (1/GPa) = 0.02203164
#
# Stress axis : x y z
#
# Youngs Moduli (GPa) = 63.11644 89.22140 66.47427
#
# Poissons Ratio (x) = 0.52694 0.13860
# Poissons Ratio (y) = 0.37277 0.13566
# Poissons Ratio (z) = 0.13160 0.18208
#
# Static dielectric constant tensor:
#      x y z
#    x 1.781620 0.000000 0.017200 
#    y 0.000000 1.791340 0.000000 
#    z 0.017200 0.000000 1.811360 
# 
# From -- ./inp_files/52476.got.cif
#   From: 2010.05.17/outbox.cif.g08.bks.cpg/sg5_27_cif.got.tgz:52476.got - 2010.06.03 18:56:24.
