data_PCOD9128423
_publ_section_title
;
Structure prediction by ZEFSAII (Michael W. Deem and Ramdas Pophale) SiO2 
 PCOD9128423
Probable space group: C 2
;
_chemical_formula_sum "Si O2"
_cell_formula_units_Z 22
_cell_length_a 24.461287
_cell_length_b 6.845938
_cell_length_c 7.610241
_cell_angle_alpha 90.000000
_cell_angle_beta 47.332690
_cell_angle_gamma 90.000000
_cell_volume 937.078701
_symmetry_space_group_name_H-M "C 2"
_symmetry_group_IT_number 5
_symmetry_cell_setting 'monoclinic'
loop_
_space_group_symop_operation_xyz
x,y,z
-x,y,-z
1/2+x,1/2+y,z
1/2-x,1/2+y,-z
loop_
_atom_site_type_symbol
_atom_site_label
_atom_site_fract_x
_atom_site_fract_y
_atom_site_fract_z
Si Si1 0.337482 0.405490 0.291686
Si Si2 0.500000 0.857315 0.000000
Si Si3 0.114820 0.812246 0.334420
Si Si4 0.214741 0.579268 0.333845
Si Si5 0.375347 0.689167 0.505241
Si Si6 0.536324 0.210287 0.149323
O O1 0.292623 0.484616 0.221095
O O2 0.308972 0.203074 0.440400
O O3 0.330212 0.561955 0.462027
O O4 0.422968 0.373375 0.054669
O O5 0.452011 0.735393 0.240426
O O6 0.545045 0.007802 0.026715
O O7 0.194773 0.729145 0.220205
O O8 0.083748 0.720397 0.224683
O O9 0.049864 0.749338 0.616416
O O10 0.115628 0.047605 0.347439
O O11 0.163830 0.395905 0.391582
#
# Coordination Sequence:
#
# PCOD9128423 Si02
#       6
#     4   2   4   4   4   4
#     4  11  22  40  66  96 126 169 224 272 322 395
#     4  12  20  40  76  96 122 176 234 266 328 386
#     4  10  24  44  61  93 140 168 213 276 334 388
#     4  11  21  40  64  92 129 169 216 272 321 392
#     4  11  21  39  66  92 121 171 216 271 324 388
#     4  11  22  44  65  94 135 167 217 282 321 391
#
# _framework density 23.477217
#
# number of rings (size 3 to 8) (size 9 to 14) (size 15 to 20)
#    0.000    1.091    5.455    2.182    0.000    0.000 
#   13.091    0.000    0.000    0.000    0.000    0.000 
#    0.000    0.000    0.000    0.000    0.000    0.000 
#
# Total GULP energy -61399.235125 kJ/mol
# GULP energy per Si atom -5581.748648 kJ/mol
# Density = 2.342378 g / cm^3
# Si number density = 23.477217 Si / 1000 Ang^3
#
#
#
# Elastic Constant Matrix: (Units=GPa)
#
#
# Indices 1 2 3 4 5 6 
#
# 1 130.4068 32.9546 19.5868 0.0000 17.1478 0.0000
# 2 32.9546 128.8998 18.8797 0.0000 2.5584 0.0000
# 3 19.5868 18.8797 37.0012 0.0000 9.7090 0.0000
# 4 0.0000 0.0000 0.0000 16.1388 0.0000 -13.4251
# 5 17.1478 2.5584 9.7090 0.0000 35.6741 0.0000
# 6 0.0000 0.0000 0.0000 -13.4251 0.0000 31.8769
#
#
#
# Elastic Compliance Matrix: (Units=1/GPa)
#
#
# Indices 1 2 3 4 5 6 
#
# 1 0.009016 -0.001804 -0.002960 0.000000 -0.003399 0.000000
# 2 -0.001804 0.008758 -0.003851 0.000000 0.001287 0.000000
# 3 -0.002960 -0.003851 0.032428 0.000000 -0.007126 0.000000
# 4 0.000000 0.000000 0.000000 0.095377 0.000000 0.040168
# 5 -0.003399 0.001287 -0.007126 0.000000 0.031512 0.000000
# 6 0.000000 0.000000 0.000000 0.040168 0.000000 0.048288
#
#
# Mechanical properties :
#
#
# Convention : Reuss Voigt Hill
#
# Bulk Modulus (GPa) = 30.33019 48.79444 39.56232
# Shear Modulus (GPa) = 19.71608 31.73041 25.72324
#
# Velocity S-wave (km/s) = 2.90107 3.68032 3.31368
# Velocity P-wave (km/s) = 4.91616 6.23607 5.61503
#
# Compressibility (1/GPa) = 0.03297045
#
# Stress axis : x y z
#
# Youngs Moduli (GPa) = 110.91761 114.18505 30.83729
#
# Poissons Ratio (x) = 0.20598 0.09129
# Poissons Ratio (y) = 0.20009 0.11877
# Poissons Ratio (z) = 0.32835 0.43977
#
# Static dielectric constant tensor:
#      x y z
#    x 1.883360 0.000000 0.014280 
#    y 0.000000 1.902910 0.000000 
#    z 0.014280 0.000000 1.936520 
# 
# From -- ./inp_files/28331.got.cif
#   From: 2010.05.17/outbox.cif.g08.bks.cpg/sg5_15_cif.got.tgz:28331.got - 2010.06.03 18:56:24.
