data_PCOD9128980
_publ_section_title
;
Structure prediction by ZEFSAII (Michael W. Deem and Ramdas Pophale) SiO2 
 PCOD9128980
Probable space group: C 2
;
_chemical_formula_sum "Si O2"
_cell_formula_units_Z 14
_cell_length_a 7.714401
_cell_length_b 17.031103
_cell_length_c 5.448535
_cell_angle_alpha 90.000000
_cell_angle_beta 123.007485
_cell_angle_gamma 90.000000
_cell_volume 600.315122
_symmetry_space_group_name_H-M "C 2"
_symmetry_group_IT_number 5
_symmetry_cell_setting 'monoclinic'
loop_
_space_group_symop_operation_xyz
x,y,z
-x,y,-z
1/2+x,1/2+y,z
1/2-x,1/2+y,-z
loop_
_atom_site_type_symbol
_atom_site_label
_atom_site_fract_x
_atom_site_fract_y
_atom_site_fract_z
Si Si1 0.793514 0.002180 0.596909
Si Si2 0.244780 0.936456 0.934083
Si Si3 0.359671 0.261545 0.141302
Si Si4 0.500000 0.644681 0.000000
O O1 0.888458 0.088375 0.712971
O O2 0.689922 0.980835 0.262112
O O3 0.995823 0.946781 0.746741
O O4 0.685463 0.979046 0.765707
O O5 0.268646 0.843433 0.956699
O O6 0.500000 0.258725 0.500000
O O7 0.500000 0.256857 0.000000
O O8 0.184736 0.194596 0.023497
#
# Coordination Sequence:
#
# PCOD9128980 Si02
#       4
#     4   4   4   2
#     4   9  17  35  62  81 120 177 191 251 326 372
#     4   9  15  33  62  81 113 172 205 231 320 378
#     4  12  23  41  68  98 130 169 214 275 321 382
#     4  10  26  40  68 100 132 162 222 270 330 372
#
# _framework density 23.321086000000001
#
# number of rings (size 3 to 8) (size 9 to 14) (size 15 to 20)
#    0.000    2.286    5.714    0.000    0.000   10.286 
#    0.000    0.000   25.143    0.000    0.000    0.000 
#    0.000    0.000    0.000    0.000    0.000    0.000 
#
# Total GULP energy -39053.745282 kJ/mol
# GULP energy per Si atom -5579.106469 kJ/mol
# Density = 2.326801 g / cm^3
# Si number density = 23.321086 Si / 1000 Ang^3
#
#
#
# Elastic Constant Matrix: (Units=GPa)
#
#
# Indices 1 2 3 4 5 6 
#
# 1 162.8914 54.9096 85.7043 0.0000 -46.0439 0.0000
# 2 54.9096 179.5376 62.1132 0.0000 -19.1000 0.0000
# 3 85.7043 62.1132 224.1541 0.0000 -46.3449 0.0000
# 4 0.0000 0.0000 0.0000 -12.3096 0.0000 14.4737
# 5 -46.0439 -19.1000 -46.3449 0.0000 52.5098 0.0000
# 6 0.0000 0.0000 0.0000 14.4737 0.0000 222.7930
#
#
#
# Elastic Compliance Matrix: (Units=1/GPa)
#
#
# Indices 1 2 3 4 5 6 
#
# 1 0.009354 -0.001566 -0.001914 0.000000 0.005943 0.000000
# 2 -0.001566 0.006458 -0.001210 0.000000 -0.000092 0.000000
# 3 -0.001914 -0.001210 0.006226 0.000000 0.003377 0.000000
# 4 0.000000 0.000000 0.000000 -0.075472 0.000000 0.004903
# 5 0.005943 -0.000092 0.003377 0.000000 0.027203 0.000000
# 6 0.000000 0.000000 0.000000 0.004903 0.000000 0.004170
#
#
# Mechanical properties :
#
#
# Convention : Reuss Voigt Hill
#
# Bulk Modulus (GPa) = 78.99685 108.00415 93.50050
# Shear Modulus (GPa) = -590.82882 76.85569 -256.98657
#
# Velocity S-wave (km/s) = -15.93409 5.74691 -10.50877
# Velocity P-wave (km/s) = 17.45222 9.51043 10.34726
#
# Compressibility (1/GPa) = 0.01265873
#
# Stress axis : x y z
#
# Youngs Moduli (GPa) = 106.90711 154.85626 160.60889
#
# Poissons Ratio (x) = 0.24258 0.30733
# Poissons Ratio (y) = 0.16747 0.19426
# Poissons Ratio (z) = 0.20457 0.18730
#
# Static dielectric constant tensor:
#      x y z
#    x 1.772390 0.000000 0.143980 
#    y 0.000000 1.855040 0.000000 
#    z 0.143980 0.000000 1.784510 
# 
# From -- ./inp_files/1820.got.cif
#   From: 2010.05.17/outbox.cif.g08.bks.cpg/sg5_1_cif.got.tgz:1820.got - 2010.06.03 18:56:24.
