data_PCOD9128818
_publ_section_title
;
Structure prediction by ZEFSAII (Michael W. Deem and Ramdas Pophale) SiO2 
 PCOD9128818
Probable space group: C 2
;
_chemical_formula_sum "Si O2"
_cell_formula_units_Z 20
_cell_length_a 9.268743
_cell_length_b 4.911274
_cell_length_c 24.172770
_cell_angle_alpha 90.000000
_cell_angle_beta 142.326028
_cell_angle_gamma 90.000000
_cell_volume 672.514585
_symmetry_space_group_name_H-M "C 2"
_symmetry_group_IT_number 5
_symmetry_cell_setting 'monoclinic'
loop_
_space_group_symop_operation_xyz
x,y,z
-x,y,-z
1/2+x,1/2+y,z
1/2-x,1/2+y,-z
loop_
_atom_site_type_symbol
_atom_site_label
_atom_site_fract_x
_atom_site_fract_y
_atom_site_fract_z
Si Si1 0.536594 0.400840 0.690142
Si Si2 0.500000 0.496287 0.000000
Si Si3 0.988270 0.721221 0.192839
Si Si4 0.375047 0.883448 0.575650
Si Si5 0.000000 0.609863 0.500000
Si Si6 0.791140 0.999403 0.033291
O O1 0.537817 0.359449 0.755963
O O2 0.404503 0.358309 0.517387
O O3 0.343719 0.618033 0.608694
O O4 0.489828 0.110039 0.649026
O O5 0.775883 0.518965 0.113386
O O6 0.394006 0.261776 0.015442
O O7 0.960500 0.949796 0.136242
O O8 0.227118 0.552804 0.258306
O O9 0.500469 0.893437 0.554966
O O10 0.598571 0.736588 0.979345
#
# Coordination Sequence:
#
# PCOD9128818 Si02
#       6
#     4   2   4   4   2   4
#     4  12  29  51  78 123 172 212 267 350 431 488
#     4  10  26  46  76 104 154 222 306 326 412 470
#     4  11  28  48  79 112 168 223 285 351 414 480
#     4  12  29  54  89 128 167 215 272 334 428 516
#     4  12  28  56  98 126 172 220 280 338 410 540
#     4  10  25  43  70 101 141 203 285 348 396 470
#
# _framework density 29.739131
#
# number of rings (size 3 to 8) (size 9 to 14) (size 15 to 20)
#    0.000    0.800    0.000    3.600   16.800    8.000 
#    0.000    0.000    0.000    0.000    0.000    0.000 
#    0.000    0.000    0.000    0.000    0.000    0.000 
#
# Total GULP energy -55824.832472 kJ/mol
# GULP energy per Si atom -5582.483247 kJ/mol
# Density = 2.967144 g / cm^3
# Si number density = 29.739131 Si / 1000 Ang^3
#
#
#
# Elastic Constant Matrix: (Units=GPa)
#
#
# Indices 1 2 3 4 5 6 
#
# 1 310.8733 79.7371 68.2238 -0.0011 -33.3567 0.0008
# 2 79.7371 299.6321 89.0829 -0.0031 -18.6616 0.0026
# 3 68.2238 89.0829 153.9424 -0.0015 -31.2321 0.0012
# 4 -0.0011 -0.0031 -0.0015 68.3285 0.0008 13.3519
# 5 -33.3567 -18.6616 -31.2321 0.0008 87.4515 -0.0005
# 6 0.0008 0.0026 0.0012 13.3519 -0.0005 59.2186
#
#
#
# Elastic Compliance Matrix: (Units=1/GPa)
#
#
# Indices 1 2 3 4 5 6 
#
# 1 0.003711 -0.000600 -0.001117 0.000000 0.000889 0.000000
# 2 -0.000600 0.004128 -0.002146 0.000000 -0.000114 0.000000
# 3 -0.001117 -0.002146 0.008683 0.000000 0.002217 0.000000
# 4 0.000000 0.000000 0.000000 0.015310 0.000000 -0.003452
# 5 0.000889 -0.000114 0.002217 0.000000 0.012541 0.000000
# 6 0.000000 0.000000 0.000000 -0.003452 0.000000 0.017665
#
#
# Mechanical properties :
#
#
# Convention : Reuss Voigt Hill
#
# Bulk Modulus (GPa) = 113.69860 137.61504 125.65682
# Shear Modulus (GPa) = 68.77960 78.15999 73.46980
#
# Velocity S-wave (km/s) = 4.81434 5.13215 4.97578
# Velocity P-wave (km/s) = 8.31978 9.02735 8.68078
#
# Compressibility (1/GPa) = 0.00879518
#
# Stress axis : x y z
#
# Youngs Moduli (GPa) = 269.45576 242.24564 115.17199
#
# Poissons Ratio (x) = 0.14538 0.12867
# Poissons Ratio (y) = 0.16171 0.24717
# Poissons Ratio (z) = 0.30103 0.51987
#
# Static dielectric constant tensor:
#      x y z
#    x 2.642090 0.000000 0.154330 
#    y 0.000000 2.515390 0.000000 
#    z 0.154330 0.000000 2.462660 
# 
# From -- ./inp_files/70278.got.cif
#   From: 2010.05.17/outbox.cif.g08.bks.cpg/sg5_36_cif.got.tgz:70278.got - 2010.06.03 18:56:24.
