data_PCOD9128013
_publ_section_title
;
Structure prediction by ZEFSAII (Michael W. Deem and Ramdas Pophale) SiO2 
 PCOD9128013
Probable space group: C 2
;
_chemical_formula_sum "Si O2"
_cell_formula_units_Z 24
_cell_length_a 23.586697
_cell_length_b 5.258037
_cell_length_c 22.751748
_cell_angle_alpha 90.000000
_cell_angle_beta 20.771095
_cell_angle_gamma 90.000000
_cell_volume 1000.662233
_symmetry_space_group_name_H-M "C 2"
_symmetry_group_IT_number 5
_symmetry_cell_setting 'monoclinic'
loop_
_space_group_symop_operation_xyz
x,y,z
-x,y,-z
1/2+x,1/2+y,z
1/2-x,1/2+y,-z
loop_
_atom_site_type_symbol
_atom_site_label
_atom_site_fract_x
_atom_site_fract_y
_atom_site_fract_z
Si Si1 0.457834 0.979210 0.972661
Si Si2 0.586854 0.475256 0.853611
Si Si3 0.294686 0.605001 0.421580
Si Si4 0.853841 0.044636 0.886943
Si Si5 0.405639 0.120042 0.505241
Si Si6 0.404275 0.616397 0.699877
O O1 0.493083 0.702977 0.912608
O O2 0.571855 0.201065 0.837518
O O3 0.500000 0.938491 0.000000
O O4 0.278053 0.069661 0.141092
O O5 0.768917 0.560234 0.685291
O O6 0.500000 0.433116 0.000000
O O7 0.279516 0.880809 0.466519
O O8 0.481756 0.538566 0.236467
O O9 0.196099 0.611493 0.456740
O O10 0.906017 0.085267 0.768684
O O11 0.756925 0.782144 0.987373
O O12 0.487009 0.392684 0.432331
O O13 0.532163 0.892290 0.379611
#
# Coordination Sequence:
#
# PCOD9128013 Si02
#       6
#     4   4   4   4   4   4
#     4  10  23  45  67  94 131 169 219 280 331 390
#     4  10  23  45  68  97 127 169 225 273 339 389
#     4  12  23  44  64  96 143 172 221 268 326 400
#     4  12  26  41  64 101 137 176 220 271 322 390
#     4  12  24  43  69  99 133 182 216 275 333 392
#     4  12  25  44  66 101 136 173 228 268 329 403
#
# _framework density 23.984114999999999
#
# number of rings (size 3 to 8) (size 9 to 14) (size 15 to 20)
#    0.000    0.667    3.333    4.000    4.667    0.000 
#    0.000   20.000    0.000    0.000    0.000    0.000 
#    0.000    0.000    0.000    0.000    0.000    0.000 
#
# Total GULP energy -67223.493706 kJ/mol
# GULP energy per Si atom -5601.957809 kJ/mol
# Density = 2.392953 g / cm^3
# Si number density = 23.984115 Si / 1000 Ang^3
#
#
#
# Elastic Constant Matrix: (Units=GPa)
#
#
# Indices 1 2 3 4 5 6 
#
# 1 76.4328 1.9270 2.0764 -0.0039 -9.5575 0.0064
# 2 1.9270 95.9263 -14.5544 0.1332 -3.7087 -0.1883
# 3 2.0764 -14.5544 64.2528 0.0610 -7.1456 -0.1126
# 4 -0.0039 0.1332 0.0610 59.8727 -0.0159 -8.9174
# 5 -9.5575 -3.7087 -7.1456 -0.0159 46.7757 0.0275
# 6 0.0064 -0.1883 -0.1126 -8.9174 0.0275 13.6711
#
#
#
# Elastic Compliance Matrix: (Units=1/GPa)
#
#
# Indices 1 2 3 4 5 6 
#
# 1 0.013431 -0.000192 -0.000177 0.000000 0.002702 -0.000016
# 2 -0.000192 0.010871 0.002605 -0.000002 0.001220 0.000168
# 3 -0.000177 0.002605 0.016458 0.000003 0.002684 0.000168
# 4 0.000000 -0.000002 0.000003 0.018499 0.000000 0.012067
# 5 0.002702 0.001220 0.002684 0.000000 0.022438 -0.000008
# 6 -0.000016 0.000168 0.000168 0.012067 -0.000008 0.081022
#
#
# Mechanical properties :
#
#
# Convention : Reuss Voigt Hill
#
# Bulk Modulus (GPa) = 22.10872 23.94556 23.02714
# Shear Modulus (GPa) = 28.84753 40.54142 34.69447
#
# Velocity S-wave (km/s) = 3.47187 4.11584 3.80749
# Velocity P-wave (km/s) = 5.03090 5.70898 5.38063
#
# Compressibility (1/GPa) = 0.04523103
#
# Stress axis : x y z
#
# Youngs Moduli (GPa) = 74.45512 91.98569 60.76041
#
# Poissons Ratio (x) = 0.01768 0.01076
# Poissons Ratio (y) = 0.01431 -0.15827
# Poissons Ratio (z) = 0.01319 -0.23960
#
# Static dielectric constant tensor:
#      x y z
#    x 2.180830 -0.000100 0.102760 
#    y -0.000100 1.962120 -0.000010 
#    z 0.102760 -0.000010 1.931570 
# 
# From -- ./inp_files/69547.got.cif
#   From: 2010.05.17/outbox.cif.g08.bks.cpg/sg5_35_cif.got.tgz:69547.got - 2010.06.03 18:56:24.
