data_PCOD9128853
_publ_section_title
;
Structure prediction by ZEFSAII (Michael W. Deem and Ramdas Pophale) SiO2 
 PCOD9128853
Probable space group: C 2
;
_chemical_formula_sum "Si O2"
_cell_formula_units_Z 24
_cell_length_a 7.054123
_cell_length_b 12.693318
_cell_length_c 14.586363
_cell_angle_alpha 90.000000
_cell_angle_beta 122.918275
_cell_angle_gamma 90.000000
_cell_volume 1096.372832
_symmetry_space_group_name_H-M "C 2"
_symmetry_group_IT_number 5
_symmetry_cell_setting 'monoclinic'
loop_
_space_group_symop_operation_xyz
x,y,z
-x,y,-z
1/2+x,1/2+y,z
1/2-x,1/2+y,-z
loop_
_atom_site_type_symbol
_atom_site_label
_atom_site_fract_x
_atom_site_fract_y
_atom_site_fract_z
Si Si1 0.164634 0.790650 0.206754
Si Si2 0.231422 0.176217 0.100917
Si Si3 0.950837 0.151438 0.594828
Si Si4 0.500000 0.285517 0.500000
Si Si5 0.586934 0.964032 0.844573
Si Si6 0.053258 0.931080 0.691004
Si Si7 0.000000 0.377115 0.000000
O O1 0.343724 0.715464 0.304465
O O2 0.295437 0.864930 0.171256
O O3 0.054117 0.868534 0.252688
O O4 0.958787 0.720289 0.111415
O O5 0.123567 0.290500 0.098881
O O6 0.329642 0.074210 0.177666
O O7 0.000000 0.128467 0.000000
O O8 0.722701 0.216487 0.546073
O O9 0.000000 0.135481 0.500000
O O10 0.926319 0.039893 0.638160
O O11 0.530126 0.357072 0.596958
O O12 0.316393 0.962011 0.768545
O O13 0.638786 0.950715 0.967579
#
# Coordination Sequence:
#
# PCOD9128853 Si02
#       7
#     4   4   4   2   4   4   2
#     4  12  26  45  72 102 141 186 233 291 355 406
#     4  10  25  45  69 103 140 179 238 284 346 412
#     4  12  26  44  74 103 140 186 233 291 354 417
#     4  12  26  44  70 102 142 178 236 292 348 418
#     4  12  26  46  73 102 139 191 234 291 349 411
#     4  12  25  45  70 104 138 182 240 287 345 425
#     4  10  26  46  66 104 140 176 234 294 336 414
#
# _framework density 21.890364999999999
#
# number of rings (size 3 to 8) (size 9 to 14) (size 15 to 20)
#    0.500    0.000    7.500    0.000    2.333    6.667 
#    0.000    0.000    0.000    0.000    0.000    0.000 
#    0.000    0.000    0.000    0.000    0.000    0.000 
#
# Total GULP energy -66842.450215 kJ/mol
# GULP energy per Si atom -5570.204185 kJ/mol
# Density = 2.184054 g / cm^3
# Si number density = 21.890365 Si / 1000 Ang^3
#
#
#
# Elastic Constant Matrix: (Units=GPa)
#
#
# Indices 1 2 3 4 5 6 
#
# 1 78.5717 22.2090 36.9243 0.0000 1.5874 0.0000
# 2 22.2090 115.1843 31.0700 0.0000 7.3592 0.0000
# 3 36.9243 31.0700 51.4446 0.0000 4.0694 0.0000
# 4 0.0000 0.0000 0.0000 28.4172 0.0000 18.5675
# 5 1.5874 7.3592 4.0694 0.0000 45.2890 0.0000
# 6 0.0000 0.0000 0.0000 18.5675 0.0000 37.4650
#
#
#
# Elastic Compliance Matrix: (Units=1/GPa)
#
#
# Indices 1 2 3 4 5 6 
#
# 1 0.019220 -0.000011 -0.013834 0.000000 0.000571 0.000000
# 2 -0.000011 0.010429 -0.006201 0.000000 -0.001137 0.000000
# 3 -0.013834 -0.006201 0.033231 0.000000 -0.001493 0.000000
# 4 0.000000 0.000000 0.000000 0.052042 0.000000 -0.025792
# 5 0.000571 -0.001137 -0.001493 0.000000 0.022379 0.000000
# 6 0.000000 0.000000 0.000000 -0.025792 0.000000 0.039474
#
#
# Mechanical properties :
#
#
# Convention : Reuss Voigt Hill
#
# Bulk Modulus (GPa) = 43.88126 47.28969 45.58548
# Shear Modulus (GPa) = 22.27547 32.56740 27.42143
#
# Velocity S-wave (km/s) = 3.19343 3.86132 3.54315
# Velocity P-wave (km/s) = 5.80403 6.44435 6.13255
#
# Compressibility (1/GPa) = 0.02278877
#
# Stress axis : x y z
#
# Youngs Moduli (GPa) = 52.02975 95.88518 30.09265
#
# Poissons Ratio (x) = 0.00103 0.41629
# Poissons Ratio (y) = 0.00056 0.18660
# Poissons Ratio (z) = 0.71976 0.59458
#
# Static dielectric constant tensor:
#      x y z
#    x 1.758940 0.000000 0.017620 
#    y 0.000000 1.785880 0.000000 
#    z 0.017620 0.000000 1.892110 
# 
# From -- ./inp_files/49005.got.cif
#   From: 2010.05.17/outbox.cif.g08.bks.cpg/sg5_25_cif.got.tgz:49005.got - 2010.06.03 18:56:24.
