data_PCOD9128892
_publ_section_title
;
Structure prediction by ZEFSAII (Michael W. Deem and Ramdas Pophale) SiO2 
 PCOD9128892
Probable space group: C 2
;
_chemical_formula_sum "Si O2"
_cell_formula_units_Z 22
_cell_length_a 17.522109
_cell_length_b 10.617505
_cell_length_c 17.634334
_cell_angle_alpha 90.000000
_cell_angle_beta 163.529061
_cell_angle_gamma 90.000000
_cell_volume 930.176530
_symmetry_space_group_name_H-M "C 2"
_symmetry_group_IT_number 5
_symmetry_cell_setting 'monoclinic'
loop_
_space_group_symop_operation_xyz
x,y,z
-x,y,-z
1/2+x,1/2+y,z
1/2-x,1/2+y,-z
loop_
_atom_site_type_symbol
_atom_site_label
_atom_site_fract_x
_atom_site_fract_y
_atom_site_fract_z
Si Si1 0.459755 0.454710 0.329476
Si Si2 0.360977 0.664924 0.130585
Si Si3 0.500000 0.333808 0.000000
Si Si4 0.302564 0.186658 0.663868
Si Si5 0.250342 0.715001 0.636342
Si Si6 0.000000 0.397108 0.000000
Si Si7 0.000000 0.503175 0.500000
O O1 0.375008 0.517898 0.169680
O O2 0.716292 0.541316 0.596404
O O3 0.529876 0.309212 0.391099
O O4 0.228988 0.471951 0.172452
O O5 0.535813 0.732349 0.364676
O O6 0.517807 0.686277 0.202950
O O7 0.051184 0.697231 0.843579
O O8 0.399489 0.251839 0.832785
O O9 0.239752 0.421619 0.764894
O O10 0.360462 0.801508 0.808723
O O11 0.125925 0.591230 0.554765
#
# Coordination Sequence:
#
# PCOD9128892 Si02
#       7
#     4   4   2   4   4   2   2
#     4  10  25  46  79 119 150 207 262 329 385 466
#     4  10  26  46  75 114 150 199 250 325 391 450
#     4  12  27  51  78 106 160 204 258 312 392 480
#     4  10  25  51  74 113 148 201 258 321 385 460
#     4  12  26  48  77 114 158 201 268 321 390 468
#     4  12  23  45  84 118 158 200 266 324 390 466
#     4  12  28  48  74 114 148 218 246 324 386 472
#
# _framework density 23.651425
#
# number of rings (size 3 to 8) (size 9 to 14) (size 15 to 20)
#    1.091    0.000    1.818    2.727    2.545    7.273 
#    3.273    0.000    0.000    0.000    0.000    0.000 
#    0.000    0.000    0.000    0.000    0.000    0.000 
#
# Total GULP energy -61500.612604 kJ/mol
# GULP energy per Si atom -5590.964782 kJ/mol
# Density = 2.359759 g / cm^3
# Si number density = 23.651425 Si / 1000 Ang^3
#
#
#
# Elastic Constant Matrix: (Units=GPa)
#
#
# Indices 1 2 3 4 5 6 
#
# 1 120.6176 48.3453 36.2885 0.0068 31.7348 -0.0034
# 2 48.3453 75.0194 37.1200 0.0057 5.0625 -0.0257
# 3 36.2885 37.1200 134.0000 0.0039 21.8813 -0.0023
# 4 0.0068 0.0057 0.0039 15.7734 0.0014 14.9554
# 5 31.7348 5.0625 21.8813 0.0014 48.5448 0.0031
# 6 -0.0034 -0.0257 -0.0023 14.9554 0.0031 33.3287
#
#
#
# Elastic Compliance Matrix: (Units=1/GPa)
#
#
# Indices 1 2 3 4 5 6 
#
# 1 0.013767 -0.008268 -0.000118 0.000003 -0.008085 -0.000006
# 2 -0.008268 0.020418 -0.004266 -0.000029 0.005199 0.000027
# 3 -0.000118 -0.004266 0.009274 0.000003 -0.003658 -0.000004
# 4 0.000003 -0.000029 0.000003 0.110344 -0.000001 -0.049514
# 5 -0.008085 0.005199 -0.003658 -0.000001 0.026991 0.000001
# 6 -0.000006 0.000027 -0.000004 -0.049514 0.000001 0.052223
#
#
# Mechanical properties :
#
#
# Convention : Reuss Voigt Hill
#
# Bulk Modulus (GPa) = 55.08036 63.68273 59.38155
# Shear Modulus (GPa) = 18.91268 33.38826 26.15047
#
# Velocity S-wave (km/s) = 2.83086 3.76131 3.32876
# Velocity P-wave (km/s) = 5.83301 6.77106 6.31946
#
# Compressibility (1/GPa) = 0.01815529
#
# Stress axis : x y z
#
# Youngs Moduli (GPa) = 72.63638 48.97567 107.83235
#
# Poissons Ratio (x) = 0.40495 0.01269
# Poissons Ratio (y) = 0.60058 0.46001
# Poissons Ratio (z) = 0.00855 0.20893
#
# Static dielectric constant tensor:
#      x y z
#    x 1.874380 0.000000 -0.066870 
#    y 0.000000 1.914330 -0.000010 
#    z -0.066870 -0.000010 1.998970 
# 
# From -- ./inp_files/62397.got.cif
#   From: 2010.05.17/outbox.cif.g08.bks.cpg/sg5_32_cif.got.tgz:62397.got - 2010.06.03 18:56:24.
