data_PCOD9128556
_publ_section_title
;
Structure prediction by ZEFSAII (Michael W. Deem and Ramdas Pophale) SiO2 
 PCOD9128556
Probable space group: C 2
;
_chemical_formula_sum "Si O2"
_cell_formula_units_Z 20
_cell_length_a 14.112059
_cell_length_b 4.876098
_cell_length_c 10.245722
_cell_angle_alpha 90.000000
_cell_angle_beta 99.510070
_cell_angle_gamma 90.000000
_cell_volume 695.336921
_symmetry_space_group_name_H-M "C 2"
_symmetry_group_IT_number 5
_symmetry_cell_setting 'monoclinic'
loop_
_space_group_symop_operation_xyz
x,y,z
-x,y,-z
1/2+x,1/2+y,z
1/2-x,1/2+y,-z
loop_
_atom_site_type_symbol
_atom_site_label
_atom_site_fract_x
_atom_site_fract_y
_atom_site_fract_z
Si Si1 0.812335 0.153800 0.134332
Si Si2 0.053336 0.844092 0.632502
Si Si3 0.483165 0.028386 0.139956
Si Si4 0.275395 0.990461 0.422720
Si Si5 0.162239 0.197280 0.150808
O O1 0.880186 0.031533 0.263083
O O2 0.871133 0.444707 0.131186
O O3 0.714254 0.995276 0.151707
O O4 0.825125 0.052440 0.986488
O O5 0.000000 0.983717 0.500000
O O6 0.119745 0.611379 0.580981
O O7 0.987717 0.698319 0.726576
O O8 0.551833 0.762816 0.152899
O O9 0.500000 0.153024 0.000000
O O10 0.228209 0.189280 0.519805
O O11 0.215189 0.029265 0.275950
#
# Coordination Sequence:
#
# PCOD9128556 Si02
#       5
#     4   4   4   4   4
#     4  10  25  44  71 112 139 202 251 323 398 467
#     4  11  26  46  75 106 154 202 257 333 390 493
#     4  10  24  46  69 110 148 197 262 320 399 481
#     4  11  27  47  75 114 152 211 261 326 411 476
#     4  10  24  45  74 105 158 195 262 329 389 486
#
# _framework density 28.763031999999999
#
# number of rings (size 3 to 8) (size 9 to 14) (size 15 to 20)
#    0.000    1.600    0.000    1.200   19.600    3.200 
#    0.000    0.000    0.000    0.000    0.000    0.000 
#    0.000    0.000    0.000    0.000    0.000    0.000 
#
# Total GULP energy -56017.646854 kJ/mol
# GULP energy per Si atom -5601.764685 kJ/mol
# Density = 2.869757 g / cm^3
# Si number density = 28.763032 Si / 1000 Ang^3
#
#
#
# Elastic Constant Matrix: (Units=GPa)
#
#
# Indices 1 2 3 4 5 6 
#
# 1 136.0788 23.0430 32.9721 0.0000 -9.6853 0.0000
# 2 23.0430 98.0321 33.7195 0.0000 -11.9703 0.0000
# 3 32.9721 33.7195 254.1189 0.0000 7.3533 0.0000
# 4 0.0000 0.0000 0.0000 41.6608 0.0000 -11.6344
# 5 -9.6853 -11.9703 7.3533 0.0000 58.0122 0.0000
# 6 0.0000 0.0000 0.0000 -11.6344 0.0000 39.6055
#
#
#
# Elastic Compliance Matrix: (Units=1/GPa)
#
#
# Indices 1 2 3 4 5 6 
#
# 1 0.007879 -0.001415 -0.000867 0.000000 0.001133 0.000000
# 2 -0.001415 0.011285 -0.001379 0.000000 0.002267 0.000000
# 3 -0.000867 -0.001379 0.004259 0.000000 -0.000969 0.000000
# 4 0.000000 0.000000 0.000000 0.026149 0.000000 0.007681
# 5 0.001133 0.002267 -0.000969 0.000000 0.018018 0.000000
# 6 0.000000 0.000000 0.000000 0.007681 0.000000 0.027505
#
#
# Mechanical properties :
#
#
# Convention : Reuss Voigt Hill
#
# Bulk Modulus (GPa) = 62.11703 74.18877 68.15290
# Shear Modulus (GPa) = 46.38889 54.42203 50.40546
#
# Velocity S-wave (km/s) = 4.02032 4.35453 4.19076
# Velocity P-wave (km/s) = 6.57219 7.15064 6.86751
#
# Compressibility (1/GPa) = 0.01609864
#
# Stress axis : x y z
#
# Youngs Moduli (GPa) = 126.91698 88.61564 234.80934
#
# Poissons Ratio (x) = 0.12542 0.20365
# Poissons Ratio (y) = 0.17963 0.32388
# Poissons Ratio (z) = 0.11008 0.12223
#
# Static dielectric constant tensor:
#      x y z
#    x 2.267480 0.000000 -0.024820 
#    y 0.000000 2.304230 0.000000 
#    z -0.024820 0.000000 2.204730 
# 
# From -- ./inp_files/41140.got.cif
#   From: 2010.05.17/outbox.cif.g08.bks.cpg/sg5_21_cif.got.tgz:41140.got - 2010.06.03 18:56:24.
