data_PCOD9128371
_publ_section_title
;
Structure prediction by ZEFSAII (Michael W. Deem and Ramdas Pophale) SiO2 
 PCOD9128371
Probable space group: C 2
;
_chemical_formula_sum "Si O2"
_cell_formula_units_Z 26
_cell_length_a 19.192740
_cell_length_b 9.154310
_cell_length_c 9.005421
_cell_angle_alpha 90.000000
_cell_angle_beta 127.831742
_cell_angle_gamma 90.000000
_cell_volume 1249.660895
_symmetry_space_group_name_H-M "C 2"
_symmetry_group_IT_number 5
_symmetry_cell_setting 'monoclinic'
loop_
_space_group_symop_operation_xyz
x,y,z
-x,y,-z
1/2+x,1/2+y,z
1/2-x,1/2+y,-z
loop_
_atom_site_type_symbol
_atom_site_label
_atom_site_fract_x
_atom_site_fract_y
_atom_site_fract_z
Si Si1 0.371308 0.074480 0.617703
Si Si2 0.629097 0.655462 0.038958
Si Si3 0.687073 0.283849 0.727725
Si Si4 0.156730 0.832404 0.014440
Si Si5 0.936565 0.243421 0.716019
Si Si6 0.500000 0.252076 0.000000
Si Si7 0.217564 0.102028 0.649245
O O1 0.350566 0.167114 0.440971
O O2 0.278752 0.064495 0.586032
O O3 0.417519 0.916180 0.674565
O O4 0.437590 0.162513 0.809582
O O5 0.538354 0.694943 0.835987
O O6 0.707882 0.766272 0.111580
O O7 0.678122 0.503905 0.057117
O O8 0.600223 0.680817 0.173545
O O9 0.684707 0.449898 0.671495
O O10 0.642167 0.277049 0.829158
O O11 0.065168 0.840057 0.982705
O O12 0.223667 0.716845 0.178080
O O13 0.872317 0.178722 0.511159
#
# Coordination Sequence:
#
# PCOD9128371 Si02
#       7
#     4   4   4   4   4   2   4
#     4  11  22  42  72 102 140 179 241 281 354 423
#     4  11  23  42  70 102 140 183 235 292 348 413
#     4  12  25  44  71 102 144 186 233 296 354 422
#     4  11  26  45  70  99 144 184 239 290 359 420
#     4  11  23  41  73 103 136 183 236 291 341 423
#     4  10  24  42  72 102 126 184 232 294 340 420
#     4  11  23  42  69 104 138 185 234 284 354 429
#
# _framework density 20.805644000000001
#
# number of rings (size 3 to 8) (size 9 to 14) (size 15 to 20)
#    0.000    0.923    3.077    3.692    8.615    0.615 
#    0.000    2.308    6.769    0.000    0.000    0.000 
#    0.000    0.000    0.000    0.000    0.000    0.000 
#
# Total GULP energy -72498.290310 kJ/mol
# GULP energy per Si atom -5576.791562 kJ/mol
# Density = 2.075829 g / cm^3
# Si number density = 20.805644 Si / 1000 Ang^3
#
#
#
# Elastic Constant Matrix: (Units=GPa)
#
#
# Indices 1 2 3 4 5 6 
#
# 1 9.4723 -29.6300 32.6008 0.0000 -19.2583 0.0000
# 2 -29.6300 40.7391 21.3956 0.0000 -24.6785 0.0000
# 3 32.6008 21.3956 93.2822 0.0000 -11.3449 0.0000
# 4 0.0000 0.0000 0.0000 -11.4887 0.0000 -33.7432
# 5 -19.2583 -24.6785 -11.3449 0.0000 29.7739 0.0000
# 6 0.0000 0.0000 0.0000 -33.7432 0.0000 -22.4373
#
#
#
# Elastic Compliance Matrix: (Units=1/GPa)
#
#
# Indices 1 2 3 4 5 6 
#
# 1 -0.007206 -0.018915 0.004596 0.000000 -0.018588 0.000000
# 2 -0.018915 0.003922 0.004843 0.000000 -0.007139 0.000000
# 3 0.004596 0.004843 0.009283 0.000000 0.010524 0.000000
# 4 0.000000 0.000000 0.000000 0.025473 0.000000 -0.038308
# 5 -0.018588 -0.007139 0.010524 0.000000 0.019657 0.000000
# 6 0.000000 0.000000 0.000000 -0.038308 0.000000 0.013043
#
#
# Mechanical properties :
#
#
# Convention : Reuss Voigt Hill
#
# Bulk Modulus (GPa) = -77.19922 21.35848 -27.92037
# Shear Modulus (GPa) = 63.44815 7.11139 35.27977
#
# Velocity S-wave (km/s) = 5.52828 1.85079 4.12233
# Velocity P-wave (km/s) = 1.88776 3.85425 3.03471
#
# Compressibility (1/GPa) = -0.01295350
#
# Stress axis : x y z
#
# Youngs Moduli (GPa) = -138.76758 255.00302 107.72387
#
# Poissons Ratio (x) = 4.82337 -0.49513
# Poissons Ratio (y) = -2.62478 -0.52169
# Poissons Ratio (z) = 0.63781 -1.23493
#
# Static dielectric constant tensor:
#      x y z
#    x 1.802170 0.000000 -0.045110 
#    y 0.000000 1.792820 0.000000 
#    z -0.045110 0.000000 1.769530 
# 
# From -- ./inp_files/28900.got.cif
#   From: 2010.05.17/outbox.cif.g08.bks.cpg/sg5_15_cif.got.tgz:28900.got - 2010.06.03 18:56:24.
