data_PCOD9128257
_publ_section_title
;
Structure prediction by ZEFSAII (Michael W. Deem and Ramdas Pophale) SiO2 
 PCOD9128257
Probable space group: C 2
;
_chemical_formula_sum "Si O2"
_cell_formula_units_Z 24
_cell_length_a 7.457359
_cell_length_b 7.022382
_cell_length_c 24.306844
_cell_angle_alpha 90.000000
_cell_angle_beta 52.987403
_cell_angle_gamma 90.000000
_cell_volume 1016.423559
_symmetry_space_group_name_H-M "C 2"
_symmetry_group_IT_number 5
_symmetry_cell_setting 'monoclinic'
loop_
_space_group_symop_operation_xyz
x,y,z
-x,y,-z
1/2+x,1/2+y,z
1/2-x,1/2+y,-z
loop_
_atom_site_type_symbol
_atom_site_label
_atom_site_fract_x
_atom_site_fract_y
_atom_site_fract_z
Si Si1 0.300750 0.674530 0.318195
Si Si2 0.000000 0.648065 0.000000
Si Si3 0.261165 0.224562 0.788947
Si Si4 0.979704 0.278637 0.942644
Si Si5 0.749506 0.565762 0.282168
Si Si6 0.977769 0.401451 0.442920
Si Si7 0.500000 0.532967 0.500000
O O1 0.336053 0.620205 0.247377
O O2 0.528479 0.684865 0.310775
O O3 0.201604 0.887310 0.331736
O O4 0.136691 0.523338 0.375143
O O5 0.223652 0.762732 0.970876
O O6 0.043110 0.499101 0.942005
O O7 0.215422 0.444138 0.780792
O O8 0.137639 0.182660 0.868375
O O9 0.524660 0.174257 0.743560
O O10 0.000000 0.191316 0.000000
O O11 0.721767 0.416262 0.471475
O O12 0.045526 0.183135 0.441647
O O13 0.000000 0.488144 0.500000
#
# Coordination Sequence:
#
# PCOD9128257 Si02
#       7
#     4   2   4   4   4   4   2
#     4  10  24  42  64  92 124 162 204 252 304 362
#     4  10  26  40  64  90 126 160 206 250 306 360
#     4  10  26  40  66  90 126 160 206 250 306 360
#     4  10  26  40  66  90 126 160 206 250 306 360
#     4  10  25  40  66  90 125 160 206 250 305 360
#     4  10  24  42  64  92 124 162 204 252 304 362
#     4  10  24  40  64  90 124 160 206 250 304 360
#
# _framework density 23.612206
#
# number of rings (size 3 to 8) (size 9 to 14) (size 15 to 20)
#    2.000    0.000    0.000    1.000    9.333    2.667 
#    0.000    0.000    0.000    0.000    0.000    0.000 
#    0.000    0.000    0.000    0.000    0.000    0.000 
#
# Total GULP energy -67023.923973 kJ/mol
# GULP energy per Si atom -5585.326998 kJ/mol
# Density = 2.355846 g / cm^3
# Si number density = 23.612206 Si / 1000 Ang^3
#
#
#
# Elastic Constant Matrix: (Units=GPa)
#
#
# Indices 1 2 3 4 5 6 
#
# 1 183.4736 35.6637 16.2088 0.0000 4.5064 0.0000
# 2 35.6637 61.8164 26.0387 0.0000 15.5555 0.0000
# 3 16.2088 26.0387 97.2783 0.0000 19.4606 0.0000
# 4 0.0000 0.0000 0.0000 3.0946 0.0000 -4.5691
# 5 4.5064 15.5555 19.4606 0.0000 24.2909 0.0000
# 6 0.0000 0.0000 0.0000 -4.5691 0.0000 28.6757
#
#
#
# Elastic Compliance Matrix: (Units=1/GPa)
#
#
# Indices 1 2 3 4 5 6 
#
# 1 0.006184 -0.003826 -0.000318 0.000000 0.001557 0.000000
# 2 -0.003826 0.022529 -0.003154 0.000000 -0.011190 0.000000
# 3 -0.000318 -0.003154 0.012815 0.000000 -0.008188 0.000000
# 4 0.000000 0.000000 0.000000 0.422550 0.000000 0.067328
# 5 0.001557 -0.011190 -0.008188 0.000000 0.054605 0.000000
# 6 0.000000 0.000000 0.000000 0.067328 0.000000 0.045601
#
#
# Mechanical properties :
#
#
# Convention : Reuss Voigt Hill
#
# Bulk Modulus (GPa) = 37.13062 55.37675 46.25368
# Shear Modulus (GPa) = 8.50549 28.85603 18.68076
#
# Velocity S-wave (km/s) = 1.89999 3.49962 2.81579
# Velocity P-wave (km/s) = 4.53571 6.31136 5.49572
#
# Compressibility (1/GPa) = 0.02693195
#
# Stress axis : x y z
#
# Youngs Moduli (GPa) = 161.71184 44.38805 78.03330
#
# Poissons Ratio (x) = 0.16981 0.02481
# Poissons Ratio (y) = 0.61865 0.24613
# Poissons Ratio (z) = 0.05141 0.14001
#
# Static dielectric constant tensor:
#      x y z
#    x 1.824330 0.000000 0.060500 
#    y 0.000000 1.921810 0.000000 
#    z 0.060500 0.000000 1.938400 
# 
# From -- ./inp_files/67746.got.cif
#   From: 2010.05.17/outbox.cif.g08.bks.cpg/sg5_34_cif.got.tgz:67746.got - 2010.06.03 18:56:24.
