data_PCOD9128901
_publ_section_title
;
Structure prediction by ZEFSAII (Michael W. Deem and Ramdas Pophale) SiO2 
 PCOD9128901
Probable space group: C 2
;
_chemical_formula_sum "Si O2"
_cell_formula_units_Z 22
_cell_length_a 18.931860
_cell_length_b 8.803362
_cell_length_c 8.839359
_cell_angle_alpha 90.000000
_cell_angle_beta 38.653587
_cell_angle_gamma 90.000000
_cell_volume 920.177752
_symmetry_space_group_name_H-M "C 2"
_symmetry_group_IT_number 5
_symmetry_cell_setting 'monoclinic'
loop_
_space_group_symop_operation_xyz
x,y,z
-x,y,-z
1/2+x,1/2+y,z
1/2-x,1/2+y,-z
loop_
_atom_site_type_symbol
_atom_site_label
_atom_site_fract_x
_atom_site_fract_y
_atom_site_fract_z
Si Si1 0.323744 0.823280 0.393826
Si Si2 0.670088 0.238093 0.095821
Si Si3 0.274053 0.988621 0.763344
Si Si4 0.627359 0.105216 0.845601
Si Si5 0.000000 0.980541 0.500000
Si Si6 0.486730 0.574051 0.863156
O O1 0.333238 0.950454 0.508475
O O2 0.212803 0.721794 0.615337
O O3 0.430837 0.713563 0.228991
O O4 0.322827 0.932370 0.248784
O O5 0.603272 0.374128 0.283537
O O6 0.677545 0.112321 0.208278
O O7 0.776913 0.328157 0.849220
O O8 0.618962 0.165834 0.030519
O O9 0.148649 0.054385 0.932292
O O10 0.500000 0.100292 0.000000
O O11 0.973396 0.052231 0.379462
O O12 0.500000 0.476379 0.000000
#
# Coordination Sequence:
#
# PCOD9128901 Si02
#       6
#     4   4   4   4   2   4
#     4  11  26  48  76 108 149 201 244 315 375 439
#     4  10  25  47  71 109 149 194 245 314 369 449
#     4  10  25  47  72 111 146 196 250 304 379 445
#     4  11  27  48  72 116 146 195 257 304 375 452
#     4  10  26  48  78 106 152 202 242 312 386 430
#     4  11  25  51  75 110 146 201 247 304 380 443
#
# _framework density 23.908425000000001
#
# number of rings (size 3 to 8) (size 9 to 14) (size 15 to 20)
#    0.000    1.455    0.000    1.636   12.727   15.273 
#    3.273    0.000    0.000    0.000    0.000    0.000 
#    0.000    0.000    0.000    0.000    0.000    0.000 
#
# Total GULP energy -61277.765106 kJ/mol
# GULP energy per Si atom -5570.705919 kJ/mol
# Density = 2.385401 g / cm^3
# Si number density = 23.908425 Si / 1000 Ang^3
#
#
#
# Elastic Constant Matrix: (Units=GPa)
#
#
# Indices 1 2 3 4 5 6 
#
# 1 56.9688 30.6169 43.8555 0.0000 6.0139 0.0000
# 2 30.6169 79.6100 21.5747 0.0000 -4.4994 0.0000
# 3 43.8555 21.5747 124.6674 0.0000 9.4970 0.0000
# 4 0.0000 0.0000 0.0000 25.0163 0.0000 26.5831
# 5 6.0139 -4.4994 9.4970 0.0000 33.1583 0.0000
# 6 0.0000 0.0000 0.0000 26.5831 0.0000 53.9671
#
#
#
# Elastic Compliance Matrix: (Units=1/GPa)
#
#
# Indices 1 2 3 4 5 6 
#
# 1 0.029491 -0.009289 -0.008448 0.000000 -0.004190 0.000000
# 2 -0.009289 0.016311 0.000152 0.000000 0.003855 0.000000
# 3 -0.008448 0.000152 0.011091 0.000000 -0.001624 0.000000
# 4 0.000000 0.000000 0.000000 0.083879 0.000000 -0.041317
# 5 -0.004190 0.003855 -0.001624 0.000000 0.031906 0.000000
# 6 0.000000 0.000000 0.000000 -0.041317 0.000000 0.038882
#
#
# Mechanical properties :
#
#
# Convention : Reuss Voigt Hill
#
# Bulk Modulus (GPa) = 46.03770 50.37117 48.20443
# Shear Modulus (GPa) = 19.68728 33.44160 26.56444
#
# Velocity S-wave (km/s) = 2.87269 3.74403 3.33692
# Velocity P-wave (km/s) = 5.50461 6.30908 5.92052
#
# Compressibility (1/GPa) = 0.02172133
#
# Stress axis : x y z
#
# Youngs Moduli (GPa) = 33.90820 61.30977 90.16680
#
# Poissons Ratio (x) = 0.56953 0.76170
# Poissons Ratio (y) = 0.31499 -0.01366
# Poissons Ratio (z) = 0.28645 -0.00929
#
# Static dielectric constant tensor:
#      x y z
#    x 1.923560 0.000000 0.056170 
#    y 0.000000 2.031580 0.000000 
#    z 0.056170 0.000000 1.935540 
# 
# From -- ./inp_files/26666.got.cif
#   From: 2010.05.17/outbox.cif.g08.bks.cpg/sg5_14_cif.got.tgz:26666.got - 2010.06.03 18:56:24.
