data_PCOD9128389
_publ_section_title
;
Structure prediction by ZEFSAII (Michael W. Deem and Ramdas Pophale) SiO2 
 PCOD9128389
Probable space group: C 2
;
_chemical_formula_sum "Si O2"
_cell_formula_units_Z 20
_cell_length_a 17.399292
_cell_length_b 10.171649
_cell_length_c 8.013660
_cell_angle_alpha 90.000000
_cell_angle_beta 143.031331
_cell_angle_gamma 90.000000
_cell_volume 852.906741
_symmetry_space_group_name_H-M "C 2"
_symmetry_group_IT_number 5
_symmetry_cell_setting 'monoclinic'
loop_
_space_group_symop_operation_xyz
x,y,z
-x,y,-z
1/2+x,1/2+y,z
1/2-x,1/2+y,-z
loop_
_atom_site_type_symbol
_atom_site_label
_atom_site_fract_x
_atom_site_fract_y
_atom_site_fract_z
Si Si1 0.520767 0.391670 0.737680
Si Si2 0.264304 0.889653 0.674590
Si Si3 0.409390 0.032725 0.689887
Si Si4 0.850466 0.619235 0.040352
Si Si5 0.310881 0.634941 0.903964
O O1 0.500000 0.392783 0.500000
O O2 0.385958 0.361738 0.592107
O O3 0.617945 0.271844 0.940719
O O4 0.575729 0.530892 0.891743
O O5 0.334490 0.789017 0.921440
O O6 0.349518 0.897387 0.655886
O O7 0.272131 0.035246 0.769488
O O8 0.510705 0.047828 0.717091
O O9 0.281678 0.105431 0.412547
O O10 0.500000 0.081871 0.000000
O O11 0.771741 0.613261 0.073380
#
# Coordination Sequence:
#
# PCOD9128389 Si02
#       5
#     4   4   4   4   4
#     4  12  23  45  76 105 141 186 243 296 349 426
#     4  11  25  47  67 111 147 179 245 295 356 425
#     4  10  24  43  67 101 144 185 227 290 359 415
#     4  11  21  47  78 100 145 190 234 294 356 425
#     4  12  23  45  78 105 139 193 242 293 352 426
#
# _framework density 23.449221000000001
#
# number of rings (size 3 to 8) (size 9 to 14) (size 15 to 20)
#    0.000    0.800    6.000    0.600    0.000    4.000 
#   18.000    1.000    0.000    0.000    0.000    0.000 
#    0.000    0.000    0.000    0.000    0.000    0.000 
#
# Total GULP energy -55777.923212 kJ/mol
# GULP energy per Si atom -5577.792321 kJ/mol
# Density = 2.339585 g / cm^3
# Si number density = 23.449221 Si / 1000 Ang^3
#
#
#
# Elastic Constant Matrix: (Units=GPa)
#
#
# Indices 1 2 3 4 5 6 
#
# 1 91.3838 26.7552 -10.7048 0.0000 14.3106 0.0000
# 2 26.7552 112.2044 29.6689 0.0000 12.4776 0.0000
# 3 -10.7048 29.6689 51.8920 0.0000 0.8366 0.0000
# 4 0.0000 0.0000 0.0000 19.4355 0.0000 -0.1646
# 5 14.3106 12.4776 0.8366 0.0000 27.2611 0.0000
# 6 0.0000 0.0000 0.0000 -0.1646 0.0000 43.1199
#
#
#
# Elastic Compliance Matrix: (Units=1/GPa)
#
#
# Indices 1 2 3 4 5 6 
#
# 1 0.013574 -0.003998 0.005174 0.000000 -0.005454 0.000000
# 2 -0.003998 0.012294 -0.007801 0.000000 -0.003289 0.000000
# 3 0.005174 -0.007801 0.024797 0.000000 0.000094 0.000000
# 4 0.000000 0.000000 0.000000 0.051454 0.000000 0.000196
# 5 -0.005454 -0.003289 0.000094 0.000000 0.041048 0.000000
# 6 0.000000 0.000000 0.000000 0.000196 0.000000 0.023192
#
#
# Mechanical properties :
#
#
# Convention : Reuss Voigt Hill
#
# Bulk Modulus (GPa) = 26.72773 38.54653 32.63713
# Shear Modulus (GPa) = 26.03086 31.94736 28.98911
#
# Velocity S-wave (km/s) = 3.33542 3.69508 3.51985
# Velocity P-wave (km/s) = 5.12409 5.88887 5.51974
#
# Compressibility (1/GPa) = 0.03741433
#
# Stress axis : x y z
#
# Youngs Moduli (GPa) = 73.67214 81.33982 40.32796
#
# Poissons Ratio (x) = 0.32521 -0.20866
# Poissons Ratio (y) = 0.29456 0.31459
# Poissons Ratio (z) = -0.38118 0.63452
#
# Static dielectric constant tensor:
#      x y z
#    x 1.978010 0.000000 -0.000200 
#    y 0.000000 1.942500 0.000000 
#    z -0.000200 0.000000 1.884480 
# 
# From -- ./inp_files/27429.got.cif
#   From: 2010.05.17/outbox.cif.g08.bks.cpg/sg5_14_cif.got.tgz:27429.got - 2010.06.03 18:56:24.
