data_PCOD9128072
_publ_section_title
;
Structure prediction by ZEFSAII (Michael W. Deem and Ramdas Pophale) SiO2 
 PCOD9128072
Probable space group: C 2
;
_chemical_formula_sum "Si O2"
_cell_formula_units_Z 24
_cell_length_a 7.078973
_cell_length_b 8.662828
_cell_length_c 15.490266
_cell_angle_alpha 90.000000
_cell_angle_beta 74.887617
_cell_angle_gamma 90.000000
_cell_volume 917.072041
_symmetry_space_group_name_H-M "C 2"
_symmetry_group_IT_number 5
_symmetry_cell_setting 'monoclinic'
loop_
_space_group_symop_operation_xyz
x,y,z
-x,y,-z
1/2+x,1/2+y,z
1/2-x,1/2+y,-z
loop_
_atom_site_type_symbol
_atom_site_label
_atom_site_fract_x
_atom_site_fract_y
_atom_site_fract_z
Si Si1 0.362252 0.527740 0.162397
Si Si2 0.815879 0.699654 0.257925
Si Si3 0.500000 0.698196 0.000000
Si Si4 0.172055 0.019786 0.411423
Si Si5 0.500000 0.050574 0.500000
Si Si6 0.039240 0.505309 0.904735
Si Si7 0.807848 0.711153 0.677444
O O1 0.350887 0.366789 0.214203
O O2 0.364001 0.652062 0.241271
O O3 0.170979 0.512746 0.120356
O O4 0.530255 0.577059 0.074666
O O5 0.668627 0.678470 0.356233
O O6 0.812138 0.584754 0.177914
O O7 0.010626 0.653787 0.287363
O O8 0.605975 0.833581 0.928656
O O9 0.361909 0.975658 0.445846
O O10 0.000000 0.012345 0.500000
O O11 0.168684 0.891666 0.338018
O O12 0.345176 0.145319 0.577436
O O13 0.000000 0.593274 0.000000
#
# Coordination Sequence:
#
# PCOD9128072 Si02
#       7
#     4   4   2   4   2   4   4
#     4  11  24  41  67  97 134 179 225 288 347 410
#     4  10  24  44  66  97 137 182 229 289 348 413
#     4  10  24  38  64  98 124 176 228 274 342 418
#     4  11  24  48  74 100 141 190 231 288 353 413
#     4  10  24  46  70 106 138 176 240 296 334 422
#     4   9  23  42  63  94 133 178 223 284 341 410
#     4  10  23  46  64  98 141 172 234 291 338 417
#
# _framework density 26.170245999999999
#
# number of rings (size 3 to 8) (size 9 to 14) (size 15 to 20)
#    0.500    1.333    0.833    1.000    5.833    2.667 
#   12.000    0.000    0.000    0.000    0.000    0.000 
#    0.000    0.000    0.000    0.000    0.000    0.000 
#
# Total GULP energy -66811.083384 kJ/mol
# GULP energy per Si atom -5567.590282 kJ/mol
# Density = 2.611068 g / cm^3
# Si number density = 26.170246 Si / 1000 Ang^3
#
#
#
# Elastic Constant Matrix: (Units=GPa)
#
#
# Indices 1 2 3 4 5 6 
#
# 1 74.9152 -2.6536 39.0069 0.0000 9.2761 0.0000
# 2 -2.6536 89.5269 91.1278 0.0000 -21.2106 0.0000
# 3 39.0069 91.1278 244.8604 0.0000 -14.0880 0.0000
# 4 0.0000 0.0000 0.0000 58.0511 0.0000 3.0156
# 5 9.2761 -21.2106 -14.0880 0.0000 48.0074 0.0000
# 6 0.0000 0.0000 0.0000 3.0156 0.0000 12.7464
#
#
#
# Elastic Compliance Matrix: (Units=1/GPa)
#
#
# Indices 1 2 3 4 5 6 
#
# 1 0.016031 0.004238 -0.004273 0.000000 -0.002479 0.000000
# 2 0.004238 0.021036 -0.008154 0.000000 0.006083 0.000000
# 3 -0.004273 -0.008154 0.007771 0.000000 -0.000497 0.000000
# 4 0.000000 0.000000 0.000000 0.017441 0.000000 -0.004126
# 5 -0.002479 0.006083 -0.000497 0.000000 0.023851 0.000000
# 6 0.000000 0.000000 0.000000 -0.004126 0.000000 0.079430
#
#
# Mechanical properties :
#
#
# Convention : Reuss Voigt Hill
#
# Bulk Modulus (GPa) = 35.13943 73.80719 54.47331
# Shear Modulus (GPa) = 26.11993 42.54907 34.33450
#
# Velocity S-wave (km/s) = 3.16266 4.03657 3.62604
# Velocity P-wave (km/s) = 5.17619 7.07030 6.19605
#
# Compressibility (1/GPa) = 0.02845806
#
# Stress axis : x y z
#
# Youngs Moduli (GPa) = 62.38060 47.53666 128.68698
#
# Poissons Ratio (x) = -0.20144 0.54994
# Poissons Ratio (y) = -0.26435 1.04932
# Poissons Ratio (z) = 0.26658 0.38762
#
# Static dielectric constant tensor:
#      x y z
#    x 2.292320 0.000000 -0.164140 
#    y 0.000000 2.126440 0.000000 
#    z -0.164140 0.000000 2.088300 
# 
# From -- ./inp_files/49894.got.cif
#   From: 2010.05.17/outbox.cif.g08.bks.cpg/sg5_25_cif.got.tgz:49894.got - 2010.06.03 18:56:24.
