data_PCOD9128080
_publ_section_title
;
Structure prediction by ZEFSAII (Michael W. Deem and Ramdas Pophale) SiO2 
 PCOD9128080
Probable space group: C 2
;
_chemical_formula_sum "Si O2"
_cell_formula_units_Z 30
_cell_length_a 12.506430
_cell_length_b 8.031760
_cell_length_c 13.617490
_cell_angle_alpha 90.000000
_cell_angle_beta 75.509763
_cell_angle_gamma 90.000000
_cell_volume 1324.347229
_symmetry_space_group_name_H-M "C 2"
_symmetry_group_IT_number 5
_symmetry_cell_setting 'monoclinic'
loop_
_space_group_symop_operation_xyz
x,y,z
-x,y,-z
1/2+x,1/2+y,z
1/2-x,1/2+y,-z
loop_
_atom_site_type_symbol
_atom_site_label
_atom_site_fract_x
_atom_site_fract_y
_atom_site_fract_z
Si Si1 0.237487 0.477160 0.616473
Si Si2 0.147328 0.421040 0.263585
Si Si3 0.460394 0.592381 0.621690
Si Si4 0.559980 0.066779 0.792638
Si Si5 0.304865 0.592189 0.384555
Si Si6 0.722853 0.465437 0.950013
Si Si7 0.000000 0.777680 0.000000
Si Si8 0.623353 0.817738 0.931387
O O1 0.355961 0.470649 0.643066
O O2 0.157260 0.603752 0.693219
O O3 0.259211 0.541923 0.501892
O O4 0.190768 0.291973 0.619256
O O5 0.086605 0.264674 0.325892
O O6 0.224808 0.515436 0.322290
O O7 0.221866 0.368554 0.153535
O O8 0.052382 0.538541 0.240541
O O9 0.500000 0.616755 0.500000
O O10 0.568328 0.532225 0.654633
O O11 0.603571 0.892737 0.829417
O O12 0.534790 0.175911 0.894502
O O13 0.695893 0.652047 0.921826
O O14 0.606139 0.386464 0.004367
O O15 0.810973 0.451459 0.017127
O O16 0.500000 0.786823 0.000000
#
# Coordination Sequence:
#
# PCOD9128080 Si02
#       8
#     4   4   4   4   4   4   2   4
#     4  11  24  46  74 100 138 185 227 290 343 410
#     4  12  24  43  72 100 139 186 226 284 349 413
#     4  10  23  46  67  97 140 181 226 284 341 407
#     4  12  24  47  71 101 144 184 235 288 348 411
#     4  11  24  47  69 103 143 176 234 282 347 412
#     4  12  26  45  75 102 139 188 233 291 356 407
#     4  12  26  46  66 110 142 180 242 292 344 422
#     4  12  24  49  71  98 140 184 232 293 345 414
#
# _framework density 22.652667999999998
#
# number of rings (size 3 to 8) (size 9 to 14) (size 15 to 20)
#    0.000    0.533    4.000    4.800    0.000    0.000 
#   14.400    0.000    0.000    0.000    0.000    0.000 
#    0.000    0.000    0.000    0.000    0.000    0.000 
#
# Total GULP energy -83956.623928 kJ/mol
# GULP energy per Si atom -5597.108262 kJ/mol
# Density = 2.260111 g / cm^3
# Si number density = 22.652668 Si / 1000 Ang^3
#
#
#
# Elastic Constant Matrix: (Units=GPa)
#
#
# Indices 1 2 3 4 5 6 
#
# 1 191.0225 19.1969 52.7936 0.0000 11.4424 0.0000
# 2 19.1969 31.8451 -0.8129 0.0000 8.5517 0.0000
# 3 52.7936 -0.8129 74.0705 0.0000 -5.9895 0.0000
# 4 0.0000 0.0000 0.0000 14.7152 0.0000 -3.8571
# 5 11.4424 8.5517 -5.9895 0.0000 41.7404 0.0000
# 6 0.0000 0.0000 0.0000 -3.8571 0.0000 38.2381
#
#
#
# Elastic Compliance Matrix: (Units=1/GPa)
#
#
# Indices 1 2 3 4 5 6 
#
# 1 0.007230 -0.003975 -0.005353 0.000000 -0.001936 0.000000
# 2 -0.003975 0.035419 0.002755 0.000000 -0.005771 0.000000
# 3 -0.005353 0.002755 0.017624 0.000000 0.003432 0.000000
# 4 0.000000 0.000000 0.000000 0.069803 0.000000 0.007041
# 5 -0.001936 -0.005771 0.003432 0.000000 0.026163 0.000000
# 6 0.000000 0.000000 0.000000 0.007041 0.000000 0.026862
#
#
# Mechanical properties :
#
#
# Convention : Reuss Voigt Hill
#
# Bulk Modulus (GPa) = 21.21964 48.81037 35.01500
# Shear Modulus (GPa) = 23.58985 33.98941 28.78963
#
# Velocity S-wave (km/s) = 3.23053 3.87778 3.56886
# Velocity P-wave (km/s) = 4.82730 6.45319 5.69853
#
# Compressibility (1/GPa) = 0.04712615
#
# Stress axis : x y z
#
# Youngs Moduli (GPa) = 138.31397 28.23377 56.74098
#
# Poissons Ratio (x) = 0.11223 0.30375
# Poissons Ratio (y) = 0.54982 -0.15634
# Poissons Ratio (z) = 0.74043 -0.07779
#
# Static dielectric constant tensor:
#      x y z
#    x 1.837830 0.000000 -0.022370 
#    y 0.000000 1.847390 0.000000 
#    z -0.022370 0.000000 1.868820 
# 
# From -- ./inp_files/52431.got.cif
#   From: 2010.05.17/outbox.cif.g08.bks.cpg/sg5_27_cif.got.tgz:52431.got - 2010.06.03 18:56:24.
