data_PCOD9128717
_publ_section_title
;
Structure prediction by ZEFSAII (Michael W. Deem and Ramdas Pophale) SiO2 
 PCOD9128717
Probable space group: C 2
;
_chemical_formula_sum "Si O2"
_cell_formula_units_Z 18
_cell_length_a 15.782570
_cell_length_b 6.033118
_cell_length_c 24.102548
_cell_angle_alpha 90.000000
_cell_angle_beta 163.091116
_cell_angle_gamma 90.000000
_cell_volume 667.501718
_symmetry_space_group_name_H-M "C 2"
_symmetry_group_IT_number 5
_symmetry_cell_setting 'monoclinic'
loop_
_space_group_symop_operation_xyz
x,y,z
-x,y,-z
1/2+x,1/2+y,z
1/2-x,1/2+y,-z
loop_
_atom_site_type_symbol
_atom_site_label
_atom_site_fract_x
_atom_site_fract_y
_atom_site_fract_z
Si Si1 0.431703 0.311440 0.750260
Si Si2 0.025933 0.647804 0.424165
Si Si3 0.892520 0.297557 0.258579
Si Si4 0.547932 0.128272 0.945156
Si Si5 0.000000 0.946831 0.500000
O O1 0.214823 0.486657 0.583959
O O2 0.470179 0.258536 0.840121
O O3 0.246198 0.087532 0.622450
O O4 0.746945 0.411965 0.932202
O O5 0.268282 0.766847 0.538633
O O6 0.843148 0.508541 0.266198
O O7 0.857711 0.798687 0.362839
O O8 0.741007 0.099924 0.198600
O O9 0.740341 0.293305 0.104033
#
# Coordination Sequence:
#
# PCOD9128717 Si02
#       5
#     4   4   4   4   2
#     4  11  26  47  79 111 152 206 255 318 380 460
#     4  11  26  47  82 115 150 205 260 319 385 458
#     4  10  24  48  74 111 155 200 255 313 389 450
#     4  10  24  48  74 110 155 201 255 311 391 449
#     4  12  26  48  78 116 156 204 264 306 382 488
#
# _framework density 26.966222999999999
#
# number of rings (size 3 to 8) (size 9 to 14) (size 15 to 20)
#    0.000    1.333    0.000    3.333   12.444    0.000 
#    0.000    0.000    4.889    0.000    0.000    0.000 
#    0.000    0.000    0.000    0.000    0.000    0.000 
#
# Total GULP energy -50255.363713 kJ/mol
# GULP energy per Si atom -5583.929301 kJ/mol
# Density = 2.690485 g / cm^3
# Si number density = 26.966223 Si / 1000 Ang^3
#
#
#
# Elastic Constant Matrix: (Units=GPa)
#
#
# Indices 1 2 3 4 5 6 
#
# 1 94.5717 55.8311 23.3437 0.0884 2.6965 -0.0090
# 2 55.8311 89.2515 27.0787 0.0744 6.9434 0.0246
# 3 23.3437 27.0787 111.8668 0.1590 -7.0533 0.0786
# 4 0.0884 0.0744 0.1590 37.4454 0.0452 -2.9499
# 5 2.6965 6.9434 -7.0533 0.0452 64.1099 -0.0181
# 6 -0.0090 0.0246 0.0786 -2.9499 -0.0181 62.2640
#
#
#
# Elastic Compliance Matrix: (Units=1/GPa)
#
#
# Indices 1 2 3 4 5 6 
#
# 1 0.016883 -0.010275 -0.001017 -0.000015 0.000291 0.000007
# 2 -0.010275 0.018520 -0.002455 0.000000 -0.001844 -0.000006
# 3 -0.001017 -0.002455 0.009834 -0.000037 0.001391 -0.000013
# 4 -0.000015 0.000000 -0.000037 0.026806 -0.000022 0.001270
# 5 0.000291 -0.001844 0.001391 -0.000022 0.015939 0.000003
# 6 0.000007 -0.000006 -0.000013 0.001270 0.000003 0.016121
#
#
# Mechanical properties :
#
#
# Convention : Reuss Voigt Hill
#
# Bulk Modulus (GPa) = 56.36554 56.46634 56.41594
# Shear Modulus (GPa) = 36.36090 45.39295 40.87693
#
# Velocity S-wave (km/s) = 3.67602 4.10729 3.89762
# Velocity P-wave (km/s) = 6.24221 6.59380 6.42041
#
# Compressibility (1/GPa) = 0.01774134
#
# Stress axis : x y z
#
# Youngs Moduli (GPa) = 59.23228 53.99562 101.69256
#
# Poissons Ratio (x) = 0.55480 0.10347
# Poissons Ratio (y) = 0.60860 0.24967
# Poissons Ratio (z) = 0.06027 0.13257
#
# Static dielectric constant tensor:
#      x y z
#    x 2.073200 -0.000010 0.015070 
#    y -0.000010 2.214660 -0.000010 
#    z 0.015070 -0.000010 2.120000 
# 
# From -- ./inp_files/70761.got.cif
#   From: 2010.05.17/outbox.cif.g08.bks.cpg/sg5_36_cif.got.tgz:70761.got - 2010.06.03 18:56:24.
