data_PCOD9128975
_publ_section_title
;
Structure prediction by ZEFSAII (Michael W. Deem and Ramdas Pophale) SiO2 
 PCOD9128975
Probable space group: C 2
;
_chemical_formula_sum "Si O2"
_cell_formula_units_Z 18
_cell_length_a 7.144054
_cell_length_b 7.451859
_cell_length_c 17.607519
_cell_angle_alpha 90.000000
_cell_angle_beta 123.000425
_cell_angle_gamma 90.000000
_cell_volume 786.134459
_symmetry_space_group_name_H-M "C 2"
_symmetry_group_IT_number 5
_symmetry_cell_setting 'monoclinic'
loop_
_space_group_symop_operation_xyz
x,y,z
-x,y,-z
1/2+x,1/2+y,z
1/2-x,1/2+y,-z
loop_
_atom_site_type_symbol
_atom_site_label
_atom_site_fract_x
_atom_site_fract_y
_atom_site_fract_z
Si Si1 0.830656 0.628450 0.359856
Si Si2 0.500000 0.509382 0.000000
Si Si3 0.976394 0.250077 0.583174
Si Si4 0.026043 0.359473 0.920689
Si Si5 0.131241 0.980383 0.727379
O O1 0.992042 0.460228 0.396438
O O2 0.752725 0.689257 0.427162
O O3 0.590627 0.547542 0.277900
O O4 0.909259 0.797758 0.328997
O O5 0.276087 0.396477 0.950144
O O6 0.491100 0.647754 0.927155
O O7 0.158931 0.137401 0.671214
O O8 0.000000 0.211782 0.500000
O O9 0.843786 0.445880 0.826001
O O10 0.000000 0.438042 0.000000
#
# Coordination Sequence:
#
# PCOD9128975 Si02
#       5
#     4   2   4   4   4
#     4  10  26  39  69  93 133 172 224 272 328 393
#     4  10  26  38  72  94 140 170 232 266 346 384
#     4  10  26  41  69  97 136 173 222 272 332 393
#     4  10  26  44  68 101 135 181 220 282 331 408
#     4  10  26  44  69  98 135 175 226 268 339 392
#
# _framework density 22.896847000000001
#
# number of rings (size 3 to 8) (size 9 to 14) (size 15 to 20)
#    2.000    0.000    0.000    0.000   14.000    0.889 
#    0.000    0.000    0.000    0.000    0.000    0.000 
#    0.000    0.000    0.000    0.000    0.000    0.000 
#
# Total GULP energy -50258.348255 kJ/mol
# GULP energy per Si atom -5584.260917 kJ/mol
# Density = 2.284473 g / cm^3
# Si number density = 22.896847 Si / 1000 Ang^3
#
#
#
# Elastic Constant Matrix: (Units=GPa)
#
#
# Indices 1 2 3 4 5 6 
#
# 1 86.7133 36.8202 -0.2927 0.0000 4.7211 0.0000
# 2 36.8202 124.6417 23.4259 0.0000 -20.2627 0.0000
# 3 -0.2927 23.4259 89.3822 0.0000 -15.5734 0.0000
# 4 0.0000 0.0000 0.0000 6.5061 0.0000 9.8251
# 5 4.7211 -20.2627 -15.5734 0.0000 16.8617 0.0000
# 6 0.0000 0.0000 0.0000 9.8251 0.0000 34.0856
#
#
#
# Elastic Compliance Matrix: (Units=1/GPa)
#
#
# Indices 1 2 3 4 5 6 
#
# 1 0.014852 -0.006274 -0.000411 0.000000 -0.012077 0.000000
# 2 -0.006274 0.012650 -0.000454 0.000000 0.016539 0.000000
# 3 -0.000411 -0.000454 0.013384 0.000000 0.011931 0.000000
# 4 0.000000 0.000000 0.000000 0.272179 0.000000 -0.078455
# 5 -0.012077 0.016539 0.011931 0.000000 0.093581 0.000000
# 6 0.000000 0.000000 0.000000 -0.078455 0.000000 0.051953
#
#
# Mechanical properties :
#
#
# Convention : Reuss Voigt Hill
#
# Bulk Modulus (GPa) = 37.58236 46.73819 42.16028
# Shear Modulus (GPa) = 10.37887 27.54293 18.96090
#
# Velocity S-wave (km/s) = 2.13137 3.47207 2.88080
# Velocity P-wave (km/s) = 4.74409 6.04405 5.43309
#
# Compressibility (1/GPa) = 0.02660823
#
# Stress axis : x y z
#
# Youngs Moduli (GPa) = 67.32968 79.04936 74.71367
#
# Poissons Ratio (x) = 0.49592 0.03074
# Poissons Ratio (y) = 0.42240 0.03395
# Poissons Ratio (z) = 0.02770 0.03592
#
# Static dielectric constant tensor:
#      x y z
#    x 1.852460 0.000000 -0.005590 
#    y 0.000000 1.812860 0.000000 
#    z -0.005590 0.000000 1.878930 
# 
# From -- ./inp_files/59181.got.cif
#   From: 2010.05.17/outbox.cif.g08.bks.cpg/sg5_30_cif.got.tgz:59181.got - 2010.06.03 18:56:24.
