data_PCOD9129428
_publ_section_title
;
Structure prediction by ZEFSAII (Michael W. Deem and Ramdas Pophale) SiO2 
 PCOD9129428
Probable space group: C 2
;
_chemical_formula_sum "Si O2"
_cell_formula_units_Z 32
_cell_length_a 15.575572
_cell_length_b 14.517207
_cell_length_c 7.145525
_cell_angle_alpha 90.000000
_cell_angle_beta 125.643143
_cell_angle_gamma 90.000000
_cell_volume 1313.019804
_symmetry_space_group_name_H-M "C 2"
_symmetry_group_IT_number 5
_symmetry_cell_setting 'monoclinic'
loop_
_space_group_symop_operation_xyz
x,y,z
-x,y,-z
1/2+x,1/2+y,z
1/2-x,1/2+y,-z
loop_
_atom_site_type_symbol
_atom_site_label
_atom_site_fract_x
_atom_site_fract_y
_atom_site_fract_z
Si Si1 0.019254 0.910750 0.247701
Si Si2 0.058579 0.241722 0.240739
Si Si3 0.097206 0.742305 0.974631
Si Si4 0.631751 0.581486 0.568355
Si Si5 0.186111 0.522823 0.481593
Si Si6 0.797850 0.572194 0.077627
Si Si7 0.474562 0.939183 0.246659
Si Si8 0.231744 0.820964 0.452139
O O1 0.123267 0.847544 0.411875
O O2 0.926667 0.837224 0.168354
O O3 0.050607 0.002389 0.396257
O O4 0.000000 0.931668 0.000000
O O5 0.078875 0.177129 0.442540
O O6 0.994879 0.335592 0.203641
O O7 0.174852 0.272752 0.320012
O O8 0.000000 0.189908 0.000000
O O9 0.126662 0.655808 0.889043
O O10 0.198241 0.761718 0.231899
O O11 0.000000 0.728070 0.000000
O O12 0.736812 0.565490 0.573471
O O13 0.682028 0.577404 0.838465
O O14 0.201991 0.572199 0.698656
O O15 0.063446 0.508051 0.273428
O O16 0.223675 0.418120 0.560854
O O17 0.857778 0.480072 0.079763
O O18 0.500000 0.940597 0.500000
#
# Coordination Sequence:
#
# PCOD9129428 Si02
#       8
#     4   4   4   4   4   4   4   4
#     4   8  17  34  61  85 118 162 197 247 308 353
#     4  11  22  35  59  94 125 161 206 246 312 367
#     4   9  18  34  65  89 116 159 203 246 310 354
#     4  11  22  38  64  91 122 159 207 249 300 373
#     4   9  21  39  61  86 128 157 205 252 307 359
#     4  11  22  37  66  92 115 164 208 252 308 354
#     4   9  22  41  61  89 124 161 207 261 305 359
#     4   8  16  36  58  85 120 162 193 251 302 357
#
# _framework density 24.371300999999999
#
# number of rings (size 3 to 8) (size 9 to 14) (size 15 to 20)
#    0.000    2.750    1.250    0.375    7.000    0.000 
#    2.250    0.000    8.250    0.000    0.000    0.000 
#    0.000    0.000    0.000    0.000    0.000    0.000 
#
# Total GULP energy -89397.946011 kJ/mol
# GULP energy per Si atom -5587.371626 kJ/mol
# Density = 2.431583 g / cm^3
# Si number density = 24.371301 Si / 1000 Ang^3
#
#
#
# Elastic Constant Matrix: (Units=GPa)
#
#
# Indices 1 2 3 4 5 6 
#
# 1 55.3732 0.2549 21.5744 0.0000 -0.0581 0.0000
# 2 0.2549 102.4443 35.5065 0.0000 7.1077 0.0000
# 3 21.5744 35.5065 129.2830 0.0000 18.9688 0.0000
# 4 0.0000 0.0000 0.0000 33.2082 0.0000 2.0692
# 5 -0.0581 7.1077 18.9688 0.0000 31.8798 0.0000
# 6 0.0000 0.0000 0.0000 2.0692 0.0000 -11.9526
#
#
#
# Elastic Compliance Matrix: (Units=1/GPa)
#
#
# Indices 1 2 3 4 5 6 
#
# 1 0.019572 0.001154 -0.003890 0.000000 0.002093 0.000000
# 2 0.001154 0.010871 -0.003093 0.000000 -0.000581 0.000000
# 3 -0.003890 -0.003093 0.010007 0.000000 -0.005272 0.000000
# 4 0.000000 0.000000 0.000000 0.029792 0.000000 0.005157
# 5 0.002093 -0.000581 -0.005272 0.000000 0.034638 0.000000
# 6 0.000000 0.000000 0.000000 0.005157 0.000000 -0.082771
#
#
# Mechanical properties :
#
#
# Convention : Reuss Voigt Hill
#
# Bulk Modulus (GPa) = 34.73152 44.64136 39.68644
# Shear Modulus (GPa) = 115.30457 25.94473 70.62465
#
# Velocity S-wave (km/s) = 6.88581 3.26630 5.38902
# Velocity P-wave (km/s) = 8.80347 5.70806 7.41899
#
# Compressibility (1/GPa) = 0.02879229
#
# Stress axis : x y z
#
# Youngs Moduli (GPa) = 51.09370 91.98909 99.92883
#
# Poissons Ratio (x) = -0.10620 0.38875
# Poissons Ratio (y) = -0.05898 0.30908
# Poissons Ratio (z) = 0.19877 0.28452
#
# Static dielectric constant tensor:
#      x y z
#    x 2.023900 0.000000 0.017520 
#    y 0.000000 1.942780 0.000000 
#    z 0.017520 0.000000 1.926510 
# 
# From -- ./inp_files/29868.got.cif
#   From: 2010.05.17/outbox.cif.g08.bks.cpg/sg5_15_cif.got.tgz:29868.got - 2010.06.03 18:56:24.
