data_PCOD9129430
_publ_section_title
;
Structure prediction by ZEFSAII (Michael W. Deem and Ramdas Pophale) SiO2 
 PCOD9129430
Probable space group: C 2
;
_chemical_formula_sum "Si O2"
_cell_formula_units_Z 32
_cell_length_a 12.835002
_cell_length_b 18.355072
_cell_length_c 15.287748
_cell_angle_alpha 90.000000
_cell_angle_beta 152.879997
_cell_angle_gamma 90.000000
_cell_volume 1641.810045
_symmetry_space_group_name_H-M "C 2"
_symmetry_group_IT_number 5
_symmetry_cell_setting 'monoclinic'
loop_
_space_group_symop_operation_xyz
x,y,z
-x,y,-z
1/2+x,1/2+y,z
1/2-x,1/2+y,-z
loop_
_atom_site_type_symbol
_atom_site_label
_atom_site_fract_x
_atom_site_fract_y
_atom_site_fract_z
Si Si1 0.159565 0.392630 0.728401
Si Si2 0.597067 0.561479 0.350086
Si Si3 0.201257 0.050980 0.221482
Si Si4 0.821666 0.768729 0.444914
Si Si5 0.640598 0.394244 0.402661
Si Si6 0.163585 0.191074 0.906911
Si Si7 0.538622 0.328557 0.901874
Si Si8 0.029066 0.644673 0.703974
O O1 0.192354 0.471482 0.710894
O O2 0.290548 0.335391 0.763214
O O3 0.894858 0.386476 0.551845
O O4 0.302056 0.384561 0.924793
O O5 0.642787 0.560619 0.278938
O O6 0.560714 0.477992 0.349569
O O7 0.409813 0.626153 0.213972
O O8 0.823709 0.588879 0.569569
O O9 0.362332 0.113656 0.304070
O O10 0.000000 0.051730 0.000000
O O11 0.836763 0.851381 0.489675
O O12 0.566834 0.736490 0.238768
O O13 0.912615 0.720726 0.593948
O O14 0.000000 0.759584 0.500000
O O15 0.480437 0.354760 0.211784
O O16 0.341312 0.250293 0.002350
O O17 0.285490 0.155207 0.082247
#
# Coordination Sequence:
#
# PCOD9129430 Si02
#       8
#     4   4   4   4   4   4   4   4
#     4  11  22  37  62  95 130 155 200 260 326 372
#     4  11  23  35  60  92 127 160 202 254 322 378
#     4  12  19  33  57  93 129 153 190 254 330 386
#     4  11  25  41  60  87 120 166 218 260 310 372
#     4  12  22  40  62  93 126 162 211 266 314 376
#     4  11  23  42  58  90 131 165 204 250 316 387
#     4  11  22  38  60  93 127 165 202 244 316 391
#     4  11  22  36  57  87 126 161 194 252 322 384
#
# _framework density 19.490684000000002
#
# number of rings (size 3 to 8) (size 9 to 14) (size 15 to 20)
#    0.000    0.750    7.500    2.250    0.000    0.000 
#    0.000    0.000    0.000    3.000    0.000    0.000 
#    0.000    0.000    0.000    0.000    0.000    0.000 
#
# Total GULP energy -89254.544200 kJ/mol
# GULP energy per Si atom -5578.409013 kJ/mol
# Density = 1.944632 g / cm^3
# Si number density = 19.490684 Si / 1000 Ang^3
#
#
#
# Elastic Constant Matrix: (Units=GPa)
#
#
# Indices 1 2 3 4 5 6 
#
# 1 26.3358 25.7863 13.6742 0.0031 3.0145 -0.0032
# 2 25.7863 135.2358 37.4276 0.0038 5.3958 0.0020
# 3 13.6742 37.4276 106.5023 0.0207 -11.5461 -0.0029
# 4 0.0031 0.0038 0.0207 27.4738 0.0044 3.6641
# 5 3.0145 5.3958 -11.5461 0.0044 24.7023 -0.0005
# 6 -0.0032 0.0020 -0.0029 3.6641 -0.0005 33.7962
#
#
#
# Elastic Compliance Matrix: (Units=1/GPa)
#
#
# Indices 1 2 3 4 5 6 
#
# 1 0.048517 -0.007863 -0.004131 -0.000001 -0.006134 0.000005
# 2 -0.007863 0.009729 -0.002671 0.000002 -0.002414 -0.000002
# 3 -0.004131 -0.002671 0.011562 -0.000009 0.006492 0.000002
# 4 -0.000001 0.000002 -0.000009 0.036932 -0.000011 -0.004004
# 5 -0.006134 -0.002414 0.006492 -0.000011 0.044792 0.000002
# 6 0.000005 -0.000002 0.000002 -0.004004 0.000002 0.030023
#
#
# Mechanical properties :
#
#
# Convention : Reuss Voigt Hill
#
# Bulk Modulus (GPa) = 24.70460 46.87223 35.78841
# Shear Modulus (GPa) = 22.28353 29.94017 26.11185
#
# Velocity S-wave (km/s) = 3.38493 3.92360 3.66417
# Velocity P-wave (km/s) = 5.28957 6.68034 6.02522
#
# Compressibility (1/GPa) = 0.04047830
#
# Stress axis : x y z
#
# Youngs Moduli (GPa) = 20.61121 102.78086 86.48683
#
# Poissons Ratio (x) = 0.80817 0.35728
# Poissons Ratio (y) = 0.16207 0.23104
# Poissons Ratio (z) = 0.08515 0.27456
#
# Static dielectric constant tensor:
#      x y z
#    x 1.692670 0.000010 0.013190 
#    y 0.000010 1.717520 -0.000010 
#    z 0.013190 -0.000010 1.736370 
# 
# From -- ./inp_files/53475.got.cif
#   From: 2010.05.17/outbox.cif.g08.bks.cpg/sg5_27_cif.got.tgz:53475.got - 2010.06.03 18:56:24.
