data_PCOD9129838
_publ_section_title
;
Structure prediction by ZEFSAII (Michael W. Deem and Ramdas Pophale) SiO2 
 PCOD9129838
Probable space group: C 2
;
_chemical_formula_sum "Si O2"
_cell_formula_units_Z 28
_cell_length_a 21.123810
_cell_length_b 5.754519
_cell_length_c 19.027212
_cell_angle_alpha 90.000000
_cell_angle_beta 30.890552
_cell_angle_gamma 90.000000
_cell_volume 1187.441141
_symmetry_space_group_name_H-M "C 2"
_symmetry_group_IT_number 5
_symmetry_cell_setting 'monoclinic'
loop_
_space_group_symop_operation_xyz
x,y,z
-x,y,-z
1/2+x,1/2+y,z
1/2-x,1/2+y,-z
loop_
_atom_site_type_symbol
_atom_site_label
_atom_site_fract_x
_atom_site_fract_y
_atom_site_fract_z
Si Si1 0.894319 0.918000 0.713000
Si Si2 0.287166 0.734980 0.431901
Si Si3 0.810821 0.684092 0.155108
Si Si4 0.942576 0.226187 0.793807
Si Si5 0.221684 0.044195 0.716523
Si Si6 0.000000 0.616315 0.500000
Si Si7 0.729072 0.531800 0.934520
Si Si8 0.000000 0.336045 0.000000
O O1 0.791323 0.771790 0.852218
O O2 0.986071 0.752038 0.586156
O O3 0.818786 0.052455 0.725467
O O4 0.957036 0.091086 0.706797
O O5 0.278984 0.481446 0.482227
O O6 0.428090 0.819372 0.305267
O O7 0.261192 0.644145 0.377565
O O8 0.802843 0.884881 0.104213
O O9 0.827766 0.786049 0.217043
O O10 0.918933 0.509924 0.030070
O O11 0.834408 0.406546 0.879742
O O12 0.890098 0.062876 0.904690
O O13 0.357943 0.026636 0.624377
O O14 0.109021 0.194482 0.857878
#
# Coordination Sequence:
#
# PCOD9129838 Si02
#       8
#     4   4   4   4   4   2   4   2
#     4  11  24  46  71 111 148 193 257 322 392 475
#     4  12  33  54  77 114 165 224 267 323 402 496
#     4  11  25  43  75 111 152 198 257 328 410 463
#     4  11  26  43  80 103 158 198 266 322 403 470
#     4  12  29  49  80 112 158 204 266 335 402 481
#     4  12  24  48  76 104 154 194 256 316 390 474
#     4  11  23  45  71 120 141 199 257 333 394 474
#     4  12  26  48  70 120 152 202 258 336 408 472
#
# _framework density 23.580114999999999
#
# number of rings (size 3 to 8) (size 9 to 14) (size 15 to 20)
#    0.000    0.571    4.286    1.286   12.000    1.714 
#    0.000    0.000    0.000    0.000    0.000    0.000 
#    0.000    0.000    0.000    0.000    0.000    0.000 
#
# Total GULP energy -78056.726687 kJ/mol
# GULP energy per Si atom -5575.480478 kJ/mol
# Density = 2.352645 g / cm^3
# Si number density = 23.580115 Si / 1000 Ang^3
#
#
#
# Elastic Constant Matrix: (Units=GPa)
#
#
# Indices 1 2 3 4 5 6 
#
# 1 53.2477 11.5715 36.1089 0.0160 -11.4931 -0.0090
# 2 11.5715 59.7891 16.2990 -0.0145 3.3659 -0.0025
# 3 36.1089 16.2990 101.1967 -0.0158 -11.8846 0.0024
# 4 0.0160 -0.0145 -0.0158 -72.5560 0.0201 18.9926
# 5 -11.4931 3.3659 -11.8846 0.0201 35.1862 -0.0033
# 6 -0.0090 -0.0025 0.0024 18.9926 -0.0033 -2.6699
#
#
#
# Elastic Compliance Matrix: (Units=1/GPa)
#
#
# Indices 1 2 3 4 5 6 
#
# 1 0.026340 -0.003221 -0.008157 0.000019 0.006157 0.000035
# 2 -0.003221 0.018144 -0.002187 0.000007 -0.003526 0.000044
# 3 -0.008157 -0.002187 0.013387 -0.000008 0.002067 -0.000015
# 4 0.000019 0.000007 -0.000008 0.015987 0.000005 0.113728
# 5 0.006157 -0.003526 0.002067 0.000005 0.031467 -0.000021
# 6 0.000035 0.000044 -0.000015 0.113728 -0.000021 0.434468
#
#
# Mechanical properties :
#
#
# Convention : Reuss Voigt Hill
#
# Bulk Modulus (GPa) = 32.52944 38.02140 35.27542
# Shear Modulus (GPa) = 8.66295 2.00900 5.33598
#
# Velocity S-wave (km/s) = 1.91881 0.92403 1.50593
# Velocity P-wave (km/s) = 4.32832 4.15906 4.24453
#
# Compressibility (1/GPa) = 0.03074139
#
# Stress axis : x y z
#
# Youngs Moduli (GPa) = 37.96443 55.11595 74.69783
#
# Poissons Ratio (x) = 0.17752 0.60931
# Poissons Ratio (y) = 0.12228 0.16337
# Poissons Ratio (z) = 0.30967 0.12055
#
# Static dielectric constant tensor:
#      x y z
#    x 1.941200 -0.000010 0.005030 
#    y -0.000010 1.979010 0.000050 
#    z 0.005030 0.000050 2.264030 
# 
# From -- ./inp_files/45447.got.cif
#   From: 2010.05.17/outbox.cif.g08.bks.cpg/sg5_23_cif.got.tgz:45447.got - 2010.06.03 18:56:24.
