data_PCOD9129070
_publ_section_title
;
Structure prediction by ZEFSAII (Michael W. Deem and Ramdas Pophale) SiO2 
 PCOD9129070
Probable space group: C 2
;
_chemical_formula_sum "Si O2"
_cell_formula_units_Z 24
_cell_length_a 12.224493
_cell_length_b 5.103687
_cell_length_c 18.866797
_cell_angle_alpha 90.000000
_cell_angle_beta 46.792078
_cell_angle_gamma 90.000000
_cell_volume 857.956969
_symmetry_space_group_name_H-M "C 2"
_symmetry_group_IT_number 5
_symmetry_cell_setting 'monoclinic'
loop_
_space_group_symop_operation_xyz
x,y,z
-x,y,-z
1/2+x,1/2+y,z
1/2-x,1/2+y,-z
loop_
_atom_site_type_symbol
_atom_site_label
_atom_site_fract_x
_atom_site_fract_y
_atom_site_fract_z
Si Si1 0.775450 0.198030 0.453538
Si Si2 0.774711 0.501881 0.720725
Si Si3 0.619007 0.969428 0.801576
Si Si4 0.315312 0.182125 0.839581
Si Si5 0.500000 0.831387 0.000000
Si Si6 0.000000 0.678982 0.500000
Si Si7 0.538683 0.721242 0.229316
O O1 0.778920 0.400178 0.516193
O O2 0.639053 0.336961 0.471314
O O3 0.930687 0.191622 0.345015
O O4 0.704494 0.216508 0.732669
O O5 0.775770 0.794082 0.770749
O O6 0.912975 0.545039 0.604871
O O7 0.618931 0.679287 0.758950
O O8 0.535147 0.994502 0.914172
O O9 0.453863 0.006433 0.820276
O O10 0.147933 0.156121 0.946495
O O11 0.370701 0.472943 0.838262
O O12 0.327749 0.900087 0.781626
#
# Coordination Sequence:
#
# PCOD9129070 Si02
#       7
#     4   4   4   4   2   2   4
#     4  12  28  46  72 113 156 203 264 313 376 465
#     4  11  24  44  69 107 144 194 248 307 370 460
#     4  11  25  45  71 102 149 183 249 310 373 451
#     4  11  25  45  74 103 145 190 246 318 384 453
#     4  10  26  48  74 106 136 194 254 310 386 468
#     4  12  26  46  80 106 156 214 256 310 392 450
#     4  12  24  46  69 104 152 190 242 321 379 447
#
# _framework density 27.973431999999999
#
# number of rings (size 3 to 8) (size 9 to 14) (size 15 to 20)
#    0.000    0.667    1.667    6.000    2.333   10.000 
#    0.000    0.000    0.000    0.000    0.000    0.000 
#    0.000    0.000    0.000    0.000    0.000    0.000 
#
# Total GULP energy -66923.061703 kJ/mol
# GULP energy per Si atom -5576.921809 kJ/mol
# Density = 2.790976 g / cm^3
# Si number density = 27.973432 Si / 1000 Ang^3
#
#
#
# Elastic Constant Matrix: (Units=GPa)
#
#
# Indices 1 2 3 4 5 6 
#
# 1 140.2331 29.6140 5.1898 0.0008 -23.1102 0.0026
# 2 29.6140 231.2311 76.7106 0.0044 -24.7960 0.0062
# 3 5.1898 76.7106 199.1289 -0.0002 -29.0302 -0.0014
# 4 0.0008 0.0044 -0.0002 25.6502 -0.0014 -7.3921
# 5 -23.1102 -24.7960 -29.0302 -0.0014 72.2985 0.0005
# 6 0.0026 0.0062 -0.0014 -7.3921 0.0005 60.0549
#
#
#
# Elastic Compliance Matrix: (Units=1/GPa)
#
#
# Indices 1 2 3 4 5 6 
#
# 1 0.007688 -0.000894 0.000486 0.000000 0.002346 0.000000
# 2 -0.000894 0.005130 -0.001846 -0.000001 0.000732 -0.000001
# 3 0.000486 -0.001846 0.006002 0.000001 0.001932 0.000000
# 4 0.000000 -0.000001 0.000001 0.040420 0.000001 0.004975
# 5 0.002346 0.000732 0.001932 0.000001 0.015608 0.000000
# 6 0.000000 -0.000001 0.000000 0.004975 0.000000 0.017264
#
#
# Mechanical properties :
#
#
# Convention : Reuss Voigt Hill
#
# Bulk Modulus (GPa) = 69.87160 88.18019 79.02590
# Shear Modulus (GPa) = 49.31324 62.20596 55.75960
#
# Velocity S-wave (km/s) = 4.20320 4.72078 4.46949
# Velocity P-wave (km/s) = 6.97050 7.82979 7.41261
#
# Compressibility (1/GPa) = 0.01431197
#
# Stress axis : x y z
#
# Youngs Moduli (GPa) = 130.06440 194.92253 166.60741
#
# Poissons Ratio (x) = 0.17434 -0.08100
# Poissons Ratio (y) = 0.11633 0.30760
# Poissons Ratio (z) = -0.06324 0.35988
#
# Static dielectric constant tensor:
#      x y z
#    x 2.755050 0.000000 0.034430 
#    y 0.000000 2.119880 0.000000 
#    z 0.034430 0.000000 1.922350 
# 
# From -- ./inp_files/65631.got.cif
#   From: 2010.05.17/outbox.cif.g08.bks.cpg/sg5_33_cif.got.tgz:65631.got - 2010.06.03 18:56:24.
