data_PCOD9129976
_publ_section_title
;
Structure prediction by ZEFSAII (Michael W. Deem and Ramdas Pophale) SiO2 
 PCOD9129976
Probable space group: C 2
;
_chemical_formula_sum "Si O2"
_cell_formula_units_Z 18
_cell_length_a 8.185352
_cell_length_b 19.354122
_cell_length_c 8.570487
_cell_angle_alpha 90.000000
_cell_angle_beta 34.518858
_cell_angle_gamma 90.000000
_cell_volume 769.400155
_symmetry_space_group_name_H-M "C 2"
_symmetry_group_IT_number 5
_symmetry_cell_setting 'monoclinic'
loop_
_space_group_symop_operation_xyz
x,y,z
-x,y,-z
1/2+x,1/2+y,z
1/2-x,1/2+y,-z
loop_
_atom_site_type_symbol
_atom_site_label
_atom_site_fract_x
_atom_site_fract_y
_atom_site_fract_z
Si Si1 0.000000 0.093360 0.500000
Si Si2 0.201617 0.432230 0.491580
Si Si3 0.167154 0.790753 0.712338
Si Si4 0.023031 0.653732 0.666781
Si Si5 0.228960 0.520010 0.980273
O O1 0.834912 0.133190 0.493358
O O2 0.770234 0.047792 0.771608
O O3 0.316508 0.354507 0.420771
O O4 0.460114 0.483544 0.245080
O O5 0.000000 0.428406 0.500000
O O6 0.001695 0.462633 0.784511
O O7 0.500000 0.773187 0.500000
O O8 0.986922 0.726633 0.783595
O O9 0.000000 0.813720 0.000000
O O10 0.000000 0.661746 0.500000
O O11 0.826690 0.588734 0.872314
#
# Coordination Sequence:
#
# PCOD9129976 Si02
#       5
#     2   4   4   4   4
#     4  12  26  48  76 108 158 200 252 324 370 454
#     4  11  24  43  79 113 152 203 250 314 385 455
#     4  11  24  49  78 109 157 204 249 311 386 455
#     4  12  28  48  78 114 154 202 259 315 379 451
#     4  12  25  46  74 114 151 198 260 309 379 455
#
# _framework density 23.394848
#
# number of rings (size 3 to 8) (size 9 to 14) (size 15 to 20)
#    0.000    0.444    3.333    6.000    3.111    0.000 
#    2.000    0.000    0.000    0.000    0.000    0.000 
#    0.000    0.000    0.000    0.000    0.000    0.000 
#
# Total GULP energy -50276.907446 kJ/mol
# GULP energy per Si atom -5586.323050 kJ/mol
# Density = 2.334160 g / cm^3
# Si number density = 23.394848 Si / 1000 Ang^3
#
#
#
# Elastic Constant Matrix: (Units=GPa)
#
#
# Indices 1 2 3 4 5 6 
#
# 1 85.7874 11.3122 6.7253 0.0000 9.1267 -0.0001
# 2 11.3122 138.5217 41.8174 0.0001 2.3613 0.0000
# 3 6.7253 41.8174 156.1194 0.0000 -1.2384 -0.0003
# 4 0.0000 0.0001 0.0000 29.1399 0.0000 4.1618
# 5 9.1267 2.3613 -1.2384 0.0000 40.0470 0.0001
# 6 -0.0001 0.0000 -0.0003 4.1618 0.0001 52.2631
#
#
#
# Elastic Compliance Matrix: (Units=1/GPa)
#
#
# Indices 1 2 3 4 5 6 
#
# 1 0.012082 -0.000845 -0.000316 0.000000 -0.002713 0.000000
# 2 -0.000845 0.007924 -0.002089 0.000000 -0.000339 0.000000
# 3 -0.000316 -0.002089 0.006982 0.000000 0.000411 0.000000
# 4 0.000000 0.000000 0.000000 0.034712 0.000000 -0.002764
# 5 -0.002713 -0.000339 0.000411 0.000000 0.025622 0.000000
# 6 0.000000 0.000000 0.000000 -0.002764 0.000000 0.019354
#
#
# Mechanical properties :
#
#
# Convention : Reuss Voigt Hill
#
# Bulk Modulus (GPa) = 48.80768 55.57091 52.18930
# Shear Modulus (GPa) = 41.66517 45.66158 43.66337
#
# Velocity S-wave (km/s) = 4.22471 4.42269 4.32483
# Velocity P-wave (km/s) = 6.68622 7.06295 6.87716
#
# Compressibility (1/GPa) = 0.02048858
#
# Stress axis : x y z
#
# Youngs Moduli (GPa) = 82.77070 126.19109 143.23091
#
# Poissons Ratio (x) = 0.10664 0.04521
# Poissons Ratio (y) = 0.06995 0.29920
# Poissons Ratio (z) = 0.02612 0.26360
#
# Static dielectric constant tensor:
#      x y z
#    x 1.899150 0.000000 -0.049250 
#    y 0.000000 1.964960 0.000000 
#    z -0.049250 0.000000 1.854450 
# 
# From -- ./inp_files/16645.got.cif
#   From: 2010.05.17/outbox.cif.g08.bks.cpg/sg5_9_cif.got.tgz:16645.got - 2010.06.03 18:56:24.
