data_PCOD9129943
_publ_section_title
;
Structure prediction by ZEFSAII (Michael W. Deem and Ramdas Pophale) SiO2 
 PCOD9129943
Probable space group: C 2
;
_chemical_formula_sum "Si O2"
_cell_formula_units_Z 32
_cell_length_a 10.100741
_cell_length_b 9.959840
_cell_length_c 33.976773
_cell_angle_alpha 90.000000
_cell_angle_beta 150.986854
_cell_angle_gamma 90.000000
_cell_volume 1657.824946
_symmetry_space_group_name_H-M "C 2"
_symmetry_group_IT_number 5
_symmetry_cell_setting 'monoclinic'
loop_
_space_group_symop_operation_xyz
x,y,z
-x,y,-z
1/2+x,1/2+y,z
1/2-x,1/2+y,-z
loop_
_atom_site_type_symbol
_atom_site_label
_atom_site_fract_x
_atom_site_fract_y
_atom_site_fract_z
Si Si1 0.123804 0.002950 0.794748
Si Si2 0.578827 0.236424 0.915742
Si Si3 0.375947 0.065493 0.279975
Si Si4 0.729794 0.341815 0.451767
Si Si5 0.519176 0.551265 0.461619
Si Si6 0.290093 0.971403 0.175133
Si Si7 0.680847 0.361153 0.728752
Si Si8 0.657051 0.745376 0.102204
O O1 0.326470 0.131306 0.851070
O O2 0.824632 0.025785 0.736363
O O3 0.085461 0.957814 0.739309
O O4 0.276000 0.884089 0.858330
O O5 0.470398 0.381193 0.900786
O O6 0.690451 0.243991 0.900216
O O7 0.841004 0.211132 0.011098
O O8 0.701177 0.079156 0.369969
O O9 0.278922 0.213817 0.243197
O O10 0.337700 0.963642 0.234193
O O11 0.640200 0.446269 0.462023
O O12 0.508976 0.340767 0.359163
O O13 0.000000 0.391857 0.500000
O O14 0.811176 0.192291 0.489606
O O15 0.500000 0.488000 0.500000
O O16 0.538294 0.914062 0.215085
O O17 0.265170 0.123876 0.156172
#
# Coordination Sequence:
#
# PCOD9129943 Si02
#       8
#     4   4   4   4   4   4   4   4
#     4  12  25  42  69 100 128 180 226 268 329 396
#     4  11  24  42  64  98 137 173 221 280 333 390
#     4  12  24  43  68  96 133 170 221 272 324 393
#     4  11  25  45  68  98 135 172 215 272 330 393
#     4  11  25  45  68  98 135 172 215 272 330 393
#     4  12  23  44  67  94 132 174 218 272 329 390
#     4  12  24  43  68  96 133 170 221 272 324 393
#     4  11  24  42  64  98 137 173 221 280 333 390
#
# _framework density 19.302399999999999
#
# number of rings (size 3 to 8) (size 9 to 14) (size 15 to 20)
#    0.000    0.500    8.750    0.750    1.750    0.500 
#    0.000    3.750    0.000    0.000    0.000    0.000 
#    0.000    0.000    0.000    0.000    0.000    0.000 
#
# Total GULP energy -89240.324967 kJ/mol
# GULP energy per Si atom -5577.520310 kJ/mol
# Density = 1.925847 g / cm^3
# Si number density = 19.302400 Si / 1000 Ang^3
#
#
#
# Elastic Constant Matrix: (Units=GPa)
#
#
# Indices 1 2 3 4 5 6 
#
# 1 117.2379 28.0200 24.3248 0.0000 6.0116 0.0000
# 2 28.0200 69.3611 13.4998 0.0000 2.9701 0.0000
# 3 24.3248 13.4998 61.3133 0.0000 -4.4273 0.0000
# 4 0.0000 0.0000 0.0000 6.4641 0.0000 -10.0433
# 5 6.0116 2.9701 -4.4273 0.0000 18.5071 0.0000
# 6 0.0000 0.0000 0.0000 -10.0433 0.0000 33.1416
#
#
#
# Elastic Compliance Matrix: (Units=1/GPa)
#
#
# Indices 1 2 3 4 5 6 
#
# 1 0.010251 -0.003282 -0.003609 0.000000 -0.003666 0.000000
# 2 -0.003282 0.016310 -0.002443 0.000000 -0.002136 0.000000
# 3 -0.003609 -0.002443 0.018716 0.000000 0.006042 0.000000
# 4 0.000000 0.000000 0.000000 0.292349 -0.000001 0.088594
# 5 -0.003666 -0.002136 0.006042 -0.000001 0.057012 0.000000
# 6 0.000000 0.000000 0.000000 0.088594 0.000000 0.057022
#
#
# Mechanical properties :
#
#
# Convention : Reuss Voigt Hill
#
# Bulk Modulus (GPa) = 37.58205 42.17794 39.88000
# Shear Modulus (GPa) = 10.43412 23.76040 17.09726
#
# Velocity S-wave (km/s) = 2.32752 3.51230 2.97940
# Velocity P-wave (km/s) = 5.17064 6.19249 5.70449
#
# Compressibility (1/GPa) = 0.02660845
#
# Stress axis : x y z
#
# Youngs Moduli (GPa) = 97.55353 61.31196 53.43102
#
# Poissons Ratio (x) = 0.20120 0.19283
# Poissons Ratio (y) = 0.32013 0.13056
# Poissons Ratio (z) = 0.35207 0.14981
#
# Static dielectric constant tensor:
#      x y z
#    x 1.677280 0.000000 0.003790 
#    y 0.000000 1.684340 0.000000 
#    z 0.003790 0.000000 1.744570 
# 
# From -- ./inp_files/71591.got.cif
#   From: 2010.05.17/outbox.cif.g08.bks.cpg/sg5_36_cif.got.tgz:71591.got - 2010.06.03 18:56:24.
