data_PCOD9129342
_publ_section_title
;
Structure prediction by ZEFSAII (Michael W. Deem and Ramdas Pophale) SiO2 
 PCOD9129342
Probable space group: C 2
;
_chemical_formula_sum "Si O2"
_cell_formula_units_Z 30
_cell_length_a 5.533289
_cell_length_b 21.058468
_cell_length_c 14.653889
_cell_angle_alpha 90.000000
_cell_angle_beta 123.507675
_cell_angle_gamma 90.000000
_cell_volume 1423.741365
_symmetry_space_group_name_H-M "C 2"
_symmetry_group_IT_number 5
_symmetry_cell_setting 'monoclinic'
loop_
_space_group_symop_operation_xyz
x,y,z
-x,y,-z
1/2+x,1/2+y,z
1/2-x,1/2+y,-z
loop_
_atom_site_type_symbol
_atom_site_label
_atom_site_fract_x
_atom_site_fract_y
_atom_site_fract_z
Si Si1 0.541693 0.741870 0.116180
Si Si2 0.860182 0.242828 0.557200
Si Si3 0.755677 0.614223 0.890377
Si Si4 0.000000 0.633649 0.500000
Si Si5 0.894581 0.658053 0.723558
Si Si6 0.280708 0.055207 0.308397
Si Si7 0.308769 0.838618 0.700375
Si Si8 0.704688 0.909036 0.632955
O O1 0.318433 0.683989 0.085986
O O2 0.537380 0.803264 0.181914
O O3 0.836662 0.707057 0.212255
O O4 0.500000 0.758318 0.000000
O O5 0.664830 0.186552 0.473871
O O6 0.721531 0.285039 0.607473
O O7 0.000000 0.278379 0.500000
O O8 0.115393 0.203174 0.658405
O O9 0.885377 0.625632 0.819448
O O10 0.466655 0.574445 0.813921
O O11 0.000000 0.581031 0.000000
O O12 0.238050 0.590804 0.597843
O O13 0.942479 0.595466 0.670040
O O14 0.273615 0.981751 0.328424
O O15 0.541044 0.875514 0.684570
O O16 0.019989 0.877487 0.672603
O O17 0.500000 0.910664 0.500000
#
# Coordination Sequence:
#
# PCOD9129342 Si02
#       8
#     4   4   4   2   4   4   4   4
#     4  11  23  42  71 104 140 182 237 299 378 443
#     4  12  24  38  68 107 148 177 229 306 386 444
#     4  11  22  41  73 105 138 178 231 305 380 434
#     4  12  22  38  64 106 134 174 224 298 376 440
#     4  11  21  40  68 104 138 178 223 302 372 439
#     4  11  25  43  68 102 140 191 247 291 363 446
#     4  12  28  47  70 105 142 197 250 300 357 444
#     4  12  29  50  72  98 148 207 252 292 354 437
#
# _framework density 21.071244
#
# number of rings (size 3 to 8) (size 9 to 14) (size 15 to 20)
#    0.000    0.533    6.000    2.400    5.600    0.000 
#    2.400    0.667    2.933    0.000    0.000    0.000 
#    0.000    0.000    0.000    0.000    0.000    0.000 
#
# Total GULP energy -83529.737171 kJ/mol
# GULP energy per Si atom -5568.649145 kJ/mol
# Density = 2.102329 g / cm^3
# Si number density = 21.071244 Si / 1000 Ang^3
#
#
#
# Elastic Constant Matrix: (Units=GPa)
#
#
# Indices 1 2 3 4 5 6 
#
# 1 101.2740 64.9800 26.6668 0.0000 -9.9610 0.0000
# 2 64.9800 148.1661 73.4242 0.0000 -9.8947 0.0000
# 3 26.6668 73.4242 106.2862 0.0000 -6.2841 0.0000
# 4 0.0000 0.0000 0.0000 29.1118 0.0000 -11.1397
# 5 -9.9610 -9.8947 -6.2841 0.0000 43.1726 0.0000
# 6 0.0000 0.0000 0.0000 -11.1397 0.0000 25.6099
#
#
#
# Elastic Compliance Matrix: (Units=1/GPa)
#
#
# Indices 1 2 3 4 5 6 
#
# 1 0.013973 -0.006569 0.001144 0.000000 0.001885 0.000000
# 2 -0.006569 0.013427 -0.007601 0.000000 0.000455 0.000000
# 3 0.001144 -0.007601 0.014409 0.000000 0.000619 0.000000
# 4 0.000000 0.000000 0.000000 0.041209 0.000000 0.017925
# 5 0.001885 0.000455 0.000619 0.000000 0.023792 0.000000
# 6 0.000000 0.000000 0.000000 0.017925 0.000000 0.046844
#
#
# Mechanical properties :
#
#
# Convention : Reuss Voigt Hill
#
# Bulk Modulus (GPa) = 63.46297 76.20757 69.83527
# Shear Modulus (GPa) = 27.03295 32.28920 29.66107
#
# Velocity S-wave (km/s) = 3.58569 3.91881 3.75595
# Velocity P-wave (km/s) = 6.87943 7.53135 7.21276
#
# Compressibility (1/GPa) = 0.01575722
#
# Stress axis : x y z
#
# Youngs Moduli (GPa) = 71.56505 74.47713 69.40197
#
# Poissons Ratio (x) = 0.48924 -0.07936
# Poissons Ratio (y) = 0.47011 0.52749
# Poissons Ratio (z) = -0.08184 0.56606
#
# Static dielectric constant tensor:
#      x y z
#    x 1.873490 0.000000 0.052580 
#    y 0.000000 1.762330 0.000000 
#    z 0.052580 0.000000 1.808160 
# 
# From -- ./inp_files/49570.got.cif
#   From: 2010.05.17/outbox.cif.g08.bks.cpg/sg5_25_cif.got.tgz:49570.got - 2010.06.03 18:56:24.
