data_PCOD9129120
_publ_section_title
;
Structure prediction by ZEFSAII (Michael W. Deem and Ramdas Pophale) SiO2 
 PCOD9129120
Probable space group: C 2
;
_chemical_formula_sum "Si O2"
_cell_formula_units_Z 22
_cell_length_a 8.621810
_cell_length_b 13.487277
_cell_length_c 9.445413
_cell_angle_alpha 90.000000
_cell_angle_beta 44.593208
_cell_angle_gamma 90.000000
_cell_volume 771.122283
_symmetry_space_group_name_H-M "C 2"
_symmetry_group_IT_number 5
_symmetry_cell_setting 'monoclinic'
loop_
_space_group_symop_operation_xyz
x,y,z
-x,y,-z
1/2+x,1/2+y,z
1/2-x,1/2+y,-z
loop_
_atom_site_type_symbol
_atom_site_label
_atom_site_fract_x
_atom_site_fract_y
_atom_site_fract_z
Si Si1 0.500000 0.697031 0.000000
Si Si2 0.730778 0.768050 0.425037
Si Si3 0.794439 0.879439 0.746017
Si Si4 0.125611 0.485199 0.609604
Si Si5 0.500000 0.192436 0.000000
Si Si6 0.573255 0.561848 0.216488
Si Si7 0.500000 0.149545 0.500000
O O1 0.702852 0.773530 0.851948
O O2 0.497318 0.624333 0.871260
O O3 0.500000 0.731279 0.500000
O O4 0.666923 0.882190 0.499879
O O5 0.788848 0.622415 0.119471
O O6 0.921722 0.756681 0.184286
O O7 0.609849 0.940938 0.777155
O O8 0.000000 0.880863 0.500000
O O9 0.838439 0.717697 0.499589
O O10 0.352625 0.549133 0.454980
O O11 0.949669 0.562093 0.655433
O O12 0.140642 0.947277 0.163940
#
# Coordination Sequence:
#
# PCOD9129120 Si02
#       7
#     2   4   4   4   2   4   2
#     4  12  29  53  90 124 172 236 295 371 464 544
#     4  12  30  58  91 135 182 241 316 386 457 564
#     4  10  26  55  84 124 177 230 296 378 449 539
#     4  11  27  52  87 132 177 235 308 374 453 560
#     4  12  29  53  82 128 184 230 297 395 456 538
#     4  11  28  50  81 130 173 229 300 368 456 549
#     4  12  28  52  96 128 178 248 298 380 476 538
#
# _framework density 28.529847
#
# number of rings (size 3 to 8) (size 9 to 14) (size 15 to 20)
#    0.000    0.727    0.909    2.727   16.545    2.182 
#    0.000    1.818    0.000    0.000    0.000    0.000 
#    0.000    0.000    0.000    0.000    0.000    0.000 
#
# Total GULP energy -61314.243187 kJ/mol
# GULP energy per Si atom -5574.022108 kJ/mol
# Density = 2.846491 g / cm^3
# Si number density = 28.529847 Si / 1000 Ang^3
#
#
#
# Elastic Constant Matrix: (Units=GPa)
#
#
# Indices 1 2 3 4 5 6 
#
# 1 223.5428 131.4339 54.8220 -0.0014 -9.4071 0.0009
# 2 131.4339 265.2029 55.4204 -0.0004 25.1875 0.0003
# 3 54.8220 55.4204 149.2866 -0.0018 -14.5577 0.0027
# 4 -0.0014 -0.0004 -0.0018 40.4005 0.0014 -9.7547
# 5 -9.4071 25.1875 -14.5577 0.0014 47.4880 -0.0012
# 6 0.0009 0.0003 0.0027 -9.7547 -0.0012 68.5649
#
#
#
# Elastic Compliance Matrix: (Units=1/GPa)
#
#
# Indices 1 2 3 4 5 6 
#
# 1 0.006880 -0.003490 -0.000946 0.000000 0.002924 0.000000
# 2 -0.003490 0.006228 -0.001464 0.000000 -0.004444 0.000000
# 3 -0.000946 -0.001464 0.007882 0.000000 0.003005 0.000000
# 4 0.000000 0.000000 0.000000 0.025633 -0.000001 0.003647
# 5 0.002924 -0.004444 0.003005 -0.000001 0.024915 0.000000
# 6 0.000000 0.000000 0.000000 0.003647 0.000000 0.015104
#
#
# Mechanical properties :
#
#
# Convention : Reuss Voigt Hill
#
# Bulk Modulus (GPa) = 108.79525 124.59829 116.69677
# Shear Modulus (GPa) = 49.25821 57.71442 53.48631
#
# Velocity S-wave (km/s) = 4.15969 4.50260 4.33453
# Velocity P-wave (km/s) = 7.82862 8.41421 8.12669
#
# Compressibility (1/GPa) = 0.00919158
#
# Stress axis : x y z
#
# Youngs Moduli (GPa) = 145.34066 160.55924 126.86483
#
# Poissons Ratio (x) = 0.56034 0.12001
# Poissons Ratio (y) = 0.50723 0.18571
# Poissons Ratio (z) = 0.13748 0.23503
#
# Static dielectric constant tensor:
#      x y z
#    x 2.519770 0.000000 -0.061190 
#    y 0.000000 2.289530 0.000000 
#    z -0.061190 0.000000 2.408520 
# 
# From -- ./inp_files/39561.got.cif
#   From: 2010.05.17/outbox.cif.g08.bks.cpg/sg5_20_cif.got.tgz:39561.got - 2010.06.03 18:56:24.
