data_PCOD9129101
_publ_section_title
;
Structure prediction by ZEFSAII (Michael W. Deem and Ramdas Pophale) SiO2 
 PCOD9129101
Probable space group: C 2
;
_chemical_formula_sum "Si O2"
_cell_formula_units_Z 24
_cell_length_a 14.608963
_cell_length_b 5.060973
_cell_length_c 13.123788
_cell_angle_alpha 90.000000
_cell_angle_beta 82.141723
_cell_angle_gamma 90.000000
_cell_volume 961.202765
_symmetry_space_group_name_H-M "C 2"
_symmetry_group_IT_number 5
_symmetry_cell_setting 'monoclinic'
loop_
_space_group_symop_operation_xyz
x,y,z
-x,y,-z
1/2+x,1/2+y,z
1/2-x,1/2+y,-z
loop_
_atom_site_type_symbol
_atom_site_label
_atom_site_fract_x
_atom_site_fract_y
_atom_site_fract_z
Si Si1 0.016640 0.762140 0.286191
Si Si2 0.597434 0.766559 0.761738
Si Si3 0.160076 0.096649 0.961422
Si Si4 0.363742 0.948260 0.868184
Si Si5 0.306020 0.726851 0.453702
Si Si6 0.500000 0.532715 0.500000
Si Si7 0.000000 0.693949 0.000000
O O1 0.108695 0.598597 0.238652
O O2 0.023889 0.849360 0.400897
O O3 0.937760 0.544525 0.277575
O O4 0.982807 0.039311 0.238103
O O5 0.632267 0.791733 0.872526
O O6 0.677596 0.682266 0.669980
O O7 0.267277 0.054104 0.925274
O O8 0.147885 0.153026 0.084524
O O9 0.086403 0.868300 0.952027
O O10 0.453933 0.025841 0.919335
O O11 0.241701 0.502069 0.512320
O O12 0.409185 0.699708 0.485052
#
# Coordination Sequence:
#
# PCOD9129101 Si02
#       7
#     4   4   4   4   4   2   2
#     4  11  25  48  77 108 150 206 244 316 379 440
#     4  11  25  48  74 108 151 197 253 311 381 442
#     4  12  26  45  73 106 145 196 252 304 372 461
#     4  12  26  45  73 106 144 199 248 303 384 437
#     4  11  25  47  75 111 150 199 250 315 378 446
#     4  10  26  50  76 114 156 192 264 306 376 452
#     4  12  22  48  68  98 148 182 232 320 352 440
#
# _framework density 24.968713999999999
#
# number of rings (size 3 to 8) (size 9 to 14) (size 15 to 20)
#    0.000    0.667    3.333    4.500    2.333    6.000 
#    0.000    0.000    0.000    0.000    0.000    0.000 
#    0.000    0.000    0.000    0.000    0.000    0.000 
#
# Total GULP energy -66976.089046 kJ/mol
# GULP energy per Si atom -5581.340754 kJ/mol
# Density = 2.491188 g / cm^3
# Si number density = 24.968714 Si / 1000 Ang^3
#
#
#
# Elastic Constant Matrix: (Units=GPa)
#
#
# Indices 1 2 3 4 5 6 
#
# 1 137.6357 9.7429 10.7830 0.0000 -17.7546 0.0000
# 2 9.7429 76.5279 -6.5831 0.0000 6.8798 0.0000
# 3 10.7830 -6.5831 100.5980 0.0000 -14.3948 0.0000
# 4 0.0000 0.0000 0.0000 30.5447 0.0000 -2.6682
# 5 -17.7546 6.8798 -14.3948 0.0000 46.8901 0.0000
# 6 0.0000 0.0000 0.0000 -2.6682 0.0000 38.8304
#
#
#
# Elastic Compliance Matrix: (Units=1/GPa)
#
#
# Indices 1 2 3 4 5 6 
#
# 1 0.007781 -0.001301 -0.000492 0.000000 0.002986 0.000000
# 2 -0.001301 0.013496 0.000700 0.000000 -0.002258 0.000000
# 3 -0.000492 0.000700 0.010457 0.000000 0.002921 0.000000
# 4 0.000000 0.000000 0.000000 0.032937 0.000000 0.002263
# 5 0.002986 -0.002258 0.002921 0.000000 0.023685 0.000000
# 6 0.000000 0.000000 0.000000 0.002263 0.000000 0.025909
#
#
# Mechanical properties :
#
#
# Convention : Reuss Voigt Hill
#
# Bulk Modulus (GPa) = 33.84454 38.07190 35.95822
# Shear Modulus (GPa) = 39.58777 43.30764 41.44770
#
# Velocity S-wave (km/s) = 3.98615 4.16922 4.07871
# Velocity P-wave (km/s) = 5.89661 6.20141 6.05093
#
# Compressibility (1/GPa) = 0.02954687
#
# Stress axis : x y z
#
# Youngs Moduli (GPa) = 128.51067 74.09596 95.62896
#
# Poissons Ratio (x) = 0.09643 0.04704
# Poissons Ratio (y) = 0.16725 -0.06690
# Poissons Ratio (z) = 0.06322 -0.05183
#
# Static dielectric constant tensor:
#      x y z
#    x 1.944560 0.000000 -0.087640 
#    y 0.000000 2.093530 0.000000 
#    z -0.087640 0.000000 2.227680 
# 
# From -- ./inp_files/53662.got.cif
#   From: 2010.05.17/outbox.cif.g08.bks.cpg/sg5_27_cif.got.tgz:53662.got - 2010.06.03 18:56:24.
