data_PCOD9129728
_publ_section_title
;
Structure prediction by ZEFSAII (Michael W. Deem and Ramdas Pophale) SiO2 
 PCOD9129728
Probable space group: C 2
;
_chemical_formula_sum "Si O2"
_cell_formula_units_Z 24
_cell_length_a 13.303897
_cell_length_b 5.345051
_cell_length_c 28.447662
_cell_angle_alpha 90.000000
_cell_angle_beta 152.331465
_cell_angle_gamma 90.000000
_cell_volume 939.351494
_symmetry_space_group_name_H-M "C 2"
_symmetry_group_IT_number 5
_symmetry_cell_setting 'monoclinic'
loop_
_space_group_symop_operation_xyz
x,y,z
-x,y,-z
1/2+x,1/2+y,z
1/2-x,1/2+y,-z
loop_
_atom_site_type_symbol
_atom_site_label
_atom_site_fract_x
_atom_site_fract_y
_atom_site_fract_z
Si Si1 0.051404 0.615030 0.740154
Si Si2 0.116124 0.086814 0.881691
Si Si3 0.778668 0.180434 0.483305
Si Si4 0.227981 0.617107 0.197693
Si Si5 0.761340 0.286258 0.313029
Si Si6 0.241256 0.089787 0.036404
O O1 0.887953 0.638600 0.628145
O O2 0.903442 0.624343 0.724907
O O3 0.187893 0.361215 0.794484
O O4 0.189394 0.869633 0.793430
O O5 0.262475 0.840704 0.935010
O O6 0.883340 0.030751 0.761553
O O7 0.246037 0.341088 0.927599
O O8 0.088747 0.090312 0.927720
O O9 0.695797 0.402096 0.483662
O O10 0.013004 0.296593 0.566306
O O11 0.323618 0.658073 0.289631
O O12 0.976790 0.599151 0.107772
#
# Coordination Sequence:
#
# PCOD9129728 Si02
#       6
#     4   4   4   4   4   4
#     4  12  25  42  65 102 126 175 222 263 329 394
#     4   9  19  35  63  98 123 173 222 257 332 386
#     4  12  24  44  66  94 133 174 217 271 331 387
#     4  11  23  42  66  94 134 170 216 270 324 385
#     4  11  24  43  70  92 136 172 218 273 327 384
#     4   9  18  36  63  94 131 168 216 271 318 387
#
# _framework density 25.549538999999999
#
# number of rings (size 3 to 8) (size 9 to 14) (size 15 to 20)
#    0.000    1.333    3.333    2.500    0.000    5.333 
#    0.000    4.167    0.000    8.000    0.000    0.000 
#    0.000    0.000    0.000    0.000    0.000    0.000 
#
# Total GULP energy -67014.581598 kJ/mol
# GULP energy per Si atom -5584.548467 kJ/mol
# Density = 2.549139 g / cm^3
# Si number density = 25.549539 Si / 1000 Ang^3
#
#
#
# Elastic Constant Matrix: (Units=GPa)
#
#
# Indices 1 2 3 4 5 6 
#
# 1 96.8306 31.6244 7.7754 -0.0028 1.4192 0.0053
# 2 31.6244 217.8055 13.2511 -0.0164 -0.2780 0.0120
# 3 7.7754 13.2511 96.1348 -0.0062 0.0588 0.0030
# 4 -0.0028 -0.0164 -0.0062 30.4306 0.0029 10.2255
# 5 1.4192 -0.2780 0.0588 0.0029 42.1307 -0.0031
# 6 0.0053 0.0120 0.0030 10.2255 -0.0031 15.9862
#
#
#
# Elastic Compliance Matrix: (Units=1/GPa)
#
#
# Indices 1 2 3 4 5 6 
#
# 1 0.010890 -0.001541 -0.000668 0.000001 -0.000376 -0.000003
# 2 -0.001541 0.004848 -0.000544 0.000004 0.000085 -0.000006
# 3 -0.000668 -0.000544 0.010531 0.000003 0.000004 -0.000003
# 4 0.000001 0.000004 0.000003 0.041859 -0.000005 -0.026775
# 5 -0.000376 0.000085 0.000004 -0.000005 0.023749 0.000008
# 6 -0.000003 -0.000006 -0.000003 -0.026775 0.000008 0.079680
#
#
# Mechanical properties :
#
#
# Convention : Reuss Voigt Hill
#
# Bulk Modulus (GPa) = 48.16170 57.34142 52.75156
# Shear Modulus (GPa) = 27.17635 41.58418 34.38026
#
# Velocity S-wave (km/s) = 3.26494 4.03872 3.67226
# Velocity P-wave (km/s) = 5.75364 6.65134 6.21871
#
# Compressibility (1/GPa) = 0.02076339
#
# Stress axis : x y z
#
# Youngs Moduli (GPa) = 91.82950 206.26291 94.95740
#
# Poissons Ratio (x) = 0.31785 0.06344
# Poissons Ratio (y) = 0.14151 0.05163
# Poissons Ratio (z) = 0.06135 0.11214
#
# Static dielectric constant tensor:
#      x y z
#    x 1.957180 0.000000 -0.019850 
#    y 0.000000 2.143190 0.000000 
#    z -0.019850 0.000000 2.128050 
# 
# From -- ./inp_files/71851.got.cif
#   From: 2010.05.17/outbox.cif.g08.bks.cpg/sg5_36_cif.got.tgz:71851.got - 2010.06.03 18:56:24.
