data_PCOD9129860
_publ_section_title
;
Structure prediction by ZEFSAII (Michael W. Deem and Ramdas Pophale) SiO2 
 PCOD9129860
Probable space group: C 2
;
_chemical_formula_sum "Si O2"
_cell_formula_units_Z 18
_cell_length_a 5.608898
_cell_length_b 25.291781
_cell_length_c 5.238985
_cell_angle_alpha 90.000000
_cell_angle_beta 94.256110
_cell_angle_gamma 90.000000
_cell_volume 741.147745
_symmetry_space_group_name_H-M "C 2"
_symmetry_group_IT_number 5
_symmetry_cell_setting 'monoclinic'
loop_
_space_group_symop_operation_xyz
x,y,z
-x,y,-z
1/2+x,1/2+y,z
1/2-x,1/2+y,-z
loop_
_atom_site_type_symbol
_atom_site_label
_atom_site_fract_x
_atom_site_fract_y
_atom_site_fract_z
Si Si1 0.762981 0.066540 0.142900
Si Si2 0.000000 0.884343 0.000000
Si Si3 0.738378 0.182352 0.358695
Si Si4 0.338082 0.795296 0.235359
Si Si5 0.157023 0.457752 0.273559
O O1 0.785760 0.127856 0.216207
O O2 0.744145 0.017799 0.339335
O O3 0.500000 0.065537 0.000000
O O4 0.000000 0.053584 0.000000
O O5 0.823161 0.845695 0.834104
O O6 0.129357 0.920411 0.799397
O O7 0.500000 0.170427 0.500000
O O8 0.691150 0.240368 0.240210
O O9 0.000000 0.191308 0.500000
O O10 0.500000 0.803046 0.500000
O O11 0.500000 0.788737 0.000000
O O12 0.000000 0.439505 0.500000
O O13 0.000000 0.458810 0.000000
#
# Coordination Sequence:
#
# PCOD9129860 Si02
#       5
#     4   2   4   4   4
#     4  11  23  45  79 115 159 207 264 333 407 487
#     4  12  28  52  84 110 168 218 274 340 408 488
#     4  11  25  46  76 117 159 204 264 334 406 486
#     4  11  29  50  78 117 157 210 275 332 405 484
#     4  11  27  51  75 118 157 210 272 332 404 486
#
# _framework density 24.286657000000002
#
# number of rings (size 3 to 8) (size 9 to 14) (size 15 to 20)
#    0.000    0.889    1.111    3.333    7.778    8.000 
#    0.000    0.000    0.000    0.000    0.000    0.000 
#    0.000    0.000    0.000    0.000    0.000    0.000 
#
# Total GULP energy -50304.233198 kJ/mol
# GULP energy per Si atom -5589.359244 kJ/mol
# Density = 2.423138 g / cm^3
# Si number density = 24.286657 Si / 1000 Ang^3
#
#
#
# Elastic Constant Matrix: (Units=GPa)
#
#
# Indices 1 2 3 4 5 6 
#
# 1 114.2099 12.2439 42.2015 0.0000 -26.7869 0.0000
# 2 12.2439 172.2564 24.9138 0.0000 -18.3667 0.0000
# 3 42.2015 24.9138 119.0440 0.0000 -17.2168 0.0000
# 4 0.0000 0.0000 0.0000 101.8702 0.0000 -30.4399
# 5 -26.7869 -18.3667 -17.2168 0.0000 57.5544 0.0000
# 6 0.0000 0.0000 0.0000 -30.4399 0.0000 111.9117
#
#
#
# Elastic Compliance Matrix: (Units=1/GPa)
#
#
# Indices 1 2 3 4 5 6 
#
# 1 0.010935 0.000143 -0.003307 0.000000 0.004146 0.000000
# 2 0.000143 0.006134 -0.001089 0.000000 0.001698 0.000000
# 3 -0.003307 -0.001089 0.009958 0.000000 0.001092 0.000000
# 4 0.000000 0.000000 0.000000 0.010685 0.000000 0.002906
# 5 0.004146 0.001698 0.001092 0.000000 0.020173 0.000000
# 6 0.000000 0.000000 0.000000 0.002906 0.000000 0.009726
#
#
# Mechanical properties :
#
#
# Convention : Reuss Voigt Hill
#
# Bulk Modulus (GPa) = 53.99046 62.69209 58.34127
# Shear Modulus (GPa) = 60.76103 76.01067 68.38585
#
# Velocity S-wave (km/s) = 5.00725 5.60047 5.31215
# Velocity P-wave (km/s) = 7.46384 8.22738 7.85489
#
# Compressibility (1/GPa) = 0.01852179
#
# Stress axis : x y z
#
# Youngs Moduli (GPa) = 91.45226 163.03436 100.41809
#
# Poissons Ratio (x) = -0.02332 0.33206
# Poissons Ratio (y) = -0.01308 0.10933
# Poissons Ratio (z) = 0.30241 0.17751
#
# Static dielectric constant tensor:
#      x y z
#    x 1.616430 0.000000 0.034670 
#    y 0.000000 2.009800 0.000000 
#    z 0.034670 0.000000 1.965410 
# 
# From -- ./inp_files/870.got.cif
#   From: 2010.05.17/outbox.cif.g08.bks.cpg/sg5_1_cif.got.tgz:870.got - 2010.06.03 18:56:24.
