data_PCOD9129187
_publ_section_title
;
Structure prediction by ZEFSAII (Michael W. Deem and Ramdas Pophale) SiO2 
 PCOD9129187
Probable space group: C 2
;
_chemical_formula_sum "Si O2"
_cell_formula_units_Z 32
_cell_length_a 18.341142
_cell_length_b 17.085704
_cell_length_c 13.757142
_cell_angle_alpha 90.000000
_cell_angle_beta 21.998907
_cell_angle_gamma 90.000000
_cell_volume 1614.887907
_symmetry_space_group_name_H-M "C 2"
_symmetry_group_IT_number 5
_symmetry_cell_setting 'monoclinic'
loop_
_space_group_symop_operation_xyz
x,y,z
-x,y,-z
1/2+x,1/2+y,z
1/2-x,1/2+y,-z
loop_
_atom_site_type_symbol
_atom_site_label
_atom_site_fract_x
_atom_site_fract_y
_atom_site_fract_z
Si Si1 0.038921 0.176410 0.550369
Si Si2 0.927208 0.299857 0.323482
Si Si3 0.334300 0.229886 0.779482
Si Si4 0.412511 0.221934 0.348419
Si Si5 0.401977 0.090594 0.019421
Si Si6 0.337304 0.574400 0.957908
Si Si7 0.156166 0.078167 0.722574
Si Si8 0.971731 0.476272 0.755549
O O1 0.104996 0.238077 0.549228
O O2 0.000000 0.224805 0.500000
O O3 0.191093 0.115897 0.316666
O O4 0.886550 0.122738 0.798172
O O5 0.724461 0.292924 0.516205
O O6 0.983396 0.385758 0.288160
O O7 0.122583 0.268541 0.028203
O O8 0.500000 0.255098 0.500000
O O9 0.421101 0.244574 0.780362
O O10 0.293794 0.136895 0.821400
O O11 0.502886 0.167644 0.150568
O O12 0.260981 0.162062 0.586512
O O13 0.422763 0.019800 0.918259
O O14 0.500000 0.070172 0.000000
O O15 0.208663 0.499663 0.090559
O O16 0.537004 0.562414 0.769801
O O17 0.330136 0.017751 0.523861
O O18 0.000000 0.075491 0.000000
#
# Coordination Sequence:
#
# PCOD9129187 Si02
#       8
#     4   4   4   4   4   4   4   4
#     4  11  19  39  67  92 118 170 223 255 310 393
#     4  11  25  43  59  97 137 159 212 281 325 368
#     4  11  22  40  66  93 120 169 216 255 321 396
#     4  11  21  39  69  92 124 164 215 271 307 389
#     4  11  19  39  67  92 118 170 223 255 310 393
#     4  11  21  39  69  92 124 164 215 271 307 389
#     4  11  22  40  66  93 120 169 216 255 321 396
#     4  11  25  43  59  97 137 159 212 281 325 368
#
# _framework density 19.815617
#
# number of rings (size 3 to 8) (size 9 to 14) (size 15 to 20)
#    0.000    1.000    7.500    2.250    0.000    1.000 
#    9.000    0.000    0.000    0.000    0.000    0.000 
#    0.000    0.000    0.000    0.000    0.000    0.000 
#
# Total GULP energy -89210.172409 kJ/mol
# GULP energy per Si atom -5575.635776 kJ/mol
# Density = 1.977052 g / cm^3
# Si number density = 19.815617 Si / 1000 Ang^3
#
#
#
# Elastic Constant Matrix: (Units=GPa)
#
#
# Indices 1 2 3 4 5 6 
#
# 1 40.1580 -15.9586 6.7872 0.0055 -9.1781 -0.0067
# 2 -15.9586 66.1342 5.2669 -0.0027 -9.5605 0.0015
# 3 6.7872 5.2669 100.6922 0.0060 8.4448 -0.0066
# 4 0.0055 -0.0027 0.0060 15.8259 -0.0089 -10.0342
# 5 -9.1781 -9.5605 8.4448 -0.0089 37.9912 0.0077
# 6 -0.0067 0.0015 -0.0066 -10.0342 0.0077 13.7265
#
#
#
# Elastic Compliance Matrix: (Units=1/GPa)
#
#
# Indices 1 2 3 4 5 6 
#
# 1 0.031765 0.009518 -0.003550 0.000004 0.010858 0.000010
# 2 0.009518 0.018681 -0.002248 0.000006 0.007500 0.000002
# 3 -0.003550 -0.002248 0.010605 -0.000003 -0.003780 0.000004
# 4 0.000004 0.000006 -0.000003 0.117775 0.000013 0.086095
# 5 0.010858 0.007500 -0.003780 0.000013 0.031673 -0.000006
# 6 0.000010 0.000002 0.000004 0.086095 -0.000006 0.135788
#
#
# Mechanical properties :
#
#
# Convention : Reuss Voigt Hill
#
# Bulk Modulus (GPa) = 14.60028 22.13057 18.36543
# Shear Modulus (GPa) = 13.82448 27.56798 20.69623
#
# Velocity S-wave (km/s) = 2.64418 3.73396 3.23529
# Velocity P-wave (km/s) = 4.08734 5.45733 4.82124
#
# Compressibility (1/GPa) = 0.06849182
#
# Stress axis : x y z
#
# Youngs Moduli (GPa) = 31.48074 53.53143 94.29383
#
# Poissons Ratio (x) = -0.50949 0.33471
# Poissons Ratio (y) = -0.29962 0.21194
# Poissons Ratio (z) = 0.11174 0.12032
#
# Static dielectric constant tensor:
#      x y z
#    x 2.058870 -0.000020 -0.088960 
#    y -0.000020 1.662250 0.000010 
#    z -0.088960 0.000010 1.721830 
# 
# From -- ./inp_files/57166.got.cif
#   From: 2010.05.17/outbox.cif.g08.bks.cpg/sg5_29_cif.got.tgz:57166.got - 2010.06.03 18:56:24.
