data_PCOD9129032
_publ_section_title
;
Structure prediction by ZEFSAII (Michael W. Deem and Ramdas Pophale) SiO2 
 PCOD9129032
Probable space group: C 2
;
_chemical_formula_sum "Si O2"
_cell_formula_units_Z 28
_cell_length_a 11.934231
_cell_length_b 8.401216
_cell_length_c 13.195316
_cell_angle_alpha 90.000000
_cell_angle_beta 65.348544
_cell_angle_gamma 90.000000
_cell_volume 1202.414706
_symmetry_space_group_name_H-M "C 2"
_symmetry_group_IT_number 5
_symmetry_cell_setting 'monoclinic'
loop_
_space_group_symop_operation_xyz
x,y,z
-x,y,-z
1/2+x,1/2+y,z
1/2-x,1/2+y,-z
loop_
_atom_site_type_symbol
_atom_site_label
_atom_site_fract_x
_atom_site_fract_y
_atom_site_fract_z
Si Si1 0.500000 0.133281 0.500000
Si Si2 0.406022 0.940830 0.214763
Si Si3 0.731372 0.726933 0.888871
Si Si4 0.497148 0.247556 0.888426
Si Si5 0.000000 0.046234 0.000000
Si Si6 0.379341 0.952070 0.734478
Si Si7 0.644169 0.728553 0.420158
Si Si8 0.276161 0.375309 0.548212
O O1 0.384226 0.248567 0.522709
O O2 0.467087 0.032949 0.613995
O O3 0.333167 0.872723 0.146039
O O4 0.549461 0.912099 0.187743
O O5 0.336115 0.852805 0.332187
O O6 0.416366 0.133947 0.210727
O O7 0.856331 0.762876 0.902930
O O8 0.616737 0.647701 0.989711
O O9 0.780900 0.588922 0.794438
O O10 0.539464 0.426221 0.895286
O O11 0.500000 0.170302 0.000000
O O12 0.338303 0.786784 0.700852
O O13 0.500000 0.736385 0.500000
O O14 0.681404 0.552090 0.439009
O O15 0.722041 0.853209 0.457387
#
# Coordination Sequence:
#
# PCOD9129032 Si02
#       8
#     2   4   4   4   2   4   4   4
#     4  12  22  46  68  98 150 184 228 286 326 404
#     4  11  23  43  68 100 132 177 223 278 336 404
#     4  11  25  44  71  99 133 175 225 283 338 412
#     4   9  25  45  69  98 132 172 215 281 353 401
#     4  10  26  46  68 100 128 172 222 280 350 410
#     4  11  23  44  66 101 143 178 227 285 333 395
#     4  12  24  42  66  96 138 185 225 273 332 398
#     4  12  25  42  69  98 138 189 230 274 338 394
#
# _framework density 23.286477000000001
#
# number of rings (size 3 to 8) (size 9 to 14) (size 15 to 20)
#    0.429    0.571    4.286    1.714    5.000    1.143 
#    2.571    0.000    0.000    0.000    0.000    0.000 
#    0.000    0.000    0.000    0.000    0.000    0.000 
#
# Total GULP energy -78069.437550 kJ/mol
# GULP energy per Si atom -5576.388396 kJ/mol
# Density = 2.323348 g / cm^3
# Si number density = 23.286477 Si / 1000 Ang^3
#
#
#
# Elastic Constant Matrix: (Units=GPa)
#
#
# Indices 1 2 3 4 5 6 
#
# 1 158.3848 63.9205 9.1585 0.0000 19.8405 0.0000
# 2 63.9205 94.0141 5.7881 0.0000 2.0932 0.0000
# 3 9.1585 5.7881 24.7622 0.0000 3.5601 0.0000
# 4 0.0000 0.0000 0.0000 24.9620 0.0000 1.6112
# 5 19.8405 2.0932 3.5601 0.0000 34.0924 0.0000
# 6 0.0000 0.0000 0.0000 1.6112 0.0000 42.7531
#
#
#
# Elastic Compliance Matrix: (Units=1/GPa)
#
#
# Indices 1 2 3 4 5 6 
#
# 1 0.009570 -0.006312 -0.001339 0.000000 -0.005042 0.000000
# 2 -0.006312 0.014961 -0.001582 0.000000 0.002920 0.000000
# 3 -0.001339 -0.001582 0.041750 0.000000 -0.003483 0.000000
# 4 0.000000 0.000000 0.000000 0.040159 0.000000 -0.001513
# 5 -0.005042 0.002920 -0.003483 0.000000 0.032451 0.000000
# 6 0.000000 0.000000 0.000000 -0.001513 0.000000 0.023447
#
#
# Mechanical properties :
#
#
# Convention : Reuss Voigt Hill
#
# Bulk Modulus (GPa) = 20.91445 48.32170 34.61807
# Shear Modulus (GPa) = 25.41388 33.58111 29.49750
#
# Velocity S-wave (km/s) = 3.30715 3.80160 3.56297
# Velocity P-wave (km/s) = 4.85633 6.32974 5.64134
#
# Compressibility (1/GPa) = 0.04781384
#
# Stress axis : x y z
#
# Youngs Moduli (GPa) = 104.49096 66.84173 23.95197
#
# Poissons Ratio (x) = 0.42191 0.03208
# Poissons Ratio (y) = 0.65956 0.03790
# Poissons Ratio (z) = 0.13994 0.10576
#
# Static dielectric constant tensor:
#      x y z
#    x 1.908100 0.000000 0.018640 
#    y 0.000000 1.892010 0.000000 
#    z 0.018640 0.000000 1.929630 
# 
# From -- ./inp_files/52271.got.cif
#   From: 2010.05.17/outbox.cif.g08.bks.cpg/sg5_27_cif.got.tgz:52271.got - 2010.06.03 18:56:24.
