data_PCOD9129781
_publ_section_title
;
Structure prediction by ZEFSAII (Michael W. Deem and Ramdas Pophale) SiO2 
 PCOD9129781
Probable space group: C 2
;
_chemical_formula_sum "Si O2"
_cell_formula_units_Z 26
_cell_length_a 11.891999
_cell_length_b 19.192808
_cell_length_c 4.964110
_cell_angle_alpha 90.000000
_cell_angle_beta 117.252952
_cell_angle_gamma 90.000000
_cell_volume 1007.240985
_symmetry_space_group_name_H-M "C 2"
_symmetry_group_IT_number 5
_symmetry_cell_setting 'monoclinic'
loop_
_space_group_symop_operation_xyz
x,y,z
-x,y,-z
1/2+x,1/2+y,z
1/2-x,1/2+y,-z
loop_
_atom_site_type_symbol
_atom_site_label
_atom_site_fract_x
_atom_site_fract_y
_atom_site_fract_z
Si Si1 0.500000 0.848270 0.500000
Si Si2 0.639998 0.506734 0.717109
Si Si3 0.889100 0.816183 0.566123
Si Si4 0.683561 0.747753 0.011290
Si Si5 0.132322 0.667223 0.226880
Si Si6 0.632150 0.617610 0.295244
Si Si7 0.751634 0.932538 0.658820
O O1 0.571649 0.792604 0.765644
O O2 0.614115 0.899558 0.539443
O O3 0.500000 0.479883 0.500000
O O4 0.626660 0.585775 0.591588
O O5 0.732105 0.468297 0.611373
O O6 0.695757 0.489290 0.069173
O O7 0.915728 0.737643 0.683311
O O8 0.850414 0.867754 0.761513
O O9 0.000000 0.840335 0.500000
O O10 0.767347 0.805982 0.247404
O O11 0.771480 0.702213 0.896266
O O12 0.631422 0.695752 0.181527
O O13 0.210444 0.618451 0.521046
O O14 0.000000 0.631535 0.000000
O O15 0.500000 0.588837 0.000000
#
# Coordination Sequence:
#
# PCOD9129781 Si02
#       7
#     2   4   4   4   4   4   4
#     4  12  26  50  78 124 176 208 282 344 452 516
#     4  12  29  54  81 109 157 220 298 342 410 498
#     4  11  23  43  74 116 164 210 266 336 433 505
#     4  11  24  43  76 119 161 212 267 349 433 509
#     4  11  23  43  75 117 166 214 268 345 435 511
#     4  11  27  47  78 115 157 218 285 358 421 502
#     4  12  28  49  78 115 162 220 269 346 410 516
#
# _framework density 25.813089000000002
#
# number of rings (size 3 to 8) (size 9 to 14) (size 15 to 20)
#    0.000    0.615    3.077    3.692    6.462    4.308 
#    2.769    0.000    0.000    0.000    0.000    0.000 
#    0.000    0.000    0.000    0.000    0.000    0.000 
#
# Total GULP energy -72369.382204 kJ/mol
# GULP energy per Si atom -5566.875554 kJ/mol
# Density = 2.575434 g / cm^3
# Si number density = 25.813089 Si / 1000 Ang^3
#
#
#
# Elastic Constant Matrix: (Units=GPa)
#
#
# Indices 1 2 3 4 5 6 
#
# 1 148.3115 60.3654 43.1299 0.0000 29.0406 0.0000
# 2 60.3654 102.2577 33.2945 0.0000 8.6226 0.0000
# 3 43.1299 33.2945 166.6712 0.0000 45.7499 0.0000
# 4 0.0000 0.0000 0.0000 -213.0300 0.0000 -183.4782
# 5 29.0406 8.6226 45.7499 0.0000 57.3480 0.0000
# 6 0.0000 0.0000 0.0000 -183.4782 0.0000 -90.3402
#
#
#
# Elastic Compliance Matrix: (Units=1/GPa)
#
#
# Indices 1 2 3 4 5 6 
#
# 1 0.009774 -0.005311 -0.000421 0.000000 -0.003815 0.000000
# 2 -0.005311 0.013346 -0.001894 0.000000 0.002194 0.000000
# 3 -0.000421 -0.001894 0.008131 0.000000 -0.005989 0.000000
# 4 0.000000 0.000000 0.000000 0.006265 0.000000 -0.012725
# 5 -0.003815 0.002194 -0.005989 0.000000 0.023817 0.000000
# 6 0.000000 0.000000 0.000000 -0.012725 0.000000 0.014774
#
#
# Mechanical properties :
#
#
# Convention : Reuss Voigt Hill
#
# Bulk Modulus (GPa) = 62.50394 76.75780 69.63087
# Shear Modulus (GPa) = 51.71097 -30.50772 10.60162
#
# Velocity S-wave (km/s) = 4.48066 -3.44156 2.02879
# Velocity P-wave (km/s) = 7.14388 3.74274 5.70277
#
# Compressibility (1/GPa) = 0.01599899
#
# Stress axis : x y z
#
# Youngs Moduli (GPa) = 102.31647 74.92890 122.98727
#
# Poissons Ratio (x) = 0.39793 0.05179
# Poissons Ratio (y) = 0.54339 0.23292
# Poissons Ratio (z) = 0.04309 0.14190
#
# Static dielectric constant tensor:
#      x y z
#    x 2.705980 0.000000 0.865440 
#    y 0.000000 2.050400 0.000000 
#    z 0.865440 0.000000 3.521690 
# 
# From -- ./inp_files/5701.got.cif
#   From: 2010.05.17/outbox.cif.g08.bks.cpg/sg5_3_cif.got.tgz:5701.got - 2010.06.03 18:56:24.
