data_PCOD9129858
_publ_section_title
;
Structure prediction by ZEFSAII (Michael W. Deem and Ramdas Pophale) SiO2 
 PCOD9129858
Probable space group: C 2
;
_chemical_formula_sum "Si O2"
_cell_formula_units_Z 26
_cell_length_a 15.650411
_cell_length_b 6.336007
_cell_length_c 11.269846
_cell_angle_alpha 90.000000
_cell_angle_beta 102.896006
_cell_angle_gamma 90.000000
_cell_volume 1089.342734
_symmetry_space_group_name_H-M "C 2"
_symmetry_group_IT_number 5
_symmetry_cell_setting 'monoclinic'
loop_
_space_group_symop_operation_xyz
x,y,z
-x,y,-z
1/2+x,1/2+y,z
1/2-x,1/2+y,-z
loop_
_atom_site_type_symbol
_atom_site_label
_atom_site_fract_x
_atom_site_fract_y
_atom_site_fract_z
Si Si1 0.212012 0.720670 0.257910
Si Si2 0.848449 0.343109 0.919698
Si Si3 0.428805 0.355082 0.326629
Si Si4 0.000000 0.508663 0.500000
Si Si5 0.812072 0.556686 0.135481
Si Si6 0.922811 0.067382 0.756231
Si Si7 0.151907 0.172134 0.512929
O O1 0.197698 0.501659 0.187552
O O2 0.121157 0.846503 0.221860
O O3 0.251691 0.701018 0.402551
O O4 0.283062 0.863526 0.210047
O O5 0.778070 0.164649 0.936948
O O6 0.921400 0.223458 0.866274
O O7 0.868735 0.475479 0.042915
O O8 0.492975 0.167467 0.387871
O O9 0.360020 0.236470 0.224050
O O10 0.483549 0.529336 0.272683
O O11 0.386896 0.470379 0.427548
O O12 0.913974 0.364345 0.477756
O O13 0.857811 0.145530 0.630698
#
# Coordination Sequence:
#
# PCOD9129858 Si02
#       7
#     4   4   4   2   4   4   4
#     4  11  25  41  71 102 133 183 232 293 348 416
#     4  11  24  45  73  99 139 182 241 299 343 418
#     4  12  24  44  73 106 140 187 237 285 358 435
#     4  12  22  40  72  98 144 186 226 284 348 428
#     4  11  23  45  78  96 130 194 247 281 345 431
#     4  11  27  41  67 110 147 173 229 301 360 417
#     4  12  24  42  71 106 141 185 226 284 363 433
#
# _framework density 23.867604
#
# number of rings (size 3 to 8) (size 9 to 14) (size 15 to 20)
#    0.000    0.615    7.692    0.000    4.308    0.000 
#    0.000    0.769    6.769    0.000    0.000    0.000 
#    0.000    0.000    0.000    0.000    0.000    0.000 
#
# Total GULP energy -72771.705632 kJ/mol
# GULP energy per Si atom -5597.823510 kJ/mol
# Density = 2.381328 g / cm^3
# Si number density = 23.867604 Si / 1000 Ang^3
#
#
#
# Elastic Constant Matrix: (Units=GPa)
#
#
# Indices 1 2 3 4 5 6 
#
# 1 25.0667 8.5941 4.5808 0.0000 -1.7041 0.0000
# 2 8.5941 84.1146 25.8195 0.0000 -7.9906 0.0000
# 3 4.5808 25.8195 82.1204 0.0000 -21.8714 0.0000
# 4 0.0000 0.0000 0.0000 49.0629 0.0000 -3.4922
# 5 -1.7041 -7.9906 -21.8714 0.0000 23.1326 0.0000
# 6 0.0000 0.0000 0.0000 -3.4922 0.0000 31.9926
#
#
#
# Elastic Compliance Matrix: (Units=1/GPa)
#
#
# Indices 1 2 3 4 5 6 
#
# 1 0.041443 -0.003888 -0.000847 0.000000 0.000909 0.000000
# 2 -0.003888 0.013536 -0.003836 0.000000 0.000763 0.000000
# 3 -0.000847 -0.003836 0.017457 0.000000 0.015118 0.000000
# 4 0.000000 0.000000 0.000000 0.020542 0.000000 0.002242
# 5 0.000909 0.000763 0.015118 0.000000 0.057853 0.000000
# 6 0.000000 0.000000 0.000000 0.002242 0.000000 0.031502
#
#
# Mechanical properties :
#
#
# Convention : Reuss Voigt Hill
#
# Bulk Modulus (GPa) = 18.08522 29.92114 24.00318
# Shear Modulus (GPa) = 22.94577 30.99144 26.96860
#
# Velocity S-wave (km/s) = 3.10397 3.60734 3.36508
# Velocity P-wave (km/s) = 4.52106 5.46938 5.01767
#
# Compressibility (1/GPa) = 0.05529376
#
# Stress axis : x y z
#
# Youngs Moduli (GPa) = 24.12947 73.87910 57.28410
#
# Poissons Ratio (x) = 0.28723 0.04854
# Poissons Ratio (y) = 0.09381 0.21973
# Poissons Ratio (z) = 0.02044 0.28338
#
# Static dielectric constant tensor:
#      x y z
#    x 1.925840 0.000000 0.010020 
#    y 0.000000 1.897670 0.000000 
#    z 0.010020 0.000000 1.903560 
# 
# From -- ./inp_files/43764.got.cif
#   From: 2010.05.17/outbox.cif.g08.bks.cpg/sg5_22_cif.got.tgz:43764.got - 2010.06.03 18:56:24.
