data_PCOD9129601
_publ_section_title
;
Structure prediction by ZEFSAII (Michael W. Deem and Ramdas Pophale) SiO2 
 PCOD9129601
Probable space group: C 2
;
_chemical_formula_sum "Si O2"
_cell_formula_units_Z 28
_cell_length_a 24.068207
_cell_length_b 5.192107
_cell_length_c 9.455156
_cell_angle_alpha 90.000000
_cell_angle_beta 82.164988
_cell_angle_gamma 90.000000
_cell_volume 1170.530593
_symmetry_space_group_name_H-M "C 2"
_symmetry_group_IT_number 5
_symmetry_cell_setting 'monoclinic'
loop_
_space_group_symop_operation_xyz
x,y,z
-x,y,-z
1/2+x,1/2+y,z
1/2-x,1/2+y,-z
loop_
_atom_site_type_symbol
_atom_site_label
_atom_site_fract_x
_atom_site_fract_y
_atom_site_fract_z
Si Si1 0.500000 0.753830 0.000000
Si Si2 0.173684 0.868251 0.809154
Si Si3 0.500000 0.184984 0.500000
Si Si4 0.595547 0.790871 0.477187
Si Si5 0.047621 0.931170 0.244534
Si Si6 0.668516 0.242594 0.134232
Si Si7 0.896434 0.373277 0.211302
Si Si8 0.794903 0.249422 0.715188
O O1 0.474269 0.588001 0.881238
O O2 0.551797 0.903041 0.913284
O O3 0.131908 0.651138 0.764257
O O4 0.231583 0.829871 0.705336
O O5 0.147731 0.154035 0.823087
O O6 0.185715 0.792393 0.967655
O O7 0.496015 0.301664 0.344188
O O8 0.558682 0.040115 0.458268
O O9 0.571568 0.595359 0.369366
O O10 0.584129 0.757582 0.645727
O O11 0.661798 0.793345 0.428053
O O12 0.101248 0.772357 0.171681
O O13 0.696769 0.462091 0.224460
O O14 0.684449 0.957135 0.176081
#
# Coordination Sequence:
#
# PCOD9129601 Si02
#       8
#     2   4   2   4   4   4   4   4
#     4  12  26  50  72 112 148 196 236 322 364 432
#     4  12  26  46  71 110 144 192 246 306 361 433
#     4  12  22  44  72 102 142 190 248 290 360 452
#     4  11  27  45  69 106 141 200 235 300 364 445
#     4  11  25  44  73 104 148 190 250 291 371 441
#     4  11  22  44  73 107 142 192 243 301 367 431
#     4  12  29  45  74 104 153 189 243 299 371 431
#     4  11  24  45  76 104 146 191 245 302 368 432
#
# _framework density 23.920774000000002
#
# number of rings (size 3 to 8) (size 9 to 14) (size 15 to 20)
#    0.000    0.571    2.857    4.714    6.000    2.857 
#    0.000    0.000    0.000    0.000    0.000    0.000 
#    0.000    0.000    0.000    0.000    0.000    0.000 
#
# Total GULP energy -78292.010428 kJ/mol
# GULP energy per Si atom -5592.286459 kJ/mol
# Density = 2.386633 g / cm^3
# Si number density = 23.920774 Si / 1000 Ang^3
#
#
#
# Elastic Constant Matrix: (Units=GPa)
#
#
# Indices 1 2 3 4 5 6 
#
# 1 100.0813 18.8655 7.0694 0.0000 -28.0407 0.0000
# 2 18.8655 56.8714 3.1130 0.0000 -9.4149 0.0000
# 3 7.0694 3.1130 92.9464 0.0000 -11.3339 0.0000
# 4 0.0000 0.0000 0.0000 35.1554 0.0000 -3.6311
# 5 -28.0407 -9.4149 -11.3339 0.0000 37.4707 0.0000
# 6 0.0000 0.0000 0.0000 -3.6311 0.0000 14.1991
#
#
#
# Elastic Compliance Matrix: (Units=1/GPa)
#
#
# Indices 1 2 3 4 5 6 
#
# 1 0.013070 -0.002835 0.000215 0.000000 0.009133 0.000000
# 2 -0.002835 0.018962 -0.000101 0.000000 0.002612 0.000000
# 3 0.000215 -0.000101 0.011175 0.000000 0.003515 0.000000
# 4 0.000000 0.000000 0.000000 0.029217 0.000000 0.007471
# 5 0.009133 0.002612 0.003515 0.000000 0.035242 0.000000
# 6 0.000000 0.000000 0.000000 0.007471 0.000000 0.072337
#
#
# Mechanical properties :
#
#
# Convention : Reuss Voigt Hill
#
# Bulk Modulus (GPa) = 26.48072 34.22167 30.35119
# Shear Modulus (GPa) = 25.24816 32.08846 28.66831
#
# Velocity S-wave (km/s) = 3.25236 3.66655 3.46565
# Velocity P-wave (km/s) = 5.01976 5.67997 5.36004
#
# Compressibility (1/GPa) = 0.03776332
#
# Stress axis : x y z
#
# Youngs Moduli (GPa) = 76.51007 52.73700 89.48862
#
# Poissons Ratio (x) = 0.14953 -0.01920
# Poissons Ratio (y) = 0.21694 0.00903
# Poissons Ratio (z) = -0.01642 0.00532
#
# Static dielectric constant tensor:
#      x y z
#    x 2.000130 0.000000 -0.004040 
#    y 0.000000 2.026400 0.000000 
#    z -0.004040 0.000000 1.886930 
# 
# From -- ./inp_files/31384.got.cif
#   From: 2010.05.17/outbox.cif.g08.bks.cpg/sg5_16_cif.got.tgz:31384.got - 2010.06.03 18:56:24.
