data_PCOD9129515
_publ_section_title
;
Structure prediction by ZEFSAII (Michael W. Deem and Ramdas Pophale) SiO2 
 PCOD9129515
Probable space group: C 2
;
_chemical_formula_sum "Si O2"
_cell_formula_units_Z 32
_cell_length_a 21.140846
_cell_length_b 14.266519
_cell_length_c 15.433192
_cell_angle_alpha 90.000000
_cell_angle_beta 18.377495
_cell_angle_gamma 90.000000
_cell_volume 1467.531648
_symmetry_space_group_name_H-M "C 2"
_symmetry_group_IT_number 5
_symmetry_cell_setting 'monoclinic'
loop_
_space_group_symop_operation_xyz
x,y,z
-x,y,-z
1/2+x,1/2+y,z
1/2-x,1/2+y,-z
loop_
_atom_site_type_symbol
_atom_site_label
_atom_site_fract_x
_atom_site_fract_y
_atom_site_fract_z
Si Si1 0.734545 0.315820 0.437577
Si Si2 0.865440 0.600887 0.401683
Si Si3 0.222769 0.228287 0.971611
Si Si4 0.981984 0.549344 0.625579
Si Si5 0.622703 0.588094 0.544902
Si Si6 0.685073 0.852527 0.868908
Si Si7 0.726048 0.565082 0.225956
Si Si8 0.643036 0.409390 0.096405
O O1 0.716227 0.205361 0.474770
O O2 0.751672 0.337497 0.312370
O O3 0.531583 0.363893 0.735671
O O4 0.945236 0.355914 0.196227
O O5 0.733982 0.565794 0.490368
O O6 0.858668 0.543775 0.501922
O O7 0.093542 0.601247 0.068064
O O8 0.006252 0.182906 0.274002
O O9 0.370457 0.144126 0.799939
O O10 0.245868 0.260877 0.842644
O O11 0.284707 0.322359 0.940266
O O12 0.000000 0.566167 0.500000
O O13 0.845798 0.456781 0.801520
O O14 0.763065 0.591475 0.278388
O O15 0.472642 0.501682 0.717201
O O16 0.769191 0.952062 0.789543
O O17 0.500000 0.599801 0.500000
#
# Coordination Sequence:
#
# PCOD9129515 Si02
#       8
#     4   4   4   4   4   4   4   4
#     4  11  23  40  64  99 134 179 225 288 350 408
#     4  12  24  44  68 101 145 179 233 292 355 416
#     4  11  22  41  69 101 137 179 232 288 346 423
#     4  11  25  45  68 100 136 187 231 288 351 424
#     4  11  24  44  68 107 142 184 233 291 357 421
#     4  11  23  40  69 103 131 173 235 292 355 412
#     4  12  25  42  72 104 138 182 233 289 353 417
#     4  11  23  43  67  97 140 180 233 290 349 416
#
# _framework density 21.805320999999999
#
# number of rings (size 3 to 8) (size 9 to 14) (size 15 to 20)
#    0.000    0.750    3.750    4.875    1.750    0.000 
#    2.250    0.000    0.000    0.000    0.000    0.000 
#    0.000    0.000    0.000    0.000    0.000    0.000 
#
# Total GULP energy -89216.007233 kJ/mol
# GULP energy per Si atom -5576.000452 kJ/mol
# Density = 2.175569 g / cm^3
# Si number density = 21.805321 Si / 1000 Ang^3
#
#
#
# Elastic Constant Matrix: (Units=GPa)
#
#
# Indices 1 2 3 4 5 6 
#
# 1 128.7056 24.8477 39.7274 0.0010 -2.1879 0.0012
# 2 24.8477 72.7829 29.1548 0.0001 -8.9709 0.0018
# 3 39.7274 29.1548 60.5505 0.0034 -16.3328 0.0045
# 4 0.0010 0.0001 0.0034 40.8890 -0.0010 0.4366
# 5 -2.1879 -8.9709 -16.3328 -0.0010 29.4158 -0.0012
# 6 0.0012 0.0018 0.0045 0.4366 -0.0012 27.3992
#
#
#
# Elastic Compliance Matrix: (Units=1/GPa)
#
#
# Indices 1 2 3 4 5 6 
#
# 1 0.010091 -0.001048 -0.007057 0.000000 -0.003487 0.000001
# 2 -0.001048 0.017146 -0.007267 0.000001 0.001116 0.000000
# 3 -0.007057 -0.007267 0.028115 -0.000002 0.012870 -0.000003
# 4 0.000000 0.000001 -0.000002 0.024461 0.000000 -0.000390
# 5 -0.003487 0.001116 0.012870 0.000000 0.041222 0.000000
# 6 0.000001 0.000000 -0.000003 -0.000390 0.000000 0.036504
#
#
# Mechanical properties :
#
#
# Convention : Reuss Voigt Hill
#
# Bulk Modulus (GPa) = 40.63579 49.94430 45.29005
# Shear Modulus (GPa) = 25.44728 30.76144 28.10436
#
# Velocity S-wave (km/s) = 3.41988 3.76004 3.59399
# Velocity P-wave (km/s) = 5.85408 6.46567 6.16746
#
# Compressibility (1/GPa) = 0.02460885
#
# Stress axis : x y z
#
# Youngs Moduli (GPa) = 99.09918 58.32343 35.56762
#
# Poissons Ratio (x) = 0.06113 0.25099
# Poissons Ratio (y) = 0.10387 0.25847
# Poissons Ratio (z) = 0.69931 0.42383
#
# Static dielectric constant tensor:
#      x y z
#    x 2.138440 0.000000 0.004010 
#    y 0.000000 1.747130 0.000000 
#    z 0.004010 0.000000 1.853110 
# 
# From -- ./inp_files/57178.got.cif
#   From: 2010.05.17/outbox.cif.g08.bks.cpg/sg5_29_cif.got.tgz:57178.got - 2010.06.03 18:56:24.
