data_PCOD9129227
_publ_section_title
;
Structure prediction by ZEFSAII (Michael W. Deem and Ramdas Pophale) SiO2 
 PCOD9129227
Probable space group: C 2
;
_chemical_formula_sum "Si O2"
_cell_formula_units_Z 28
_cell_length_a 27.446005
_cell_length_b 9.823257
_cell_length_c 9.289398
_cell_angle_alpha 90.000000
_cell_angle_beta 37.691852
_cell_angle_gamma 90.000000
_cell_volume 1531.291808
_symmetry_space_group_name_H-M "C 2"
_symmetry_group_IT_number 5
_symmetry_cell_setting 'monoclinic'
loop_
_space_group_symop_operation_xyz
x,y,z
-x,y,-z
1/2+x,1/2+y,z
1/2-x,1/2+y,-z
loop_
_atom_site_type_symbol
_atom_site_label
_atom_site_fract_x
_atom_site_fract_y
_atom_site_fract_z
Si Si1 0.713054 0.986600 0.908537
Si Si2 0.841967 0.075637 0.378124
Si Si3 0.468660 0.604743 0.321050
Si Si4 0.555766 0.340795 0.997898
Si Si5 0.652652 0.496894 0.169000
Si Si6 0.358067 0.709231 0.047914
Si Si7 0.916947 0.710584 0.773170
O O1 0.772875 0.967118 0.902342
O O2 0.673881 0.848004 0.943628
O O3 0.767144 0.048970 0.654281
O O4 0.645662 0.092713 0.110287
O O5 0.913454 0.133947 0.311590
O O6 0.827680 0.176407 0.279302
O O7 0.873683 0.931239 0.238213
O O8 0.505181 0.456095 0.200867
O O9 0.411248 0.585714 0.590921
O O10 0.545140 0.699167 0.168382
O O11 0.576910 0.230979 0.068391
O O12 0.500000 0.287165 0.000000
O O13 0.614306 0.354689 0.213347
O O14 0.670792 0.585801 0.986515
O O15 0.000000 0.681905 0.500000
#
# Coordination Sequence:
#
# PCOD9129227 Si02
#       7
#     4   4   4   4   4   4   4
#     4  11  27  37  54  93 130 148 187 256 312 338
#     4   9  20  37  61  84 117 148 201 244 290 353
#     4   9  17  35  64  88 103 150 210 243 267 353
#     4   9  17  34  61  88 105 147 205 246 273 339
#     4  11  20  40  62  85 114 164 206 235 282 362
#     4  11  20  37  61  88 114 158 197 244 296 350
#     4  12  22  40  62  88 120 160 201 245 295 355
#
# _framework density 18.285215000000001
#
# number of rings (size 3 to 8) (size 9 to 14) (size 15 to 20)
#    0.000    1.714    4.286    2.571    2.000    1.143 
#    0.000    1.429    0.000    0.000    0.000    0.000 
#    0.000    0.000    0.000    0.000    0.000    0.000 
#
# Total GULP energy -78134.620990 kJ/mol
# GULP energy per Si atom -5581.044356 kJ/mol
# Density = 1.824360 g / cm^3
# Si number density = 18.285215 Si / 1000 Ang^3
#
#
#
# Elastic Constant Matrix: (Units=GPa)
#
#
# Indices 1 2 3 4 5 6 
#
# 1 134.2865 41.0353 61.2855 0.0000 0.4466 0.0000
# 2 41.0353 41.0434 38.0529 0.0000 -7.6235 0.0000
# 3 61.2855 38.0529 61.7946 0.0000 -7.2170 0.0000
# 4 0.0000 0.0000 0.0000 10.1926 0.0000 -2.8833
# 5 0.4466 -7.6235 -7.2170 0.0000 26.6520 0.0000
# 6 0.0000 0.0000 0.0000 -2.8833 0.0000 6.0582
#
#
#
# Elastic Compliance Matrix: (Units=1/GPa)
#
#
# Indices 1 2 3 4 5 6 
#
# 1 0.014240 -0.003500 -0.012507 0.000000 -0.004627 0.000000
# 2 -0.003500 0.058936 -0.031853 0.000000 0.008291 0.000000
# 3 -0.012507 -0.031853 0.048702 0.000000 0.004286 0.000000
# 4 0.000000 0.000000 0.000000 0.113375 0.000000 0.053959
# 5 -0.004627 0.008291 0.004286 0.000000 0.041131 0.000000
# 6 0.000000 0.000000 0.000000 0.053959 0.000000 0.190748
#
#
# Mechanical properties :
#
#
# Convention : Reuss Voigt Hill
#
# Bulk Modulus (GPa) = 38.23023 57.54133 47.88578
# Shear Modulus (GPa) = 8.74780 15.03060 11.88920
#
# Velocity S-wave (km/s) = 2.18963 2.87018 2.55268
# Velocity P-wave (km/s) = 5.22932 6.52081 5.91045
#
# Compressibility (1/GPa) = 0.02615731
#
# Stress axis : x y z
#
# Youngs Moduli (GPa) = 70.22511 16.96753 20.53285
#
# Poissons Ratio (x) = 0.05939 0.25681
# Poissons Ratio (y) = 0.24581 0.65403
# Poissons Ratio (z) = 0.87833 0.54046
#
# Static dielectric constant tensor:
#      x y z
#    x 1.669390 0.000000 0.010060 
#    y 0.000000 1.586800 0.000000 
#    z 0.010060 0.000000 1.641910 
# 
# From -- ./inp_files/31748.got.cif
#   From: 2010.05.17/outbox.cif.g08.bks.cpg/sg5_16_cif.got.tgz:31748.got - 2010.06.03 18:56:24.
