data_PCOD9129847
_publ_section_title
;
Structure prediction by ZEFSAII (Michael W. Deem and Ramdas Pophale) SiO2 
 PCOD9129847
Probable space group: C 2
;
_chemical_formula_sum "Si O2"
_cell_formula_units_Z 16
_cell_length_a 7.746132
_cell_length_b 20.653009
_cell_length_c 7.391676
_cell_angle_alpha 90.000000
_cell_angle_beta 37.168078
_cell_angle_gamma 90.000000
_cell_volume 714.430021
_symmetry_space_group_name_H-M "C 2"
_symmetry_group_IT_number 5
_symmetry_cell_setting 'monoclinic'
loop_
_space_group_symop_operation_xyz
x,y,z
-x,y,-z
1/2+x,1/2+y,z
1/2-x,1/2+y,-z
loop_
_atom_site_type_symbol
_atom_site_label
_atom_site_fract_x
_atom_site_fract_y
_atom_site_fract_z
Si Si1 0.000000 0.220520 0.000000
Si Si2 0.613577 0.315678 0.087128
Si Si3 0.296405 0.039112 0.340565
Si Si4 0.614784 0.893338 0.694807
Si Si5 0.000000 0.625573 0.500000
O O1 0.819057 0.265989 0.017955
O O2 0.770632 0.172791 0.277756
O O3 0.362300 0.343638 0.424883
O O4 0.500000 0.283377 0.000000
O O5 0.819166 0.374018 0.844956
O O6 0.448230 0.080859 0.368448
O O7 0.000000 0.063140 0.500000
O O8 0.265374 0.965036 0.436112
O O9 0.500000 0.035300 0.000000
O O10 0.500000 0.889607 0.000000
#
# Coordination Sequence:
#
# PCOD9129847 Si02
#       5
#     2   4   4   4   2
#     4  12  28  48  70 100 152 190 240 290 346 422
#     4  12  26  43  72 107 144 192 237 294 360 426
#     4  11  25  46  73 110 143 185 235 302 361 420
#     4  11  23  45  73 108 153 178 229 305 370 426
#     4  12  28  48  76 100 142 202 242 284 350 440
#
# _framework density 22.395477
#
# number of rings (size 3 to 8) (size 9 to 14) (size 15 to 20)
#    0.000    0.500    1.250    7.500    3.500    3.000 
#    0.000    0.000    0.000    0.000    0.000    0.000 
#    0.000    0.000    0.000    0.000    0.000    0.000 
#
# Total GULP energy -44699.276201 kJ/mol
# GULP energy per Si atom -5587.409525 kJ/mol
# Density = 2.234450 g / cm^3
# Si number density = 22.395477 Si / 1000 Ang^3
#
#
#
# Elastic Constant Matrix: (Units=GPa)
#
#
# Indices 1 2 3 4 5 6 
#
# 1 160.2776 63.3822 35.6053 0.0000 1.6804 0.0000
# 2 63.3822 116.1935 39.4542 0.0000 12.1020 0.0000
# 3 35.6053 39.4542 136.1889 0.0000 -14.2416 0.0000
# 4 0.0000 0.0000 0.0000 59.4113 0.0000 13.4488
# 5 1.6804 12.1020 -14.2416 0.0000 30.5403 0.0000
# 6 0.0000 0.0000 0.0000 13.4488 0.0000 54.9063
#
#
#
# Elastic Compliance Matrix: (Units=1/GPa)
#
#
# Indices 1 2 3 4 5 6 
#
# 1 0.008078 -0.004225 -0.000798 0.000000 0.000857 0.000000
# 2 -0.004225 0.012659 -0.003220 0.000000 -0.006285 0.000000
# 3 -0.000798 -0.003220 0.009064 0.000000 0.005547 0.000000
# 4 0.000000 0.000000 0.000000 0.017820 0.000000 -0.004365
# 5 0.000857 -0.006285 0.005547 0.000000 0.037774 0.000000
# 6 0.000000 0.000000 0.000000 -0.004365 0.000000 0.019282
#
#
# Mechanical properties :
#
#
# Convention : Reuss Voigt Hill
#
# Bulk Modulus (GPa) = 75.10288 76.61593 75.85940
# Shear Modulus (GPa) = 39.80826 47.25280 43.53053
#
# Velocity S-wave (km/s) = 4.22063 4.59838 4.41355
# Velocity P-wave (km/s) = 7.57359 7.90431 7.74072
#
# Compressibility (1/GPa) = 0.01331507
#
# Stress axis : x y z
#
# Youngs Moduli (GPa) = 123.78920 78.99550 110.32185
#
# Poissons Ratio (x) = 0.33374 0.08808
# Poissons Ratio (y) = 0.52298 0.35525
# Poissons Ratio (z) = 0.09883 0.25437
#
# Static dielectric constant tensor:
#      x y z
#    x 1.906020 0.000000 0.007660 
#    y 0.000000 1.861360 0.000000 
#    z 0.007660 0.000000 1.787210 
# 
# From -- ./inp_files/15986.got.cif
#   From: 2010.05.17/outbox.cif.g08.bks.cpg/sg5_8_cif.got.tgz:15986.got - 2010.06.03 18:56:24.
