data_PCOD9129749
_publ_section_title
;
Structure prediction by ZEFSAII (Michael W. Deem and Ramdas Pophale) SiO2 
 PCOD9129749
Probable space group: C 2
;
_chemical_formula_sum "Si O2"
_cell_formula_units_Z 26
_cell_length_a 9.090247
_cell_length_b 19.537687
_cell_length_c 8.146666
_cell_angle_alpha 90.000000
_cell_angle_beta 126.291146
_cell_angle_gamma 90.000000
_cell_volume 1166.203742
_symmetry_space_group_name_H-M "C 2"
_symmetry_group_IT_number 5
_symmetry_cell_setting 'monoclinic'
loop_
_space_group_symop_operation_xyz
x,y,z
-x,y,-z
1/2+x,1/2+y,z
1/2-x,1/2+y,-z
loop_
_atom_site_type_symbol
_atom_site_label
_atom_site_fract_x
_atom_site_fract_y
_atom_site_fract_z
Si Si1 0.835979 0.956590 0.511235
Si Si2 0.173871 0.853252 0.223003
Si Si3 0.500000 0.149402 0.000000
Si Si4 0.853462 0.091614 0.672669
Si Si5 0.292871 0.719382 0.424790
Si Si6 0.761651 0.552511 0.053622
Si Si7 0.942654 0.407668 0.138745
O O1 0.871511 0.923947 0.713924
O O2 0.635372 0.932000 0.335025
O O3 0.000000 0.935263 0.500000
O O4 0.825060 0.038618 0.506377
O O5 0.223750 0.797268 0.394164
O O6 0.339765 0.861458 0.204168
O O7 0.000000 0.833607 0.000000
O O8 0.340174 0.190954 0.804964
O O9 0.588140 0.101304 0.922465
O O10 0.796286 0.167403 0.580493
O O11 0.741298 0.063513 0.753356
O O12 0.065900 0.079770 0.859945
O O13 0.500000 0.719739 0.500000
O O14 0.812293 0.475002 0.034971
O O15 0.000000 0.377251 0.000000
#
# Coordination Sequence:
#
# PCOD9129749 Si02
#       7
#     4   4   2   4   4   4   4
#     4  12  25  43  71 106 142 186 238 296 360 428
#     4  12  26  49  73 103 145 191 240 298 362 434
#     4  12  24  44  70 102 138 184 236 298 352 426
#     4  11  24  43  71 105 145 185 237 295 357 429
#     4  12  25  47  71 102 145 192 235 292 358 431
#     4  11  23  42  71 109 140 182 238 304 359 417
#     4  12  24  43  73 109 143 183 238 300 365 426
#
# _framework density 22.294561000000002
#
# number of rings (size 3 to 8) (size 9 to 14) (size 15 to 20)
#    0.000    0.308    4.615    5.538    0.000    1.846 
#    2.769    1.538    0.000    0.000    0.000    0.000 
#    0.000    0.000    0.000    0.000    0.000    0.000 
#
# Total GULP energy -72706.865634 kJ/mol
# GULP energy per Si atom -5592.835818 kJ/mol
# Density = 2.224382 g / cm^3
# Si number density = 22.294561 Si / 1000 Ang^3
#
#
#
# Elastic Constant Matrix: (Units=GPa)
#
#
# Indices 1 2 3 4 5 6 
#
# 1 144.2807 25.6271 28.4316 0.0000 2.8490 0.0000
# 2 25.6271 94.9179 17.6840 0.0000 -2.1261 0.0000
# 3 28.4316 17.6840 85.9138 0.0000 21.0293 0.0000
# 4 0.0000 0.0000 0.0000 42.6956 0.0000 -2.7782
# 5 2.8490 -2.1261 21.0293 0.0000 37.6429 0.0000
# 6 0.0000 0.0000 0.0000 -2.7782 0.0000 21.6026
#
#
#
# Elastic Compliance Matrix: (Units=1/GPa)
#
#
# Indices 1 2 3 4 5 6 
#
# 1 0.007671 -0.001616 -0.002365 0.000000 0.000649 0.000000
# 2 -0.001616 0.011452 -0.002329 0.000000 0.002070 0.000000
# 3 -0.002365 -0.002329 0.014932 0.000000 -0.008294 0.000000
# 4 0.000000 0.000000 0.000000 0.023619 0.000000 0.003038
# 5 0.000649 0.002070 -0.008294 0.000000 0.031267 0.000000
# 6 0.000000 0.000000 0.000000 0.003038 0.000000 0.046681
#
#
# Mechanical properties :
#
#
# Convention : Reuss Voigt Hill
#
# Bulk Modulus (GPa) = 46.65310 52.06641 49.35975
# Shear Modulus (GPa) = 32.17756 37.27953 34.72854
#
# Velocity S-wave (km/s) = 3.80319 4.09361 3.95107
# Velocity P-wave (km/s) = 6.34483 6.76373 6.55763
#
# Compressibility (1/GPa) = 0.02143480
#
# Stress axis : x y z
#
# Youngs Moduli (GPa) = 130.35810 87.32059 66.97092
#
# Poissons Ratio (x) = 0.14111 0.15838
# Poissons Ratio (y) = 0.21066 0.15599
# Poissons Ratio (z) = 0.30829 0.20339
#
# Static dielectric constant tensor:
#      x y z
#    x 1.803790 0.000000 -0.011750 
#    y 0.000000 1.834060 0.000000 
#    z -0.011750 0.000000 1.860340 
# 
# From -- ./inp_files/17072.got.cif
#   From: 2010.05.17/outbox.cif.g08.bks.cpg/sg5_9_cif.got.tgz:17072.got - 2010.06.03 18:56:24.
