data_PCOD9129312
_publ_section_title
;
Structure prediction by ZEFSAII (Michael W. Deem and Ramdas Pophale) SiO2 
 PCOD9129312
Probable space group: C 2
;
_chemical_formula_sum "Si O2"
_cell_formula_units_Z 28
_cell_length_a 19.569822
_cell_length_b 5.209120
_cell_length_c 11.994345
_cell_angle_alpha 90.000000
_cell_angle_beta 68.405667
_cell_angle_gamma 90.000000
_cell_volume 1136.902804
_symmetry_space_group_name_H-M "C 2"
_symmetry_group_IT_number 5
_symmetry_cell_setting 'monoclinic'
loop_
_space_group_symop_operation_xyz
x,y,z
-x,y,-z
1/2+x,1/2+y,z
1/2-x,1/2+y,-z
loop_
_atom_site_type_symbol
_atom_site_label
_atom_site_fract_x
_atom_site_fract_y
_atom_site_fract_z
Si Si1 0.350184 0.179050 0.123423
Si Si2 0.906462 0.720744 0.853086
Si Si3 0.369006 0.208615 0.357272
Si Si4 0.776344 0.447205 0.583709
Si Si5 0.745140 0.185473 0.183995
Si Si6 0.401603 0.587479 0.506281
Si Si7 0.471725 0.715030 0.701683
O O1 0.393088 0.160869 0.216823
O O2 0.296278 0.429299 0.141007
O O3 0.297551 0.931014 0.151506
O O4 0.404039 0.179684 0.986511
O O5 0.820830 0.725892 0.864076
O O6 0.940829 0.477895 0.768599
O O7 0.949904 0.981033 0.795901
O O8 0.310894 0.442280 0.368930
O O9 0.309596 0.018890 0.445381
O O10 0.412640 0.314664 0.438062
O O11 0.794608 0.639059 0.673204
O O12 0.820316 0.187590 0.582015
O O13 0.438190 0.625436 0.603843
O O14 0.443489 0.757447 0.385355
#
# Coordination Sequence:
#
# PCOD9129312 Si02
#       7
#     4   4   4   4   4   4   4
#     4  11  25  40  66 100 140 178 223 275 345 417
#     4  12  23  45  66  97 138 181 232 279 336 414
#     4  11  23  38  66  99 137 172 218 278 348 408
#     4  11  21  37  66  96 135 165 217 283 347 394
#     4  11  22  39  68 101 134 176 222 285 349 403
#     4  11  25  44  66 102 131 179 230 291 339 410
#     4  11  27  44  72  96 133 184 233 284 341 400
#
# _framework density 24.628312999999999
#
# number of rings (size 3 to 8) (size 9 to 14) (size 15 to 20)
#    0.000    0.857    2.857    4.286    8.000    1.143 
#    0.000    0.714    0.000    0.000    0.000    0.000 
#    0.000    0.000    0.000    0.000    0.000    0.000 
#
# Total GULP energy -78140.525133 kJ/mol
# GULP energy per Si atom -5581.466081 kJ/mol
# Density = 2.457226 g / cm^3
# Si number density = 24.628313 Si / 1000 Ang^3
#
#
#
# Elastic Constant Matrix: (Units=GPa)
#
#
# Indices 1 2 3 4 5 6 
#
# 1 44.8891 -1.1586 12.6549 0.0000 -7.8730 0.0000
# 2 -1.1586 137.2823 25.7801 0.0000 -17.2041 0.0000
# 3 12.6549 25.7801 169.5460 0.0000 1.3048 0.0000
# 4 0.0000 0.0000 0.0000 33.7879 0.0000 -9.2068
# 5 -7.8730 -17.2041 1.3048 0.0000 28.1294 0.0000
# 6 0.0000 0.0000 0.0000 -9.2068 0.0000 23.7176
#
#
#
# Elastic Compliance Matrix: (Units=1/GPa)
#
#
# Indices 1 2 3 4 5 6 
#
# 1 0.024295 0.001588 -0.002115 0.000000 0.007869 0.000000
# 2 0.001588 0.008261 -0.001417 0.000000 0.005563 0.000000
# 3 -0.002115 -0.001417 0.006285 0.000000 -0.001751 0.000000
# 4 0.000000 0.000000 0.000000 0.033097 0.000000 0.012848
# 5 0.007869 0.005563 -0.001751 0.000000 0.041236 0.000000
# 6 0.000000 0.000000 0.000000 0.012848 0.000000 0.047150
#
#
# Mechanical properties :
#
#
# Convention : Reuss Voigt Hill
#
# Bulk Modulus (GPa) = 28.61086 47.36335 37.98711
# Shear Modulus (GPa) = 28.43112 38.08971 33.26042
#
# Velocity S-wave (km/s) = 3.40134 3.93693 3.67890
# Velocity P-wave (km/s) = 5.20267 6.31972 5.78821
#
# Compressibility (1/GPa) = 0.03495177
#
# Stress axis : x y z
#
# Youngs Moduli (GPa) = 41.16128 121.05095 159.10884
#
# Poissons Ratio (x) = -0.19229 0.33659
# Poissons Ratio (y) = -0.06538 0.22553
# Poissons Ratio (z) = 0.08707 0.17159
#
# Static dielectric constant tensor:
#      x y z
#    x 2.136990 0.000000 0.042720 
#    y 0.000000 2.122760 0.000000 
#    z 0.042720 0.000000 2.005850 
# 
# From -- ./inp_files/45655.got.cif
#   From: 2010.05.17/outbox.cif.g08.bks.cpg/sg5_23_cif.got.tgz:45655.got - 2010.06.03 18:56:24.
