data_PCOD9129213
_publ_section_title
;
Structure prediction by ZEFSAII (Michael W. Deem and Ramdas Pophale) SiO2 
 PCOD9129213
Probable space group: C 2
;
_chemical_formula_sum "Si O2"
_cell_formula_units_Z 16
_cell_length_a 18.601169
_cell_length_b 5.117058
_cell_length_c 14.720401
_cell_angle_alpha 90.000000
_cell_angle_beta 34.995448
_cell_angle_gamma 90.000000
_cell_volume 803.567271
_symmetry_space_group_name_H-M "C 2"
_symmetry_group_IT_number 5
_symmetry_cell_setting 'monoclinic'
loop_
_space_group_symop_operation_xyz
x,y,z
-x,y,-z
1/2+x,1/2+y,z
1/2-x,1/2+y,-z
loop_
_atom_site_type_symbol
_atom_site_label
_atom_site_fract_x
_atom_site_fract_y
_atom_site_fract_z
Si Si1 0.147090 0.875000 0.856506
Si Si2 0.781799 0.367615 0.523173
Si Si3 0.712294 0.380031 0.241009
Si Si4 0.025400 0.654032 0.568955
O O1 0.204145 0.858613 0.696513
O O2 0.220328 0.653721 0.836777
O O3 0.183877 0.154843 0.859276
O O4 0.000000 0.832466 0.000000
O O5 0.721140 0.590215 0.522490
O O6 0.917968 0.477688 0.411835
O O7 0.631617 0.352222 0.419412
O O8 0.604165 0.304484 0.280885
O O9 0.000000 0.494009 0.500000
#
# Coordination Sequence:
#
# PCOD9129213 Si02
#       4
#     4   4   4   4
#     4  11  20  35  55  84 114 151 185 226 275 348
#     4  11  22  36  56  90 119 140 182 244 293 315
#     4   8  18  31  55  80 103 142 200 224 257 318
#     4   7  17  35  56  83 108 145 193 231 264 330
#
# _framework density 19.911213
#
# number of rings (size 3 to 8) (size 9 to 14) (size 15 to 20)
#    1.500    1.000    0.000    3.750    0.000   10.000 
#    0.000    0.000    0.000    6.000    0.000    0.000 
#    0.000    0.000    0.000    0.000    0.000    0.000 
#
# Total GULP energy -44545.768485 kJ/mol
# GULP energy per Si atom -5568.221061 kJ/mol
# Density = 1.986589 g / cm^3
# Si number density = 19.911213 Si / 1000 Ang^3
#
#
#
# Elastic Constant Matrix: (Units=GPa)
#
#
# Indices 1 2 3 4 5 6 
#
# 1 58.7846 10.2924 13.6432 -0.0015 -20.7624 0.0067
# 2 10.2924 68.8244 15.1720 -0.0030 -0.5981 0.0077
# 3 13.6432 15.1720 71.3818 -0.0063 -34.1150 -0.0086
# 4 -0.0015 -0.0030 -0.0063 11.5918 0.0027 -2.2083
# 5 -20.7624 -0.5981 -34.1150 0.0027 25.3299 0.0014
# 6 0.0067 0.0077 -0.0086 -2.2083 0.0014 11.6807
#
#
#
# Elastic Compliance Matrix: (Units=1/GPa)
#
#
# Indices 1 2 3 4 5 6 
#
# 1 0.035173 -0.010368 0.025659 0.000001 0.063144 -0.000002
# 2 -0.010368 0.019532 -0.016869 -0.000001 -0.030757 -0.000016
# 3 0.025659 -0.016869 0.063290 0.000015 0.105875 0.000033
# 4 0.000001 -0.000001 0.000015 0.089491 0.000010 0.016919
# 5 0.063144 -0.030757 0.105875 0.000010 0.233105 0.000036
# 6 -0.000002 -0.000016 0.000033 0.016919 0.000036 0.088810
#
#
# Mechanical properties :
#
#
# Convention : Reuss Voigt Hill
#
# Bulk Modulus (GPa) = 8.70780 30.80068 19.75424
# Shear Modulus (GPa) = 8.75906 20.37935 14.56921
#
# Velocity S-wave (km/s) = 2.09967 3.20271 2.70795
# Velocity P-wave (km/s) = 3.20327 5.40176 4.44072
#
# Compressibility (1/GPa) = 0.11483958
#
# Stress axis : x y z
#
# Youngs Moduli (GPa) = 28.43051 51.19906 15.80020
#
# Poissons Ratio (x) = 0.53082 -0.40542
# Poissons Ratio (y) = 0.29476 0.26654
# Poissons Ratio (z) = -0.72949 0.86368
#
# Static dielectric constant tensor:
#      x y z
#    x 1.755580 -0.000010 -0.034580 
#    y -0.000010 1.731490 0.000010 
#    z -0.034580 0.000010 1.706720 
# 
# From -- ./inp_files/28079.got.cif
#   From: 2010.05.17/outbox.cif.g08.bks.cpg/sg5_15_cif.got.tgz:28079.got - 2010.06.03 18:56:24.
