data_PCOD9129846
_publ_section_title
;
Structure prediction by ZEFSAII (Michael W. Deem and Ramdas Pophale) SiO2 
 PCOD9129846
Probable space group: C 2
;
_chemical_formula_sum "Si O2"
_cell_formula_units_Z 24
_cell_length_a 12.695751
_cell_length_b 7.884036
_cell_length_c 14.413710
_cell_angle_alpha 90.000000
_cell_angle_beta 138.045466
_cell_angle_gamma 90.000000
_cell_volume 964.518624
_symmetry_space_group_name_H-M "C 2"
_symmetry_group_IT_number 5
_symmetry_cell_setting 'monoclinic'
loop_
_space_group_symop_operation_xyz
x,y,z
-x,y,-z
1/2+x,1/2+y,z
1/2-x,1/2+y,-z
loop_
_atom_site_type_symbol
_atom_site_label
_atom_site_fract_x
_atom_site_fract_y
_atom_site_fract_z
Si Si1 0.158446 0.561300 0.395170
Si Si2 0.153878 0.131473 0.655924
Si Si3 0.837774 0.091750 0.005895
Si Si4 0.353977 0.239602 0.284697
Si Si5 0.350631 0.680032 0.679745
Si Si6 0.345882 0.210559 0.949260
O O1 0.305550 0.565653 0.562734
O O2 0.208416 0.645029 0.330454
O O3 0.134329 0.367279 0.352649
O O4 0.012407 0.656298 0.347616
O O5 0.000000 0.188504 0.500000
O O6 0.131177 0.937106 0.676921
O O7 0.778215 0.203884 0.880649
O O8 0.872570 0.901044 0.999416
O O9 0.702130 0.098356 0.994882
O O10 0.992330 0.151951 0.159835
O O11 0.290559 0.159401 0.338513
O O12 0.706727 0.725423 0.782686
O O13 0.500000 0.140421 0.000000
#
# Coordination Sequence:
#
# PCOD9129846 Si02
#       6
#     4   4   4   4   4   4
#     4  11  24  45  75 108 146 192 238 295 360 428
#     4  11  25  46  71 103 145 190 238 296 359 425
#     4  12  26  47  74 105 144 190 239 297 362 429
#     4  11  23  45  73 105 146 190 237 293 357 426
#     4  11  25  45  74 109 146 191 241 295 360 428
#     4  12  27  48  75 106 143 187 239 300 362 430
#
# _framework density 24.882877000000001
#
# number of rings (size 3 to 8) (size 9 to 14) (size 15 to 20)
#    0.000    0.667    0.000    8.000    0.000    8.000 
#    0.000    5.000    0.000    0.000    0.000    0.000 
#    0.000    0.000    0.000    0.000    0.000    0.000 
#
# Total GULP energy -67311.068873 kJ/mol
# GULP energy per Si atom -5609.255739 kJ/mol
# Density = 2.482624 g / cm^3
# Si number density = 24.882877 Si / 1000 Ang^3
#
#
#
# Elastic Constant Matrix: (Units=GPa)
#
#
# Indices 1 2 3 4 5 6 
#
# 1 184.1622 25.6162 3.0056 0.0000 -5.7935 0.0000
# 2 25.6162 37.6758 12.2829 0.0000 -7.1188 0.0000
# 3 3.0056 12.2829 119.7694 0.0000 -27.8659 0.0000
# 4 0.0000 0.0000 0.0000 49.6074 0.0000 -9.2945
# 5 -5.7935 -7.1188 -27.8659 0.0000 44.6498 0.0000
# 6 0.0000 0.0000 0.0000 -9.2945 0.0000 42.8917
#
#
#
# Elastic Compliance Matrix: (Units=1/GPa)
#
#
# Indices 1 2 3 4 5 6 
#
# 1 0.006010 -0.004137 0.000353 0.000000 0.000340 0.000000
# 2 -0.004137 0.030672 -0.002373 0.000000 0.002872 0.000000
# 3 0.000353 -0.002373 0.009952 0.000000 0.005878 0.000000
# 4 0.000000 0.000000 0.000000 0.021011 0.000000 0.004553
# 5 0.000340 0.002872 0.005878 0.000000 0.026567 0.000000
# 6 0.000000 0.000000 0.000000 0.004553 0.000000 0.024301
#
#
# Mechanical properties :
#
#
# Convention : Reuss Voigt Hill
#
# Bulk Modulus (GPa) = 29.13961 47.04632 38.09296
# Shear Modulus (GPa) = 35.14481 47.47663 41.31072
#
# Velocity S-wave (km/s) = 3.76228 4.37281 4.07898
# Velocity P-wave (km/s) = 5.53255 6.66659 6.12587
#
# Compressibility (1/GPa) = 0.03431755
#
# Stress axis : x y z
#
# Youngs Moduli (GPa) = 166.37780 32.60337 100.48688
#
# Poissons Ratio (x) = 0.13489 -0.03544
# Poissons Ratio (y) = 0.68834 0.23850
# Poissons Ratio (z) = -0.05867 0.07738
#
# Static dielectric constant tensor:
#      x y z
#    x 1.968590 0.000000 0.063550 
#    y 0.000000 1.916980 0.000000 
#    z 0.063550 0.000000 1.959430 
# 
# From -- ./inp_files/60222.got.cif
#   From: 2010.05.17/outbox.cif.g08.bks.cpg/sg5_31_cif.got.tgz:60222.got - 2010.06.03 18:56:24.
