data_PCOD9129981
_publ_section_title
;
Structure prediction by ZEFSAII (Michael W. Deem and Ramdas Pophale) SiO2 
 PCOD9129981
Probable space group: C 2
;
_chemical_formula_sum "Si O2"
_cell_formula_units_Z 16
_cell_length_a 4.826165
_cell_length_b 24.203409
_cell_length_c 6.153109
_cell_angle_alpha 90.000000
_cell_angle_beta 98.483080
_cell_angle_gamma 90.000000
_cell_volume 710.879057
_symmetry_space_group_name_H-M "C 2"
_symmetry_group_IT_number 5
_symmetry_cell_setting 'monoclinic'
loop_
_space_group_symop_operation_xyz
x,y,z
-x,y,-z
1/2+x,1/2+y,z
1/2-x,1/2+y,-z
loop_
_atom_site_type_symbol
_atom_site_label
_atom_site_fract_x
_atom_site_fract_y
_atom_site_fract_z
Si Si1 0.784627 0.780680 0.661169
Si Si2 0.000000 0.875514 0.000000
Si Si3 0.500000 0.190647 0.000000
Si Si4 0.500000 0.957571 0.000000
Si Si5 0.220165 0.544443 0.351000
Si Si6 0.500000 0.618133 0.000000
O O1 0.500000 0.789200 0.500000
O O2 0.804920 0.730343 0.831841
O O3 0.000000 0.766512 0.500000
O O4 0.881387 0.835239 0.800364
O O5 0.240974 0.916648 0.956408
O O6 0.729659 0.154309 0.897950
O O7 0.534805 0.998216 0.208532
O O8 0.500000 0.521489 0.500000
O O9 0.360213 0.583181 0.180560
O O10 0.000000 0.569756 0.500000
#
# Coordination Sequence:
#
# PCOD9129981 Si02
#       6
#     4   2   2   2   4   2
#     4  11  24  44  68 100 136 174 225 280 338 409
#     4  11  25  42  69 100 135 178 221 279 342 402
#     4  11  25  44  69 100 137 180 227 283 342 402
#     4  12  25  45  67 100 139 177 229 282 336 406
#     4  12  26  45  70 100 139 185 232 283 340 404
#     4  12  25  47  71 100 141 183 231 286 340 404
#
# _framework density 22.507345999999998
#
# number of rings (size 3 to 8) (size 9 to 14) (size 15 to 20)
#    0.000    0.500    0.000    9.000    0.000   14.000 
#    0.000    2.500    0.000    0.000    0.000    0.000 
#    0.000    0.000    0.000    0.000    0.000    0.000 
#
# Total GULP energy -44704.911750 kJ/mol
# GULP energy per Si atom -5588.113969 kJ/mol
# Density = 2.245612 g / cm^3
# Si number density = 22.507346 Si / 1000 Ang^3
#
#
#
# Elastic Constant Matrix: (Units=GPa)
#
#
# Indices 1 2 3 4 5 6 
#
# 1 162.8457 53.4559 55.5073 0.0000 3.3450 0.0000
# 2 53.4559 118.7140 62.1251 0.0000 -3.2843 0.0000
# 3 55.5073 62.1251 127.2112 0.0000 13.1377 0.0000
# 4 0.0000 0.0000 0.0000 3.2617 0.0000 -8.7055
# 5 3.3450 -3.2843 13.1377 0.0000 62.0450 0.0000
# 6 0.0000 0.0000 0.0000 -8.7055 0.0000 23.6752
#
#
#
# Elastic Compliance Matrix: (Units=1/GPa)
#
#
# Indices 1 2 3 4 5 6 
#
# 1 0.007647 -0.002287 -0.002213 0.000000 -0.000065 0.000000
# 2 -0.002287 0.012202 -0.005153 0.000000 0.001860 0.000000
# 3 -0.002213 -0.005153 0.011613 0.000000 -0.002612 0.000000
# 4 0.000000 0.000000 0.000000 16.488023 0.000000 6.062729
# 5 -0.000065 0.001860 -0.002612 0.000000 0.016772 0.000000
# 6 0.000000 0.000000 0.000000 6.062729 0.000000 2.271535
#
#
# Mechanical properties :
#
#
# Convention : Reuss Voigt Hill
#
# Bulk Modulus (GPa) = 82.26858 83.43861 82.85359
# Shear Modulus (GPa) = 0.26552 33.64189 16.95370
#
# Velocity S-wave (km/s) = 0.34384 3.87034 2.74752
# Velocity P-wave (km/s) = 6.06538 7.55810 6.85251
#
# Compressibility (1/GPa) = 0.01215531
#
# Stress axis : x y z
#
# Youngs Moduli (GPa) = 130.76577 81.95677 86.11075
#
# Poissons Ratio (x) = 0.18744 0.19058
# Poissons Ratio (y) = 0.29907 0.44372
# Poissons Ratio (z) = 0.28941 0.42232
#
# Static dielectric constant tensor:
#      x y z
#    x 1.781730 0.000000 -0.011640 
#    y 0.000000 1.857110 0.000000 
#    z -0.011640 0.000000 1.851240 
# 
# From -- ./inp_files/704.got.cif
#   From: 2010.05.17/outbox.cif.g08.bks.cpg/sg5_1_cif.got.tgz:704.got - 2010.06.03 18:56:24.
