data_PCOD9129870
_publ_section_title
;
Structure prediction by ZEFSAII (Michael W. Deem and Ramdas Pophale) SiO2 
 PCOD9129870
Probable space group: C 2
;
_chemical_formula_sum "Si O2"
_cell_formula_units_Z 30
_cell_length_a 27.215478
_cell_length_b 7.974253
_cell_length_c 16.202550
_cell_angle_alpha 90.000000
_cell_angle_beta 157.391624
_cell_angle_gamma 90.000000
_cell_volume 1351.782864
_symmetry_space_group_name_H-M "C 2"
_symmetry_group_IT_number 5
_symmetry_cell_setting 'monoclinic'
loop_
_space_group_symop_operation_xyz
x,y,z
-x,y,-z
1/2+x,1/2+y,z
1/2-x,1/2+y,-z
loop_
_atom_site_type_symbol
_atom_site_label
_atom_site_fract_x
_atom_site_fract_y
_atom_site_fract_z
Si Si1 0.199390 0.307190 0.642894
Si Si2 0.284779 0.508570 0.078531
Si Si3 0.500000 0.288610 0.500000
Si Si4 0.387967 0.148133 0.665923
Si Si5 0.465915 0.463044 0.040327
Si Si6 0.004625 0.594182 0.339331
Si Si7 0.138231 0.245746 0.370562
Si Si8 0.644563 0.814004 0.734839
O O1 0.071907 0.415703 0.441543
O O2 0.202266 0.213518 0.560143
O O3 0.191722 0.230437 0.722513
O O4 0.316798 0.436271 0.823146
O O5 0.374962 0.388693 0.272751
O O6 0.361797 0.680727 0.201002
O O7 0.247937 0.444283 0.930307
O O8 0.146375 0.559964 0.900001
O O9 0.536143 0.187945 0.473289
O O10 0.472606 0.278454 0.849653
O O11 0.435939 0.185262 0.647605
O O12 0.243557 0.198810 0.464892
O O13 0.397091 0.944691 0.692413
O O14 0.524711 0.612351 0.185675
O O15 0.500000 0.509770 0.000000
O O16 0.500000 0.876297 0.500000
#
# Coordination Sequence:
#
# PCOD9129870 Si02
#       8
#     4   4   2   4   4   4   4   4
#     4  11  25  44  72 105 145 196 244 307 372 437
#     4  12  25  44  70 102 142 189 241 299 367 439
#     4  12  26  44  72 108 144 190 248 304 366 444
#     4  11  23  46  73 106 147 195 243 305 368 447
#     4  12  24  45  73 108 147 193 248 307 375 442
#     4  11  24  45  70 103 147 188 242 303 370 437
#     4  11  24  47  75 105 150 195 248 307 369 447
#     4  12  25  45  72 103 144 191 245 301 364 441
#
# _framework density 22.192914999999999
#
# number of rings (size 3 to 8) (size 9 to 14) (size 15 to 20)
#    0.000    0.533    6.000    2.400    0.000    4.800 
#    0.000    0.000    0.000    0.000    0.000    0.000 
#    0.000    0.000    0.000    0.000    0.000    0.000 
#
# Total GULP energy -83642.975699 kJ/mol
# GULP energy per Si atom -5576.198380 kJ/mol
# Density = 2.214240 g / cm^3
# Si number density = 22.192915 Si / 1000 Ang^3
#
#
#
# Elastic Constant Matrix: (Units=GPa)
#
#
# Indices 1 2 3 4 5 6 
#
# 1 112.4127 23.2991 43.3117 0.0000 -3.6347 0.0000
# 2 23.2991 92.1059 39.8776 0.0000 -13.5580 0.0000
# 3 43.3117 39.8776 127.4004 0.0000 -10.5452 0.0000
# 4 0.0000 0.0000 0.0000 42.6096 0.0000 -2.7683
# 5 -3.6347 -13.5580 -10.5452 0.0000 32.5055 0.0000
# 6 0.0000 0.0000 0.0000 -2.7683 0.0000 18.0203
#
#
#
# Elastic Compliance Matrix: (Units=1/GPa)
#
#
# Indices 1 2 3 4 5 6 
#
# 1 0.010368 -0.001322 -0.003145 0.000000 -0.000412 0.000000
# 2 -0.001322 0.013275 -0.003350 0.000000 0.004302 0.000000
# 3 -0.003145 -0.003350 0.010093 0.000000 0.001526 0.000000
# 4 0.000000 0.000000 0.000000 0.023705 0.000000 0.003642
# 5 -0.000412 0.004302 0.001526 0.000000 0.033007 0.000000
# 6 0.000000 0.000000 0.000000 0.003642 0.000000 0.056052
#
#
# Mechanical properties :
#
#
# Convention : Reuss Voigt Hill
#
# Bulk Modulus (GPa) = 55.23893 60.54396 57.89145
# Shear Modulus (GPa) = 29.73187 33.65579 31.69383
#
# Velocity S-wave (km/s) = 3.66416 3.89846 3.78313
# Velocity P-wave (km/s) = 6.54567 6.89957 6.72495
#
# Compressibility (1/GPa) = 0.01810318
#
# Stress axis : x y z
#
# Youngs Moduli (GPa) = 96.44835 75.32946 99.07538
#
# Poissons Ratio (x) = 0.09956 0.31162
# Poissons Ratio (y) = 0.12747 0.33188
# Poissons Ratio (z) = 0.30336 0.25234
#
# Static dielectric constant tensor:
#      x y z
#    x 1.883450 0.000000 -0.033830 
#    y 0.000000 1.877440 0.000000 
#    z -0.033830 0.000000 1.873430 
# 
# From -- ./inp_files/63821.got.cif
#   From: 2010.05.17/outbox.cif.g08.bks.cpg/sg5_32_cif.got.tgz:63821.got - 2010.06.03 18:56:24.
