data_PCOD9129008
_publ_section_title
;
Structure prediction by ZEFSAII (Michael W. Deem and Ramdas Pophale) SiO2 
 PCOD9129008
Probable space group: C 2
;
_chemical_formula_sum "Si O2"
_cell_formula_units_Z 14
_cell_length_a 7.092199
_cell_length_b 7.485998
_cell_length_c 18.942240
_cell_angle_alpha 90.000000
_cell_angle_beta 38.509117
_cell_angle_gamma 90.000000
_cell_volume 626.178836
_symmetry_space_group_name_H-M "C 2"
_symmetry_group_IT_number 5
_symmetry_cell_setting 'monoclinic'
loop_
_space_group_symop_operation_xyz
x,y,z
-x,y,-z
1/2+x,1/2+y,z
1/2-x,1/2+y,-z
loop_
_atom_site_type_symbol
_atom_site_label
_atom_site_fract_x
_atom_site_fract_y
_atom_site_fract_z
Si Si1 0.000000 0.314430 0.500000
Si Si2 0.159406 0.465917 0.599836
Si Si3 0.888742 0.261546 0.959833
Si Si4 0.249845 0.387439 0.149946
O O1 0.022018 0.426503 0.564181
O O2 0.281733 0.177494 0.409054
O O3 0.500000 0.388112 0.500000
O O4 0.966395 0.386959 0.719771
O O5 0.919763 0.354501 0.874393
O O6 0.525079 0.246553 0.075037
O O7 0.074754 0.077309 0.902530
O O8 0.000000 0.353718 0.000000
#
# Coordination Sequence:
#
# PCOD9129008 Si02
#       4
#     2   4   4   4
#     4  10  26  44  70 102 136 176 230 266 354 382
#     4  10  27  45  71 103 134 182 221 286 331 409
#     4  11  25  46  66 104 133 187 214 288 325 408
#     4  11  27  44  73  99 142 173 235 269 347 395
#
# _framework density 22.357831999999998
#
# number of rings (size 3 to 8) (size 9 to 14) (size 15 to 20)
#    0.857    0.571    2.857    0.000   14.000    0.000 
#    0.000    0.000    0.000    0.000    0.000    0.000 
#    0.000    0.000    0.000    0.000    0.000    0.000 
#
# Total GULP energy -39081.551306 kJ/mol
# GULP energy per Si atom -5583.078758 kJ/mol
# Density = 2.230694 g / cm^3
# Si number density = 22.357832 Si / 1000 Ang^3
#
#
#
# Elastic Constant Matrix: (Units=GPa)
#
#
# Indices 1 2 3 4 5 6 
#
# 1 224.9188 65.0735 72.6406 -0.0067 43.0621 0.0089
# 2 65.0735 80.0416 20.0563 -0.0065 0.1923 0.0094
# 3 72.6406 20.0563 177.3158 -0.0204 31.8293 0.0238
# 4 -0.0067 -0.0065 -0.0204 -28.8786 0.0031 65.8063
# 5 43.0621 0.1923 31.8293 0.0031 26.3832 -0.0025
# 6 0.0089 0.0094 0.0238 65.8063 -0.0025 -54.1559
#
#
#
# Elastic Compliance Matrix: (Units=1/GPa)
#
#
# Indices 1 2 3 4 5 6 
#
# 1 0.009797 -0.007842 -0.000340 0.000000 -0.015523 0.000001
# 2 -0.007842 0.019229 -0.001576 -0.000001 0.014561 0.000000
# 3 -0.000340 -0.001576 0.007474 -0.000001 -0.008451 0.000002
# 4 0.000000 -0.000001 -0.000001 0.019575 0.000001 0.023787
# 5 -0.015523 0.014561 -0.008451 0.000001 0.073327 -0.000006
# 6 0.000001 0.000000 0.000002 0.023787 -0.000006 0.010439
#
#
# Mechanical properties :
#
#
# Convention : Reuss Voigt Hill
#
# Bulk Modulus (GPa) = 58.88104 88.64634 73.76369
# Shear Modulus (GPa) = 30.29960 10.30346 20.30153
#
# Velocity S-wave (km/s) = 3.68531 2.14906 3.01662
# Velocity P-wave (km/s) = 6.67096 6.77443 6.72289
#
# Compressibility (1/GPa) = 0.01698339
#
# Stress axis : x y z
#
# Youngs Moduli (GPa) = 102.07620 52.00459 133.79475
#
# Poissons Ratio (x) = 0.40783 0.04548
# Poissons Ratio (y) = 0.80049 0.21088
# Poissons Ratio (z) = 0.03470 0.08197
#
# Static dielectric constant tensor:
#      x y z
#    x 1.853540 0.000000 -0.075430 
#    y 0.000000 1.889000 0.000000 
#    z -0.075430 0.000000 1.862740 
# 
# From -- ./inp_files/32748.got.cif
#   From: 2010.05.17/outbox.cif.g08.bks.cpg/sg5_17_cif.got.tgz:32748.got - 2010.06.03 18:56:24.
