data_PCOD9129599
_publ_section_title
;
Structure prediction by ZEFSAII (Michael W. Deem and Ramdas Pophale) SiO2 
 PCOD9129599
Probable space group: C 2
;
_chemical_formula_sum "Si O2"
_cell_formula_units_Z 30
_cell_length_a 10.694636
_cell_length_b 14.561708
_cell_length_c 11.621404
_cell_angle_alpha 90.000000
_cell_angle_beta 126.364944
_cell_angle_gamma 90.000000
_cell_volume 1457.374900
_symmetry_space_group_name_H-M "C 2"
_symmetry_group_IT_number 5
_symmetry_cell_setting 'monoclinic'
loop_
_space_group_symop_operation_xyz
x,y,z
-x,y,-z
1/2+x,1/2+y,z
1/2-x,1/2+y,-z
loop_
_atom_site_type_symbol
_atom_site_label
_atom_site_fract_x
_atom_site_fract_y
_atom_site_fract_z
Si Si1 0.378736 0.005440 0.672571
Si Si2 0.229881 0.514945 0.137528
Si Si3 0.079472 0.951777 0.374447
Si Si4 0.625475 0.153150 0.731473
Si Si5 0.373699 0.879353 0.117418
Si Si6 0.500000 0.292108 0.500000
Si Si7 0.847188 0.994577 0.842014
Si Si8 0.851038 0.709815 0.003571
O O1 0.359942 0.038048 0.793809
O O2 0.491218 0.074314 0.664006
O O3 0.213618 0.002935 0.519639
O O4 0.454078 0.904222 0.740976
O O5 0.406632 0.494307 0.271351
O O6 0.211114 0.606902 0.053482
O O7 0.162896 0.429190 0.026056
O O8 0.063199 0.856681 0.433637
O O9 0.133269 0.951046 0.272304
O O10 0.619493 0.223644 0.624330
O O11 0.784867 0.097933 0.806461
O O12 0.602414 0.208567 0.837284
O O13 0.294488 0.779978 0.082599
O O14 0.274824 0.937490 0.153167
O O15 0.000000 0.990061 0.000000
O O16 0.000000 0.729933 0.000000
#
# Coordination Sequence:
#
# PCOD9129599 Si02
#       8
#     4   4   4   4   4   2   4   4
#     4  11  23  46  68  95 142 188 223 288 346 421
#     4  12  21  47  70 100 141 190 233 281 353 417
#     4  12  25  43  70  98 140 183 229 281 360 411
#     4  11  24  44  67 101 136 181 230 283 351 414
#     4  11  24  40  70 104 136 180 235 288 350 409
#     4  12  26  44  64 102 134 178 228 280 356 416
#     4  11  22  44  72  98 135 184 229 286 343 414
#     4  12  23  41  75 107 138 183 240 294 346 417
#
# _framework density 20.584959000000001
#
# number of rings (size 3 to 8) (size 9 to 14) (size 15 to 20)
#    0.000    0.533    6.667    2.400    1.867    1.600 
#    7.200    0.000    2.933    0.000    0.000    0.000 
#    0.000    0.000    0.000    0.000    0.000    0.000 
#
# Total GULP energy -83661.406599 kJ/mol
# GULP energy per Si atom -5577.427107 kJ/mol
# Density = 2.053811 g / cm^3
# Si number density = 20.584959 Si / 1000 Ang^3
#
#
#
# Elastic Constant Matrix: (Units=GPa)
#
#
# Indices 1 2 3 4 5 6 
#
# 1 53.4612 8.5037 32.4131 0.0000 -13.6337 0.0000
# 2 8.5037 54.4941 18.9913 0.0000 -7.9122 0.0000
# 3 32.4131 18.9913 108.5853 0.0000 -12.2899 0.0000
# 4 0.0000 0.0000 0.0000 36.8369 0.0000 -1.0402
# 5 -13.6337 -7.9122 -12.2899 0.0000 41.0366 0.0000
# 6 0.0000 0.0000 0.0000 -1.0402 0.0000 23.0136
#
#
#
# Elastic Compliance Matrix: (Units=1/GPa)
#
#
# Indices 1 2 3 4 5 6 
#
# 1 0.024247 -0.000668 -0.006442 0.000000 0.005997 0.000000
# 2 -0.000668 0.019885 -0.002970 0.000000 0.002723 0.000000
# 3 -0.006442 -0.002970 0.011743 0.000000 0.000804 0.000000
# 4 0.000000 0.000000 0.000000 0.027181 0.000000 0.001229
# 5 0.005997 0.002723 0.000804 0.000000 0.027127 0.000000
# 6 0.000000 0.000000 0.000000 0.001229 0.000000 0.043508
#
#
# Mechanical properties :
#
#
# Convention : Reuss Voigt Hill
#
# Bulk Modulus (GPa) = 28.00005 37.37297 32.68651
# Shear Modulus (GPa) = 26.91696 30.61957 28.76826
#
# Velocity S-wave (km/s) = 3.62000 3.86096 3.74242
# Velocity P-wave (km/s) = 5.57712 6.17016 5.88112
#
# Compressibility (1/GPa) = 0.03571422
#
# Stress axis : x y z
#
# Youngs Moduli (GPa) = 41.24280 50.28835 85.15825
#
# Poissons Ratio (x) = 0.03358 0.54860
# Poissons Ratio (y) = 0.02754 0.25296
# Poissons Ratio (z) = 0.26569 0.14938
#
# Static dielectric constant tensor:
#      x y z
#    x 1.804180 0.000000 0.011760 
#    y 0.000000 1.762150 0.000000 
#    z 0.011760 0.000000 1.773360 
# 
# From -- ./inp_files/40083.got.cif
#   From: 2010.05.17/outbox.cif.g08.bks.cpg/sg5_21_cif.got.tgz:40083.got - 2010.06.03 18:56:24.
