data_PCOD9129530
_publ_section_title
;
Structure prediction by ZEFSAII (Michael W. Deem and Ramdas Pophale) SiO2 
 PCOD9129530
Probable space group: C 2
;
_chemical_formula_sum "Si O2"
_cell_formula_units_Z 28
_cell_length_a 5.342130
_cell_length_b 19.222885
_cell_length_c 11.287590
_cell_angle_alpha 90.000000
_cell_angle_beta 103.078992
_cell_angle_gamma 90.000000
_cell_volume 1129.066475
_symmetry_space_group_name_H-M "C 2"
_symmetry_group_IT_number 5
_symmetry_cell_setting 'monoclinic'
loop_
_space_group_symop_operation_xyz
x,y,z
-x,y,-z
1/2+x,1/2+y,z
1/2-x,1/2+y,-z
loop_
_atom_site_type_symbol
_atom_site_label
_atom_site_fract_x
_atom_site_fract_y
_atom_site_fract_z
Si Si1 0.000000 0.992570 0.000000
Si Si2 0.890193 0.027651 0.715393
Si Si3 0.210570 0.897504 0.672732
Si Si4 0.470570 0.678563 0.680941
Si Si5 0.450360 0.258277 0.634013
Si Si6 0.500000 0.953476 0.500000
Si Si7 0.767239 0.210892 0.066560
Si Si8 0.651004 0.863033 0.901245
O O1 0.223522 0.933957 0.038330
O O2 0.062774 0.032142 0.133767
O O3 0.916976 0.099099 0.643558
O O4 0.632323 0.995692 0.623485
O O5 0.101336 0.970352 0.704642
O O6 0.007792 0.836702 0.680821
O O7 0.291011 0.906135 0.544808
O O8 0.464783 0.877680 0.772912
O O9 0.203621 0.713171 0.697867
O O10 0.646959 0.668753 0.812589
O O11 0.667615 0.726025 0.625414
O O12 0.500000 0.258043 0.500000
O O13 0.703923 0.290066 0.106773
O O14 0.500000 0.180189 0.000000
O O15 0.000000 0.205467 0.000000
O O16 0.500000 0.839758 0.000000
#
# Coordination Sequence:
#
# PCOD9129530 Si02
#       8
#     2   4   4   4   4   2   4   4
#     4  12  24  46  80 110 162 206 274 330 406 486
#     4  12  30  50  79 117 162 217 269 332 413 494
#     4  12  27  49  79 119 156 211 279 339 404 484
#     4  12  30  51  77 114 161 211 264 331 414 489
#     4  12  29  50  82 115 156 207 275 339 402 479
#     4  12  28  50  84 114 166 212 280 340 412 482
#     4  11  24  44  74 109 154 199 260 328 408 476
#     4  11  22  41  75 111 150 202 261 333 399 476
#
# _framework density 24.799247000000001
#
# number of rings (size 3 to 8) (size 9 to 14) (size 15 to 20)
#    0.000    0.286    5.000    2.571   12.000    1.143 
#    2.571    0.000    0.000    0.000    0.000    0.000 
#    0.000    0.000    0.000    0.000    0.000    0.000 
#
# Total GULP energy -77988.615942 kJ/mol
# GULP energy per Si atom -5570.615424 kJ/mol
# Density = 2.474280 g / cm^3
# Si number density = 24.799247 Si / 1000 Ang^3
#
#
#
# Elastic Constant Matrix: (Units=GPa)
#
#
# Indices 1 2 3 4 5 6 
#
# 1 108.7311 22.7428 24.1010 0.0000 6.1024 0.0000
# 2 22.7428 70.3836 -20.1568 0.0000 -9.2674 0.0000
# 3 24.1010 -20.1568 108.6388 0.0000 13.8159 0.0000
# 4 0.0000 0.0000 0.0000 7.7248 0.0000 40.8386
# 5 6.1024 -9.2674 13.8159 0.0000 56.1428 0.0000
# 6 0.0000 0.0000 0.0000 40.8386 0.0000 9.3151
#
#
#
# Elastic Compliance Matrix: (Units=1/GPa)
#
#
# Indices 1 2 3 4 5 6 
#
# 1 0.010911 -0.004574 -0.003120 0.000000 -0.001173 0.000000
# 2 -0.004574 0.017111 0.003889 0.000000 0.002365 0.000000
# 3 -0.003120 0.003889 0.010833 0.000000 -0.001685 0.000000
# 4 0.000000 0.000000 0.000000 -0.005837 0.000000 0.025591
# 5 -0.001173 0.002365 -0.001685 0.000000 0.018744 0.000000
# 6 0.000000 0.000000 0.000000 0.025591 0.000000 -0.004841
#
#
# Mechanical properties :
#
#
# Convention : Reuss Voigt Hill
#
# Bulk Modulus (GPa) = 32.00555 37.90306 34.95430
# Shear Modulus (GPa) = 76.98739 32.04097 54.51418
#
# Velocity S-wave (km/s) = 5.57778 3.59836 4.69360
# Velocity P-wave (km/s) = 7.37672 5.70801 6.59536
#
# Compressibility (1/GPa) = 0.03124458
#
# Stress axis : x y z
#
# Youngs Moduli (GPa) = 91.65022 58.44291 92.31296
#
# Poissons Ratio (x) = 0.26730 0.28801
# Poissons Ratio (y) = 0.41917 -0.35897
# Poissons Ratio (z) = 0.28595 -0.22726
#
# Static dielectric constant tensor:
#      x y z
#    x 2.071500 0.000000 0.005520 
#    y 0.000000 2.089330 0.000000 
#    z 0.005520 0.000000 2.014500 
# 
# From -- ./inp_files/34004.got.cif
#   From: 2010.05.17/outbox.cif.g08.bks.cpg/sg5_18_cif.got.tgz:34004.got - 2010.06.03 18:56:24.
