data_PCOD9129812
_publ_section_title
;
Structure prediction by ZEFSAII (Michael W. Deem and Ramdas Pophale) SiO2 
 PCOD9129812
Probable space group: C 2
;
_chemical_formula_sum "Si O2"
_cell_formula_units_Z 24
_cell_length_a 22.260486
_cell_length_b 7.897730
_cell_length_c 10.580813
_cell_angle_alpha 90.000000
_cell_angle_beta 147.617229
_cell_angle_gamma 90.000000
_cell_volume 996.264235
_symmetry_space_group_name_H-M "C 2"
_symmetry_group_IT_number 5
_symmetry_cell_setting 'monoclinic'
loop_
_space_group_symop_operation_xyz
x,y,z
-x,y,-z
1/2+x,1/2+y,z
1/2-x,1/2+y,-z
loop_
_atom_site_type_symbol
_atom_site_label
_atom_site_fract_x
_atom_site_fract_y
_atom_site_fract_z
Si Si1 0.043165 0.342720 0.291738
Si Si2 0.713989 0.846104 0.813751
Si Si3 0.673715 0.625078 0.336650
Si Si4 0.845466 0.826925 0.504962
Si Si5 0.182474 0.469453 0.026245
Si Si6 0.567018 0.493347 0.889686
O O1 0.135821 0.396358 0.557424
O O2 0.105132 0.285348 0.272172
O O3 0.932023 0.458636 0.094502
O O4 0.995472 0.163709 0.260573
O O5 0.655757 0.896695 0.840477
O O6 0.758293 0.652834 0.877951
O O7 0.827236 0.954616 0.006619
O O8 0.793761 0.680341 0.497794
O O9 0.684399 0.496628 0.469951
O O10 0.608021 0.533613 0.105572
O O11 0.977808 0.841285 0.724403
O O12 0.773516 0.842872 0.250578
#
# Coordination Sequence:
#
# PCOD9129812 Si02
#       6
#     4   4   4   4   4   4
#     4  11  23  48  70  99 140 183 226 288 352 404
#     4  12  27  48  69 103 139 186 239 285 346 413
#     4  11  23  44  73 104 142 181 227 290 353 417
#     4  11  24  43  71 104 136 186 229 286 355 407
#     4  12  26  46  71 102 138 187 236 289 344 411
#     4  11  24  45  74  99 141 182 225 285 354 413
#
# _framework density 24.089994999999998
#
# number of rings (size 3 to 8) (size 9 to 14) (size 15 to 20)
#    0.000    0.667    5.000    4.500    0.000    3.333 
#    3.000    0.000    0.000    0.000    0.000    0.000 
#    0.000    0.000    0.000    0.000    0.000    0.000 
#
# Total GULP energy -67146.434584 kJ/mol
# GULP energy per Si atom -5595.536215 kJ/mol
# Density = 2.403517 g / cm^3
# Si number density = 24.089995 Si / 1000 Ang^3
#
#
#
# Elastic Constant Matrix: (Units=GPa)
#
#
# Indices 1 2 3 4 5 6 
#
# 1 67.1092 9.2154 9.3560 0.0000 7.7225 0.0000
# 2 9.2154 47.1230 3.3948 0.0000 5.8547 0.0000
# 3 9.3560 3.3948 92.7457 0.0000 15.1929 0.0000
# 4 0.0000 0.0000 0.0000 32.7853 0.0000 12.3672
# 5 7.7225 5.8547 15.1929 0.0000 41.7470 0.0000
# 6 0.0000 0.0000 0.0000 12.3672 0.0000 39.4363
#
#
#
# Elastic Compliance Matrix: (Units=1/GPa)
#
#
# Indices 1 2 3 4 5 6 
#
# 1 0.015676 -0.002722 -0.001137 0.000000 -0.002104 0.000000
# 2 -0.002722 0.022079 -0.000116 0.000000 -0.002551 0.000000
# 3 -0.001137 -0.000116 0.011553 0.000000 -0.003978 0.000000
# 4 0.000000 0.000000 0.000000 0.034594 0.000000 -0.010849
# 5 -0.002104 -0.002551 -0.003978 0.000000 0.026148 0.000000
# 6 0.000000 0.000000 0.000000 -0.010849 0.000000 0.028760
#
#
# Mechanical properties :
#
#
# Convention : Reuss Voigt Hill
#
# Bulk Modulus (GPa) = 24.17960 27.87892 26.02926
# Shear Modulus (GPa) = 31.14407 35.12780 33.13593
#
# Velocity S-wave (km/s) = 3.59948 3.82277 3.71281
# Velocity P-wave (km/s) = 5.22820 5.57519 5.40448
#
# Compressibility (1/GPa) = 0.04135717
#
# Stress axis : x y z
#
# Youngs Moduli (GPa) = 63.79360 45.29256 86.55967
#
# Poissons Ratio (x) = 0.12330 0.09842
# Poissons Ratio (y) = 0.17366 0.01002
# Poissons Ratio (z) = 0.07253 0.00524
#
# Static dielectric constant tensor:
#      x y z
#    x 1.893250 0.000000 0.017230 
#    y 0.000000 1.994840 0.000000 
#    z 0.017230 0.000000 1.935700 
# 
# From -- ./inp_files/47349.got.cif
#   From: 2010.05.17/outbox.cif.g08.bks.cpg/sg5_24_cif.got.tgz:47349.got - 2010.06.03 18:56:24.
