data_PCOD9129861
_publ_section_title
;
Structure prediction by ZEFSAII (Michael W. Deem and Ramdas Pophale) SiO2 
 PCOD9129861
Probable space group: C 2
;
_chemical_formula_sum "Si O2"
_cell_formula_units_Z 22
_cell_length_a 16.670364
_cell_length_b 8.446758
_cell_length_c 6.991264
_cell_angle_alpha 90.000000
_cell_angle_beta 94.182448
_cell_angle_gamma 90.000000
_cell_volume 981.821888
_symmetry_space_group_name_H-M "C 2"
_symmetry_group_IT_number 5
_symmetry_cell_setting 'monoclinic'
loop_
_space_group_symop_operation_xyz
x,y,z
-x,y,-z
1/2+x,1/2+y,z
1/2-x,1/2+y,-z
loop_
_atom_site_type_symbol
_atom_site_label
_atom_site_fract_x
_atom_site_fract_y
_atom_site_fract_z
Si Si1 0.407976 0.895020 0.541165
Si Si2 0.725733 0.768881 0.711883
Si Si3 0.346548 0.236238 0.403559
Si Si4 0.247702 0.077059 0.058860
Si Si5 0.000000 0.946878 0.500000
Si Si6 0.570934 0.653741 0.164289
O O1 0.500000 0.906017 0.500000
O O2 0.360745 0.766764 0.402694
O O3 0.406703 0.827654 0.753543
O O4 0.368739 0.063542 0.492658
O O5 0.786699 0.809858 0.551211
O O6 0.722375 0.906581 0.868716
O O7 0.752093 0.616647 0.836018
O O8 0.299474 0.199720 0.198541
O O9 0.427534 0.338146 0.404411
O O10 0.153606 0.084548 0.097272
O O11 0.037615 0.050925 0.336128
O O12 0.500000 0.661182 0.000000
#
# Coordination Sequence:
#
# PCOD9129861 Si02
#       6
#     4   4   4   4   2   4
#     4  11  23  46  69  97 133 176 224 280 334 397
#     4  11  25  44  69 100 135 180 226 276 340 406
#     4  11  25  47  70  96 139 178 228 277 338 401
#     4  11  26  42  70 101 132 181 224 278 338 399
#     4  12  26  46  72  98 140 180 226 284 336 406
#     4  12  26  43  69 102 136 176 226 280 341 402
#
# _framework density 22.407323000000002
#
# number of rings (size 3 to 8) (size 9 to 14) (size 15 to 20)
#    0.000    0.727    5.455    1.091    5.091    0.000 
#    0.000    0.909    0.000    0.000    0.000    0.000 
#    0.000    0.000    0.000    0.000    0.000    0.000 
#
# Total GULP energy -61554.617775 kJ/mol
# GULP energy per Si atom -5595.874343 kJ/mol
# Density = 2.235632 g / cm^3
# Si number density = 22.407323 Si / 1000 Ang^3
#
#
#
# Elastic Constant Matrix: (Units=GPa)
#
#
# Indices 1 2 3 4 5 6 
#
# 1 127.3400 10.1105 53.8011 0.0000 25.5293 0.0000
# 2 10.1105 55.0890 26.4054 0.0000 19.5189 0.0000
# 3 53.8011 26.4054 99.9335 0.0000 32.8393 0.0000
# 4 0.0000 0.0000 0.0000 33.0137 0.0000 11.5802
# 5 25.5293 19.5189 32.8393 0.0000 47.7992 0.0000
# 6 0.0000 0.0000 0.0000 11.5802 0.0000 25.5648
#
#
#
# Elastic Compliance Matrix: (Units=1/GPa)
#
#
# Indices 1 2 3 4 5 6 
#
# 1 0.010439 0.001488 -0.005142 0.000000 -0.002650 0.000000
# 2 0.001488 0.022466 -0.004471 0.000000 -0.006897 0.000000
# 3 -0.005142 -0.004471 0.016085 0.000000 -0.006479 0.000000
# 4 0.000000 0.000000 0.000000 0.036012 0.000000 -0.016313
# 5 -0.002650 -0.006897 -0.006479 0.000000 0.029604 0.000000
# 6 0.000000 0.000000 0.000000 -0.016313 0.000000 0.046505
#
#
# Mechanical properties :
#
#
# Convention : Reuss Voigt Hill
#
# Bulk Modulus (GPa) = 30.54347 51.44406 40.99377
# Shear Modulus (GPa) = 26.55682 34.07859 30.31771
#
# Velocity S-wave (km/s) = 3.44639 3.90406 3.68234
# Velocity P-wave (km/s) = 5.43115 6.58261 6.03441
#
# Compressibility (1/GPa) = 0.03274022
#
# Stress axis : x y z
#
# Youngs Moduli (GPa) = 95.79722 44.51153 62.16802
#
# Poissons Ratio (x) = -0.06623 0.31968
# Poissons Ratio (y) = -0.14254 0.27794
# Poissons Ratio (z) = 0.49261 0.19900
#
# Static dielectric constant tensor:
#      x y z
#    x 1.777430 0.000000 -0.000810 
#    y 0.000000 1.873740 0.000000 
#    z -0.000810 0.000000 1.806430 
# 
# From -- ./inp_files/22762.got.cif
#   From: 2010.05.17/outbox.cif.g08.bks.cpg/sg5_12_cif.got.tgz:22762.got - 2010.06.03 18:56:24.
