data_PCOD9129859
_publ_section_title
;
Structure prediction by ZEFSAII (Michael W. Deem and Ramdas Pophale) SiO2 
 PCOD9129859
Probable space group: C 2
;
_chemical_formula_sum "Si O2"
_cell_formula_units_Z 24
_cell_length_a 10.091789
_cell_length_b 11.485539
_cell_length_c 7.786182
_cell_angle_alpha 90.000000
_cell_angle_beta 105.883173
_cell_angle_gamma 90.000000
_cell_volume 868.037878
_symmetry_space_group_name_H-M "C 2"
_symmetry_group_IT_number 5
_symmetry_cell_setting 'monoclinic'
loop_
_space_group_symop_operation_xyz
x,y,z
-x,y,-z
1/2+x,1/2+y,z
1/2-x,1/2+y,-z
loop_
_atom_site_type_symbol
_atom_site_label
_atom_site_fract_x
_atom_site_fract_y
_atom_site_fract_z
Si Si1 0.021194 0.657960 0.705421
Si Si2 0.296914 0.506626 0.808758
Si Si3 0.609224 0.401073 0.799908
Si Si4 0.407930 0.940998 0.790640
Si Si5 0.126753 0.285690 0.715289
Si Si6 0.500000 0.574597 0.500000
Si Si7 0.500000 0.681496 0.000000
O O1 0.152725 0.574061 0.763448
O O2 0.048436 0.775646 0.814001
O O3 0.000000 0.689405 0.500000
O O4 0.902464 0.575319 0.734842
O O5 0.247361 0.378969 0.717366
O O6 0.401645 0.616924 0.827795
O O7 0.352620 0.466160 0.013487
O O8 0.754199 0.394356 0.753597
O O9 0.501944 0.478320 0.653324
O O10 0.486756 0.864064 0.677322
O O11 0.500000 0.938030 0.000000
O O12 0.115937 0.169830 0.595447
O O13 0.114389 0.239957 0.910748
#
# Coordination Sequence:
#
# PCOD9129859 Si02
#       7
#     4   4   4   4   4   2   2
#     4  11  25  46  74 109 147 185 246 309 354 428
#     4  11  24  43  78 102 140 193 243 293 362 438
#     4  12  24  50  69 105 153 187 239 306 360 435
#     4  11  23  45  79 105 141 199 241 291 377 429
#     4  11  23  46  70 108 142 187 239 302 356 434
#     4  12  28  46  68 104 154 184 234 314 364 410
#     4  12  22  46  78 102 142 196 244 284 376 430
#
# _framework density 27.648564
#
# number of rings (size 3 to 8) (size 9 to 14) (size 15 to 20)
#    0.000    0.667    6.667    2.000    4.667    2.667 
#    4.500    0.000    0.000    0.000    0.000    0.000 
#    0.000    0.000    0.000    0.000    0.000    0.000 
#
# Total GULP energy -66960.534960 kJ/mol
# GULP energy per Si atom -5580.044580 kJ/mol
# Density = 2.758563 g / cm^3
# Si number density = 27.648564 Si / 1000 Ang^3
#
#
#
# Elastic Constant Matrix: (Units=GPa)
#
#
# Indices 1 2 3 4 5 6 
#
# 1 99.6735 21.9988 -41.5167 0.0000 13.9318 0.0000
# 2 21.9988 179.5201 -3.0991 0.0000 12.8234 0.0000
# 3 -41.5167 -3.0991 49.0809 0.0000 -1.7009 0.0000
# 4 0.0000 0.0000 0.0000 85.6354 0.0000 -1.4035
# 5 13.9318 12.8234 -1.7009 0.0000 19.5530 0.0000
# 6 0.0000 0.0000 0.0000 -1.4035 0.0000 21.8828
#
#
#
# Elastic Compliance Matrix: (Units=1/GPa)
#
#
# Indices 1 2 3 4 5 6 
#
# 1 0.017917 -0.001176 0.014710 0.000000 -0.010715 0.000000
# 2 -0.001176 0.005924 -0.000729 0.000000 -0.003111 0.000000
# 3 0.014710 -0.000729 0.032523 0.000000 -0.007174 0.000000
# 4 0.000000 0.000000 0.000000 0.011690 0.000000 0.000750
# 5 -0.010715 -0.003111 -0.007174 0.000000 0.060194 0.000000
# 6 0.000000 0.000000 0.000000 0.000750 0.000000 0.045746
#
#
# Mechanical properties :
#
#
# Convention : Reuss Voigt Hill
#
# Bulk Modulus (GPa) = 12.19874 31.44893 21.82384
# Shear Modulus (GPa) = 28.45618 48.80701 38.63159
#
# Velocity S-wave (km/s) = 3.21161 4.20606 3.74202
# Velocity P-wave (km/s) = 4.26313 5.91499 5.15565
#
# Compressibility (1/GPa) = 0.08197568
#
# Stress axis : x y z
#
# Youngs Moduli (GPa) = 55.81168 168.80030 30.74725
#
# Poissons Ratio (x) = 0.19856 -0.45231
# Poissons Ratio (y) = 0.06565 0.02241
# Poissons Ratio (z) = -0.82101 0.12301
#
# Static dielectric constant tensor:
#      x y z
#    x 1.668070 0.000000 0.144680 
#    y 0.000000 2.300610 0.000000 
#    z 0.144680 0.000000 2.093220 
# 
# From -- ./inp_files/19450.got.cif
#   From: 2010.05.17/outbox.cif.g08.bks.cpg/sg5_10_cif.got.tgz:19450.got - 2010.06.03 18:56:24.
