data_PCOD9129015
_publ_section_title
;
Structure prediction by ZEFSAII (Michael W. Deem and Ramdas Pophale) SiO2 
 PCOD9129015
Probable space group: C 2
;
_chemical_formula_sum "Si O2"
_cell_formula_units_Z 20
_cell_length_a 22.771948
_cell_length_b 5.532155
_cell_length_c 16.388855
_cell_angle_alpha 90.000000
_cell_angle_beta 24.085022
_cell_angle_gamma 90.000000
_cell_volume 842.560360
_symmetry_space_group_name_H-M "C 2"
_symmetry_group_IT_number 5
_symmetry_cell_setting 'monoclinic'
loop_
_space_group_symop_operation_xyz
x,y,z
-x,y,-z
1/2+x,1/2+y,z
1/2-x,1/2+y,-z
loop_
_atom_site_type_symbol
_atom_site_label
_atom_site_fract_x
_atom_site_fract_y
_atom_site_fract_z
Si Si1 0.332921 0.037580 0.371142
Si Si2 0.143506 0.023203 0.204088
Si Si3 0.216163 0.143989 0.849298
Si Si4 0.581010 0.260296 0.145961
Si Si5 0.500000 0.904704 0.500000
Si Si6 0.000000 0.400733 0.000000
O O1 0.244803 0.283731 0.506651
O O2 0.473841 0.063951 0.248636
O O3 0.396923 0.037159 0.197106
O O4 0.070281 0.238215 0.343973
O O5 0.220041 0.852976 0.173359
O O6 0.027155 0.919620 0.289176
O O7 0.281025 0.140369 0.985578
O O8 0.368089 0.041917 0.624903
O O9 0.108160 0.244326 0.918803
O O10 0.132973 0.937738 0.007433
#
# Coordination Sequence:
#
# PCOD9129015 Si02
#       6
#     4   4   4   4   2   2
#     4  12  30  55  85 124 161 222 279 329 418 496
#     4  11  22  47  76 108 149 204 259 338 397 482
#     4  11  24  50  76 112 158 215 262 333 422 474
#     4  11  24  47  79 107 155 202 271 333 404 481
#     4  10  26  44  74 122 150 202 274 326 412 478
#     4  12  28  58  82 112 176 212 270 350 406 498
#
# _framework density 23.737172000000001
#
# number of rings (size 3 to 8) (size 9 to 14) (size 15 to 20)
#    0.000    0.800    4.000    1.800    0.000    6.400 
#   14.400    0.000    0.000    0.000    0.000    0.000 
#    0.000    0.000    0.000    0.000    0.000    0.000 
#
# Total GULP energy -55849.811783 kJ/mol
# GULP energy per Si atom -5584.981178 kJ/mol
# Density = 2.368315 g / cm^3
# Si number density = 23.737172 Si / 1000 Ang^3
#
#
#
# Elastic Constant Matrix: (Units=GPa)
#
#
# Indices 1 2 3 4 5 6 
#
# 1 136.8627 39.2087 47.7730 0.0000 -0.0229 -0.0005
# 2 39.2087 105.5345 57.7961 -0.0094 1.8599 0.0038
# 3 47.7730 57.7961 118.2801 -0.0034 -2.0667 0.0006
# 4 0.0000 -0.0094 -0.0034 70.7465 0.0006 -15.0364
# 5 -0.0229 1.8599 -2.0667 0.0006 26.7742 0.0008
# 6 -0.0005 0.0038 0.0006 -15.0364 0.0008 54.3388
#
#
#
# Elastic Compliance Matrix: (Units=1/GPa)
#
#
# Indices 1 2 3 4 5 6 
#
# 1 0.008748 -0.001793 -0.002659 0.000000 -0.000073 0.000000
# 2 -0.001793 0.013357 -0.005827 0.000001 -0.001379 0.000000
# 3 -0.002659 -0.005827 0.012399 0.000000 0.001360 0.000000
# 4 0.000000 0.000001 0.000000 0.015018 -0.000001 0.004156
# 5 -0.000073 -0.001379 0.001360 -0.000001 0.037550 -0.000001
# 6 0.000000 0.000000 0.000000 0.004156 -0.000001 0.019553
#
#
# Mechanical properties :
#
#
# Convention : Reuss Voigt Hill
#
# Bulk Modulus (GPa) = 71.69456 72.24811 71.97134
# Shear Modulus (GPa) = 37.92724 44.76520 41.34622
#
# Velocity S-wave (km/s) = 4.00158 4.34737 4.17806
# Velocity P-wave (km/s) = 7.18466 7.46340 7.32535
#
# Compressibility (1/GPa) = 0.01394806
#
# Stress axis : x y z
#
# Youngs Moduli (GPa) = 114.30898 74.86725 80.65046
#
# Poissons Ratio (x) = 0.13423 0.21442
# Poissons Ratio (y) = 0.20495 0.46992
# Poissons Ratio (z) = 0.30390 0.43623
#
# Static dielectric constant tensor:
#      x y z
#    x 1.776450 0.000000 -0.035670 
#    y 0.000000 2.061970 0.000000 
#    z -0.035670 0.000000 1.927270 
# 
# From -- ./inp_files/25975.got.cif
#   From: 2010.05.17/outbox.cif.g08.bks.cpg/sg5_13_cif.got.tgz:25975.got - 2010.06.03 18:56:24.
