data_PCOD9129309
_publ_section_title
;
Structure prediction by ZEFSAII (Michael W. Deem and Ramdas Pophale) SiO2 
 PCOD9129309
Probable space group: C 2
;
_chemical_formula_sum "Si O2"
_cell_formula_units_Z 24
_cell_length_a 20.072849
_cell_length_b 8.916169
_cell_length_c 18.949481
_cell_angle_alpha 90.000000
_cell_angle_beta 19.716567
_cell_angle_gamma 90.000000
_cell_volume 1144.162823
_symmetry_space_group_name_H-M "C 2"
_symmetry_group_IT_number 5
_symmetry_cell_setting 'monoclinic'
loop_
_space_group_symop_operation_xyz
x,y,z
-x,y,-z
1/2+x,1/2+y,z
1/2-x,1/2+y,-z
loop_
_atom_site_type_symbol
_atom_site_label
_atom_site_fract_x
_atom_site_fract_y
_atom_site_fract_z
Si Si1 0.909775 0.532060 0.159538
Si Si2 0.383994 0.488205 0.288581
Si Si3 0.218307 0.133542 0.125083
Si Si4 0.664761 0.838403 0.632424
Si Si5 0.273605 0.389414 0.980049
Si Si6 0.616150 0.801289 0.453072
O O1 0.821598 0.422166 0.306296
O O2 0.751149 0.658396 0.297979
O O3 0.000000 0.455269 0.000000
O O4 0.096253 0.614577 0.009386
O O5 0.339046 0.660754 0.350265
O O6 0.320489 0.384638 0.418138
O O7 0.621467 0.465574 0.056248
O O8 0.260546 0.421707 0.346440
O O9 0.045678 0.232403 0.331337
O O10 0.146696 0.971429 0.169697
O O11 0.294642 0.214657 0.977692
O O12 0.460142 0.896584 0.801738
O O13 0.500000 0.857406 0.500000
#
# Coordination Sequence:
#
# PCOD9129309 Si02
#       6
#     4   4   4   4   4   4
#     4  11  23  43  66  89 129 175 214 258 319 385
#     4  12  23  41  67  96 131 163 213 269 320 375
#     4  11  22  39  63  96 124 164 211 262 317 378
#     4  11  25  40  67  99 126 166 212 270 321 374
#     4  11  21  37  63  95 125 158 205 263 318 371
#     4  12  24  42  65  93 129 173 217 257 320 384
#
# _framework density 20.976035
#
# number of rings (size 3 to 8) (size 9 to 14) (size 15 to 20)
#    0.000    0.667    6.667    2.000    2.333    0.000 
#    0.000    3.333    0.000    0.000    0.000    0.000 
#    0.000    0.000    0.000    0.000    0.000    0.000 
#
# Total GULP energy -66892.554259 kJ/mol
# GULP energy per Si atom -5574.379522 kJ/mol
# Density = 2.092829 g / cm^3
# Si number density = 20.976035 Si / 1000 Ang^3
#
#
#
# Elastic Constant Matrix: (Units=GPa)
#
#
# Indices 1 2 3 4 5 6 
#
# 1 108.6273 25.7773 36.5907 -0.0033 -8.2540 0.0003
# 2 25.7773 80.1207 22.7322 -0.0148 1.7199 0.0041
# 3 36.5907 22.7322 60.3136 -0.0089 -12.6590 0.0029
# 4 -0.0033 -0.0148 -0.0089 23.7976 0.0029 -3.8406
# 5 -8.2540 1.7199 -12.6590 0.0029 37.6772 -0.0003
# 6 0.0003 0.0041 0.0029 -3.8406 -0.0003 32.1667
#
#
#
# Elastic Compliance Matrix: (Units=1/GPa)
#
#
# Indices 1 2 3 4 5 6 
#
# 1 0.011857 -0.002038 -0.006305 -0.000002 0.000572 0.000000
# 2 -0.002038 0.014565 -0.004827 0.000007 -0.002733 -0.000001
# 3 -0.006305 -0.004827 0.023648 0.000004 0.006785 -0.000001
# 4 -0.000002 0.000007 0.000004 0.042847 -0.000003 0.005116
# 5 0.000572 -0.002733 0.006785 -0.000003 0.029071 0.000000
# 6 0.000000 -0.000001 -0.000001 0.005116 0.000000 0.031699
#
#
# Mechanical properties :
#
#
# Convention : Reuss Voigt Hill
#
# Bulk Modulus (GPa) = 42.13996 46.58469 44.36233
# Shear Modulus (GPa) = 26.60480 29.65904 28.13192
#
# Velocity S-wave (km/s) = 3.56524 3.76433 3.66614
# Velocity P-wave (km/s) = 6.08943 6.41485 6.25426
#
# Compressibility (1/GPa) = 0.02373044
#
# Stress axis : x y z
#
# Youngs Moduli (GPa) = 84.34052 68.65763 42.28648
#
# Poissons Ratio (x) = 0.13993 0.26661
# Poissons Ratio (y) = 0.17189 0.20411
# Poissons Ratio (z) = 0.53176 0.33139
#
# Static dielectric constant tensor:
#      x y z
#    x 1.775490 0.000000 -0.002580 
#    y 0.000000 1.740330 0.000000 
#    z -0.002580 0.000000 1.875740 
# 
# From -- ./inp_files/67017.got.cif
#   From: 2010.05.17/outbox.cif.g08.bks.cpg/sg5_34_cif.got.tgz:67017.got - 2010.06.03 18:56:24.
