data_PCOD9129896
_publ_section_title
;
Structure prediction by ZEFSAII (Michael W. Deem and Ramdas Pophale) SiO2 
 PCOD9129896
Probable space group: C 2
;
_chemical_formula_sum "Si O2"
_cell_formula_units_Z 20
_cell_length_a 12.658800
_cell_length_b 10.703340
_cell_length_c 7.127480
_cell_angle_alpha 90.000000
_cell_angle_beta 50.355779
_cell_angle_gamma 90.000000
_cell_volume 743.618976
_symmetry_space_group_name_H-M "C 2"
_symmetry_group_IT_number 5
_symmetry_cell_setting 'monoclinic'
loop_
_space_group_symop_operation_xyz
x,y,z
-x,y,-z
1/2+x,1/2+y,z
1/2-x,1/2+y,-z
loop_
_atom_site_type_symbol
_atom_site_label
_atom_site_fract_x
_atom_site_fract_y
_atom_site_fract_z
Si Si1 0.917326 0.972210 0.404448
Si Si2 0.539273 0.200378 0.676443
Si Si3 0.707810 0.044751 0.923328
Si Si4 0.138530 0.220667 0.693780
Si Si5 0.375959 0.792716 0.853981
O O1 0.983462 0.846207 0.254104
O O2 0.000000 0.998449 0.500000
O O3 0.924023 0.083489 0.255689
O O4 0.764144 0.979685 0.668636
O O5 0.500000 0.186135 0.500000
O O6 0.443060 0.104042 0.890949
O O7 0.701343 0.199539 0.529118
O O8 0.697820 0.927787 0.082742
O O9 0.800052 0.170294 0.856296
O O10 0.044022 0.297025 0.650186
O O11 0.132420 0.266689 0.912425
#
# Coordination Sequence:
#
# PCOD9129896 Si02
#       5
#     4   4   4   4   4
#     4  11  23  47  74 106 152 198 251 320 377 442
#     4  11  24  46  75 107 153 198 251 320 378 447
#     4  12  24  49  80 108 146 211 250 310 387 457
#     4  11  24  44  71 107 151 199 248 321 370 445
#     4  11  25  47  76 105 152 204 258 308 386 456
#
# _framework density 26.895493999999999
#
# number of rings (size 3 to 8) (size 9 to 14) (size 15 to 20)
#    0.000    0.800    6.000    1.200    2.800    0.800 
#    7.200    0.000    0.000    0.000    0.000    0.000 
#    0.000    0.000    0.000    0.000    0.000    0.000 
#
# Total GULP energy -55776.282473 kJ/mol
# GULP energy per Si atom -5577.628247 kJ/mol
# Density = 2.683428 g / cm^3
# Si number density = 26.895494 Si / 1000 Ang^3
#
#
#
# Elastic Constant Matrix: (Units=GPa)
#
#
# Indices 1 2 3 4 5 6 
#
# 1 113.5415 22.0621 18.1733 0.0000 -21.4046 0.0000
# 2 22.0621 164.7829 20.3523 0.0000 -10.6414 0.0000
# 3 18.1733 20.3523 77.2137 0.0000 -33.3334 0.0000
# 4 0.0000 0.0000 0.0000 31.6385 0.0000 -13.1399
# 5 -21.4046 -10.6414 -33.3334 0.0000 47.8939 0.0000
# 6 0.0000 0.0000 0.0000 -13.1399 0.0000 35.9168
#
#
#
# Elastic Compliance Matrix: (Units=1/GPa)
#
#
# Indices 1 2 3 4 5 6 
#
# 1 0.009798 -0.001016 -0.000351 0.000000 0.003909 0.000000
# 2 -0.001016 0.006382 -0.001468 0.000000 -0.000058 0.000000
# 3 -0.000351 -0.001468 0.018887 0.000000 0.012662 0.000000
# 4 0.000000 0.000000 0.000000 0.037270 0.000000 0.013635
# 5 0.003909 -0.000058 0.012662 0.000000 0.031426 0.000000
# 6 0.000000 0.000000 0.000000 0.013635 0.000000 0.032830
#
#
# Mechanical properties :
#
#
# Convention : Reuss Voigt Hill
#
# Bulk Modulus (GPa) = 34.01689 52.96817 43.49253
# Shear Modulus (GPa) = 32.88137 42.75320 37.81729
#
# Velocity S-wave (km/s) = 3.50031 3.99131 3.75384
# Velocity P-wave (km/s) = 5.38623 6.40137 5.91562
#
# Compressibility (1/GPa) = 0.02939716
#
# Stress axis : x y z
#
# Youngs Moduli (GPa) = 102.06353 156.68552 52.94708
#
# Poissons Ratio (x) = 0.15920 0.01857
# Poissons Ratio (y) = 0.10370 0.07773
# Poissons Ratio (z) = 0.03580 0.23002
#
# Static dielectric constant tensor:
#      x y z
#    x 2.207860 0.000000 -0.140310 
#    y 0.000000 2.089300 0.000000 
#    z -0.140310 0.000000 2.376810 
# 
# From -- ./inp_files/23258.got.cif
#   From: 2010.05.17/outbox.cif.g08.bks.cpg/sg5_12_cif.got.tgz:23258.got - 2010.06.03 18:56:24.
