data_PCOD9129791
_publ_section_title
;
Structure prediction by ZEFSAII (Michael W. Deem and Ramdas Pophale) SiO2 
 PCOD9129791
Probable space group: C 2
;
_chemical_formula_sum "Si O2"
_cell_formula_units_Z 24
_cell_length_a 9.273711
_cell_length_b 10.106187
_cell_length_c 25.726576
_cell_angle_alpha 90.000000
_cell_angle_beta 150.457760
_cell_angle_gamma 90.000000
_cell_volume 1188.850156
_symmetry_space_group_name_H-M "C 2"
_symmetry_group_IT_number 5
_symmetry_cell_setting 'monoclinic'
loop_
_space_group_symop_operation_xyz
x,y,z
-x,y,-z
1/2+x,1/2+y,z
1/2-x,1/2+y,-z
loop_
_atom_site_type_symbol
_atom_site_label
_atom_site_fract_x
_atom_site_fract_y
_atom_site_fract_z
Si Si1 0.731801 0.276650 0.955500
Si Si2 0.966977 0.520705 0.926753
Si Si3 0.850274 0.671952 0.614685
Si Si4 0.364268 0.427204 0.688304
Si Si5 0.343712 0.202367 0.399658
Si Si6 0.360391 0.896840 0.274563
O O1 0.464514 0.354447 0.844445
O O2 0.864364 0.386030 0.035579
O O3 0.608406 0.146783 0.943804
O O4 0.000000 0.245089 0.000000
O O5 0.639022 0.493204 0.804538
O O6 0.000000 0.534470 0.000000
O O7 0.500000 0.649532 0.500000
O O8 0.920725 0.801285 0.670653
O O9 0.971002 0.697415 0.594677
O O10 0.020557 0.546564 0.693297
O O11 0.244970 0.550315 0.618271
O O12 0.141790 0.379771 0.663561
O O13 0.500000 0.254554 0.500000
O O14 0.066694 0.297613 0.307934
#
# Coordination Sequence:
#
# PCOD9129791 Si02
#       6
#     4   4   4   4   4   4
#     4  11  24  44  67  98 134 181 224 278 337 397
#     4  11  24  45  68  98 136 179 224 281 334 396
#     4  11  26  44  69 103 135 180 224 277 337 404
#     4  11  23  44  68  98 137 175 226 275 335 399
#     4  11  24  43  69  96 134 179 223 280 337 403
#     4  11  23  44  67  99 136 176 225 277 334 397
#
# _framework density 20.187574000000001
#
# number of rings (size 3 to 8) (size 9 to 14) (size 15 to 20)
#    0.000    1.000    5.000    2.000    2.333    6.000 
#    3.000    0.000    0.000    0.000    0.000    0.000 
#    0.000    0.000    0.000    0.000    0.000    0.000 
#
# Total GULP energy -66940.969113 kJ/mol
# GULP energy per Si atom -5578.414093 kJ/mol
# Density = 2.014163 g / cm^3
# Si number density = 20.187574 Si / 1000 Ang^3
#
#
#
# Elastic Constant Matrix: (Units=GPa)
#
#
# Indices 1 2 3 4 5 6 
#
# 1 88.5650 82.8540 45.0906 0.0000 23.8947 -0.0001
# 2 82.8540 146.8264 28.3539 0.0000 12.8873 0.0000
# 3 45.0906 28.3539 97.6539 0.0006 16.9102 0.0013
# 4 0.0000 0.0000 0.0006 30.3311 0.0001 -7.5209
# 5 23.8947 12.8873 16.9102 0.0001 28.2749 0.0000
# 6 -0.0001 0.0000 0.0013 -7.5209 0.0000 6.8692
#
#
#
# Elastic Compliance Matrix: (Units=1/GPa)
#
#
# Indices 1 2 3 4 5 6 
#
# 1 0.037348 -0.017757 -0.008953 0.000001 -0.018115 0.000003
# 2 -0.017757 0.015791 0.002523 0.000000 0.006300 -0.000001
# 3 -0.008953 0.002523 0.013978 -0.000001 -0.001944 -0.000004
# 4 0.000001 0.000000 -0.000001 0.045255 0.000000 0.049549
# 5 -0.018115 0.006300 -0.001944 0.000000 0.048967 0.000000
# 6 0.000003 -0.000001 -0.000004 0.049549 0.000000 0.199827
#
#
# Mechanical properties :
#
#
# Convention : Reuss Voigt Hill
#
# Bulk Modulus (GPa) = 53.34820 71.73803 62.54312
# Shear Modulus (GPa) = 12.02541 24.87817 18.45179
#
# Velocity S-wave (km/s) = 2.44331 3.51429 3.02655
# Velocity P-wave (km/s) = 5.86884 7.21664 6.57736
#
# Compressibility (1/GPa) = 0.01874477
#
# Stress axis : x y z
#
# Youngs Moduli (GPa) = 26.77514 63.32878 71.54084
#
# Poissons Ratio (x) = 1.12451 0.64047
# Poissons Ratio (y) = 0.47544 -0.18051
# Poissons Ratio (z) = 0.23971 -0.15979
#
# Static dielectric constant tensor:
#      x y z
#    x 1.716840 0.000000 0.091610 
#    y 0.000000 1.695270 0.000000 
#    z 0.091610 0.000000 2.331900 
# 
# From -- ./inp_files/70207.got.cif
#   From: 2010.05.17/outbox.cif.g08.bks.cpg/sg5_36_cif.got.tgz:70207.got - 2010.06.03 18:56:24.
