data_PCOD9129347
_publ_section_title
;
Structure prediction by ZEFSAII (Michael W. Deem and Ramdas Pophale) SiO2 
 PCOD9129347
Probable space group: C 2
;
_chemical_formula_sum "Si O2"
_cell_formula_units_Z 30
_cell_length_a 11.134460
_cell_length_b 11.776699
_cell_length_c 19.814074
_cell_angle_alpha 90.000000
_cell_angle_beta 147.616014
_cell_angle_gamma 90.000000
_cell_volume 1391.552555
_symmetry_space_group_name_H-M "C 2"
_symmetry_group_IT_number 5
_symmetry_cell_setting 'monoclinic'
loop_
_space_group_symop_operation_xyz
x,y,z
-x,y,-z
1/2+x,1/2+y,z
1/2-x,1/2+y,-z
loop_
_atom_site_type_symbol
_atom_site_label
_atom_site_fract_x
_atom_site_fract_y
_atom_site_fract_z
Si Si1 0.691598 0.539640 0.540640
Si Si2 0.106305 0.792732 0.485791
Si Si3 0.500000 0.417699 0.000000
Si Si4 0.194678 0.311500 0.187241
Si Si5 0.832950 0.598900 0.182677
Si Si6 0.828995 0.216496 0.111796
Si Si7 0.511492 0.651754 0.668890
Si Si8 0.481123 0.062689 0.877277
O O1 0.500000 0.590297 0.500000
O O2 0.701062 0.407888 0.564112
O O3 0.598944 0.543844 0.420316
O O4 0.938446 0.587920 0.666419
O O5 0.328367 0.741899 0.557247
O O6 0.000000 0.726510 0.500000
O O7 0.908999 0.809851 0.338807
O O8 0.357222 0.506995 0.886488
O O9 0.316883 0.329780 0.942656
O O10 0.252966 0.229301 0.151956
O O11 0.113837 0.441791 0.142290
O O12 0.996029 0.246583 0.131447
O O13 0.902842 0.560924 0.140656
O O14 0.968961 0.173724 0.242622
O O15 0.658085 0.117493 0.011365
O O16 0.769177 0.647707 0.769196
#
# Coordination Sequence:
#
# PCOD9129347 Si02
#       8
#     4   4   2   4   4   4   4   4
#     4  11  22  40  72 102 138 181 233 302 357 431
#     4  11  21  40  70  99 137 185 234 294 361 434
#     4  12  24  46  70 102 138 186 242 294 356 432
#     4  12  25  45  73 103 140 188 245 297 359 434
#     4  12  25  46  73 107 140 187 249 296 365 438
#     4  12  26  46  71 100 142 194 236 295 366 431
#     4  12  22  41  72 101 139 183 234 294 370 428
#     4  12  25  48  69 106 149 190 241 299 365 435
#
# _framework density 21.558654000000001
#
# number of rings (size 3 to 8) (size 9 to 14) (size 15 to 20)
#    0.000    0.267    8.000    2.400    0.000    0.000 
#    7.200    0.000    2.933    0.000    0.000    0.000 
#    0.000    0.000    0.000    0.000    0.000    0.000 
#
# Total GULP energy -83625.740461 kJ/mol
# GULP energy per Si atom -5575.049364 kJ/mol
# Density = 2.150959 g / cm^3
# Si number density = 21.558654 Si / 1000 Ang^3
#
#
#
# Elastic Constant Matrix: (Units=GPa)
#
#
# Indices 1 2 3 4 5 6 
#
# 1 45.5630 34.4282 12.0425 0.0000 19.6327 0.0000
# 2 34.4282 108.2786 48.2341 0.0002 11.4952 0.0001
# 3 12.0425 48.2341 150.9476 0.0006 16.1468 0.0002
# 4 0.0000 0.0002 0.0006 38.1247 0.0001 6.3323
# 5 19.6327 11.4952 16.1468 0.0001 32.1025 0.0000
# 6 0.0000 0.0001 0.0002 6.3323 0.0000 34.1247
#
#
#
# Elastic Compliance Matrix: (Units=1/GPa)
#
#
# Indices 1 2 3 4 5 6 
#
# 1 0.038903 -0.011370 0.002789 0.000000 -0.021123 0.000000
# 2 -0.011370 0.014246 -0.004062 0.000000 0.003895 0.000000
# 3 0.002789 -0.004062 0.008167 0.000000 -0.004359 0.000000
# 4 0.000000 0.000000 0.000000 0.027064 0.000000 -0.005022
# 5 -0.021123 0.003895 -0.004359 0.000000 0.044866 0.000000
# 6 0.000000 0.000000 0.000000 -0.005022 0.000000 0.030236
#
#
# Mechanical properties :
#
#
# Convention : Reuss Voigt Hill
#
# Bulk Modulus (GPa) = 27.75361 54.91096 41.33229
# Shear Modulus (GPa) = 24.90310 34.87601 29.88956
#
# Velocity S-wave (km/s) = 3.40241 4.02646 3.72752
# Velocity P-wave (km/s) = 5.32322 6.86603 6.14325
#
# Compressibility (1/GPa) = 0.03603135
#
# Stress axis : x y z
#
# Youngs Moduli (GPa) = 25.70466 70.19304 122.45122
#
# Poissons Ratio (x) = 0.79806 -0.34151
# Poissons Ratio (y) = 0.29225 0.49739
# Poissons Ratio (z) = -0.07169 0.28512
#
# Static dielectric constant tensor:
#      x y z
#    x 1.878340 0.000000 -0.006340 
#    y 0.000000 1.817040 0.000000 
#    z -0.006340 0.000000 1.801400 
# 
# From -- ./inp_files/46482.got.cif
#   From: 2010.05.17/outbox.cif.g08.bks.cpg/sg5_24_cif.got.tgz:46482.got - 2010.06.03 18:56:24.
