data_PCOD9129059
_publ_section_title
;
Structure prediction by ZEFSAII (Michael W. Deem and Ramdas Pophale) SiO2 
 PCOD9129059
Probable space group: C 2
;
_chemical_formula_sum "Si O2"
_cell_formula_units_Z 22
_cell_length_a 22.201416
_cell_length_b 6.745242
_cell_length_c 10.027184
_cell_angle_alpha 90.000000
_cell_angle_beta 34.238221
_cell_angle_gamma 90.000000
_cell_volume 844.858401
_symmetry_space_group_name_H-M "C 2"
_symmetry_group_IT_number 5
_symmetry_cell_setting 'monoclinic'
loop_
_space_group_symop_operation_xyz
x,y,z
-x,y,-z
1/2+x,1/2+y,z
1/2-x,1/2+y,-z
loop_
_atom_site_type_symbol
_atom_site_label
_atom_site_fract_x
_atom_site_fract_y
_atom_site_fract_z
Si Si1 0.134541 0.976490 0.930208
Si Si2 0.386427 0.135581 0.861986
Si Si3 0.500000 0.171195 0.000000
Si Si4 0.129599 0.593387 0.416182
Si Si5 0.364827 0.803882 0.284616
Si Si6 0.297933 0.484678 0.599423
O O1 0.073640 0.809734 0.954180
O O2 0.263616 0.002224 0.709776
O O3 0.099328 0.176545 0.913556
O O4 0.107500 0.874809 0.123234
O O5 0.504246 0.038418 0.662645
O O6 0.350085 0.085002 0.779712
O O7 0.298553 0.053285 0.127895
O O8 0.576612 0.009198 0.792519
O O9 0.133555 0.823749 0.451081
O O10 0.362144 0.662991 0.416304
O O11 0.249834 0.877374 0.444174
#
# Coordination Sequence:
#
# PCOD9129059 Si02
#       6
#     4   4   2   4   4   4
#     4  11  25  48  79 115 166 207 266 327 397 482
#     4  11  23  49  78 117 154 209 269 328 396 467
#     4  12  26  46  78 120 168 216 258 324 406 478
#     4  10  26  47  82 113 156 210 269 329 391 475
#     4  11  26  45  72 120 162 212 259 324 404 481
#     4  11  24  46  73 112 161 207 258 326 395 474
#
# _framework density 26.039866
#
# number of rings (size 3 to 8) (size 9 to 14) (size 15 to 20)
#    0.000    1.091    1.818    2.727    5.091    2.909 
#    0.000    0.000    4.000    8.727    0.000    0.000 
#    0.000    0.000    0.000    0.000    0.000    0.000 
#
# Total GULP energy -61411.588228 kJ/mol
# GULP energy per Si atom -5582.871657 kJ/mol
# Density = 2.598060 g / cm^3
# Si number density = 26.039866 Si / 1000 Ang^3
#
#
#
# Elastic Constant Matrix: (Units=GPa)
#
#
# Indices 1 2 3 4 5 6 
#
# 1 182.9815 49.3460 59.0636 -0.0001 -6.0668 0.0000
# 2 49.3460 125.3813 21.8523 -0.0006 -10.1343 0.0003
# 3 59.0636 21.8523 141.8122 -0.0003 -21.8925 0.0002
# 4 -0.0001 -0.0006 -0.0003 39.6609 0.0000 -13.2418
# 5 -6.0668 -10.1343 -21.8925 0.0000 43.0152 0.0000
# 6 0.0000 0.0003 0.0002 -13.2418 0.0000 42.7101
#
#
#
# Elastic Compliance Matrix: (Units=1/GPa)
#
#
# Indices 1 2 3 4 5 6 
#
# 1 0.006925 -0.002336 -0.002668 0.000000 -0.000932 0.000000
# 2 -0.002336 0.009062 -0.000157 0.000000 0.001726 0.000000
# 3 -0.002668 -0.000157 0.008816 0.000000 0.004074 0.000000
# 4 0.000000 0.000000 0.000000 0.028125 0.000000 0.008720
# 5 -0.000932 0.001726 0.004074 0.000000 0.025596 0.000000
# 6 0.000000 0.000000 0.000000 0.008720 0.000000 0.026117
#
#
# Mechanical properties :
#
#
# Convention : Reuss Voigt Hill
#
# Bulk Modulus (GPa) = 69.05730 78.96655 74.01193
# Shear Modulus (GPa) = 41.73950 46.40479 44.07214
#
# Velocity S-wave (km/s) = 4.00798 4.22603 4.11845
# Velocity P-wave (km/s) = 6.92791 7.36231 7.14841
#
# Compressibility (1/GPa) = 0.01448073
#
# Stress axis : x y z
#
# Youngs Moduli (GPa) = 144.39735 110.35283 113.43096
#
# Poissons Ratio (x) = 0.25777 0.30266
# Poissons Ratio (y) = 0.33729 0.01782
# Poissons Ratio (z) = 0.38528 0.01734
#
# Static dielectric constant tensor:
#      x y z
#    x 2.062160 0.000000 -0.047550 
#    y 0.000000 2.065660 0.000000 
#    z -0.047550 0.000000 2.303890 
# 
# From -- ./inp_files/30523.got.cif
#   From: 2010.05.17/outbox.cif.g08.bks.cpg/sg5_16_cif.got.tgz:30523.got - 2010.06.03 18:56:24.
