data_PCOD9129388
_publ_section_title
;
Structure prediction by ZEFSAII (Michael W. Deem and Ramdas Pophale) SiO2 
 PCOD9129388
Probable space group: C 2
;
_chemical_formula_sum "Si O2"
_cell_formula_units_Z 24
_cell_length_a 18.801788
_cell_length_b 13.361893
_cell_length_c 11.133185
_cell_angle_alpha 90.000000
_cell_angle_beta 154.341788
_cell_angle_gamma 90.000000
_cell_volume 1211.089526
_symmetry_space_group_name_H-M "C 2"
_symmetry_group_IT_number 5
_symmetry_cell_setting 'monoclinic'
loop_
_space_group_symop_operation_xyz
x,y,z
-x,y,-z
1/2+x,1/2+y,z
1/2-x,1/2+y,-z
loop_
_atom_site_type_symbol
_atom_site_label
_atom_site_fract_x
_atom_site_fract_y
_atom_site_fract_z
Si Si1 0.076433 0.224660 0.744281
Si Si2 0.035505 0.731984 0.236023
Si Si3 0.590700 0.432294 0.444408
Si Si4 0.265685 0.653850 0.389059
Si Si5 0.596126 0.107981 0.760849
Si Si6 0.252204 0.419825 0.070455
O O1 0.000000 0.192039 0.500000
O O2 0.931880 0.214931 0.619367
O O3 0.232176 0.157670 0.013397
O O4 0.149535 0.335021 0.848128
O O5 0.068921 0.850372 0.305590
O O6 0.182294 0.677781 0.389148
O O7 0.008692 0.689501 0.328096
O O8 0.869592 0.698533 0.911588
O O9 0.678760 0.537535 0.543847
O O10 0.410570 0.447702 0.230320
O O11 0.691408 0.387742 0.711207
O O12 0.500000 0.070161 0.500000
O O13 0.640483 0.016994 0.914394
#
# Coordination Sequence:
#
# PCOD9129388 Si02
#       6
#     4   4   4   4   4   4
#     4  12  21  40  66  98 133 181 234 284 344 415
#     4  11  24  43  68 102 142 185 227 292 349 416
#     4  11  21  43  69  99 134 184 228 283 354 407
#     4  11  24  44  70  98 143 186 228 283 355 418
#     4  12  23  40  65 101 139 174 234 290 340 412
#     4  11  22  37  71 101 131 177 235 291 346 405
#
# _framework density 19.816866999999998
#
# number of rings (size 3 to 8) (size 9 to 14) (size 15 to 20)
#    0.000    0.667    6.667    1.500    0.000    1.333 
#    0.000    4.167    0.000    0.000    0.000    0.000 
#    0.000    0.000    0.000    0.000    0.000    0.000 
#
# Total GULP energy -66954.480364 kJ/mol
# GULP energy per Si atom -5579.540030 kJ/mol
# Density = 1.977176 g / cm^3
# Si number density = 19.816867 Si / 1000 Ang^3
#
#
#
# Elastic Constant Matrix: (Units=GPa)
#
#
# Indices 1 2 3 4 5 6 
#
# 1 74.9054 17.3083 47.3954 0.0000 25.8375 0.0000
# 2 17.3083 110.6335 49.1479 0.0000 5.8007 0.0000
# 3 47.3954 49.1479 92.6507 0.0000 11.0394 0.0000
# 4 0.0000 0.0000 0.0000 35.4411 0.0000 1.4519
# 5 25.8375 5.8007 11.0394 0.0000 21.8790 0.0000
# 6 0.0000 0.0000 0.0000 1.4519 0.0000 31.3972
#
#
#
# Elastic Compliance Matrix: (Units=1/GPa)
#
#
# Indices 1 2 3 4 5 6 
#
# 1 0.033200 0.003054 -0.014720 0.000000 -0.032589 0.000000
# 2 0.003054 0.012107 -0.007631 0.000000 -0.002966 0.000000
# 3 -0.014720 -0.007631 0.021342 0.000000 0.008638 0.000000
# 4 0.000000 0.000000 0.000000 0.028269 0.000000 -0.001307
# 5 -0.032589 -0.002966 0.008638 0.000000 0.080619 0.000000
# 6 0.000000 0.000000 0.000000 -0.001307 0.000000 0.031910
#
#
# Mechanical properties :
#
#
# Convention : Reuss Voigt Hill
#
# Bulk Modulus (GPa) = 35.64585 56.21032 45.92809
# Shear Modulus (GPa) = 19.57770 28.69933 24.13851
#
# Velocity S-wave (km/s) = 3.14655 3.80969 3.49389
# Velocity P-wave (km/s) = 5.58817 6.91217 6.28513
#
# Compressibility (1/GPa) = 0.02805376
#
# Stress axis : x y z
#
# Youngs Moduli (GPa) = 30.12084 82.59981 46.85572
#
# Poissons Ratio (x) = -0.25227 0.68973
# Poissons Ratio (y) = -0.09199 0.35756
# Poissons Ratio (z) = 0.44339 0.63032
#
# Static dielectric constant tensor:
#      x y z
#    x 1.685960 0.000000 -0.013320 
#    y 0.000000 1.753210 0.000000 
#    z -0.013320 0.000000 1.698500 
# 
# From -- ./inp_files/46582.got.cif
#   From: 2010.05.17/outbox.cif.g08.bks.cpg/sg5_24_cif.got.tgz:46582.got - 2010.06.03 18:56:24.
