data_PCOD9129400
_publ_section_title
;
Structure prediction by ZEFSAII (Michael W. Deem and Ramdas Pophale) SiO2 
 PCOD9129400
Probable space group: C 2
;
_chemical_formula_sum "Si O2"
_cell_formula_units_Z 16
_cell_length_a 8.450825
_cell_length_b 20.271781
_cell_length_c 7.407159
_cell_angle_alpha 90.000000
_cell_angle_beta 35.328539
_cell_angle_gamma 90.000000
_cell_volume 733.785102
_symmetry_space_group_name_H-M "C 2"
_symmetry_group_IT_number 5
_symmetry_cell_setting 'monoclinic'
loop_
_space_group_symop_operation_xyz
x,y,z
-x,y,-z
1/2+x,1/2+y,z
1/2-x,1/2+y,-z
loop_
_atom_site_type_symbol
_atom_site_label
_atom_site_fract_x
_atom_site_fract_y
_atom_site_fract_z
Si Si1 0.602145 0.887770 0.712284
Si Si2 0.745825 0.665114 0.124757
Si Si3 0.000000 0.091868 0.000000
Si Si4 0.500000 0.994257 0.500000
Si Si5 0.409379 0.308591 0.885514
O O1 0.538604 0.945311 0.631868
O O2 0.896772 0.853597 0.418406
O O3 0.500000 0.912286 0.000000
O O4 0.401385 0.827484 0.855391
O O5 0.500000 0.679268 0.500000
O O6 0.601627 0.631284 0.084859
O O7 0.902690 0.729493 0.895685
O O8 0.000000 0.630817 0.000000
O O9 0.246132 0.042938 0.728093
O O10 0.500000 0.329654 0.000000
#
# Coordination Sequence:
#
# PCOD9129400 Si02
#       5
#     4   4   2   2   4
#     4  12  25  43  70 108 138 188 236 292 362 426
#     4  11  25  47  74 110 145 191 240 305 364 428
#     4  12  28  48  76 102 146 202 246 288 358 444
#     4  12  26  48  70 102 152 194 240 298 350 434
#     4  11  21  44  71 102 151 175 227 303 367 421
#
# _framework density 21.804749999999999
#
# number of rings (size 3 to 8) (size 9 to 14) (size 15 to 20)
#    0.000    0.500    2.500    6.750    1.750    3.000 
#    9.000    0.000    0.000    0.000    0.000    0.000 
#    0.000    0.000    0.000    0.000    0.000    0.000 
#
# Total GULP energy -44610.942469 kJ/mol
# GULP energy per Si atom -5576.367809 kJ/mol
# Density = 2.175512 g / cm^3
# Si number density = 21.804750 Si / 1000 Ang^3
#
#
#
# Elastic Constant Matrix: (Units=GPa)
#
#
# Indices 1 2 3 4 5 6 
#
# 1 184.7103 77.2668 60.3888 0.0000 21.4963 0.0000
# 2 77.2668 85.4739 35.9382 0.0000 19.1412 0.0000
# 3 60.3888 35.9382 93.8992 0.0000 2.2161 0.0000
# 4 0.0000 0.0000 0.0000 41.3295 0.0000 -41.1962
# 5 21.4963 19.1412 2.2161 0.0000 47.8702 0.0000
# 6 0.0000 0.0000 0.0000 -41.1962 0.0000 -45.7581
#
#
#
# Elastic Compliance Matrix: (Units=1/GPa)
#
#
# Indices 1 2 3 4 5 6 
#
# 1 0.009609 -0.006900 -0.003506 0.000000 -0.001394 0.000000
# 2 -0.006900 0.020406 -0.003257 0.000000 -0.004910 0.000000
# 3 -0.003506 -0.003257 0.014098 0.000000 0.002224 0.000000
# 4 0.000000 0.000000 0.000000 0.012752 0.000000 -0.011481
# 5 -0.001394 -0.004910 0.002224 0.000000 0.023376 0.000000
# 6 0.000000 0.000000 0.000000 -0.011481 0.000000 -0.011518
#
#
# Mechanical properties :
#
#
# Convention : Reuss Voigt Hill
#
# Bulk Modulus (GPa) = 59.56607 79.03011 69.29809
# Shear Modulus (GPa) = 49.19182 21.38763 35.28973
#
# Velocity S-wave (km/s) = 4.75490 3.13528 4.02735
# Velocity P-wave (km/s) = 7.58437 7.03063 7.31275
#
# Compressibility (1/GPa) = 0.01678808
#
# Stress axis : x y z
#
# Youngs Moduli (GPa) = 104.07431 49.00617 70.93060
#
# Poissons Ratio (x) = 0.33813 0.24867
# Poissons Ratio (y) = 0.71809 0.23099
# Poissons Ratio (z) = 0.36486 0.15959
#
# Static dielectric constant tensor:
#      x y z
#    x 1.868480 0.000000 0.057380 
#    y 0.000000 1.776620 0.000000 
#    z 0.057380 0.000000 1.797720 
# 
# From -- ./inp_files/2267.got.cif
#   From: 2010.05.17/outbox.cif.g08.bks.cpg/sg5_2_cif.got.tgz:2267.got - 2010.06.03 18:56:24.
