data_PCOD9129940
_publ_section_title
;
Structure prediction by ZEFSAII (Michael W. Deem and Ramdas Pophale) SiO2 
 PCOD9129940
Probable space group: C 2
;
_chemical_formula_sum "Si O2"
_cell_formula_units_Z 24
_cell_length_a 8.366669
_cell_length_b 16.551374
_cell_length_c 14.504024
_cell_angle_alpha 90.000000
_cell_angle_beta 147.570614
_cell_angle_gamma 90.000000
_cell_volume 1077.085957
_symmetry_space_group_name_H-M "C 2"
_symmetry_group_IT_number 5
_symmetry_cell_setting 'monoclinic'
loop_
_space_group_symop_operation_xyz
x,y,z
-x,y,-z
1/2+x,1/2+y,z
1/2-x,1/2+y,-z
loop_
_atom_site_type_symbol
_atom_site_label
_atom_site_fract_x
_atom_site_fract_y
_atom_site_fract_z
Si Si1 0.400366 0.689860 0.346130
Si Si2 0.164666 0.452040 0.671880
Si Si3 0.217207 0.187400 0.029134
Si Si4 0.802625 0.370778 0.984480
Si Si5 0.144780 0.345291 0.343348
Si Si6 0.309428 0.627964 0.671950
O O1 0.500000 0.699229 0.500000
O O2 0.498096 0.771532 0.335022
O O3 0.555731 0.618601 0.363620
O O4 0.055766 0.663287 0.179020
O O5 0.225097 0.545937 0.682357
O O6 0.000000 0.419848 0.500000
O O7 0.946488 0.426505 0.646793
O O8 0.489351 0.413968 0.846560
O O9 0.266304 0.280138 0.083454
O O10 0.000000 0.148781 0.000000
O O11 0.036216 0.175684 0.846919
O O12 0.983285 0.355949 0.166153
O O13 0.000000 0.411033 0.000000
O O14 0.500000 0.340539 0.500000
O O15 0.000000 0.672251 0.500000
#
# Coordination Sequence:
#
# PCOD9129940 Si02
#       6
#     4   4   4   4   4   4
#     4  12  25  43  74 109 148 196 253 307 366 439
#     4  11  25  47  71 105 151 194 243 305 369 441
#     4  11  24  41  69 106 145 190 246 300 363 435
#     4  11  24  41  69 106 145 190 246 300 363 435
#     4  12  25  43  74 109 148 196 253 307 366 439
#     4  11  25  47  71 105 151 194 243 305 369 441
#
# _framework density 22.282344999999999
#
# number of rings (size 3 to 8) (size 9 to 14) (size 15 to 20)
#    0.000    0.667    3.333    4.000    4.667    2.667 
#    0.000   10.000    0.000    0.000    0.000    0.000 
#    0.000    0.000    0.000    0.000    0.000    0.000 
#
# Total GULP energy -66944.534351 kJ/mol
# GULP energy per Si atom -5578.711196 kJ/mol
# Density = 2.223163 g / cm^3
# Si number density = 22.282345 Si / 1000 Ang^3
#
#
#
# Elastic Constant Matrix: (Units=GPa)
#
#
# Indices 1 2 3 4 5 6 
#
# 1 179.1896 38.9846 79.7545 -0.0277 13.6394 -0.0030
# 2 38.9846 79.4856 20.2201 0.0656 8.9517 0.0154
# 3 79.7545 20.2201 194.6015 0.2219 18.8250 0.0499
# 4 -0.0277 0.0656 0.2219 -139.8768 0.0295 -34.9919
# 5 13.6394 8.9517 18.8250 0.0295 56.0090 0.0117
# 6 -0.0030 0.0154 0.0499 -34.9919 0.0117 23.9473
#
#
#
# Elastic Compliance Matrix: (Units=1/GPa)
#
#
# Indices 1 2 3 4 5 6 
#
# 1 0.007455 -0.002918 -0.002710 -0.000007 -0.000438 -0.000001
# 2 -0.002918 0.014217 -0.000135 0.000006 -0.001516 0.000001
# 3 -0.002710 -0.000135 0.006406 0.000010 -0.001472 0.000002
# 4 -0.000007 0.000006 0.000010 -0.005235 0.000002 -0.007650
# 5 -0.000438 -0.001516 -0.001472 0.000002 0.018698 -0.000003
# 6 -0.000001 0.000001 0.000002 -0.007650 -0.000003 0.030580
#
#
# Mechanical properties :
#
#
# Convention : Reuss Voigt Hill
#
# Bulk Modulus (GPa) = 60.41140 81.24391 70.82766
# Shear Modulus (GPa) = 56.07770 8.97041 32.52405
#
# Velocity S-wave (km/s) = 5.02210 2.00861 3.82466
# Velocity P-wave (km/s) = 7.79739 6.47454 7.16655
#
# Compressibility (1/GPa) = 0.01655317
#
# Stress axis : x y z
#
# Youngs Moduli (GPa) = 134.14089 70.33863 156.11395
#
# Poissons Ratio (x) = 0.20522 0.42302
# Poissons Ratio (y) = 0.39137 0.02104
# Poissons Ratio (z) = 0.36348 0.00948
#
# Static dielectric constant tensor:
#      x y z
#    x 1.930170 0.000000 0.053950 
#    y 0.000000 1.887770 0.000000 
#    z 0.053950 0.000000 1.839020 
# 
# From -- ./inp_files/51436.got.cif
#   From: 2010.05.17/outbox.cif.g08.bks.cpg/sg5_26_cif.got.tgz:51436.got - 2010.06.03 18:56:24.
