data_PCOD9129854
_publ_section_title
;
Structure prediction by ZEFSAII (Michael W. Deem and Ramdas Pophale) SiO2 
 PCOD9129854
Probable space group: C 2
;
_chemical_formula_sum "Si O2"
_cell_formula_units_Z 24
_cell_length_a 20.447740
_cell_length_b 10.101467
_cell_length_c 8.277589
_cell_angle_alpha 90.000000
_cell_angle_beta 146.635138
_cell_angle_gamma 90.000000
_cell_volume 940.311080
_symmetry_space_group_name_H-M "C 2"
_symmetry_group_IT_number 5
_symmetry_cell_setting 'monoclinic'
loop_
_space_group_symop_operation_xyz
x,y,z
-x,y,-z
1/2+x,1/2+y,z
1/2-x,1/2+y,-z
loop_
_atom_site_type_symbol
_atom_site_label
_atom_site_fract_x
_atom_site_fract_y
_atom_site_fract_z
Si Si1 0.474663 0.384280 0.130240
Si Si2 0.162700 0.524718 0.662342
Si Si3 0.764581 0.257631 0.332534
Si Si4 0.349624 0.671519 0.860817
Si Si5 0.210581 0.995079 0.745932
Si Si6 0.945983 0.449907 0.064720
O O1 0.594521 0.407509 0.478213
O O2 0.500000 0.339903 0.000000
O O3 0.374637 0.285101 0.988216
O O4 0.417790 0.531799 0.997537
O O5 0.182598 0.402657 0.580637
O O6 0.241409 0.647078 0.762111
O O7 0.021635 0.533222 0.351694
O O8 0.218054 0.473688 0.942881
O O9 0.794438 0.209402 0.574098
O O10 0.818897 0.150680 0.323306
O O11 0.439378 0.791511 0.083724
O O12 0.306167 0.981298 0.798437
O O13 0.000000 0.480026 0.000000
#
# Coordination Sequence:
#
# PCOD9129854 Si02
#       6
#     4   4   4   4   4   4
#     4  11  23  45  76 108 143 194 252 302 374 446
#     4  11  27  47  72 112 147 193 253 306 388 439
#     4  11  24  46  75 104 144 192 250 309 369 454
#     4  11  23  46  81 105 141 197 253 310 367 453
#     4  12  27  46  70 110 154 193 248 317 377 439
#     4  12  24  46  75 103 149 197 254 306 366 449
#
# _framework density 25.523465999999999
#
# number of rings (size 3 to 8) (size 9 to 14) (size 15 to 20)
#    0.000    0.667    3.333    4.000    2.333    6.000 
#    6.000    0.000    0.000    0.000    0.000    0.000 
#    0.000    0.000    0.000    0.000    0.000    0.000 
#
# Total GULP energy -67157.456340 kJ/mol
# GULP energy per Si atom -5596.454695 kJ/mol
# Density = 2.546537 g / cm^3
# Si number density = 25.523466 Si / 1000 Ang^3
#
#
#
# Elastic Constant Matrix: (Units=GPa)
#
#
# Indices 1 2 3 4 5 6 
#
# 1 47.5871 14.9828 40.9614 0.0000 -1.3223 0.0000
# 2 14.9828 59.0388 37.0536 0.0000 -1.2636 0.0000
# 3 40.9614 37.0536 191.4720 0.0000 4.9471 0.0000
# 4 0.0000 0.0000 0.0000 42.1038 0.0000 21.5467
# 5 -1.3223 -1.2636 4.9471 0.0000 40.8287 0.0000
# 6 0.0000 0.0000 0.0000 21.5467 0.0000 32.9574
#
#
#
# Elastic Compliance Matrix: (Units=1/GPa)
#
#
# Indices 1 2 3 4 5 6 
#
# 1 0.026484 -0.003545 -0.005015 0.000000 0.001356 0.000000
# 2 -0.003545 0.019799 -0.003096 0.000000 0.000873 0.000000
# 3 -0.005015 -0.003096 0.006923 0.000000 -0.001097 0.000000
# 4 0.000000 0.000000 0.000000 0.035692 0.000000 -0.023335
# 5 0.001356 0.000873 -0.001097 0.000000 0.024696 0.000000
# 6 0.000000 0.000000 0.000000 -0.023335 0.000000 0.045598
#
#
# Mechanical properties :
#
#
# Convention : Reuss Voigt Hill
#
# Bulk Modulus (GPa) = 33.44946 53.78817 43.61882
# Shear Modulus (GPa) = 25.97814 36.85132 31.41473
#
# Velocity S-wave (km/s) = 3.19378 3.80389 3.51211
# Velocity P-wave (km/s) = 5.17051 6.35708 5.79425
#
# Compressibility (1/GPa) = 0.02989585
#
# Stress axis : x y z
#
# Youngs Moduli (GPa) = 37.75803 50.50694 144.44715
#
# Poissons Ratio (x) = 0.17904 0.72438
# Poissons Ratio (y) = 0.13384 0.44717
# Poissons Ratio (z) = 0.18935 0.15636
#
# Static dielectric constant tensor:
#      x y z
#    x 2.089230 0.000000 0.115970 
#    y 0.000000 2.105770 0.000000 
#    z 0.115970 0.000000 2.116400 
# 
# From -- ./inp_files/30966.got.cif
#   From: 2010.05.17/outbox.cif.g08.bks.cpg/sg5_16_cif.got.tgz:30966.got - 2010.06.03 18:56:24.
