data_PCOD9129744
_publ_section_title
;
Structure prediction by ZEFSAII (Michael W. Deem and Ramdas Pophale) SiO2 
 PCOD9129744
Probable space group: C 2
;
_chemical_formula_sum "Si O2"
_cell_formula_units_Z 28
_cell_length_a 30.564466
_cell_length_b 7.916377
_cell_length_c 6.596475
_cell_angle_alpha 90.000000
_cell_angle_beta 121.960699
_cell_angle_gamma 90.000000
_cell_volume 1354.134146
_symmetry_space_group_name_H-M "C 2"
_symmetry_group_IT_number 5
_symmetry_cell_setting 'monoclinic'
loop_
_space_group_symop_operation_xyz
x,y,z
-x,y,-z
1/2+x,1/2+y,z
1/2-x,1/2+y,-z
loop_
_atom_site_type_symbol
_atom_site_label
_atom_site_fract_x
_atom_site_fract_y
_atom_site_fract_z
Si Si1 0.200606 0.476350 0.990656
Si Si2 0.371377 0.499689 0.900799
Si Si3 0.058292 0.148201 0.565150
Si Si4 0.768307 0.834856 0.812658
Si Si5 0.055969 0.838732 0.239523
Si Si6 0.602498 0.994233 0.476051
Si Si7 0.832638 0.334382 0.689633
O O1 0.245909 0.390772 0.974446
O O2 0.154502 0.532659 0.729774
O O3 0.222376 0.636381 0.160379
O O4 0.175467 0.353959 0.092451
O O5 0.321689 0.420699 0.886248
O O6 0.403095 0.369392 0.841150
O O7 0.349901 0.643083 0.696576
O O8 0.407820 0.586000 0.159481
O O9 0.077687 0.325233 0.513915
O O10 0.000000 0.171042 0.500000
O O11 0.059464 0.996491 0.403105
O O12 0.722045 0.874529 0.545811
O O13 0.067794 0.660868 0.378661
O O14 0.000000 0.836119 0.000000
O O15 0.623205 0.947982 0.302152
#
# Coordination Sequence:
#
# PCOD9129744 Si02
#       7
#     4   4   4   4   4   4   4
#     4  11  23  43  63 101 141 179 231 283 352 426
#     4  12  24  45  72  98 146 186 229 298 352 419
#     4  12  26  48  74 102 139 190 236 294 361 420
#     4  11  25  38  67 101 137 184 229 283 348 425
#     4  12  27  47  72 104 137 182 244 295 355 424
#     4  11  26  45  71 103 140 181 232 292 357 418
#     4  11  23  42  70 100 137 185 228 282 356 423
#
# _framework density 20.677419
#
# number of rings (size 3 to 8) (size 9 to 14) (size 15 to 20)
#    0.000    0.571    4.286    3.429    2.000    8.000 
#    2.571    0.000    0.000    0.000    0.000    0.000 
#    0.000    0.000    0.000    0.000    0.000    0.000 
#
# Total GULP energy -78265.236539 kJ/mol
# GULP energy per Si atom -5590.374038 kJ/mol
# Density = 2.063036 g / cm^3
# Si number density = 20.677419 Si / 1000 Ang^3
#
#
#
# Elastic Constant Matrix: (Units=GPa)
#
#
# Indices 1 2 3 4 5 6 
#
# 1 120.4237 38.5837 44.0153 0.0000 2.3350 0.0000
# 2 38.5837 117.6912 20.7107 0.0000 3.0916 0.0000
# 3 44.0153 20.7107 49.6227 0.0000 1.1895 0.0000
# 4 0.0000 0.0000 0.0000 19.0709 0.0000 0.5330
# 5 2.3350 3.0916 1.1895 0.0000 29.7794 0.0000
# 6 0.0000 0.0000 0.0000 0.5330 0.0000 32.5554
#
#
#
# Elastic Compliance Matrix: (Units=1/GPa)
#
#
# Indices 1 2 3 4 5 6 
#
# 1 0.012884 -0.002380 -0.010427 0.000000 -0.000347 0.000000
# 2 -0.002380 0.009629 -0.001890 0.000000 -0.000738 0.000000
# 3 -0.010427 -0.001890 0.030194 0.000000 -0.000192 0.000000
# 4 0.000000 0.000000 0.000000 0.052460 0.000000 -0.000859
# 5 -0.000347 -0.000738 -0.000192 0.000000 0.033692 0.000000
# 6 0.000000 0.000000 0.000000 -0.000859 0.000000 0.030731
#
#
# Mechanical properties :
#
#
# Convention : Reuss Voigt Hill
#
# Bulk Modulus (GPa) = 42.89311 54.92855 48.91083
# Shear Modulus (GPa) = 24.18322 28.57632 26.37977
#
# Velocity S-wave (km/s) = 3.42357 3.72157 3.57568
# Velocity P-wave (km/s) = 6.03463 6.71483 6.38380
#
# Compressibility (1/GPa) = 0.02331377
#
# Stress axis : x y z
#
# Youngs Moduli (GPa) = 77.61385 103.85241 33.11912
#
# Poissons Ratio (x) = 0.24717 0.34532
# Poissons Ratio (y) = 0.18472 0.06260
# Poissons Ratio (z) = 0.80926 0.19629
#
# Static dielectric constant tensor:
#      x y z
#    x 1.922780 0.000000 -0.084190 
#    y 0.000000 1.740210 0.000000 
#    z -0.084190 0.000000 1.747290 
# 
# From -- ./inp_files/11276.got.cif
#   From: 2010.05.17/outbox.cif.g08.bks.cpg/sg5_6_cif.got.tgz:11276.got - 2010.06.03 18:56:24.
