data_PCOD9129802
_publ_section_title
;
Structure prediction by ZEFSAII (Michael W. Deem and Ramdas Pophale) SiO2 
 PCOD9129802
Probable space group: C 2
;
_chemical_formula_sum "Si O2"
_cell_formula_units_Z 24
_cell_length_a 9.535024
_cell_length_b 14.261476
_cell_length_c 15.754629
_cell_angle_alpha 90.000000
_cell_angle_beta 146.931566
_cell_angle_gamma 90.000000
_cell_volume 1168.963438
_symmetry_space_group_name_H-M "C 2"
_symmetry_group_IT_number 5
_symmetry_cell_setting 'monoclinic'
loop_
_space_group_symop_operation_xyz
x,y,z
-x,y,-z
1/2+x,1/2+y,z
1/2-x,1/2+y,-z
loop_
_atom_site_type_symbol
_atom_site_label
_atom_site_fract_x
_atom_site_fract_y
_atom_site_fract_z
Si Si1 0.742343 0.473900 0.316098
Si Si2 0.449115 0.823946 0.119028
Si Si3 0.207342 0.175141 0.357544
Si Si4 0.096318 0.819086 0.785283
Si Si5 0.707120 0.993445 0.843223
Si Si6 0.743178 0.142144 0.422748
O O1 0.689942 0.585064 0.287395
O O2 0.521066 0.419311 0.251737
O O3 0.783053 0.438375 0.241517
O O4 0.000000 0.461544 0.500000
O O5 0.508866 0.752112 0.225182
O O6 0.707457 0.828873 0.193182
O O7 0.361823 0.922261 0.115927
O O8 0.242373 0.788462 0.945487
O O9 0.500000 0.212829 0.500000
O O10 0.183805 0.137361 0.440990
O O11 0.874228 0.745250 0.652116
O O12 0.483723 0.070217 0.718059
O O13 0.000000 0.031366 0.000000
O O14 0.000000 0.125762 0.500000
#
# Coordination Sequence:
#
# PCOD9129802 Si02
#       6
#     4   4   4   4   4   4
#     4  11  23  44  70  96 138 182 225 283 339 405
#     4  11  26  42  71 100 137 181 226 281 345 409
#     4  11  23  45  67 100 137 181 225 282 346 399
#     4  11  25  45  68 102 138 179 229 280 344 406
#     4  12  26  46  71 101 140 183 229 279 348 405
#     4  12  28  45  71 104 136 183 234 280 341 408
#
# _framework density 20.531009999999998
#
# number of rings (size 3 to 8) (size 9 to 14) (size 15 to 20)
#    0.000    0.667    6.667    0.500   11.667    0.667 
#    0.000    0.000    3.667    0.000    0.000    0.000 
#    0.000    0.000    0.000    0.000    0.000    0.000 
#
# Total GULP energy -67046.162419 kJ/mol
# GULP energy per Si atom -5587.180202 kJ/mol
# Density = 2.048428 g / cm^3
# Si number density = 20.531010 Si / 1000 Ang^3
#
#
#
# Elastic Constant Matrix: (Units=GPa)
#
#
# Indices 1 2 3 4 5 6 
#
# 1 112.6040 17.9967 51.5073 -0.0006 -1.6930 0.0000
# 2 17.9967 55.5330 35.5653 0.0000 5.3774 0.0002
# 3 51.5073 35.5653 90.8284 -0.0032 3.3468 -0.0007
# 4 -0.0006 0.0000 -0.0032 25.1492 -0.0005 -1.3964
# 5 -1.6930 5.3774 3.3468 -0.0005 39.2988 0.0002
# 6 0.0000 0.0002 -0.0007 -1.3964 0.0002 24.6457
#
#
#
# Elastic Compliance Matrix: (Units=1/GPa)
#
#
# Indices 1 2 3 4 5 6 
#
# 1 0.012050 0.000526 -0.007078 -0.000001 0.001050 0.000000
# 2 0.000526 0.024304 -0.009724 -0.000001 -0.002475 -0.000001
# 3 -0.007078 -0.009724 0.018853 0.000002 -0.000580 0.000001
# 4 -0.000001 -0.000001 0.000002 0.039888 0.000000 0.002260
# 5 0.001050 -0.002475 -0.000580 0.000000 0.025879 0.000000
# 6 0.000000 -0.000001 0.000001 0.002260 0.000000 0.040703
#
#
# Mechanical properties :
#
#
# Convention : Reuss Voigt Hill
#
# Bulk Modulus (GPa) = 44.14008 52.12267 48.13137
# Shear Modulus (GPa) = 24.77943 28.07847 26.42895
#
# Velocity S-wave (km/s) = 3.47785 3.70214 3.59175
# Velocity P-wave (km/s) = 6.13785 6.61187 6.37926
#
# Compressibility (1/GPa) = 0.02265515
#
# Stress axis : x y z
#
# Youngs Moduli (GPa) = 82.98726 41.14567 53.04302
#
# Poissons Ratio (x) = -0.02166 0.37545
# Poissons Ratio (y) = -0.04368 0.51578
# Poissons Ratio (z) = 0.58740 0.40010
#
# Static dielectric constant tensor:
#      x y z
#    x 1.726300 0.000000 -0.009650 
#    y 0.000000 1.718430 0.000000 
#    z -0.009650 0.000000 1.744010 
# 
# From -- ./inp_files/27658.got.cif
#   From: 2010.05.17/outbox.cif.g08.bks.cpg/sg5_14_cif.got.tgz:27658.got - 2010.06.03 18:56:24.
