data_PCOD9129393
_publ_section_title
;
Structure prediction by ZEFSAII (Michael W. Deem and Ramdas Pophale) SiO2 
 PCOD9129393
Probable space group: C 2
;
_chemical_formula_sum "Si O2"
_cell_formula_units_Z 26
_cell_length_a 11.108010
_cell_length_b 11.848770
_cell_length_c 8.267830
_cell_angle_alpha 90.000000
_cell_angle_beta 82.623951
_cell_angle_gamma 90.000000
_cell_volume 1079.176038
_symmetry_space_group_name_H-M "C 2"
_symmetry_group_IT_number 5
_symmetry_cell_setting 'monoclinic'
loop_
_space_group_symop_operation_xyz
x,y,z
-x,y,-z
1/2+x,1/2+y,z
1/2-x,1/2+y,-z
loop_
_atom_site_type_symbol
_atom_site_label
_atom_site_fract_x
_atom_site_fract_y
_atom_site_fract_z
Si Si1 0.817499 0.444120 0.447371
Si Si2 0.000000 0.533761 0.000000
Si Si3 0.000000 0.252734 0.500000
Si Si4 0.445944 0.632105 0.847595
Si Si5 0.741225 0.445184 0.109532
Si Si6 0.921691 0.933824 0.343437
Si Si7 0.500000 0.132667 0.500000
Si Si8 0.423289 0.244242 0.803039
O O1 0.894738 0.331445 0.447729
O O2 0.736471 0.444681 0.303803
O O3 0.720593 0.449434 0.606453
O O4 0.911120 0.547114 0.422115
O O5 0.048157 0.625566 0.121070
O O6 0.882696 0.455401 0.046064
O O7 0.056413 0.194131 0.327743
O O8 0.324990 0.563201 0.920633
O O9 0.535330 0.530508 0.784017
O O10 0.500000 0.690729 0.000000
O O11 0.671013 0.326844 0.089247
O O12 0.000000 0.942220 0.500000
O O13 0.955878 0.818724 0.246378
O O14 0.405015 0.207636 0.619171
#
# Coordination Sequence:
#
# PCOD9129393 Si02
#       8
#     4   2   2   4   4   4   2   4
#     4  11  23  44  74 105 147 196 258 314 380 479
#     4  12  28  48  74 106 158 196 250 326 386 460
#     4  11  26  45  72 110 154 201 246 325 396 448
#     4  11  25  48  72 110 149 199 258 322 386 462
#     4  11  25  48  72 109 149 196 261 313 380 476
#     4  11  21  43  74 101 138 189 257 312 374 466
#     4  11  22  43  74 106 134 193 250 309 390 452
#     4  11  24  45  72 106 138 201 243 310 393 445
#
# _framework density 24.092454
#
# number of rings (size 3 to 8) (size 9 to 14) (size 15 to 20)
#    0.000    0.923    6.154    0.000    6.462    6.154 
#    4.154    0.000    0.000    0.000    0.000    0.000 
#    0.000    0.000    0.000    0.000    0.000    0.000 
#
# Total GULP energy -72444.881058 kJ/mol
# GULP energy per Si atom -5572.683158 kJ/mol
# Density = 2.403762 g / cm^3
# Si number density = 24.092454 Si / 1000 Ang^3
#
#
#
# Elastic Constant Matrix: (Units=GPa)
#
#
# Indices 1 2 3 4 5 6 
#
# 1 128.6056 29.3900 24.6619 0.0000 -36.7393 0.0000
# 2 29.3900 91.0948 32.6815 0.0000 -11.7726 0.0000
# 3 24.6619 32.6815 71.9206 0.0000 4.3124 0.0000
# 4 0.0000 0.0000 0.0000 6.1502 0.0000 -20.8216
# 5 -36.7393 -11.7726 4.3124 0.0000 47.5185 0.0000
# 6 0.0000 0.0000 0.0000 -20.8216 0.0000 175.7125
#
#
#
# Elastic Compliance Matrix: (Units=1/GPa)
#
#
# Indices 1 2 3 4 5 6 
#
# 1 0.011293 -0.001106 -0.003898 0.000000 0.008811 0.000000
# 2 -0.001106 0.013948 -0.006148 0.000000 0.003158 0.000000
# 3 -0.003898 -0.006148 0.018407 0.000000 -0.006208 0.000000
# 4 0.000000 0.000000 0.000000 0.271530 0.000000 0.032176
# 5 0.008811 0.003158 -0.006208 0.000000 0.029203 0.000000
# 6 0.000000 0.000000 0.000000 0.032176 0.000000 0.009504
#
#
# Mechanical properties :
#
#
# Convention : Reuss Voigt Hill
#
# Bulk Modulus (GPa) = 46.85352 51.67640 49.26496
# Shear Modulus (GPa) = 13.04444 59.53541 36.28992
#
# Velocity S-wave (km/s) = 2.32940 4.97643 3.88529
# Velocity P-wave (km/s) = 5.16956 7.38347 6.37338
#
# Compressibility (1/GPa) = 0.02134311
#
# Stress axis : x y z
#
# Youngs Moduli (GPa) = 88.54944 71.69240 54.32730
#
# Poissons Ratio (x) = 0.07932 0.21177
# Poissons Ratio (y) = 0.09797 0.33402
# Poissons Ratio (z) = 0.34517 0.44079
#
# Static dielectric constant tensor:
#      x y z
#    x 1.920240 0.000000 0.000930 
#    y 0.000000 1.961730 0.000000 
#    z 0.000930 0.000000 1.976240 
# 
# From -- ./inp_files/19413.got.cif
#   From: 2010.05.17/outbox.cif.g08.bks.cpg/sg5_10_cif.got.tgz:19413.got - 2010.06.03 18:56:24.
