data_PCOD9129826
_publ_section_title
;
Structure prediction by ZEFSAII (Michael W. Deem and Ramdas Pophale) SiO2 
 PCOD9129826
Probable space group: C 2
;
_chemical_formula_sum "Si O2"
_cell_formula_units_Z 20
_cell_length_a 6.862035
_cell_length_b 13.573659
_cell_length_c 10.784846
_cell_angle_alpha 90.000000
_cell_angle_beta 64.631827
_cell_angle_gamma 90.000000
_cell_volume 907.668490
_symmetry_space_group_name_H-M "C 2"
_symmetry_group_IT_number 5
_symmetry_cell_setting 'monoclinic'
loop_
_space_group_symop_operation_xyz
x,y,z
-x,y,-z
1/2+x,1/2+y,z
1/2-x,1/2+y,-z
loop_
_atom_site_type_symbol
_atom_site_label
_atom_site_fract_x
_atom_site_fract_y
_atom_site_fract_z
Si Si1 0.978162 0.882170 0.650093
Si Si2 0.277152 0.515290 0.241874
Si Si3 0.488458 0.176911 0.790041
Si Si4 0.653490 0.664332 0.110715
Si Si5 0.002149 0.385254 0.854876
O O1 0.000897 0.783929 0.726400
O O2 0.732997 0.916994 0.739533
O O3 0.000000 0.860695 0.500000
O O4 0.156046 0.958890 0.651611
O O5 0.090508 0.597970 0.289790
O O6 0.492344 0.573535 0.144577
O O7 0.192774 0.436524 0.164671
O O8 0.708675 0.154108 0.801582
O O9 0.312464 0.172752 0.949728
O O10 0.525386 0.767602 0.150697
O O11 0.000000 0.411833 0.000000
#
# Coordination Sequence:
#
# PCOD9129826 Si02
#       5
#     4   4   4   4   4
#     4  12  28  51  72 105 152 200 242 293 363 438
#     4  12  26  46  74 106 149 189 244 302 362 426
#     4  11  24  44  73 110 148 183 239 305 369 427
#     4  11  23  44  76 113 141 184 240 308 371 421
#     4  12  25  45  75 108 145 189 243 303 363 425
#
# _framework density 22.034476000000002
#
# number of rings (size 3 to 8) (size 9 to 14) (size 15 to 20)
#    0.000    0.400    6.000    1.800    8.400    0.800 
#    7.200    0.000    0.000    0.000    0.000    0.000 
#    0.000    0.000    0.000    0.000    0.000    0.000 
#
# Total GULP energy -55977.003115 kJ/mol
# GULP energy per Si atom -5597.700312 kJ/mol
# Density = 2.198432 g / cm^3
# Si number density = 22.034476 Si / 1000 Ang^3
#
#
#
# Elastic Constant Matrix: (Units=GPa)
#
#
# Indices 1 2 3 4 5 6 
#
# 1 145.6324 37.2698 47.6137 0.0000 40.1609 0.0000
# 2 37.2698 98.7982 18.1801 0.0000 21.7899 0.0000
# 3 47.6137 18.1801 82.1183 0.0000 19.7066 0.0000
# 4 0.0000 0.0000 0.0000 5.6279 0.0000 15.5344
# 5 40.1609 21.7899 19.7066 0.0000 31.7132 0.0000
# 6 0.0000 0.0000 0.0000 15.5344 0.0000 57.1317
#
#
#
# Elastic Compliance Matrix: (Units=1/GPa)
#
#
# Indices 1 2 3 4 5 6 
#
# 1 0.011544 -0.001129 -0.003668 0.000000 -0.011563 0.000000
# 2 -0.001129 0.012084 -0.000436 0.000000 -0.006602 0.000000
# 3 -0.003668 -0.000436 0.015530 0.000000 -0.004705 0.000000
# 4 0.000000 0.000000 0.000000 0.712254 0.000000 -0.193665
# 5 -0.011563 -0.006602 -0.004705 0.000000 0.053636 0.000000
# 6 0.000000 0.000000 0.000000 -0.193665 0.000000 0.070162
#
#
# Mechanical properties :
#
#
# Convention : Reuss Voigt Hill
#
# Bulk Modulus (GPa) = 34.85516 59.18623 47.02069
# Shear Modulus (GPa) = 5.58509 33.79357 19.68933
#
# Velocity S-wave (km/s) = 1.59380 3.92046 2.99251
# Velocity P-wave (km/s) = 4.38631 6.88566 5.77287
#
# Compressibility (1/GPa) = 0.02869016
#
# Stress axis : x y z
#
# Youngs Moduli (GPa) = 86.62694 82.75471 64.39044
#
# Poissons Ratio (x) = 0.09346 0.23620
# Poissons Ratio (y) = 0.09783 0.02809
# Poissons Ratio (z) = 0.31777 0.03610
#
# Static dielectric constant tensor:
#      x y z
#    x 1.828040 0.000000 0.011650 
#    y 0.000000 1.828340 0.000000 
#    z 0.011650 0.000000 1.766220 
# 
# From -- ./inp_files/4672.got.cif
#   From: 2010.05.17/outbox.cif.g08.bks.cpg/sg5_3_cif.got.tgz:4672.got - 2010.06.03 18:56:24.
